#------------------------------------------------------------------------------
#$Date: 2021-06-05 21:59:01 +0300 (Sat, 05 Jun 2021) $
#$Revision: 266095 $
#$URL: file:///home/coder/svn-repositories/cod/cif/7/70/71/7707197.cif $
#------------------------------------------------------------------------------
#
# This file is available in the Crystallography Open Database (COD),
# http://www.crystallography.net/
#
# All data on this site have been placed in the public domain by the
# contributors.
#
data_7707197
loop_
_publ_author_name
'Liang, Shuai'
'Ge, Fa-Yuan'
'Ren, Shuang-Shuang'
'Lei, Ming-Yuan'
'Gao, Xiang-Jing'
'Zheng, He-Gen'
_publ_section_title
;
 Molecular engineering in a family of pillared-layered metal-organic
 frameworks for tuning gas adsorption behavior.
;
_journal_issue                   21
_journal_name_full
'Dalton transactions (Cambridge, England : 2003)'
_journal_page_first              7409
_journal_page_last               7416
_journal_paper_doi               10.1039/d1dt00431j
_journal_volume                  50
_journal_year                    2021
_chemical_formula_moiety         'C11 H10 Co N2 O6, 2(H2 O)'
_chemical_formula_sum            'C11 H14 Co N2 O8'
_chemical_formula_weight         361.17
_space_group_crystal_system      orthorhombic
_space_group_IT_number           61
_space_group_name_Hall           '-P 2ac 2ab'
_space_group_name_H-M_alt        'P b c a'
_atom_sites_solution_hydrogens   mixed
_audit_creation_date             2021-01-16
_audit_creation_method
;
Olex2 1.3
(compiled 2020.07.31 svn.rc2a77460 for OlexSys, GUI svn.r6145)
;
_audit_update_record
;
2021-02-01 deposited with the CCDC.	2021-04-27 downloaded from the CCDC.
;
_cell_angle_alpha                90
_cell_angle_beta                 90
_cell_angle_gamma                90
_cell_formula_units_Z            8
_cell_length_a                   17.0748(9)
_cell_length_b                   7.2456(4)
_cell_length_c                   21.3863(10)
_cell_measurement_reflns_used    6626
_cell_measurement_temperature    296.15
_cell_measurement_theta_max      27.52
_cell_measurement_theta_min      2.39
_cell_volume                     2645.9(2)
_computing_molecular_graphics    'Olex2 1.3 (Dolomanov et al., 2009)'
_computing_publication_material  'Olex2 1.3 (Dolomanov et al., 2009)'
_computing_structure_refinement  'SHELXL 2018/3 (Sheldrick, 2015)'
_computing_structure_solution    'SHELXT 2014/4 (Sheldrick, 2014)'
_diffrn_ambient_temperature      296.15
_diffrn_measured_fraction_theta_full 0.999
_diffrn_measured_fraction_theta_max 0.999
_diffrn_measurement_device_type  'Bruker APEX-II CCD'
_diffrn_measurement_method       '\f and \w scans'
_diffrn_radiation_type           MoK\a
_diffrn_radiation_wavelength     0.71073
_diffrn_reflns_av_R_equivalents  0.0599
_diffrn_reflns_av_unetI/netI     0.0326
_diffrn_reflns_Laue_measured_fraction_full 0.999
_diffrn_reflns_Laue_measured_fraction_max 0.999
_diffrn_reflns_limit_h_max       22
_diffrn_reflns_limit_h_min       -22
_diffrn_reflns_limit_k_max       9
_diffrn_reflns_limit_k_min       -8
_diffrn_reflns_limit_l_max       27
_diffrn_reflns_limit_l_min       -21
_diffrn_reflns_number            22252
_diffrn_reflns_point_group_measured_fraction_full 0.999
_diffrn_reflns_point_group_measured_fraction_max 0.999
_diffrn_reflns_theta_full        25.242
_diffrn_reflns_theta_max         27.531
_diffrn_reflns_theta_min         2.247
_exptl_absorpt_coefficient_mu    1.344
_exptl_absorpt_correction_T_max  0.7456
_exptl_absorpt_correction_T_min  0.6477
_exptl_absorpt_correction_type   multi-scan
_exptl_absorpt_process_details
;
SADABS-2014/5 (Bruker,2014/5) was used for absorption correction.
wR2(int) was 0.1183 before and 0.0579 after correction.
The Ratio of minimum to maximum transmission is 0.8687.
The \l/2 correction factor is 0.00150.
;
_exptl_crystal_density_diffrn    1.813
_exptl_crystal_description       block
_exptl_crystal_F_000             1480
_exptl_crystal_size_max          0.24
_exptl_crystal_size_mid          0.16
_exptl_crystal_size_min          0.12
_refine_diff_density_max         0.443
_refine_diff_density_min         -0.313
_refine_diff_density_rms         0.071
_refine_ls_extinction_method     none
_refine_ls_goodness_of_fit_ref   1.036
_refine_ls_hydrogen_treatment    mixed
_refine_ls_matrix_type           full
_refine_ls_number_parameters     226
_refine_ls_number_reflns         3050
_refine_ls_number_restraints     13
_refine_ls_restrained_S_all      1.034
_refine_ls_R_factor_all          0.0484
_refine_ls_R_factor_gt           0.0305
_refine_ls_shift/su_max          0.002
_refine_ls_shift/su_mean         0.000
_refine_ls_structure_factor_coef Fsqd
_refine_ls_weighting_details
'w=1/[\s^2^(Fo^2^)+(0.0260P)^2^+2.3326P] where P=(Fo^2^+2Fc^2^)/3'
_refine_ls_weighting_scheme      calc
_refine_ls_wR_factor_gt          0.0641
_refine_ls_wR_factor_ref         0.0701
_reflns_Friedel_coverage         0.000
_reflns_number_gt                2390
_reflns_number_total             3050
_reflns_threshold_expression     'I > 2\s(I)'
_cod_data_source_file            d1dt00431j2.cif
_cod_data_source_block           1
_cod_depositor_comments
'Adding full bibliography for 7707197--7707200.cif.'
_cod_database_code               7707197
_shelx_shelxl_version_number     2018/3
_shelx_space_group_comment
;
The symmetry employed for this shelxl refinement is uniquely defined
by the following loop, which should always be used as a source of
symmetry information in preference to the above space-group names.
They are only intended as comments.
;
_shelx_estimated_absorpt_t_max   0.855
_shelx_estimated_absorpt_t_min   0.739
_olex2_refinement_description
;
1. Fixed Uiso
 At 1.2 times of:
  All C(H) groups
 At 1.5 times of:
  All N(H) groups, All O(H,H) groups
2. Restrained distances
 N1-H1
 0.86 with sigma of 0.01
 O1W-H1WB = O1W-H1WA = O2W-H2WA = O2W-H2WB = H3WA-O3W = O3W-H3WB
 0.85 with sigma of 0.01
 H1WB-H1WA = H4WA-H4WB = H2WA-H2WB = H3WA-H3WB
 1.39 with sigma of 0.01
 O4W-H4WB = O4W-H4WA
 0.85 with sigma of 0.01
3.a Aromatic/amide H refined with riding coordinates:
 C3(H3), C5(H5), C7(H7), C9(H9), C11(H11)
;
_smtbx_masks_void_probe_radius   1.2
_smtbx_masks_void_truncation_radius 1.2
_shelx_res_file
;
TITL 1_a.res in Pbca
    11.res
    created by SHELXL-2018/3 at 21:47:20 on 16-Jan-2021
CELL 0.71073 17.0748 7.2456 21.3863 90 90 90
ZERR 8 0.0009 0.0004 0.001 0 0 0
LATT 1
SYMM 0.5-X,-Y,0.5+Z
SYMM -X,0.5+Y,0.5-Z
SYMM 0.5+X,0.5-Y,-Z
SFAC C H Co N O
UNIT 88 112 8 16 64
EQIV $1 1-X,1-Y,1-Z
EQIV $2 1.5-X,0.5+Y,+Z
EQIV $3 1.5-X,-0.5+Y,+Z
EQIV $4 1-X,-Y,1-Z
EQIV $5 -0.5+X,+Y,0.5-Z
EQIV $6 1-X,-0.5+Y,0.5-Z
EQIV $7 +X,0.5-Y,-0.5+Z
DFIX 0.86 0.01 N1 H1
DFIX 0.85 0.01 O1W H1Wb O1W H1Wa O2W H2Wa O2W H2Wb H3Wa O3W O3W H3Wb
DFIX 1.39 0.01 H1Wb H1Wa H4Wa H4Wb H2Wa H2Wb H3Wa H3Wb
DFIX 0.85 0.01 O4W H4Wb O4W H4Wa

L.S. 10
PLAN  5
SIZE 0.24 0.16 0.12
TEMP 23
CONF
HTAB O1W O1_$1
HTAB O1W O3_$2
HTAB O2W O3_$3
HTAB O2W O3W_$4
HTAB O3W O4W
HTAB O3W O1
HTAB O4W O4_$5
HTAB O4W O3W_$6
HTAB N1 O2_$7
BOND $H
htab
LIST 6
MORE -1
fmap 2
acta
REM <olex2.extras>
REM <HklSrc "%.\\11.hkl">
REM </olex2.extras>

WGHT    0.026000    2.332600
FVAR       0.25536
CO1   3    0.586250    0.275811    0.569925    11.00000    0.00735    0.01522 =
         0.00736    0.00028   -0.00008    0.00029
O1W   5    0.559722    0.551262    0.559405    11.00000    0.01248    0.01710 =
         0.01462    0.00271    0.00402    0.00321
H1WA  2    0.513460    0.587137    0.567073    11.00000   -1.50000
H1WB  2    0.574402    0.600370    0.525216    11.00000   -1.50000
O1    5    0.585104    0.301439    0.425333    11.00000    0.00895    0.03894 =
         0.01490   -0.00593    0.00073    0.00179
O2    5    0.671366    0.308800    0.503135    11.00000    0.01228    0.02839 =
         0.00828    0.00147    0.00094    0.00029
O2W   5    0.599652   -0.012816    0.561046    11.00000    0.01656    0.01823 =
         0.01098   -0.00170   -0.00021   -0.00118
H2WA  2    0.582656   -0.058037    0.527301    11.00000   -1.50000
H2WB  2    0.572809   -0.053671    0.591513    11.00000   -1.50000
O3    5    0.955727    0.284941    0.458078    11.00000    0.01252    0.01944 =
         0.00947   -0.00058   -0.00308    0.00066
O3W   5    0.487662    0.148490    0.340829    11.00000    0.01782    0.02205 =
         0.01701   -0.00469   -0.00087   -0.00171
H3WA  2    0.499396    0.075691    0.311798    11.00000   -1.50000
H3WB  2    0.527133    0.177425    0.362437    11.00000   -1.50000
O4    5    0.995785    0.235867    0.362392    11.00000    0.00770    0.01951 =
         0.01118   -0.00034    0.00103    0.00093
O4W   5    0.499282   -0.029715    0.231091    11.00000    0.04605    0.02187 =
         0.01582    0.00204   -0.00134    0.00489
H4WA  2    0.495005    0.054179    0.203585    11.00000   -1.50000
H4WB  2    0.506422   -0.133048    0.212925    11.00000   -1.50000
N1    4    0.750643    0.207327    0.124342    11.00000    0.01008    0.04067 =
         0.00844   -0.00565    0.00154    0.00025
H1    2    0.765207    0.184523    0.086804    11.00000   -1.50000
N2    4    0.673384    0.217746    0.137319    11.00000    0.00741    0.02286 =
         0.00946   -0.00019    0.00051   -0.00053
C1    1    0.653974    0.303632    0.445797    11.00000    0.01067    0.01378 =
         0.01237   -0.00009    0.00265    0.00050
C2    1    0.720274    0.295924    0.399685    11.00000    0.01050    0.01155 =
         0.01019    0.00087    0.00151    0.00126
C3    1    0.797535    0.291692    0.420517    11.00000    0.01257    0.01458 =
         0.00787   -0.00092   -0.00095   -0.00042
AFIX  43
H3    2    0.808431    0.297798    0.463074    11.00000   -1.20000
AFIX   0
C4    1    0.858211    0.278338    0.377584    11.00000    0.00891    0.01294 =
         0.01091   -0.00062   -0.00040   -0.00078
C5    1    0.841875    0.268277    0.313726    11.00000    0.00841    0.01536 =
         0.00995    0.00113    0.00176    0.00062
AFIX  43
H5    2    0.882878    0.259281    0.285264    11.00000   -1.20000
AFIX   0
C6    1    0.764551    0.271556    0.291971    11.00000    0.01150    0.01254 =
         0.00913    0.00058   -0.00044    0.00023
C7    1    0.704919    0.287007    0.336142    11.00000    0.00801    0.01689 =
         0.01215   -0.00051   -0.00302    0.00013
AFIX  43
H7    2    0.653216    0.291471    0.322551    11.00000   -1.20000
AFIX   0
C8    1    0.940469    0.266666    0.400618    11.00000    0.01026    0.01045 =
         0.01055    0.00232   -0.00088    0.00035
C9    1    0.794783    0.226320    0.175367    11.00000    0.00843    0.03956 =
         0.01211   -0.00359   -0.00104   -0.00031
AFIX  43
H9    2    0.849197    0.222896    0.176879    11.00000   -1.20000
AFIX   0
C10   1    0.745309    0.251882    0.225339    11.00000    0.00901    0.01564 =
         0.00986    0.00002   -0.00076    0.00046
C11   1    0.670212    0.245064    0.198699    11.00000    0.01073    0.02467 =
         0.00965   -0.00031   -0.00003    0.00020
AFIX  43
H11   2    0.623958    0.258066    0.221234    11.00000   -1.20000
AFIX   0
HKLF 4




REM  1_a.res in Pbca
REM wR2 = 0.0701, GooF = S = 1.036, Restrained GooF = 1.034 for all data
REM R1 = 0.0305 for 2390 Fo > 4sig(Fo) and 0.0484 for all 3050 data
REM 226 parameters refined using 13 restraints

END

WGHT      0.0260      2.3326

REM Instructions for potential hydrogen bonds
HTAB O1W O1_$1
HTAB O1W O3_$2
HTAB O2W O3_$3
HTAB O2W O3W_$4
HTAB O3W O4W
HTAB O3W O1
HTAB O4W O4_$5
HTAB O4W O3W_$6
HTAB N1 O2_$7
EQIV $11 x+1/2, y, -z+1/2
HTAB C9 O3W_$11

REM Highest difference peak  0.443,  deepest hole -0.313,  1-sigma level  0.071
Q1    1   0.8990  0.2705  0.3899  11.00000  0.05    0.44
Q2    1   0.8017  0.3045  0.3061  11.00000  0.05    0.34
Q3    1   0.6906  0.2929  0.4206  11.00000  0.05    0.32
Q4    1   0.7083  0.2605  0.2181  11.00000  0.05    0.31
Q5    1   0.8350  0.3168  0.3996  11.00000  0.05    0.30
;
_shelx_res_checksum              15616
_shelx_hkl_file
;
   0   1   0   -0.20    0.80
   0   1   0   -0.60    0.70
   0  -1   0    0.30    0.40
   0  -1   0    1.60    1.00
   0  -1   0    0.30    0.70
   0   1   0   -0.40    0.40
   0   3   0    2.00    2.30
   0   3   0    1.60    2.10
   0   3   0    0.40    1.10
   0  -3   0    3.20    1.80
   0  -3   0    3.50    2.80
   0   4   0 9375.96  264.47
   0   4   0 9999.00  264.97
   0   4   0 9535.25  266.77
   0   5   0    6.50    2.70
   0   6   0  761.62   26.60
   0   6   0  856.01   30.60
   0   7   0   -1.30    6.20
   0   7   0    8.50    4.30
   0   8   0   17.10    5.60
   0   8   0   26.40    9.80
   0   9   0    4.50   10.00
   0   9   0    8.70    6.40
  -1   1   0   -2.50    1.20
  -1  -1   0   -4.10    0.40
  -1   1   0   -3.40    0.50
   1   1   0   -3.10    0.40
   1   1   0   -2.90    1.10
  -1   1   0   -2.60    0.70
   1  -1   0   -3.50    0.50
   1  -1   0   -4.40    0.60
  -1  -1   0   -5.30    0.90
   1  -1   0   -2.60    1.30
  -1   2   0    0.20    2.50
  -1   2   0    0.30    1.00
   1  -2   0    1.90    2.50
  -1  -2   0   -4.30    2.30
   1   2   0   -2.80    0.90
   1   2   0   -3.50    2.30
   1  -2   0    0.70    1.00
   1  -3   0    3.30    2.30
   1  -3   0   -0.30    2.40
   1   3   0   -1.80    2.40
  -1   3   0   -1.30    1.20
  -1   3   0   -1.00    2.00
  -1   3   0   -2.40    2.70
  -1  -3   0    1.80    3.10
   1   3   0    0.80    1.20
  -1   4   0   -5.10    3.60
   1   4   0    0.30    2.90
  -1   4   0   -2.70    1.50
   1  -4   0    3.00    2.60
   1   4   0   -3.00    1.60
  -1   4   0   -1.30    2.80
  -1   5   0   -3.20    4.50
  -1   5   0    1.70    2.30
   1   5   0   -4.70    3.90
   1   5   0    0.70    2.20
  -1   5   0    0.30    3.60
  -1   6   0    1.00    3.20
   1   6   0   -1.10    5.60
  -1   6   0    0.10    4.80
   1   6   0    2.70    3.30
   1   7   0    1.40    7.00
  -1   7   0   -5.30    3.80
  -1   7   0   14.00    6.30
   1   7   0   -2.40    3.50
   1   8   0    4.70    5.00
  -1   8   0    7.60    7.80
   1   8   0   -0.10    8.80
  -1   8   0    1.90    5.20
  -1   9   0    3.40    6.00
   1   9   0  -14.20   10.10
   1   9   0    0.30    5.90
  -1   9   0   14.20   10.10
   2   0   0  246.38    9.60
   2   0   0  268.97    7.60
  -2   0   0  242.18    7.90
   2   0   0  255.57    7.90
  -2   0   0  270.07    9.00
  -2  -1   0 2364.76   64.99
  -2   1   0 2253.37   65.09
  -2  -1   0 2392.16   66.49
   2  -1   0 2389.36   67.29
   2   1   0 2307.17   64.99
   2   1   0 2339.67   66.49
  -2   1   0 2462.55   67.39
  -2  -1   0 2532.95   65.49
  -2   1   0 2272.77   64.69
   2  -1   0 2438.36   65.19
   2  -1   0 2288.87   64.69
  -2   2   0 2077.29   60.69
  -2  -2   0 2213.18   60.69
   2  -2   0 2221.88   62.89
   2  -2   0 2240.28   60.69
  -2   2   0 2086.49   60.79
  -2   2   0 2355.06   63.69
   2   2   0 2155.88   62.69
   2  -2   0 2121.79   60.79
   2   2   0 2080.19   60.59
  -2  -2   0 2238.18   62.89
   2  -3   0 1780.02   52.29
  -2   3   0 1676.43   49.99
  -2   3   0 1883.91   53.19
  -2   3   0 1714.33   50.69
   2   3   0 1720.43   49.90
   2   3   0 1760.62   52.69
   2  -3   0 1778.82   50.79
   2  -4   0    6.50    3.70
   2  -4   0    1.50    3.10
   2   4   0    2.90    2.90
   2   4   0   -2.80    1.40
  -2   4   0    9.30    4.60
  -2   4   0    1.40    1.90
   2   5   0   18.30    3.30
   2   5   0   22.30    5.80
  -2   5   0   16.40    4.10
  -2   5   0   16.30    6.20
   2   6   0   -6.40    5.20
  -2   6   0    1.80    3.30
  -2   6   0    2.10    4.40
   2   6   0    8.30    3.40
   2   7   0   10.00    8.00
  -2   7   0    8.50    4.00
   2   7   0   15.60    4.50
  -2   7   0   11.00    6.40
   2   8   0   14.00    9.10
  -2   8   0   18.00    6.20
   2   8   0   14.80    5.10
  -2   8   0   36.20    9.30
   2   9   0   44.10   12.30
  -2   9   0   36.50    7.90
   2   9   0   25.30    6.20
  -2   9   0   22.00   10.40
  -3   0   0   -0.50    0.40
   3   0   0   -0.10    1.70
  -3   0   0    0.70    1.80
   3   0   0   -1.00    0.80
   3   0   0    0.60    0.60
  -3   0   0    0.00    0.90
   3  -1   0    1.10    0.70
  -3   1   0   -0.10    2.40
   3   1   0   -0.50    1.70
  -3  -1   0   -1.90    1.50
   3   1   0   -1.80    1.50
   3  -1   0    2.10    2.20
  -3   1   0   -0.40    0.70
  -3  -1   0   -0.10    1.50
  -3  -1   0    2.10    1.00
  -3  -2   0   -0.60    1.00
   3   2   0   -1.60    0.70
   3  -2   0   -0.10    1.30
   3   2   0   -1.50    2.00
  -3  -2   0   -0.10    2.30
  -3   2   0   -1.10    0.90
   3  -2   0    1.00    2.60
  -3   2   0    3.80    3.10
  -3   2   0   -2.10    1.00
   3  -2   0   -1.40    1.10
  -3  -2   0   -0.90    1.10
   3  -3   0    0.30    2.00
  -3   3   0   -8.20    4.00
   3   3   0    0.20    2.60
  -3   3   0   -3.00    1.70
   3   3   0   -1.30    1.10
  -3   3   0    0.60    1.30
   3  -3   0    3.20    3.10
  -3   4   0    2.90    1.90
   3  -4   0    1.80    3.10
   3   4   0   -1.50    1.50
   3   4   0   -5.70    3.10
   3  -4   0    0.50    3.70
  -3   4   0   -2.10    2.30
  -3   4   0    2.80    6.20
  -3   5   0    2.00    3.20
   3  -5   0   -5.30    3.90
   3   5   0   -2.80    4.90
   3   5   0   -1.40    2.10
  -3   5   0   -1.90    2.50
  -3   6   0   -1.00    3.30
  -3   6   0   -1.10    4.00
   3   6   0   -6.60    6.10
   3   6   0   -1.90    3.10
   3   7   0    5.30    3.80
  -3   7   0    2.80    3.70
  -3   7   0    5.00    5.50
   3   7   0   -6.80    8.00
   3   8   0    6.20    9.00
   3   8   0   -1.30    4.00
  -3   8   0   -0.20    5.50
  -3   9   0    6.90    9.90
  -3   9   0    4.00    6.40
   3   9   0   -9.90    5.30
   3   9   0   16.70   12.60
   4   0   0  315.87   12.80
   4   0   0  333.27   10.00
  -4   0   0  322.87    9.80
  -4   0   0  310.37   10.70
  -4   0   0  326.07   13.00
   4   0   0  318.77   10.70
   4  -1   0   10.30    4.40
  -4   1   0    2.20    3.20
   4  -1   0    5.00    1.20
  -4   1   0    4.80    1.00
   4   1   0    0.50    2.40
  -4  -1   0    5.10    1.20
   4   1   0    4.60    1.30
  -4   1   0    4.90    1.30
  -4  -1   0    0.40    2.60
  -4  -1   0   12.20    3.20
   4   1   0    8.70    3.10
   4  -2   0   13.90    1.50
  -4  -2   0   12.40    3.40
  -4  -2   0   15.50    2.40
  -4   2   0   14.40    4.40
   4  -2   0   11.80    3.90
  -4  -2   0   11.90    1.60
   4   2   0   15.10    3.30
   4  -2   0   13.10    1.90
  -4   2   0   12.10    1.40
  -4   2   0   14.00    2.00
  -4   3   0  568.34   18.00
  -4   3   0  551.44   17.40
   4   3   0  561.44   17.60
   4   3   0  574.84   21.00
  -4   3   0  557.54   23.10
   4  -3   0  581.14   21.90
   4  -3   0  574.14   17.80
   4   4   0   80.99    4.70
  -4   4   0   84.89    5.30
   4  -4   0   84.89    8.80
   4   4   0   65.69    8.10
  -4   4   0   78.19    5.40
   4  -4   0   82.39    6.30
   4  -5   0   33.40    6.10
  -4   5   0   30.00    4.10
   4   5   0   28.30    7.10
   4  -5   0   16.80    5.90
  -4   5   0   30.80    4.60
  -4   6   0   -0.60    3.10
   4   6   0   13.00    6.90
  -4   6   0    0.30    3.60
   4   6   0    2.90    2.90
  -4   7   0  129.59   10.30
   4   7   0  111.99    8.50
  -4   7   0  123.79    9.40
   4   7   0  120.69   15.10
  -4   8   0   -2.30    6.70
  -4   8   0   -1.30    5.00
   4   8   0   -3.10    4.80
   4   8   0    4.20    9.40
   4   9   0    0.90    5.40
  -4   9   0    9.40    6.40
   4   9   0   10.70   12.60
  -5   0   0   -1.30    0.70
   5   0   0   -0.10    1.40
  -5   0   0   -1.90    2.70
  -5   0   0   -3.70    1.50
   5   0   0   -5.70    2.80
   5   0   0   -1.30    0.80
  -5  -1   0    0.10    0.90
  -5  -1   0    7.50    2.60
  -5   1   0   -1.40    0.90
   5   1   0    4.50    2.30
   5  -1   0    1.60    2.80
  -5   1   0    1.40    0.90
  -5  -1   0    0.90    2.70
   5   1   0   -0.80    1.30
  -5   1   0    0.80    3.60
   5  -1   0    0.30    1.00
  -5  -2   0   -5.40    2.30
  -5  -2   0    1.20    1.30
  -5   2   0   -0.80    1.10
   5   2   0   -4.00    1.80
  -5  -2   0    0.30    1.20
   5  -2   0    0.50    3.70
  -5   2   0    2.10    4.80
   5   2   0   -2.60    2.30
   5  -3   0    3.50    4.00
   5   3   0    1.20    1.10
  -5   3   0    1.60    1.30
   5  -3   0   -1.60    1.40
  -5   3   0   -1.90    1.40
   5   3   0   -3.40    2.60
   5  -4   0   -2.50    2.90
   5  -4   0    3.00    4.40
   5   4   0   -0.30    1.50
  -5   4   0    1.50    2.10
   5   4   0   -6.00    3.70
  -5   4   0    0.80    1.90
  -5   5   0   -4.40    2.60
   5   5   0    3.60    5.10
  -5   5   0    3.70    2.90
   5   5   0   -0.50    2.30
   5  -5   0   -5.90    4.60
   5  -5   0   -3.60    4.80
  -5   6   0   -0.20    3.30
   5   6   0   -1.70    6.50
   5   6   0   -0.20    2.90
  -5   6   0    6.50    4.00
  -5   7   0    2.10    4.30
   5   7   0    2.90    3.40
  -5   7   0    4.90    4.60
   5   7   0    2.20    8.70
   5   8   0    6.00   10.00
  -5   8   0    1.10    5.00
   5   8   0    2.20    4.90
   5   9   0   10.90   13.40
  -5   9   0    5.60    6.20
   5   9   0   -4.40    5.00
   6   0   0  369.56   15.80
  -6   0   0  363.56   11.80
   6   0   0  360.96   12.00
  -6   0   0  371.46   13.00
   6   0   0  383.96   13.00
  -6   0   0  368.86   16.30
   6  -1   0  658.73   24.00
  -6  -1   0  647.54   22.70
  -6  -1   0  608.44   19.20
   6   1   0  634.34   21.20
  -6  -1   0  615.94   21.20
   6   1   0  612.74   19.80
  -6   1   0  638.64   19.00
   6  -1   0  636.34   19.00
   6   1   0  619.04   22.00
  -6   1   0  630.44   18.70
  -6  -2   0  246.98    9.80
  -6   2   0  247.48    9.00
  -6  -2   0  250.77   11.40
   6   2   0  265.67   12.00
   6   2   0  256.77   10.50
   6  -2   0  243.38   13.70
  -6  -3   0   43.40    4.50
  -6  -3   0   35.30    3.90
  -6   3   0   31.90    3.20
   6  -3   0   30.00    6.20
   6   3   0   31.90    5.10
   6  -4   0  648.04   26.20
   6   4   0  614.54   25.20
  -6   4   0  626.44   20.90
   6  -4   0  653.73   19.50
  -6   4   0  600.94   18.90
   6   5   0   44.40    8.60
  -6   5   0   33.50    4.40
   6  -5   0   31.80    4.80
   6   5   0   27.70    3.70
   6  -5   0   55.69    9.00
  -6   5   0   53.99    5.90
   6   6   0  156.88   15.40
   6  -6   0  162.58   13.40
   6  -6   0  165.88   15.60
  -6   6   0  154.28    9.50
   6   6   0  169.58    9.00
  -6   6   0  165.98    8.70
  -6   7   0    6.80    4.20
  -6   7   0    1.00    4.50
   6   7   0    5.60    9.00
   6   7   0   -4.20    3.20
   6   8   0    2.00    4.70
  -6   8   0   15.90    5.90
   6   8   0    4.90   10.70
   6   9   0    9.30   14.20
   6   9   0    6.40    5.90
  -6   9   0  -10.00    6.30
   7   0   0    1.70    1.70
  -7   0   0    0.90    3.80
  -7   0   0    1.70    1.10
  -7   1   0    0.10    0.90
  -7  -1   0    0.70    1.30
   7   1   0    1.30    3.20
  -7  -1   0   -0.60    4.40
  -7  -1   0    2.40    3.00
   7   1   0    0.50    2.20
   7  -1   0   -4.60    3.90
   7   1   0   -0.30    1.90
  -7   1   0   -2.80    1.50
   7   2   0    5.60    3.10
  -7   2   0   -0.40    1.40
  -7  -2   0   -2.00    1.30
  -7  -2   0   -1.50    3.70
   7  -2   0    1.80    3.90
   7   2   0    5.20    3.00
  -7  -3   0    3.90    3.60
   7  -3   0    7.00    5.10
   7   3   0   -1.20    3.50
  -7   3   0    4.80    1.90
  -7  -3   0   -1.10    1.90
   7  -4   0   -0.90    6.30
  -7   4   0   -1.80    2.50
   7   4   0   -4.90    4.40
  -7  -4   0    6.00    3.30
   7   5   0   -6.30    6.20
  -7   5   0   -1.70    3.00
   7  -5   0    4.40    3.20
   7  -5   0   -2.50    7.30
  -7   6   0   -0.60    3.60
   7  -6   0    6.80    8.20
   7   6   0   -4.20    3.00
   7   6   0   -1.10    7.30
  -7   7   0   -4.40    4.30
   7   7   0   -0.70    3.60
   7   7   0   -3.60    8.40
   7   8   0   13.80   12.30
   7   8   0   -3.80    4.50
  -7   8   0   -8.40    5.60
   8   0   0  224.28   13.30
  -8   0   0  223.98    9.80
  -8   0   0  226.68    8.20
   8   0   0  219.28    9.50
   8  -1   0 1983.90   63.59
  -8   1   0 1918.31   56.99
  -8   1   0 2022.50   57.29
  -8  -1   0 2016.50   57.49
   8   1   0 2072.39   60.19
   8   1   0 2116.69   62.19
   8  -2   0  389.36   19.20
  -8   2   0  394.76   11.50
   8   2   0  412.06   16.20
  -8  -2   0  407.96   18.00
  -8   2   0  424.56   11.80
  -8  -2   0  390.06   13.80
  -8   2   0  373.36   13.20
   8   2   0  352.26   16.00
  -8  -3   0 1008.70   33.50
   8  -3   0 1018.40   38.50
   8   3   0  975.80   35.20
  -8   3   0 1057.39   31.30
  -8  -3   0 1059.59   32.60
  -8   4   0   83.09    6.50
   8   4   0   75.29   10.40
  -8  -4   0  104.89    8.20
   8  -4   0   98.49   12.50
   8  -5   0  165.38   17.20
   8   5   0  210.18   16.60
  -8  -5   0  227.68   13.80
  -8   5   0  229.88   11.30
   8  -6   0   45.30   11.10
  -8  -6   0   42.50    7.60
   8   6   0   51.19   10.80
  -8   6   0   45.50    6.30
  -8  -7   0   70.29   10.90
   8   7   0   89.59   14.50
  -8   7   0   85.39    9.80
  -8   8   0   33.20    7.10
  -8  -8   0   34.00   10.60
   8   8   0   46.00   13.50
  -9   0   0    0.80    1.20
   9   0   0   -1.80    4.20
  -9   0   0   -0.30    3.10
   9   0   0   -3.60    2.00
   9  -1   0    7.80    5.70
  -9   1   0   -0.10    1.40
   9   1   0    2.00    2.70
  -9   1   0   -4.40    2.00
  -9  -1   0   -1.10    1.30
   9   1   0    1.10    4.00
   9   2   0   -3.50    3.40
  -9  -2   0    0.60    1.50
   9   2   0   -4.00    3.70
   9  -2   0    2.60    5.90
  -9   2   0    1.60    1.40
  -9   2   0    0.00    1.80
  -9  -3   0    0.70    5.90
   9   3   0   -4.90    4.40
   9  -3   0   -5.20    6.60
  -9  -3   0   -1.60    2.20
  -9   3   0    1.30    2.50
   9  -4   0   12.30    8.90
  -9  -4   0    6.10    3.50
  -9   4   0   -3.50    2.70
   9   4   0   -2.60    5.10
   9   5   0    7.70    7.40
  -9   5   0   -1.80    3.30
  -9  -5   0   -1.80    4.90
   9  -5   0   -6.90    7.90
   9   6   0    5.70    8.00
   9  -6   0   -5.50    9.70
  -9  -6   0  -12.60    5.80
  -9   6   0   -5.30    3.70
   9   7   0    7.30    9.80
  -9   7   0   -5.70    4.60
  -9  -7   0   -5.20    7.10
   9   8   0   10.00   12.80
  -9  -8   0   11.40   10.20
  -9   8   0    7.20    6.60
  10   0   0  521.75   23.70
  10   0   0  500.15   18.40
 -10   0   0  538.25   17.00
 -10  -1   0 2990.80   82.79
  10   1   0 2881.81   85.59
  10   1   0 3012.00   88.79
  10  -1   0 2935.41   90.79
 -10   1   0 2818.02   82.39
 -10   1   0 2965.80   83.09
 -10   2   0    3.60    2.20
  10   2   0    4.80    4.30
 -10   2   0    6.50    1.80
  10   2   0   -0.20    3.90
 -10  -2   0    1.90    1.80
  10  -2   0    8.50    7.80
 -10   3   0 1128.89   32.80
  10   3   0 1025.30   37.60
  10  -3   0 1007.90   41.40
 -10  -4   0   87.39   10.50
  10   4   0   69.39   10.20
 -10   4   0   69.89    6.70
  10  -4   0   74.99   12.30
 -10  -4   0   81.09    7.60
  10   5   0  107.69   13.20
  10  -5   0  146.99   18.90
 -10   5   0  108.19    8.70
 -10  -5   0  114.99   10.40
  10   6   0   33.80   11.00
  10  -6   0   16.70   11.40
 -10  -6   0    5.80    6.70
 -10   6   0   10.80    4.80
 -10  -7   0   33.40    8.70
 -10   7   0   42.50    7.50
  10   7   0   38.10   11.50
 -10   8   0   21.80    7.50
  10   8   0    4.70   12.10
 -10  -8   0   -7.80    9.40
  11   0   0    2.20    2.70
 -11   0   0   -1.10    1.80
  11   0   0    7.20    6.00
 -11  -1   0    6.30    1.90
 -11   1   0    6.50    3.30
  11   1   0   -1.90    5.50
  11  -1   0   11.30    8.20
  11   1   0    1.90    3.30
 -11   1   0    1.30    1.90
  11   2   0   -3.90    4.10
 -11   2   0   -0.70    2.20
  11   2   0    4.70    4.50
 -11   2   0    3.20    2.20
 -11  -2   0    0.80    2.20
  11  -2   0   -1.70    8.30
  11  -3   0   -2.40    8.60
 -11   3   0   -1.30    2.60
  11   3   0   -6.30    5.50
 -11  -3   0    1.20    2.90
  11   4   0    3.50    7.00
  11  -4   0    2.50   10.50
 -11  -4   0    3.70    3.60
 -11  -4   0    8.10    7.90
 -11   4   0    4.40    3.40
 -11   5   0   -0.70    3.70
 -11  -5   0    5.50    5.20
  11  -5   0    1.10   11.00
  11   5   0    4.30    8.30
 -11  -6   0   -1.30    6.40
  11   6   0   -1.40    9.30
 -11   6   0   -0.30    3.90
  11  -6   0   -9.40   11.20
 -11  -7   0   -1.90    7.70
  11   7   0    4.70   11.40
 -11   7   0    6.70    5.80
 -11   8   0   -1.70    7.30
  11   8   0   11.30   13.60
 -11  -8   0   -7.90   10.70
  12   0   0 3986.30  118.29
 -12   0   0 3839.22  108.89
  12   0   0 3838.32  110.99
  12   1   0  232.08   16.40
 -12  -1   0  221.78    9.50
 -12   1   0  215.38    9.50
 -12   1   0  222.08   11.00
  12  -1   0  220.98   18.80
  12   1   0  217.68   12.30
  12   2   0 1548.45   49.80
 -12   2   0 1440.36   44.10
  12   2   0 1498.85   49.00
  12  -2   0 1429.16   54.19
 -12  -2   0 1512.05   44.70
 -12   2   0 1501.25   42.90
  12  -3   0  139.59   17.30
 -12  -3   0  105.09    7.60
  12   3   0  118.99   11.90
 -12   3   0  119.39    7.50
  12  -4   0  738.93   35.60
 -12   4   0  762.42   25.80
  12   4   0  785.62   32.40
 -12  -4   0  731.13   26.60
 -12  -5   0  195.48   12.90
  12   5   0  232.58   18.30
 -12   5   0  212.88   11.80
  12  -5   0  185.18   21.60
 -12  -6   0  104.09   11.20
  12   6   0  112.59   15.20
 -12   6   0  106.99   10.10
  12  -6   0  113.19   16.90
  12   7   0   19.70   13.70
 -12  -7   0   35.20   10.10
 -12   7   0   37.40    7.60
  13   0   0    2.40    8.20
 -13   0   0    0.60    2.30
  13   1   0    2.00    7.80
 -13  -1   0   -3.00    2.50
  13   1   0   -1.00    4.10
  13  -1   0   -6.70    9.00
 -13   1   0   -4.10    2.30
  13   2   0  -10.20    6.00
 -13  -2   0   -0.10    2.70
  13  -2   0    6.80    9.90
  13   2   0   -5.20    5.70
 -13   2   0   -1.30    3.00
 -13   2   0   -0.60    2.90
 -13  -3   0    2.10    3.10
 -13   3   0    2.80    3.50
  13  -3   0   -8.60   10.40
  13   3   0   -2.40    6.80
  13   4   0    8.70    8.00
 -13  -4   0    2.40    3.80
  13  -4   0   23.60   11.70
 -13   4   0    3.20    4.00
 -13   5   0    2.50    4.70
  13   5   0   -4.90    7.60
  13  -5   0    3.50   10.90
 -13  -5   0   -0.80    4.90
 -13  -6   0    0.40    6.10
 -13   6   0    2.80    5.00
  13  -6   0  -13.40   12.30
 -13  -7   0    8.70    9.00
 -13   7   0    1.70    6.50
  13   7   0   13.70   12.40
  14   0   0  200.08   18.70
 -14   0   0  191.78    9.30
  14   1   0 1681.73   58.09
  14   1   0 1710.93   53.19
 -14  -1   0 1614.64   49.00
  14  -1   0 1615.34   60.59
 -14   1   0 1626.84   48.90
 -14   2   0   68.29    6.00
  14   2   0   51.19   10.30
 -14   2   0   56.39    6.20
  14   2   0   55.49    9.10
 -14  -2   0   53.49    6.00
  14  -2   0   63.39   14.50
 -14   3   0  824.02   27.10
 -14  -3   0  809.62   27.40
  14   3   0  824.32   33.00
  14  -3   0  763.62   38.10
  14   4   0   23.30    8.80
  14  -4   0   20.40   12.50
 -14  -4   0   13.10    5.00
 -14   4   0   18.20    4.90
 -14  -5   0  362.46   17.20
 -14   5   0  354.46   16.30
  14   5   0  334.27   23.50
  14  -5   0  332.77   28.30
 -14  -6   0   16.20    7.30
  14  -6   0   13.80   14.30
 -14   6   0   15.30    6.20
  14   6   0   11.10   11.20
  14   7   0   29.50   14.70
 -14   7   0   -3.40    6.30
 -14  -7   0   10.90    8.60
 -15   0   0   -3.10    3.00
  15   0   0   -1.70    9.70
 -15  -1   0   -1.10    3.20
  15  -1   0    9.70   10.00
  15   1   0    8.00    9.20
 -15   1   0    1.20    3.10
  15   1   0   12.10    6.00
 -15   2   0    5.40    4.10
 -15  -2   0   -3.40    3.30
 -15   2   0    3.60    3.60
  15   2   0    1.60    8.20
  15  -2   0  -14.60   10.30
  15   2   0    4.20    6.70
  15   3   0    0.10    7.50
 -15   3   0   -3.00    3.40
 -15  -3   0    3.10    4.30
  15  -3   0   10.50   12.00
  15  -4   0    3.40   12.70
 -15   4   0    5.00    4.50
  15   4   0    7.10    9.50
 -15  -4   0    4.70    4.60
  15  -5   0   21.00   14.20
 -15  -5   0   -3.20    5.30
 -15   5   0    8.70    5.40
  15   5   0    3.60   11.00
  15   6   0   13.30   12.70
 -15  -6   0   -0.90    7.30
 -15   6   0    3.30    6.20
 -16   0   0  186.88    9.90
  16   0   0  171.38   21.40
 -16  -1   0   38.50    5.20
  16  -1   0   65.09   15.10
  16   1   0   49.90   12.30
 -16   1   0   39.50    5.10
  16   2   0  278.57   21.20
 -16  -2   0  291.17   13.00
  16   2   0  273.87   17.80
 -16   2   0  262.77   12.60
  16  -2   0  253.97   25.30
 -16  -3   0   50.79    6.90
  16   3   0   51.99   10.60
 -16   3   0   54.19    6.40
  16  -3   0   72.29   15.80
  16  -4   0   97.89   17.80
 -16   4   0   70.99    7.90
  16   4   0   98.19   14.80
 -16  -4   0   90.79    9.50
 -16  -5   0   71.19    9.10
  16  -5   0   49.50   16.40
  16   5   0   73.49   15.10
 -16   5   0   65.89    8.40
 -16  -6   0  -15.80    6.80
 -16   6   0    5.00    6.30
  16   6   0    4.50   13.20
 -17   0   0   -0.50    3.40
  17   0   0    8.10   10.80
 -17   1   0   -5.50    3.50
  17  -1   0  -29.70   10.30
  17   1   0    1.00   10.60
 -17  -1   0    3.30    3.90
  17  -2   0   -2.00   12.00
 -17  -2   0   -1.20    4.10
  17   2   0   -4.80    7.40
 -17   2   0    3.60    3.90
  17  -3   0   -1.70   12.50
 -17  -3   0   -4.60    4.10
 -17   3   0    5.60    4.10
  17   3   0   -4.70    8.30
 -17  -4   0   -1.60    5.20
  17  -4   0   -4.70   13.60
 -17   4   0    0.90    5.40
  17   4   0    3.00    9.50
  17  -5   0   -4.60   14.70
 -17  -5   0   -1.30    6.10
  17   5   0  -10.10   11.10
 -17   5   0   -6.00    5.90
 -17  -6   0   10.20    8.00
 -17   6   0   -8.30    6.90
  17   6   0  -16.60   13.70
 -18   0   0   98.49    8.10
  18   0   0   97.49   16.50
 -18  -1   0   23.80    5.10
 -18   1   0   20.50    5.10
  18   1   0   20.90   11.90
  18  -1   0   26.30   12.50
  18  -2   0  328.07   28.80
 -18  -2   0  342.57   15.10
 -18   2   0  328.97   15.10
  18  -3   0  -13.80   13.60
 -18  -3   0   -7.70    4.50
  18   3   0   10.00   10.00
 -18   3   0    0.90    4.90
 -18  -4   0   64.99    8.30
 -18   4   0   62.19    8.40
  18   4   0   67.89   14.70
  18  -4   0   41.80   16.60
  18  -5   0   -3.00   16.90
  18   5   0    5.10   12.40
 -18  -5   0    1.80    6.70
 -18   5   0   -8.00    5.80
 -19   0   0   -3.70    4.20
  19   0   0   -4.10   12.20
 -19  -1   0   -5.40    4.20
 -19   1   0   -2.10    4.10
  19  -1   0    4.40   13.60
  19  -2   0   11.30   14.70
 -19   2   0    8.10    5.10
 -19  -2   0   -5.30    4.60
  19  -3   0    7.50   14.60
 -19   3   0   -5.40    4.90
 -19  -3   0   -0.90    5.30
 -19   4   0   -5.00    5.80
  19   4   0    9.40   12.40
  19  -4   0  -21.90   15.80
 -19  -4   0   -5.20    5.60
  20   0   0  145.39   21.50
 -20   0   0  172.38   11.50
 -20   1   0  349.47   16.50
 -20  -1   0  383.16   16.70
  20  -1   0  338.47   31.40
 -20   2   0   13.80    5.60
 -20  -2   0    9.50    5.60
  20  -2   0   31.40   16.10
  20  -3   0  135.99   23.40
 -20   3   0  107.49   11.00
 -20  -3   0  131.59   11.60
 -20   4   0   75.39    9.60
 -20  -4   0   77.59    9.40
 -21   0   0    4.50    5.50
 -21  -1   0    1.60    5.30
 -21   1   0    6.80    5.90
 -21   2   0   -1.50    5.90
 -21  -2   0    5.30    6.00
  21  -2   0  -13.40   15.80
 -21  -3   0  -11.60    6.30
 -21   3   0    5.30    6.00
 -22   0   0   80.69    8.90
 -22  -1   0  792.32   29.50
 -22   1   0  827.62   29.90
   0   1   1   -0.70    0.40
   0   1  -1   -1.60    0.70
   0   1  -1   -0.70    0.50
   0  -1  -1   -0.20    0.50
   0  -1   1   -0.10    0.50
   0  -1   1   -0.40    0.90
   0   1   1   -2.90    0.90
   0  -1   1    0.20    0.80
   0  -1  -1   -3.30    1.10
   0   2   1   -2.00    2.20
   0   2   1   -4.90    2.50
   0  -2  -1   -6.10    3.00
   0  -2   1    0.70    1.10
   0  -2   1   -4.50    2.10
   0   2  -1    0.80    1.10
   0  -2   1    3.90    2.20
   0   2  -1   -4.30    1.60
   0   3  -1    0.50    1.20
   0   3   1   -1.70    1.10
   0  -3   1    4.00    2.70
   0   3   1    2.60    2.20
   0  -3  -1    1.60    2.90
   0  -3   1   -1.40    2.20
   0   3  -1    1.60    2.10
   0   3   1    2.50    2.50
   0  -4   1   52.99    5.00
   0   4  -1   48.30    3.80
   0   4  -1   50.39    5.90
   0   4   1   50.19    3.70
   0   4   1   43.70    5.70
   0   4   1   40.90    5.40
   0   5   1    2.00    2.40
   0   5   1   -2.90    3.50
   0   5   1    4.00    3.70
   0   6   1   41.00    7.70
   0   6  -1   48.30    5.90
   0   6   1   42.80    5.40
   0   6  -1   51.89    8.00
   0   7  -1    2.80    3.50
   0   7   1   -4.60    6.50
   0   7  -1   10.30    6.60
   0   7   1    1.40    4.00
   0   8  -1   -0.90    8.00
   0   8  -1    1.70    4.60
   0   8   1    5.40    8.80
   0   8   1   10.50    5.00
   0   9   1   -6.20    5.70
   0   9  -1   -3.80    5.80
   0   9   1   -0.80   10.20
   0   9  -1    2.10    9.90
  -1   1  -1   72.19    2.90
  -1   1  -1   76.39    4.20
  -1  -1   1   79.19    2.90
  -1  -1   1   72.29    3.60
  -1   1  -1   72.79    2.90
   1   1   1   78.99    2.80
   1  -1  -1   78.89    3.60
   1   1   1   68.69    3.90
   1  -1  -1   69.99    2.80
  -1  -1  -1   75.59    2.80
  -1  -1  -1   76.59    4.00
   1  -1   1   75.59    3.00
  -1   1   1   66.99    3.40
   1  -1   1   73.09    2.90
   1  -1   1   75.69    4.30
  -1   1   1   71.89    2.80
   1   1  -1   71.29    2.80
  -1   1   1   67.69    3.70
   1   1  -1   70.69    3.70
   1   2   1 2040.80   60.59
  -1  -2   1 2132.99   58.89
   1  -2  -1 2096.69   59.79
   1  -2  -1 2036.40   59.69
  -1   2  -1 2055.09   58.89
   1  -2  -1 2163.38   58.89
  -1   2  -1 2030.80   59.39
  -1  -2   1 2189.88   60.59
  -1  -2   1 2249.57   58.69
  -1   2  -1 2169.18   60.69
   1   2   1 2035.60   58.79
   1   2   1 2127.99   58.19
   1  -2   1 2157.08   60.69
  -1   2   1 2154.88   60.29
  -1  -2  -1 2146.19   60.69
   1   2  -1 2146.79   60.59
  -1   2   1 2026.60   58.79
   1  -2   1 2150.38   59.59
  -1   2   1 2056.19   59.79
   1   2  -1 2090.79   58.89
   1  -2   1 2103.39   58.89
  -1   3  -1  320.57   12.20
   1   3   1  323.27   13.40
  -1   3  -1  340.47   11.40
  -1  -3   1  310.17   13.30
  -1   3  -1  335.27   13.00
   1   3   1  353.56   11.30
   1  -3  -1  320.67   12.50
  -1  -3   1  330.57   10.80
   1   3   1  346.77   10.80
  -1  -3  -1  321.67   13.60
  -1   3   1  322.47   12.60
  -1   3   1  348.77   13.10
   1   3  -1  320.77   13.10
  -1   3   1  333.57   11.30
   1  -3   1  341.27   12.50
   1   3  -1  341.87   11.30
   1  -3   1  340.57   12.90
   1   4   1 2387.66   65.99
  -1   4  -1 2360.46   68.79
  -1   4  -1 2390.36   68.89
  -1  -4   1 2312.17   65.69
   1   4   1 2290.07   66.89
  -1   4  -1 2327.07   67.09
   1   4   1 2334.47   69.89
   1   4  -1 2381.86   69.79
   1   4  -1 2347.57   67.09
  -1   4   1 2315.47   67.09
  -1   4   1 2360.76   68.99
  -1   4   1 2415.86   68.99
   1  -4   1 2423.06   68.49
   1   5   1  209.98    9.60
  -1   5  -1  214.78   11.30
   1   5   1  221.48   12.60
  -1   5  -1  209.58    9.60
   1  -5   1  216.18   10.50
  -1   5   1  214.58   11.80
   1   5  -1  225.68    9.70
   1   5  -1  216.38   12.60
  -1   5   1  214.28    9.50
  -1   5   1  218.98   11.40
  -1   6  -1 1067.39   35.50
   1   6   1 1011.70   32.90
  -1   6  -1 1021.90   33.10
   1   6   1 1047.00   37.10
  -1   6   1 1049.59   33.20
   1   6  -1 1054.79   37.00
   1   6  -1  998.10   32.80
  -1   6   1 1037.90   35.90
  -1   7  -1  367.46   15.80
   1   7   1  363.16   15.50
   1   7   1  351.46   20.30
  -1   7  -1  374.86   18.30
   1   7  -1  347.07   19.70
  -1   7   1  349.67   15.50
   1   7  -1  347.87   15.40
  -1   7   1  350.06   18.60
   1   8   1  326.77   15.70
  -1   8  -1  316.27   15.90
   1   8   1  332.47   21.40
  -1   8  -1  334.47   19.90
   1   8  -1  333.77   16.20
  -1   8   1  318.07   19.70
   1   8  -1  337.17   21.10
  -1   8   1  327.17   16.10
   1   9   1   25.80    6.80
  -1   9  -1   30.50   11.10
  -1   9  -1   25.50    7.00
   1   9   1   34.70   12.90
  -1   9   1   12.90    6.80
   1   9  -1   31.00   11.70
  -1   9   1   50.89   11.30
   1   9  -1   22.70    6.50
   2   0   1   -5.70    0.30
  -2   0  -1   -7.20    0.60
  -2   0  -1   -6.30    0.20
  -2   0   1   -6.20    0.30
   2   0  -1   -6.00    0.90
   2   0  -1   -6.40    0.30
  -2   0  -1   -6.60    1.10
  -2   0   1   -5.70    1.00
   2   0   1   -4.30    1.20
   2   1   1   -1.10    0.90
  -2   1  -1    0.90    1.70
  -2  -1   1   -1.10    1.20
   2   1   1   -0.60    0.40
   2  -1  -1   -0.50    0.70
   2  -1  -1    1.20    0.60
   2  -1  -1   -0.20    1.40
  -2   1  -1    0.10    0.60
  -2  -1   1    0.30    0.50
   2   1   1   -0.40    1.40
   2  -1   1    0.60    0.60
  -2   1   1    2.70    0.90
  -2  -1  -1   -0.40    1.30
  -2   1   1   -0.70    0.60
  -2   1   1   -1.70    1.60
   2   1  -1   -1.00    1.20
   2  -1   1   -0.10    1.80
   2  -1   1    0.30    0.40
  -2  -1  -1    0.20    0.40
   2   2   1   79.69    5.50
   2   2   1   85.29    3.60
  -2   2  -1   85.09    3.90
   2  -2  -1   90.29    4.80
   2  -2  -1   86.29    3.80
  -2  -2   1   80.79    3.80
  -2   2  -1   82.89    4.00
  -2   2  -1   85.99    6.50
  -2  -2   1   85.79    5.50
  -2   2   1   77.49    4.40
   2   2  -1   84.39    3.80
  -2  -2  -1   81.39    5.80
  -2   2   1   89.89    6.40
  -2  -2  -1   88.99    3.70
  -2   2   1   83.29    3.80
   2  -2   1   86.19    4.10
   2  -2   1   88.29    3.90
   2   2  -1   77.59    5.30
   2  -2   1   87.39    5.90
   2   3   1   83.19    6.30
   2  -3  -1   82.09    5.60
   2   3   1   85.99    4.20
  -2   3  -1   88.19    5.10
  -2   3  -1   89.19    4.40
   2  -3  -1   89.79    6.00
  -2   3  -1   78.09    7.10
  -2   3   1   79.99    4.40
   2  -3   1   90.69    7.20
   2   3  -1   84.89    4.40
  -2   3   1   96.79    7.20
  -2   3   1   87.49    5.40
   2  -3   1   83.09    5.10
   2   3  -1   80.69    6.50
  -2   4  -1  262.07   13.40
   2   4   1  288.27   13.40
   2   4   1  276.47   10.30
  -2   4  -1  298.57   11.70
   2  -4  -1  274.27   12.50
  -2   4  -1  280.67   10.60
   2   4  -1  281.07   13.00
   2  -4   1  297.17   13.00
   2   4  -1  261.87   10.30
   2  -4   1  276.87   11.90
  -2   4   1  265.17   11.70
  -2   4   1  274.47   10.70
  -2   4   1  292.37   14.10
  -2   5  -1   70.19    6.80
  -2   5  -1   79.39    9.40
   2   5   1   88.79    8.90
   2   5   1   72.49    5.40
   2   5  -1   76.29    5.70
  -2   5   1   79.49    9.30
   2   5  -1   78.19    8.90
  -2   5   1   88.39    7.10
  -2   5   1   78.99    6.00
   2  -5   1   70.39    8.00
   2   6   1   -3.70    6.00
   2   6   1   -0.50    3.20
  -2   6  -1   -4.70    3.00
  -2   6  -1   -6.30    4.10
  -2   6   1   -9.50    4.40
  -2   6   1    0.70    7.10
  -2   6   1    1.40    3.50
   2   6  -1   -0.70    5.70
   2   6  -1   -5.00    3.10
   2   7   1  148.09    9.60
   2   7   1  144.49   14.80
  -2   7  -1  148.39   12.50
  -2   7  -1  160.88   10.40
  -2   7   1  150.48    9.70
   2   7  -1  147.39    9.70
  -2   7   1  154.68   13.00
   2   7  -1  140.19   14.50
  -2   8  -1   50.19   10.00
  -2   8  -1   40.10    7.10
   2   8   1   20.40   10.00
   2   8   1   43.70    7.00
   2   8  -1   56.99   11.20
  -2   8   1   60.89    9.90
  -2   8   1   45.30    6.90
   2   8  -1   51.39    7.40
   2   9   1   54.19   13.70
   2   9   1   76.59    9.40
  -2   9  -1   52.99    8.10
   2   9  -1   64.29    8.40
  -2   9   1   70.69    9.40
   2   9  -1   61.99   13.60
  -2   9   1   69.39   11.90
  -3   0  -1   -4.60    0.40
  -3   0   1   -4.50    0.50
   3   0  -1   -4.50    0.50
  -3   0   1   -4.50    0.90
   3   0   1   -3.40    1.80
  -3   0  -1   -4.90    1.70
   3   0   1   -4.90    0.90
  -3   0  -1   -5.10    1.00
   3   0   1   -4.10    0.40
   3   1   1    3.80    2.00
   3  -1  -1    8.70    2.90
  -3   1  -1    3.90    0.90
  -3  -1   1    4.30    1.80
  -3  -1   1    4.90    1.80
  -3   1  -1    4.90    2.90
   3   1   1    5.60    2.30
   3  -1  -1    6.20    1.00
  -3  -1   1    5.40    1.20
   3   1  -1    2.60    1.80
   3   1  -1    5.90    1.30
  -3  -1  -1    6.90    2.30
  -3   1   1    6.40    1.10
   3  -1   1    4.90    2.60
  -3  -1  -1    6.40    1.10
  -3  -1  -1    3.00    0.70
  -3  -1  -1    7.50    2.00
  -3   1   1    1.60    2.30
   3  -1   1    7.00    1.10
  -3   1   1    4.40    1.20
   3   2   1   99.89    4.10
  -3   2  -1   94.59    4.30
  -3  -2   1  102.19    4.30
   3  -2  -1  104.59    4.40
   3   2   1   99.09    4.30
   3   2   1  103.29    6.60
  -3  -2   1  101.79    4.30
   3  -2  -1   92.29    6.80
  -3  -2   1  100.79    6.30
  -3   2  -1   92.69    7.40
  -3   2  -1   97.89    3.80
   3  -2  -1  106.59    4.60
  -3   2   1  104.59    7.30
   3  -2   1  111.39    7.60
  -3   2   1   93.99    4.30
   3  -2   1  103.99    4.50
   3   2  -1  100.89    4.20
   3   2  -1  108.99    6.50
  -3  -2  -1  107.19    4.30
  -3  -2  -1  105.39    6.80
   3  -2   1   98.19    4.00
  -3   2   1   96.69    4.50
  -3   3  -1  795.92   23.80
   3  -3  -1  780.82   26.30
   3   3   1  785.82   23.50
  -3   3  -1  785.92   23.90
   3   3   1  787.72   26.80
   3  -3  -1  791.42   24.40
  -3   3  -1  801.52   28.00
   3  -3   1  783.02   27.30
   3  -3   1  778.02   23.80
  -3   3   1  801.42   27.40
   3   3  -1  791.72   26.70
   3   3  -1  776.62   23.60
  -3   3   1  780.92   23.80
  -3   3   1  782.82   24.10
   3   4   1  541.45   17.60
  -3   4  -1  516.35   18.10
   3   4   1  540.45   21.30
   3  -4  -1  552.54   20.30
  -3   4  -1  526.35   22.50
   3  -4  -1  546.65   19.30
  -3   4  -1  561.64   18.00
   3   4  -1  532.05   17.70
  -3   4   1  541.75   18.60
   3  -4   1  547.25   21.20
   3   4  -1  529.75   21.00
  -3   4   1  535.15   22.90
   3  -4   1  571.64   18.60
  -3   4   1  512.75   17.70
  -3   5  -1  107.99    7.20
   3   5   1  101.29    6.10
  -3   5  -1   84.49    6.00
   3   5   1   88.59    9.90
  -3   5   1   92.59    7.10
  -3   5   1  101.09    6.70
   3   5  -1   72.59    5.50
   3   5  -1   82.09   10.00
   3  -5   1   98.19    9.40
  -3   6  -1  273.87   12.20
  -3   6  -1  260.27   12.90
   3   6   1  256.57   16.80
   3   6   1  255.97   11.80
   3   6  -1  254.37   16.30
  -3   6   1  259.67   12.30
  -3   6   1  265.37   13.20
   3  -6   1  280.47   14.20
   3   6  -1  263.87   11.90
  -3   7  -1    6.40    5.30
   3   7   1   12.80    4.10
   3   7   1   15.70    8.20
  -3   7  -1    3.20    4.20
   3   7  -1    7.10    4.10
  -3   7   1    7.50    6.30
   3   7  -1   16.60    8.40
  -3   7   1    8.20    3.90
   3   8   1  183.28   18.20
  -3   8  -1  172.68   12.50
  -3   8  -1  174.08   14.80
   3   8   1  194.48   12.00
  -3   8   1  196.58   15.20
   3   8  -1  192.18   12.00
  -3   8   1  181.18   12.70
   3   8  -1  203.88   18.60
   3   9   1   -7.70   11.90
   3   9   1   -0.70    5.70
  -3   9  -1   10.90    6.80
   3   9  -1   -0.10    5.50
   3   9  -1   -5.30   12.20
  -3   9   1    2.40    9.60
  -3   9   1   -3.40    5.70
  -4   0  -1   -2.40    0.70
   4   0  -1   -1.50    0.80
  -4   0   1   -4.50    3.00
   4   0   1   -0.70    3.50
   4   0  -1   -5.70    3.20
   4   0   1   -3.70    0.60
  -4   0  -1   -4.80    3.00
  -4   0   1   -3.00    0.70
  -4   0  -1   -4.70    1.80
  -4   0   1   -7.60    1.40
   4   0  -1   -4.70    1.50
   4   1   1    3.10    1.20
  -4  -1   1   -1.70    2.40
   4  -1  -1    3.30    1.10
   4  -1  -1    2.80    4.10
  -4  -1   1    1.80    2.90
   4   1   1    1.70    3.10
   4   1   1    0.50    3.00
  -4  -1   1    0.50    0.90
  -4   1  -1    6.60    3.90
  -4   1  -1    3.00    1.20
  -4  -1  -1    2.80    1.00
   4   1  -1    2.50    1.20
   4   1  -1    2.80    2.50
  -4   1   1    8.00    4.40
  -4  -1  -1   -2.50    3.10
   4  -1   1    5.20    4.10
  -4   1   1    4.00    1.30
   4  -1   1    3.80    1.10
  -4  -1  -1    2.20    2.80
   4   1  -1   -1.20    2.30
  -4   2  -1   30.10    2.50
  -4  -2   1   28.10    2.50
   4  -2  -1   33.40    2.50
  -4  -2   1   33.20    3.50
  -4  -2   1   37.50    3.50
   4   2   1   30.20    4.10
   4  -2  -1   37.90    5.10
   4   2   1   31.40    3.50
   4  -2  -1   28.90    2.60
  -4  -2   1   26.70    4.20
  -4   2  -1   34.60    5.60
  -4   2   1   28.80    5.00
   4   2  -1   25.10    3.70
  -4   2   1   29.30    2.50
  -4   2   1   28.60    2.40
  -4  -2  -1   24.80    4.40
   4  -2   1   35.90    5.60
   4  -2   1   29.00    2.60
  -4  -2  -1   35.80    2.30
   4   3   1   17.30    1.90
   4  -3  -1   20.60    3.00
  -4   3  -1   14.50    2.00
   4   3   1   15.60    3.80
  -4   3  -1    2.20    5.80
   4  -3  -1   19.60    4.40
  -4   3  -1   16.10    2.30
   4   3  -1   10.60    1.70
  -4   3   1   13.10    5.60
  -4   3   1   17.30    2.60
  -4   3   1   17.30    2.40
   4   3  -1    9.60    3.70
   4  -3   1   18.90    5.10
   4  -3   1   24.90    3.00
  -4   4  -1   50.99    4.20
   4  -4  -1   58.99    6.00
   4   4   1   44.10    6.60
   4  -4  -1   57.79    7.10
   4   4   1   47.80    3.80
  -4   4  -1   52.79    4.50
   4   4  -1   55.89    4.10
  -4   4   1   59.59    4.70
   4  -4   1   55.29    5.20
  -4   4   1   49.90    4.80
   4   4  -1   55.99    7.50
   4  -4   1   65.69    8.40
  -4   5  -1   22.80    3.90
   4   5   1   27.10    3.40
  -4   5  -1   24.70    4.20
   4   5   1   36.00    7.60
  -4   5   1   21.90    3.80
  -4   5   1   25.20    4.30
   4  -5   1   30.40    6.40
   4   5  -1   21.60    6.90
   4   5  -1   28.50    3.70
   4  -5   1   29.40    5.80
  -4   6  -1   87.59    7.10
   4   6   1   70.39    6.30
  -4   6  -1   76.29    6.90
   4   6   1   87.19   11.50
   4   6  -1   75.09   10.60
   4  -6   1   77.59    9.00
   4   6  -1   64.69    6.00
  -4   6   1   75.19    7.60
  -4   6   1   77.09    7.20
  -4   7  -1   66.99    8.90
  -4   7  -1   61.19    7.20
   4   7   1   60.39    6.40
   4   7   1   35.70   10.60
  -4   7   1   64.29    7.30
   4   7  -1   62.79   10.90
  -4   7   1   58.89    7.80
   4   7  -1   59.29    6.50
   4   8   1   -1.00    4.30
  -4   8  -1    8.30    5.90
   4   8   1   -4.40   10.00
   4   8  -1    4.20    4.90
  -4   8   1    3.30    5.20
   4   8  -1   10.10   10.20
  -4   8   1    4.90    6.80
   4   9   1   21.10   12.90
  -4   9  -1   15.60    6.60
   4   9   1    3.80    5.10
   4   9  -1    9.90   12.60
  -4   9   1   17.00    7.10
   4   9  -1   23.80    7.00
  -4   9   1    1.20    9.50
   5   0  -1    1.10    1.00
   5   0   1    1.10    2.90
  -5   0  -1    1.90    3.40
  -5   0  -1   -0.40    1.60
  -5   0   1    0.10    1.60
  -5   0   1    0.40    0.80
   5   0   1   -1.40    1.40
  -5   0   1   -6.10    3.20
   5   0   1    0.20    0.90
  -5   0  -1    0.50    0.70
   5   0  -1    2.80    2.70
   5   1   1    2.50    1.30
   5   1   1    5.30    2.70
  -5   1  -1    3.80    1.20
   5  -1  -1    6.40    1.30
   5  -1  -1    4.10    3.50
  -5  -1   1    6.10    2.40
  -5   1  -1    6.50    1.20
   5   1   1    4.20    2.40
  -5  -1   1    3.10    2.90
  -5  -1   1    6.40    1.40
  -5   1  -1    8.10    4.10
  -5   1   1    6.00    1.20
  -5  -1  -1    8.90    2.80
   5  -1   1    7.40    1.20
  -5  -1  -1    3.60    2.80
   5  -1   1    3.70    3.60
   5   1  -1    5.50    2.50
   5   1  -1    8.00    1.90
   5  -1   1    5.10    1.00
  -5   1   1    6.60    1.40
  -5  -1  -1    4.80    1.20
  -5   1   1    7.20    4.20
   5   1  -1    2.00    2.10
  -5   2  -1    4.40    5.10
  -5   2  -1    0.70    1.20
  -5  -2   1    0.00    1.10
  -5  -2   1   -1.40    1.50
  -5  -2   1    0.80    2.50
   5  -2  -1    1.30    3.40
  -5   2   1    3.80    5.00
  -5   2   1    0.60    1.20
  -5   2   1   -1.20    1.30
  -5  -2  -1    1.30    1.40
   5  -2   1    0.30    3.70
   5   2  -1   -0.40    2.30
   5  -3  -1  556.24   22.70
   5  -3  -1  605.54   18.30
  -5   3  -1  606.04   18.90
   5   3   1  606.84   18.30
  -5  -3   1  592.24   18.40
   5   3   1  583.04   22.20
  -5   3   1  576.24   18.00
   5  -3   1  595.34   23.70
   5   3  -1  584.74   22.20
   5  -3   1  604.44   17.50
  -5   3   1  586.24   18.80
  -5   4  -1  203.48    8.10
   5  -4  -1  224.88    9.40
  -5   4  -1  221.18    9.30
   5   4   1  230.48   13.00
   5  -4  -1  223.68   12.70
   5   4   1  207.98    8.50
   5  -4   1  201.18   13.40
   5   4  -1  214.88    8.70
  -5   4   1  228.68    9.40
   5   4  -1  201.98   12.10
   5  -4   1  203.38    8.90
  -5   4   1  212.38    8.70
  -5   5  -1   84.39    5.70
  -5   5  -1   78.19    6.00
   5  -5  -1   72.69    7.80
   5   5   1   78.49   10.60
   5  -5  -1   88.69    9.80
  -5   5   1   63.29    6.10
   5  -5   1   89.29   10.00
   5  -5   1   65.19    7.40
  -5   5   1   67.89    6.20
   5   5  -1   85.79   10.70
   5   5  -1   80.79    5.60
  -5   6  -1   20.10    4.30
   5   6   1   22.50    4.10
  -5   6  -1   24.60    4.50
   5   6   1   25.30    8.00
   5   6  -1   17.00    3.90
   5   6  -1   13.60    7.30
  -5   6   1   13.90    4.60
   5  -6   1   17.10    7.30
  -5   6   1   29.00    5.00
   5   7   1  216.08   18.10
   5   7   1  203.08   10.90
  -5   7  -1  198.58   11.20
  -5   7   1  200.38   11.90
   5   7  -1  174.68   10.70
  -5   7   1  207.28   11.70
   5   7  -1  211.18   17.60
   5   8   1   75.49    8.20
  -5   8  -1   68.29    8.50
   5   8   1   72.29   13.80
   5   8  -1   70.99   14.30
  -5   8   1   72.69    9.80
  -5   8   1   44.20    7.20
   5   8  -1   59.69    7.30
   5   9   1   74.59   16.60
  -5   9  -1   42.70    8.50
   5   9   1   49.60    7.70
  -5   9   1   44.60    8.70
   5   9  -1   51.49   14.40
   5   9  -1   40.90    7.00
  -6   0  -1    0.60    1.80
   6   0   1   -0.40    1.10
   6   0  -1    0.20    2.80
  -6   0   1   -6.90    3.90
  -6   0  -1    0.30    0.80
  -6   0  -1   -9.80    3.70
  -6   0   1    2.40    1.80
  -6   0   1   -0.40    0.80
   6   0  -1   -1.20    1.50
   6   0   1    4.30    3.20
   6   0  -1   -2.00    1.20
   6   0   1   -1.10    1.50
   6  -1  -1   -1.60    3.80
   6  -1  -1    1.50    1.40
  -6  -1   1   -1.10    2.70
   6   1   1    2.90    2.30
   6   1   1   -0.30    1.60
  -6   1  -1   -0.20    3.70
  -6  -1   1    2.00    3.50
   6   1   1   -0.60    2.90
  -6   1  -1    4.50    1.20
  -6  -1   1    1.20    1.10
  -6   1  -1    4.20    1.30
   6   1  -1    4.10    2.80
  -6  -1  -1    0.00    2.70
  -6  -1  -1    0.80    1.10
  -6  -1  -1    5.50    3.50
   6   1  -1   -0.20    2.00
   6  -1   1    0.80    1.10
   6   1  -1   -0.40    1.70
   6  -1   1   -0.90    3.70
  -6   1   1    0.50    4.00
   6  -1   1    1.50    1.10
  -6   1   1    4.70    1.50
  -6   1   1    1.60    1.10
   6   2   1   10.30    3.20
  -6   2  -1    7.90    1.70
   6  -2  -1   10.80    4.40
   6   2   1    6.50    3.30
  -6  -2   1    6.40    3.40
  -6  -2   1    8.60    1.90
  -6   2   1    6.30    1.50
   6   2  -1    9.20    3.40
   6  -2   1    3.80    4.30
  -6   2   1    1.90    1.40
  -6  -2  -1    5.60    1.80
  -6  -2  -1    3.90    3.30
   6   3   1   76.99    4.80
  -6   3  -1   71.59    4.40
   6   3   1   63.49    6.70
  -6  -3   1   69.29    5.50
  -6  -3   1   78.69    6.10
   6  -3  -1   77.09    9.00
   6   3  -1   77.79    7.30
   6  -3   1   63.39    8.40
  -6   3   1   78.89    4.80
  -6   3   1   71.59    3.60
  -6  -3  -1   78.59    5.30
   6   4   1    1.80    1.80
   6  -4  -1    2.50    4.70
  -6   4  -1    4.60    2.60
   6   4   1    1.60    4.90
   6  -4  -1   -4.40    2.60
   6   4  -1    2.90    5.00
   6  -4   1    2.60    5.30
  -6   4   1   -0.30    1.90
   6  -4   1    1.70    2.10
  -6   4   1    0.10    2.20
   6   5   1    3.20    2.40
   6  -5  -1    9.30    6.00
   6  -5  -1    3.80    4.00
   6   5   1   -4.50    6.00
  -6   5  -1    7.50    3.10
   6   5  -1   -4.30    6.00
   6  -5   1    1.80    3.90
   6   5  -1    5.80    2.60
   6  -5   1   -5.20    6.40
  -6   5   1    1.60    3.20
  -6   5   1    7.70    2.90
  -6   6  -1   78.29    7.90
   6   6   1   85.99   12.30
   6   6   1   76.89    6.10
   6   6  -1   76.79   11.20
  -6   6   1  101.09    8.00
   6  -6   1   77.79   10.90
  -6   6   1   77.69    7.20
   6   6  -1   74.19    6.30
   6  -6   1   64.79    9.20
   6   7   1    5.40    3.40
  -6   7  -1    9.90    5.00
   6   7   1    9.60    8.70
   6   7  -1    3.50    7.90
  -6   7   1    4.80    4.30
  -6   7   1    5.20    4.40
   6   7  -1   -0.20    3.70
   6   8   1   25.40   11.90
   6   8   1    4.30    4.90
  -6   8  -1    7.00    5.30
  -6   8   1    2.00    5.40
   6   8  -1   10.80   11.10
  -6   8   1    1.80    6.20
   6   8  -1    6.20    5.30
  -6   9  -1   10.20    6.90
   6   9   1    7.10    5.90
   6   9   1   11.80   13.40
  -6   9   1    9.60    6.90
   6   9  -1    3.10    5.80
   6   9  -1   -6.50   13.30
   7   0  -1   -2.30    1.70
   7   0  -1   -4.50    3.70
  -7   0   1   -0.60    1.10
  -7   0  -1    1.40    1.00
   7   0   1    0.10    1.80
  -7   0   1   -4.00    2.00
   7   0   1   -0.70    1.60
  -7   0  -1   -3.10    2.20
   7   0   1   -2.30    3.90
  -7  -1   1   81.09    4.30
   7   1   1   74.19    4.90
   7   1   1   79.99    5.90
   7   1   1   74.99    7.60
  -7  -1   1   99.49    9.20
  -7   1  -1   75.89    4.00
  -7   1  -1   76.19    4.20
   7  -1  -1   80.29    8.00
  -7  -1  -1   87.69    9.00
  -7   1   1   85.79    4.50
   7  -1   1   89.39    9.10
  -7   1   1   80.59    4.10
   7  -1   1   77.79    4.00
   7   1  -1   93.79    6.30
  -7  -1  -1   77.59    6.70
  -7  -1  -1   80.09    4.00
  -7   2  -1    2.00    1.40
   7   2   1   -3.70    2.80
  -7  -2   1    0.90    1.60
   7   2   1    1.90    3.40
  -7  -2   1    4.30    4.00
   7   2  -1   -0.80    2.80
  -7   2   1    3.70    1.50
  -7  -2  -1   -0.20    1.40
  -7   2   1    2.90    1.40
   7  -2   1   14.50    4.70
  -7  -2  -1    3.00    4.00
   7  -3  -1  123.29   11.60
  -7  -3   1  117.19    7.10
   7   3   1  143.49    7.30
  -7   3  -1  135.29    6.60
   7   3   1  130.29    9.60
  -7  -3   1  123.49    8.60
  -7   3   1  139.49    6.80
   7  -3   1  137.39   11.40
   7   3  -1  126.49    9.50
  -7  -3  -1  125.39    8.00
  -7  -3  -1  130.99    7.00
  -7   3   1  136.29    4.60
   7   4   1   40.30    7.50
  -7   4  -1   53.89    5.30
  -7  -4   1   37.10    6.00
   7  -4  -1   42.30    9.00
  -7   4   1   38.90    3.30
  -7  -4  -1   40.40    5.40
   7  -4   1   31.40    8.30
  -7   4   1   32.60    4.20
   7   4  -1   38.70    7.80
   7   5   1   53.89    9.60
   7  -5  -1   65.49    6.80
  -7   5  -1   58.49    6.60
  -7  -5   1   59.39    8.10
   7  -5  -1   72.89   11.20
  -7   5   1   71.59    5.00
   7  -5   1   73.69   11.90
  -7   5   1   74.49    6.60
   7  -5   1   76.89    5.10
   7   5  -1   62.49   10.10
  -7   6  -1   37.40    5.50
   7   6   1   32.10    4.80
   7   6   1   27.90    9.00
   7   6  -1   40.70    9.20
  -7   6   1   39.90    5.90
   7  -6   1   43.80   10.10
  -7   6   1   36.80    4.40
  -7   7  -1  116.29    9.80
   7   7   1  122.49    8.70
   7   7   1  121.09   15.00
  -7   7   1  114.59    8.60
  -7   7   1  112.19    9.40
   7   7  -1  124.19   15.80
   7   7  -1  121.39    9.00
   7   8   1    1.10    4.40
  -7   8  -1    1.00    5.60
   7   8   1   12.20   12.60
   7   8  -1    4.30   11.30
  -7   8   1    7.90    5.90
   7   8  -1    7.60    4.80
  -8   0  -1   -3.90    2.60
  -8   0   1    0.80    1.10
   8   0  -1   -1.80    3.90
  -8   0   1   -5.10    2.50
  -8   0  -1    0.70    1.10
   8   0   1    4.00    4.20
   8   0  -1    1.20    2.00
   8   0   1   -2.50    1.90
   8  -1  -1    7.10    4.90
  -8   1  -1   16.70    2.50
  -8  -1   1    9.50    1.90
   8   1   1   17.40    4.80
  -8   1  -1   18.10    2.10
   8   1   1   15.30    3.60
   8  -1   1   13.70    2.20
  -8   1   1   10.50    2.40
  -8   1   1   10.40    1.90
  -8  -1  -1   11.70    2.00
   8  -1   1   11.80    5.30
   8   1  -1   15.20    4.90
   8   1  -1   18.00    3.70
  -8   2  -1   45.00    3.50
   8  -2  -1   47.10    7.60
  -8  -2   1   42.20    3.60
  -8  -2   1   28.60    6.50
   8   2   1   50.89    6.20
   8   2   1   44.50    6.00
  -8   2   1   38.30    3.00
  -8   2   1   37.20    3.20
   8  -2   1   31.60    6.70
  -8   2   1   40.40    3.30
   8   2  -1   31.10    5.00
  -8  -2  -1   43.00    3.60
  -8  -2  -1   38.60    7.00
   8  -3  -1    9.70    6.60
   8   3   1    8.50    4.80
  -8   3  -1    3.50    2.10
   8   3   1    5.50    3.30
  -8  -3   1    0.30    4.90
  -8  -3   1    9.60    2.80
   8  -3   1    9.10    7.00
  -8   3   1    4.90    2.20
   8   3  -1    7.80    4.60
  -8  -3  -1    7.20    2.50
  -8  -3  -1    5.70    4.40
   8  -4  -1   10.60    7.70
   8   4   1    3.00    5.80
  -8   4  -1   12.20    3.40
  -8  -4   1   10.00    4.10
  -8  -4   1   11.60    3.90
   8  -4   1   11.20    8.30
  -8  -4  -1    9.90    3.50
  -8   4   1   13.00    3.30
   8   4  -1    8.10    5.90
  -8   5  -1    8.90    3.90
  -8  -5   1    2.10    5.10
   8  -5  -1   15.20    8.30
   8   5   1   12.20    7.20
  -8  -5  -1   15.30    5.70
  -8   5   1   10.80    4.00
   8  -5   1    2.30    8.70
   8   5  -1   13.60    7.40
  -8   5   1   12.00    2.20
  -8   6  -1    6.70    4.20
  -8  -6   1    4.80    6.20
   8   6   1    4.00    6.90
   8   6  -1   16.60    8.30
  -8   6   1   18.20    4.50
   8  -6   1    8.60    9.40
  -8  -6  -1    4.90    6.10
  -8   7  -1   -2.30    4.80
   8   7   1   -5.00    9.60
  -8  -7   1   -5.60    6.80
  -8   7   1   -0.10    4.50
  -8  -7  -1    1.50    7.20
   8   7  -1   -5.90    8.30
  -8   8  -1    0.90    6.00
  -8  -8   1   16.10    9.80
   8   8   1   15.00   11.80
   8   8  -1   -5.80   10.60
  -8   8   1   -2.20    5.80
  -8  -8  -1    7.90    9.40
   9   0   1    5.50    4.50
  -9   0   1   -0.50    1.20
  -9   0  -1   -0.90    3.40
  -9   0   1   -2.10    3.30
  -9   0  -1   -0.20    1.20
   9   0  -1    6.50    4.30
   9   0   1   -1.00    2.20
   9   1   1  215.68   10.90
  -9   1  -1  226.78    9.00
  -9  -1   1  236.58    9.00
   9   1   1  224.48   13.30
   9  -1  -1  249.58   15.30
  -9   1  -1  228.28    8.50
  -9   1   1  229.38    9.30
   9   1  -1  233.58   12.90
   9   1  -1  236.88   11.30
  -9   1   1  225.48    8.70
  -9  -1  -1  212.98    8.50
   9  -1   1  229.58   15.10
   9   2   1  108.29    9.50
  -9  -2   1   95.49    5.70
   9   2   1   83.89    7.80
   9  -2  -1  116.09   12.60
  -9   2  -1  100.59    5.30
  -9   2   1  101.19    4.70
   9   2  -1   99.09    8.10
  -9  -2  -1   99.89    5.50
   9  -2   1   99.49   12.60
   9   2  -1  100.29    8.00
  -9   2   1   97.89    5.40
  -9   2   1  112.79    5.40
   9  -3  -1   28.80    9.20
   9   3   1   27.10    4.80
   9   3   1   26.60    6.40
  -9  -3   1   22.30    3.80
  -9  -3   1   29.80    7.20
  -9   3  -1   25.70    3.70
  -9  -3  -1   20.20    3.40
  -9   3   1   17.90    3.20
   9   3  -1   25.60    6.20
  -9  -3  -1   24.30    6.40
   9  -3   1   11.40    8.60
  -9  -4   1  263.47   12.90
  -9  -4   1  244.08   12.90
   9  -4  -1  214.88   18.50
  -9   4  -1  262.67   11.20
   9   4   1  252.27   15.60
   9   4  -1  241.08   15.40
  -9  -4  -1  288.57   13.10
  -9   4   1  247.78   11.10
  -9  -5   1   11.50    5.10
  -9   5  -1    0.90    3.50
   9  -5  -1   31.20    9.10
   9   5   1   -0.80    7.20
   9   5  -1   -9.70    6.10
   9  -5   1   11.30    9.10
  -9   5   1    2.60    3.60
  -9  -5  -1    3.30    5.00
  -9  -6   1  300.07   17.70
  -9   6  -1  300.77   14.00
   9   6   1  264.27   19.20
   9   6  -1  286.17   19.60
  -9  -6  -1  280.07   16.50
  -9   6   1  291.47   13.80
   9  -6   1  321.07   24.20
  -9   7  -1   24.30    6.30
  -9  -7   1   28.40    8.50
   9   7   1   32.70   11.30
   9   7  -1   29.20   11.40
  -9   7   1   37.50    7.10
  -9  -7  -1   46.90    9.70
  -9  -8   1  149.09   16.20
  -9   8  -1  145.09   13.50
   9   8   1  195.88   22.60
  -9  -8  -1  146.09   16.50
   9   8  -1  175.88   22.30
  -9   8   1  164.38   13.40
 -10   0   1    2.50    1.60
  10   0   1   -2.20    5.50
  10   0   1   -1.20    2.50
  10   0  -1    5.70    5.30
 -10   0  -1    1.80    1.40
  10   1   1   39.60    7.40
 -10   1  -1   47.00    4.80
 -10   1  -1   47.40    3.60
  10  -1  -1   40.80    7.70
 -10  -1   1   41.70    3.60
  10   1   1   48.60    6.10
 -10  -1  -1   47.30    3.60
 -10   1   1   43.80    3.90
  10   1  -1   49.50    6.10
  10   1  -1   40.80    6.70
 -10   1   1   43.90    4.80
  10  -1   1   44.40    8.50
 -10  -2   1   38.90    4.30
  10  -2  -1   37.70    9.20
 -10   2  -1   38.30    4.00
 -10   2  -1   38.50    3.30
  10   2   1   39.60    6.50
  10   2   1   45.60    7.10
 -10   2   1   41.20    3.70
  10   2  -1   36.90    5.80
 -10  -2  -1   38.80    3.90
 -10   2   1   48.10    4.00
  10  -2   1   42.40    9.20
  10   2  -1   32.40    5.60
  10   3   1  101.19    8.60
  10  -3  -1   56.69   11.50
  10   3   1   58.69    8.70
 -10   3  -1   76.59    5.60
 -10  -3   1   81.49    6.60
  10  -3   1   72.89   12.20
 -10   3   1   83.89    5.80
  10   3  -1   46.10    7.80
 -10  -3  -1   76.89    5.90
 -10  -4   1   73.29    8.60
 -10   4  -1   49.00    5.70
  10   4   1   48.60    9.60
 -10  -4   1   49.99    6.20
  10  -4  -1   35.60   10.50
  10   4  -1   62.79   10.20
  10  -4   1   44.80   11.30
 -10  -4  -1   51.59    6.50
 -10   4   1   50.09    5.70
  10  -5  -1   77.89   13.40
 -10   5  -1   56.49    6.60
  10   5   1   59.69   11.00
 -10  -5   1   53.89    7.50
  10  -5   1   53.59   12.70
 -10  -5  -1   66.99    8.10
  10   5  -1   49.90   10.20
 -10   5   1   60.49    7.10
 -10  -6   1   33.00    7.50
  10   6   1   30.70   10.70
 -10   6  -1   22.90    5.40
  10  -6   1   33.10   12.60
  10   6  -1   31.30   10.10
 -10   6   1   39.90    6.50
 -10  -6  -1   32.10    7.50
  10   7   1   47.40   12.60
 -10   7  -1   39.80    7.30
 -10  -7   1   44.70    9.50
  10   7  -1   17.90   12.00
 -10   7   1   36.30    7.10
 -10  -7  -1   43.40   10.40
  10  -7   1   52.09   14.50
 -10  -8   1   56.39   13.00
 -10   8  -1   44.60    8.70
  10   8   1   54.99   16.60
  10   8  -1   55.39   15.90
 -10  -8  -1   62.09   12.80
 -10   8   1   44.70    8.80
  11   0   1   -1.70    2.80
 -11   0  -1    2.50    1.70
  11   0   1    4.20    6.20
  11   0  -1    1.00    5.10
 -11   0   1    0.00    1.70
  11   1   1   -2.10    5.70
  11  -1  -1   -0.40    7.00
 -11  -1   1    1.80    1.90
 -11   1  -1    2.10    3.00
  11   1   1   -4.20    3.10
 -11   1  -1    2.50    1.80
 -11   1   1    4.00    1.90
 -11   1   1    4.70    3.30
 -11  -1  -1    0.50    1.70
  11  -1   1   -2.60    7.90
  11   1  -1   -1.10    3.00
  11   1  -1   -0.80    5.30
 -11   2  -1   14.60    3.30
  11   2   1    6.50    4.90
  11   2   1   13.30    5.60
 -11   2  -1   10.20    2.80
  11  -2  -1    8.80    8.60
 -11  -2   1   15.40    3.30
  11   2  -1    8.70    4.70
  11   2  -1   13.10    5.60
 -11   2   1   19.40    2.90
 -11  -2  -1   17.60    3.00
  11  -2   1    9.20    8.10
 -11   2   1   20.20    3.50
  11  -3  -1  724.83   33.00
  11   3   1  712.53   26.10
 -11  -3   1  723.83   24.30
  11   3   1  716.93   28.80
 -11   3  -1  698.03   23.30
 -11   3   1  699.03   23.40
  11  -3   1  724.43   33.90
  11   3  -1  678.23   28.30
 -11  -3  -1  717.73   23.90
  11   4   1  206.58   16.10
  11  -4  -1  186.08   20.00
 -11   4  -1  184.48    9.90
 -11  -4   1  195.28   11.10
  11   4  -1  199.78   15.20
 -11  -4  -1  211.08   11.10
  11  -4   1  247.38   22.40
 -11   4   1  195.58   10.50
 -11  -5   1  485.65   20.70
 -11   5  -1  458.55   18.50
  11  -5  -1  438.16   27.90
  11   5   1  474.15   24.80
 -11   5   1  475.95   18.80
 -11  -5  -1  486.25   20.30
  11  -5   1  451.55   29.30
  11   5  -1  496.15   25.50
  11   6   1   46.10   11.50
 -11  -6   1   47.50    8.60
 -11   6  -1   45.60    6.90
  11  -6   1   52.59   14.40
  11   6  -1   36.60   10.60
 -11   6   1   45.40    6.90
 -11  -6  -1   64.99    9.00
 -11  -7   1  478.55   25.20
  11   7   1  478.95   29.20
 -11   7  -1  464.55   20.40
 -11  -7  -1  444.56   24.00
 -11   7   1  468.85   20.70
  11   7  -1  475.75   29.60
 -11  -8   1   65.79   13.20
  11   8   1   66.79   17.70
 -11   8  -1   51.69    9.20
 -11  -8  -1   64.39   12.60
 -11   8   1   61.29   10.00
  11   8  -1   42.60   15.10
 -12   0   1    1.60    2.50
 -12   0  -1    3.30    1.80
  12   0   1    3.50    8.30
  12   0   1   -6.10    2.90
  12   0  -1   -1.70    7.20
  12   1   1   31.40    5.90
 -12   1  -1   38.00    4.00
  12   1   1   32.90    9.00
 -12   1  -1   57.89    6.70
 -12  -1   1   36.70    4.20
  12  -1  -1   32.80    9.70
  12   1  -1   37.90    6.30
 -12   1   1   30.80    5.30
 -12   1   1   39.40    4.30
  12   1  -1   33.30    7.90
  12  -1   1   24.20    9.80
 -12  -1  -1   33.30    3.90
  12   2   1   82.69   10.10
 -12   2  -1   76.39    5.90
 -12  -2   1   69.89    6.00
 -12   2  -1   77.79    5.50
  12  -2  -1   85.69   13.30
  12   2   1   78.69    9.90
 -12   2   1   85.49    5.90
  12   2  -1   98.79   10.60
  12  -2   1   73.29   13.10
 -12  -2  -1   81.29    5.90
 -12   2   1   92.39    5.90
  12   3   1    3.70    4.90
  12   3   1   -0.80    6.20
 -12   3  -1   -0.70    2.90
 -12  -3   1   -3.50    3.00
  12  -3  -1   15.10    9.90
  12  -3   1    3.40    9.10
 -12  -3  -1   -5.00    2.70
 -12   3   1    2.20    2.90
  12   3  -1    5.70    6.40
  12  -4  -1  175.58   20.00
 -12  -4   1  186.88   11.30
 -12   4  -1  195.68   10.40
  12   4   1  179.18   15.90
 -12   4   1  169.28   10.30
  12   4  -1  194.28   16.40
  12  -4   1  205.78   21.90
 -12  -4  -1  181.88   10.80
  12  -5  -1   -1.70   10.40
 -12   5  -1    7.20    4.40
 -12  -5   1    0.80    4.90
  12   5   1   -1.20    6.90
  12  -5   1   -8.40   10.20
 -12   5   1    3.70    4.00
  12   5  -1    5.10    8.60
 -12  -5  -1    0.40    4.90
 -12   6  -1   72.69    8.40
  12   6   1   93.09   14.20
 -12  -6   1   89.29   11.20
  12   6  -1   80.79   13.60
 -12   6   1   88.29    8.80
 -12  -6  -1   74.99    9.30
  12  -6   1   75.69   16.20
 -12   7  -1   -1.80    5.10
  12   7   1   16.90   13.50
 -12  -7   1   -8.90    8.10
  12   7  -1   10.00   12.80
 -12   7   1    1.10    6.20
 -12  -7  -1   -6.40    8.30
  13   0  -1   12.60    8.20
  13   0   1   21.70    8.70
  13  -1  -1   83.79   13.50
  13   1   1   83.39   12.80
 -13   1  -1   62.49    5.50
  13   1   1   88.19    9.00
 -13  -1   1   75.39    5.90
  13  -1   1   78.79   13.90
  13   1  -1   64.79    8.50
 -13  -1  -1   81.39    5.90
 -13   1   1   79.99    5.80
  13   1  -1   81.19   11.70
  13   2   1  167.08   15.30
 -13   2  -1  174.08    8.80
 -13  -2   1  164.58    9.00
  13   2   1  149.09   12.70
  13  -2  -1  158.78   18.30
  13   2  -1  168.18   12.80
 -13  -2  -1  172.38    8.70
 -13   2   1  178.68    9.10
  13  -2   1  156.28   19.90
 -13   2   1  170.18    8.30
 -13   3  -1  230.68   10.70
  13   3   1  199.98   14.80
  13  -3  -1  209.28   20.10
  13   3   1  201.38   15.20
 -13  -3   1  211.08   11.00
 -13   3   1  198.28   10.50
  13  -3   1  243.38   23.20
 -13  -3  -1  223.88   10.70
  13   3  -1  205.78   15.90
 -13  -4   1   33.90    6.00
  13   4   1   35.10   10.00
 -13   4  -1   34.20    5.40
  13  -4  -1   17.70   11.10
  13   4  -1   39.80   10.60
  13  -4   1   32.90   12.60
 -13   4   1   33.60    5.60
 -13  -4  -1   34.30    5.60
 -13  -5   1  350.66   16.80
 -13   5  -1  349.96   16.10
  13  -5  -1  373.56   27.00
  13   5   1  367.16   22.50
  13  -5   1  396.86   28.90
  13   5  -1  338.07   22.90
 -13   5   1  353.56   15.70
 -13  -5  -1  372.96   17.30
 -13   6  -1   95.89   10.50
 -13  -6   1   94.59   10.60
  13   6   1  106.69   17.00
  13   6  -1   90.99   15.00
 -13  -6  -1   88.49   10.30
 -13   6   1   95.39   10.50
  13  -6   1   98.19   18.20
 -13   7  -1  220.18   14.90
 -13  -7   1  257.27   18.50
  13   7   1  185.78   24.30
  13   7  -1  232.18   24.60
 -13   7   1  241.58   15.50
 -13  -7  -1  218.28   17.60
  14   0   1   -3.70    9.70
  14   0   1    3.00    3.90
 -14   0  -1    1.00    2.60
 -14   0   1    2.00    2.90
  14   0  -1   15.30    8.90
  14   1   1    7.40    5.90
 -14  -1   1    9.70    3.10
  14   1   1   19.70    9.80
 -14   1  -1   15.50    3.40
  14  -1  -1    9.30    9.80
 -14  -1  -1   14.70    3.50
  14   1  -1   -3.10    7.80
 -14   1   1   13.50    3.80
  14  -1   1   14.40   11.00
  14   2   1   22.50    9.40
 -14  -2   1   12.40    3.70
  14  -2  -1    3.10   10.00
 -14   2  -1   20.50    4.30
  14   2   1   19.20    6.90
  14   2  -1   13.20    6.90
  14  -2   1   31.80   13.10
 -14   2   1   26.50    4.10
 -14   2   1   20.90    4.30
 -14  -2  -1   19.60    3.90
  14   3   1   -2.30    6.90
 -14  -3   1    5.70    3.80
 -14   3  -1   11.10    4.10
  14  -3  -1   15.00   11.30
  14   3   1   16.50    7.50
 -14   3   1   10.50    3.80
 -14  -3  -1    8.10    3.90
  14   3  -1    3.50    7.50
  14  -3   1   -1.20   10.00
  14  -4  -1    1.60   10.50
 -14  -4   1    3.90    4.60
 -14   4  -1    4.80    4.40
  14   4   1   -7.40    7.90
  14   4  -1    8.40    8.70
 -14   4   1    1.30    4.20
  14  -4   1    3.10   11.20
 -14  -4  -1    3.40    4.50
  14   5   1   34.60   10.00
 -14   5  -1   32.20    6.20
 -14  -5   1   34.50    6.80
  14  -5  -1   37.30   13.40
 -14   5   1   36.60    6.40
  14  -5   1   17.30   14.80
  14   5  -1   45.20   11.50
 -14  -5  -1   18.40    6.00
 -14  -6   1   54.99    9.20
  14   6   1   60.19   14.90
 -14   6  -1   49.30    7.80
 -14   6   1   55.89    7.40
  14  -6   1   62.29   16.80
  14   6  -1   51.39   14.00
 -14  -6  -1   29.80    8.30
  14   7   1   72.79   16.40
 -14   7  -1   67.09    9.50
 -14  -7   1   79.89   12.00
 -14   7   1   81.49   10.40
 -14  -7  -1   56.89   10.60
  14   7  -1   59.69   16.70
 -15   0  -1    2.40    2.90
 -15   0   1   -4.50    3.20
  15   0   1  -22.30    8.80
  15   0  -1   -7.80    8.50
  15  -1  -1    2.80    9.60
  15   1   1    9.90    5.90
  15   1   1   13.20   10.20
 -15  -1   1    6.50    3.40
 -15   1  -1   10.60    3.70
  15  -1   1    1.70   10.50
 -15   1   1   10.80    3.40
 -15  -1  -1    4.20    3.40
  15   1  -1    8.50    9.20
  15   2   1  114.49   13.20
  15  -2  -1   95.89   15.30
 -15   2  -1  130.09    8.30
  15   2   1  141.19   16.20
 -15  -2   1  114.59    8.20
 -15   2   1  125.69    8.40
 -15  -2  -1  121.19    8.10
  15   2  -1  104.19   12.90
  15  -2   1  153.98   20.00
  15  -3  -1  195.88   22.50
  15   3   1  201.78   16.60
 -15  -3   1  188.78   11.10
 -15   3  -1  208.68   10.90
 -15  -3  -1  211.68   11.10
  15   3  -1  191.38   16.90
 -15   3   1  198.08   11.00
  15  -3   1  188.48   23.80
  15   4   1  114.79   15.00
 -15   4  -1  139.69   10.10
 -15  -4   1  141.79   10.50
  15  -4  -1  124.69   18.10
 -15  -4  -1  135.49   10.30
 -15   4   1  130.29   10.10
  15   4  -1  135.59   17.30
  15  -4   1  149.39   21.20
 -15   5  -1   49.00    6.90
  15   5   1   49.70   12.10
 -15  -5   1   34.10    7.30
  15  -5  -1   38.50   15.50
  15  -5   1   62.19   16.50
 -15  -5  -1   28.50    6.80
  15   5  -1   50.59   13.60
 -15   5   1   33.90    6.40
  15   6   1  216.98   24.00
 -15   6  -1  186.78   12.90
 -15  -6   1  190.28   15.50
 -15   6   1  214.48   14.20
  15  -6   1  205.78   26.40
 -15  -6  -1  204.88   15.10
  15   6  -1  173.48   20.90
 -16   0  -1    1.30    3.30
 -16   0   1   -2.20    3.20
  16   0   1   -1.50   11.20
  16   0  -1   10.10   10.90
 -16   1  -1   15.20    4.10
  16   1   1   12.80   10.40
 -16  -1   1    4.70    3.70
  16   1   1    3.30    6.00
  16  -1  -1    3.20   11.20
  16   1  -1    5.00    9.50
 -16  -1  -1    4.40    3.40
 -16   1   1    7.00    3.50
  16  -1   1   -5.40   10.90
  16   2   1   -1.40    7.20
 -16  -2   1    2.60    4.00
  16  -2  -1   11.50   10.80
  16   2   1    1.80    9.10
 -16   2  -1    0.50    3.60
 -16   2   1    4.40    3.60
 -16  -2  -1    1.70    3.70
  16  -2   1    5.30   11.80
  16   2  -1    0.80    7.60
  16   3   1   22.70    9.30
 -16  -3   1   27.50    5.70
  16  -3  -1   17.90   12.00
 -16   3  -1   28.10    5.60
 -16  -3  -1   26.00    5.30
 -16   3   1   19.50    5.10
  16  -3   1   17.50   13.60
  16   3  -1   17.00    9.10
  16  -4  -1   28.60   14.40
  16   4   1   35.20   12.10
 -16   4  -1   21.00    5.50
 -16  -4   1   24.00    5.60
  16  -4   1   48.00   15.60
  16   4  -1   35.10   11.70
 -16  -4  -1   25.90    5.90
 -16   4   1   28.10    6.20
 -16   5  -1    8.90    5.40
  16   5   1    5.60   11.20
 -16  -5   1    1.10    6.10
  16  -5   1   -0.70   14.50
 -16   5   1    6.10    5.40
  16   5  -1   21.80   12.50
 -16  -5  -1    2.30    5.90
 -16  -6   1   21.40    8.60
  16   6   1   -5.20   12.60
 -16   6  -1   -2.70    6.40
  16  -6   1   -8.70   17.50
  16   6  -1  -13.50   13.10
 -16  -6  -1   -6.10    7.00
 -16   6   1    9.50    6.70
  17   0  -1   -1.10   10.20
  17   0   1  -13.10   11.40
 -17   0  -1   -5.70    3.50
 -17   0   1    0.70    3.40
  17  -1  -1    1.50   10.90
 -17  -1   1   -2.30    3.40
 -17   1  -1    4.90    3.90
  17   1   1    7.90   11.20
  17   1   1   -3.00    6.70
 -17   1   1    2.10    3.90
 -17  -1  -1    3.20    3.60
  17  -1   1   -6.20   10.90
  17  -2  -1   -0.40   11.80
  17   2   1    0.80   10.50
  17   2   1    6.20    8.10
 -17   2  -1    2.00    4.00
 -17  -2   1    3.10    4.00
 -17   2   1    0.20    3.60
 -17  -2  -1   -1.30    3.80
  17  -2   1   -2.50   11.80
 -17  -3   1  110.39    9.20
  17  -3  -1   96.69   17.50
 -17   3  -1  111.59    9.10
  17   3   1  112.19   15.20
 -17   3   1   99.79    9.40
  17   3  -1   86.09   13.60
  17  -3   1   99.39   18.90
 -17  -3  -1  116.59    9.20
 -17   4  -1   -2.80    5.20
 -17  -4   1    2.90    5.10
  17  -4  -1  -17.90   13.60
  17   4   1   -2.30   10.00
 -17  -4  -1   -2.10    4.80
  17   4  -1    2.10   10.10
 -17   4   1   -2.60    5.20
  17  -4   1    2.40   14.20
  17   5   1   77.69   16.00
 -17   5  -1   67.59    8.40
 -17  -5   1   72.09    9.50
  17   5  -1   71.89   16.20
  17  -5   1   85.29   20.70
 -17   5   1   72.59    8.80
 -17  -5  -1   62.49    9.00
 -17  -6   1   15.90    8.40
 -17   6  -1    8.80    6.70
  17   6   1   30.70   15.20
  17  -6   1    7.10   17.30
 -17  -6  -1   11.60    8.30
 -17   6   1    6.00    7.40
  17   6  -1   17.90   15.50
 -18   0  -1   -2.50    3.60
  18   0  -1   -3.30   11.40
  18   0   1  -10.70   12.10
 -18   0   1   -2.40    3.50
  18  -1  -1   -2.00   12.20
  18   1   1    0.80   11.10
 -18  -1   1   -9.70    3.60
 -18   1  -1   -2.80    3.80
 -18  -1  -1    3.60    4.20
 -18   1   1   -0.60    4.30
  18  -1   1   -5.30   12.20
  18   2   1    7.20    9.00
  18   2   1    4.30   11.30
 -18   2  -1    5.10    4.40
  18  -2  -1   10.00   12.80
 -18  -2   1   10.30    4.60
 -18  -2  -1    5.30    4.30
 -18   2   1    7.10    4.40
  18  -2   1  -15.20   11.50
  18   3   1    8.60   10.40
 -18  -3   1    5.50    4.90
  18  -3  -1    3.30   13.30
 -18   3  -1   13.00    5.00
  18  -3   1   15.40   15.90
 -18   3   1   -3.00    4.30
 -18  -3  -1   -4.30    4.50
  18   4   1  -12.00   11.30
 -18   4  -1   12.70    5.80
 -18  -4   1   -3.50    6.30
  18  -4   1   -1.70   16.20
 -18  -4  -1  -11.60    5.00
 -18   4   1    9.40    5.80
  18   4  -1    7.30   11.50
 -18  -5   1    2.30    6.80
 -18   5  -1   12.80    7.10
  18   5   1   -2.50   12.60
 -18  -5  -1    8.30    6.50
  18   5  -1    2.60   13.00
 -18   5   1   -6.60    5.60
  18  -5   1  -14.50   18.00
  19   0   1   21.10   13.60
 -19   0  -1   -3.00    3.80
 -19   0   1   -5.00    4.00
  19  -1  -1   13.60   13.80
 -19  -1   1   16.80    5.20
 -19   1  -1    2.10    4.40
  19   1   1   14.70   12.60
 -19   1   1    0.40    4.90
  19  -1   1    0.90   13.50
 -19  -1  -1    0.00    4.60
  19  -2  -1   42.80   16.10
 -19   2  -1   27.40    5.70
 -19  -2   1   50.69    7.10
  19  -2   1   14.60   14.70
 -19  -2  -1   47.30    6.80
 -19   2   1   50.89    7.20
 -19  -3   1   27.50    7.00
 -19   3  -1   27.00    6.50
  19   3   1   30.00   12.10
 -19   3   1   21.60    6.30
 -19  -3  -1   11.60    5.40
  19  -3   1   34.30   16.70
 -19   4  -1   43.50    8.00
 -19  -4   1   60.09    8.20
  19   4   1   73.09   16.50
  19  -4   1   32.80   17.60
 -19  -4  -1   59.69    8.10
 -19   4   1   67.59    9.00
 -20   0   1   -1.50    5.00
 -20   0  -1   -4.50    4.70
  20   0   1    1.70   14.20
 -20  -1   1   10.40    6.00
  20   1   1   13.60   14.30
 -20   1  -1   -0.90    4.90
  20  -1   1   15.70   14.00
 -20   1   1   -7.70    4.50
 -20  -1  -1    9.10    5.00
 -20   2  -1   -0.10    5.60
 -20  -2   1   -4.80    5.60
 -20  -2  -1    1.80    5.00
 -20   2   1   10.00    4.90
  20  -2   1   27.40   16.80
 -20   3  -1   44.20    7.80
  20   3   1   50.09   14.60
 -20  -3   1   47.40    7.70
  20  -3   1   39.80   17.70
 -20   3   1   56.69    8.40
 -20  -3  -1   59.89    7.70
 -20   4  -1    0.40    6.80
  20   4   1   -0.60   14.10
 -20  -4   1    7.40    6.60
 -20   4   1   12.10    7.00
  20  -4   1   -9.40   19.30
 -20  -4  -1   -1.00    6.70
  21   0   1  -23.10   15.60
 -21   0  -1   -3.00    5.00
 -21   0   1   -3.40    5.00
 -21  -1   1    5.80    5.90
 -21   1  -1    8.50    6.00
  21  -1   1   -4.80   15.40
 -21  -1  -1    0.50    5.70
 -21   1   1    5.00    5.80
 -21   2  -1   22.10    6.30
 -21  -2   1   24.00    6.30
 -21  -2  -1   15.10    6.00
 -21   2   1   27.40    7.20
  21  -2   1    0.10   17.20
 -21  -3   1   -3.60    6.10
  21  -3   1   13.50   20.00
 -22   0   1    3.70    6.00
 -22   0  -1    2.60    5.90
 -22  -1   1   -1.90    6.30
 -22   1  -1   -7.70    5.90
 -22   1   1   -2.40    6.10
 -22  -1  -1    4.00    6.10
  22  -1   1    0.40   16.80
   0  -1  -2   -2.70    1.60
   0  -1  -2   -3.70    0.50
   0  -1   2   -5.10    0.50
   0   1   2   -5.00    0.40
   0   1   2   -5.40    1.40
   0   1  -2   -4.90    0.50
   0  -1   2   -4.10    0.90
   0  -2  -2  324.57   12.10
   0   2   2  322.67   10.20
   0  -2  -2  330.97   10.20
   0   2  -2  315.07   10.30
   0   2  -2  325.77   11.40
   0  -2   2  325.07   11.50
   0  -2   2  329.77   11.40
   0   2   2  295.67   11.80
   0  -2   2  332.87   10.40
   0  -3   2    2.90    2.60
   0  -3  -2   -3.40    2.90
   0   3   2   -1.20    2.30
   0   3  -2   -0.50    1.90
   0   3   2    1.20    1.20
   0   3   2   -3.10    2.10
   0  -3   2   -3.50    2.30
   0   3  -2    1.20    1.20
   0   4  -2  107.59    5.60
   0   4   2  104.79    5.40
   0   4   2  106.29    7.60
   0  -4   2  108.79    6.80
   0   4  -2   97.39    7.10
   0   4   2   94.09    7.40
   0   5   2    1.00    2.40
   0  -5   2   -2.80    3.30
   0   5   2    4.10    4.30
   0   5  -2   -1.60    2.40
   0   5   2    0.50    3.70
   0   5  -2    4.90    3.50
   0   6  -2    4.00    3.20
   0   6  -2    6.50    5.60
   0   7  -2   -4.70    6.00
   0   7  -2    0.80    3.60
   0   7   2    4.20    3.70
   0   7   2   10.60    7.40
   0   8  -2   84.99    9.40
   0   8   2   75.29   12.50
   0   8  -2   75.39   11.20
   0   8   2   85.29    9.20
   0   9  -2   -4.90    5.70
   0   9   2    7.50    6.40
   0   9   2    3.00   10.60
  -1   0   2   74.09    2.60
   1   0   2   74.79    3.20
   1  -1  -2 2325.37   64.59
  -1  -1   2 2264.57   64.79
  -1  -1   2 2326.77   63.79
   1   1   2 2677.53   65.39
   1   1   2 2234.68   63.49
  -1   1  -2 2219.88   63.69
   1  -1  -2 2338.87   63.59
   1  -1   2 2298.27   65.59
  -1   1   2 2246.58   64.79
  -1   1   2 2187.78   63.59
  -1  -1  -2 2473.65   63.49
   1   1  -2 2185.28   63.69
   1  -1   2 2327.47   63.69
  -1   2  -2   65.59    3.30
   1   2   2   58.99    5.10
  -1  -2   2   61.99    3.30
   1  -2  -2   63.29    3.00
   1  -2  -2   67.29    4.90
  -1   2  -2   59.79    3.80
   1   2   2   60.09    2.90
  -1  -2   2   64.29    4.50
  -1   2   2   58.89    3.10
  -1   2   2   57.89    4.50
   1  -2   2   61.29    3.80
  -1  -2  -2   58.19    4.90
   1  -2   2   56.39    5.10
  -1  -2  -2   63.49    3.00
   1   2  -2   57.39    3.10
  -1   2   2   52.99    4.20
   1  -2   2   65.19    3.30
   1   2  -2   62.39    4.50
  -1  -3   2 3607.54  100.29
   1   3   2 3563.14  102.59
  -1   3  -2 3560.74  100.09
   1   3   2 3702.93   99.69
  -1   3  -2 3537.15  101.09
   1  -3  -2 3634.64  101.89
  -1  -3   2 3575.84  102.29
   1   3   2 3472.45   99.89
   1   3  -2 3569.04  100.09
  -1   3   2 3549.74   99.99
  -1   3   2 3548.45  101.79
  -1   3   2 3717.13  101.69
   1  -3   2 3681.53  101.29
   1  -3   2 3785.02  102.59
   1   3  -2 3540.75  102.09
  -1   4  -2   68.59    5.90
  -1   4  -2   74.29    4.80
   1   4   2   62.69    6.70
   1   4   2   77.19    4.60
   1   4   2   59.09    5.30
  -1  -4   2   84.59    5.50
   1   4  -2   71.49    4.50
   1   4  -2   55.69    6.30
  -1   4   2   70.29    6.30
  -1   4   2   70.89    4.60
   1  -4   2   81.69    7.10
  -1   4   2   67.89    7.30
   1   5   2  737.83   23.30
  -1   5  -2  716.53   25.00
  -1  -5   2  713.23   21.70
   1   5   2  704.33   26.60
   1   5   2  733.23   21.90
  -1   5   2  687.83   23.10
   1  -5   2  748.03   24.90
   1   5  -2  700.63   26.10
  -1   5   2  703.83   25.60
  -1   5   2  718.73   25.40
   1   5  -2  672.93   23.10
   1   6   2   19.50    6.90
   1   6   2   15.80    3.80
  -1   6  -2   25.10    5.70
  -1   6  -2   21.50    4.50
  -1   6   2   22.60    6.10
  -1   6   2   19.80    4.50
   1  -6   2   24.90    4.90
   1   6  -2   22.20    4.40
   1   6  -2   30.20    7.10
  -1   6   2   28.60    6.50
   1   7   2  365.96   20.10
  -1   7  -2  318.47   14.30
   1   7   2  346.47   14.70
  -1   7  -2  328.77   17.40
   1   7  -2  319.17   18.70
   1   7  -2  313.37   14.50
  -1   7   2  326.37   14.80
  -1   7   2  290.47   17.70
  -1   8  -2   23.20    9.00
   1   8   2   29.70   10.70
   1   8   2   31.60    6.30
  -1   8  -2   33.60    6.50
   1   8  -2   23.60    9.60
   1   8  -2   24.10    6.40
  -1   8   2   28.70    9.50
  -1   8   2   17.10    5.70
   1   9   2    2.70    6.30
   1   9   2   16.20   11.10
  -1   9  -2   15.40    6.60
   1   9  -2   11.40    6.10
  -1   9   2   -3.70   10.00
  -1   9   2   15.40    6.20
   2   0   2 1415.96   39.70
  -2   0  -2 1508.65   41.00
  -2   0  -2 1437.46   39.70
   2   0  -2 1514.65   40.30
   2   0   2 1425.36   42.20
   2   0   2 1416.36   40.90
  -2   0   2 1446.16   40.30
  -2  -1   2 1429.76   39.70
  -2   1  -2 1495.05   42.30
   2   1   2 1428.76   39.30
  -2  -1   2 1452.65   41.10
   2   1   2 1408.76   41.20
  -2   1  -2 1367.06   39.60
  -2  -1   2 1410.06   40.60
   2  -1  -2 1457.95   39.60
   2  -1  -2 1457.95   40.60
  -2   1   2 1421.26   40.40
  -2  -1  -2 1417.76   41.20
   2  -1   2 1382.16   42.30
   2  -1   2 1416.76   39.60
  -2  -1  -2 1476.55   39.40
  -2   1   2 1357.46   39.60
   2   1  -2 1399.56   41.10
  -2   1   2 1435.76   41.40
  -2   2  -2 1670.83   48.10
   2  -2  -2 1745.13   48.00
  -2   2  -2 1765.82   50.99
   2  -2  -2 1750.72   49.30
  -2  -2   2 1726.63   50.09
   2   2   2 1663.23   50.29
   2   2   2 1661.53   47.80
  -2  -2   2 1748.93   48.20
   2  -2   2 1702.73   48.20
   2   2  -2 1720.03   50.09
  -2   2   2 1713.13   50.19
  -2   2   2 1632.24   48.80
   2  -2   2 1715.73   51.09
   2   2  -2 1672.23   48.10
  -2  -2  -2 1754.42   50.49
  -2   2   2 1686.03   48.10
   2  -2   2 1751.12   48.20
  -2  -2  -2 1750.32   47.90
   2   3   2  887.31   26.00
   2  -3  -2  852.01   27.50
  -2   3  -2  858.91   26.60
  -2   3  -2  911.91   29.20
  -2  -3   2  840.92   25.60
   2   3   2  896.31   24.90
   2   3   2  867.71   29.00
  -2   3  -2  853.51   26.20
  -2   3   2  870.41   27.40
   2   3  -2  886.61   28.70
  -2   3   2  887.11   28.70
  -2   3   2  908.31   26.30
   2  -3   2  914.41   29.30
   2  -3   2  900.01   26.90
   2   3  -2  855.21   26.20
   2   4   2  625.64   19.90
  -2   4  -2  622.54   21.00
  -2  -4   2  629.04   18.50
   2   4   2  625.24   23.50
  -2   4  -2  634.74   20.30
   2   4  -2  615.24   22.80
   2  -4   2  608.44   21.40
  -2   4   2  616.34   20.10
  -2   4   2  617.94   21.70
   2   4  -2  642.74   20.20
  -2   4   2  641.14   23.10
   2  -4   2  658.13   23.30
   2   5   2    1.10    4.10
  -2   5  -2    7.50    3.10
  -2   5  -2    7.10    3.00
   2   5   2    4.60    2.70
   2   5  -2    6.40    2.80
  -2   5   2   10.60    3.90
  -2   5   2   12.40    6.70
   2  -5   2    1.40    4.30
  -2   5   2    0.70    2.70
   2   5  -2    5.60    4.70
  -2   6  -2  304.17   14.50
   2   6   2  310.97   12.90
   2   6   2  278.37   16.80
  -2   6  -2  288.17   12.90
   2   6  -2  289.37   16.40
  -2   6   2  291.07   12.80
  -2   6   2  302.47   15.10
   2   6  -2  299.27   13.00
   2  -6   2  320.47   14.90
  -2   7  -2   12.20    4.30
   2   7   2   14.30    8.10
  -2   7  -2    4.90    6.20
   2   7   2    8.90    3.60
  -2   7   2   12.30    4.50
  -2   7   2   18.60    7.00
   2   7  -2    9.60    4.10
   2   7  -2   14.30    8.20
   2   8   2   35.20   10.60
  -2   8  -2   38.70    6.70
   2   8   2   23.70    5.40
  -2   8   2   26.20    6.30
   2   8  -2   49.40   11.30
  -2   8   2   38.10    9.70
   2   8  -2   36.40    6.80
   2   9   2   11.80    6.60
  -2   9  -2   12.90    6.30
   2   9   2   29.10   12.50
  -2   9   2    6.40    6.70
  -2   9   2   25.00   11.10
   2   9  -2   13.90   11.90
   2   9  -2    5.10    5.50
   3   0   2  798.22   23.70
   3   0   2  779.22   25.60
   3   0  -2  834.72   23.10
  -3   0  -2  790.22   22.50
  -3   0  -2  825.82   25.50
   3   0   2  813.82   22.60
  -3   0   2  835.02   24.80
  -3   0  -2  790.72   23.70
  -3  -1   2   98.79    5.80
  -3  -1   2  112.29    4.80
  -3   1  -2  123.19    8.40
   3   1   2  115.19    6.50
   3  -1  -2  117.19    4.20
  -3   1  -2   99.49    4.10
   3   1   2   87.89    6.90
   3   1  -2   99.29    5.80
   3  -1   2  115.39    8.30
  -3   1   2   96.69    7.90
  -3  -1  -2  112.49    3.70
   3   1  -2  114.79    5.10
   3  -1   2  111.69    4.10
  -3   1   2  105.99    4.90
  -3   1   2  107.19    4.20
  -3  -1  -2  111.39    4.20
  -3  -1  -2  110.69    7.60
   3   2   2   50.59    3.60
   3   2   2   44.80    4.90
   3   2   2   45.40    2.50
  -3   2  -2   48.90    3.00
  -3   2  -2   42.10    5.40
  -3  -2   2   51.89    5.00
   3  -2  -2   57.29    3.70
  -3  -2   2   48.80    2.90
   3  -2  -2   45.60    2.90
   3  -2   2   51.19    2.90
   3   2  -2   49.40    2.70
  -3   2   2   47.20    3.00
   3  -2   2   50.69    6.20
  -3  -2  -2   50.49    2.70
  -3  -2  -2   66.29    5.70
   3   2  -2   48.90    4.70
  -3   2   2   46.20    3.90
  -3   2   2   54.69    5.80
   3  -2   2   51.09    2.70
  -3   3  -2   64.09    8.10
   3  -3  -2   65.89    5.50
   3   3   2   64.49    3.60
  -3   3  -2   61.19    3.90
   3   3   2   59.99    6.20
  -3   3  -2   59.59    3.80
   3  -3   2   58.99    4.30
   3   3  -2   60.59    3.50
   3   3  -2   54.09    5.50
  -3   3   2   57.39    4.70
   3  -3   2   88.49    7.60
  -3   3   2   61.09    3.80
  -3   3   2   60.99    7.00
   3   4   2  230.88   12.50
   3   4   2  227.08    8.90
  -3   4  -2  228.38    9.50
   3  -4  -2  212.88   11.40
  -3   4  -2  239.38    9.70
  -3   4   2  244.48   14.20
   3  -4   2  202.48   12.90
   3   4  -2  243.68    9.30
  -3   4   2  236.18    9.40
   3   4  -2  229.28   12.10
  -3   4   2  225.28   10.30
   3  -4   2  235.28   10.20
   3   5   2    8.10    5.40
   3   5   2    1.80    2.20
  -3   5  -2    1.90    2.90
  -3   5  -2    2.00    2.80
   3   5  -2    3.60    5.20
   3  -5   2   -1.70    4.50
  -3   5   2    4.50    3.00
   3   5  -2    5.80    2.60
  -3   5   2   10.80    3.60
  -3   6  -2   24.80    4.50
   3   6   2   22.40    4.00
   3   6   2   17.30    7.50
  -3   6  -2   22.80    4.90
  -3   6   2   21.60    5.40
   3  -6   2   28.40    6.40
  -3   6   2   20.10    4.70
   3   6  -2   30.20    8.10
   3   6  -2   20.30    4.00
   3   7   2    2.50    7.50
  -3   7  -2   -0.30    3.70
  -3   7  -2    1.50    5.10
   3   7   2    2.40    3.60
   3   7  -2   -6.80    7.40
  -3   7   2   -4.60    3.20
   3   7  -2    5.40    3.60
  -3   7   2   -3.90    6.10
   3   8   2   -4.60    4.60
  -3   8  -2    1.50    5.10
   3   8   2    4.70    9.70
   3   8  -2    4.00    9.70
   3   8  -2    1.10    5.00
  -3   8   2   -5.10    7.50
  -3   8   2    3.40    5.60
   3   9   2    5.80    6.00
  -3   9  -2    2.90    6.70
   3   9   2   26.90   13.00
  -3   9   2   13.90    7.00
   3   9  -2   27.00   13.20
  -3   9   2    4.50    9.80
   3   9  -2    4.30    5.80
   4   0   2 3959.20  107.59
  -4   0  -2 4147.79  111.79
   4   0   2 3816.02  108.79
  -4   0   2 3938.71  110.59
  -4   0   2 3951.50  108.99
  -4   0  -2 3759.62  107.49
   4   0   2 3982.00  111.59
  -4   0  -2 3882.31  108.79
  -4   0   2 3805.22  107.99
   4   0  -2 4064.89  108.19
   4   1   2   14.80    3.30
  -4   1  -2   14.90    1.60
  -4  -1   2   19.90    1.90
   4  -1  -2   16.10    1.70
   4  -1  -2   12.50    3.30
   4   1   2   12.60    1.70
  -4   1  -2   21.40    1.80
   4   1   2   18.20    3.40
  -4  -1   2   13.00    2.70
  -4  -1   2   17.20    3.00
  -4   1  -2   16.50    4.00
   4   1  -2   15.50    2.10
  -4  -1  -2   13.80    3.20
   4  -1   2   14.20    4.20
   4   1  -2   15.10    2.90
  -4  -1  -2   14.90    3.40
  -4   1   2   19.20    2.00
   4  -1   2   12.80    1.60
  -4   1   2   12.40    3.60
  -4  -1  -2   17.90    1.60
   4  -1   2   18.30    1.70
  -4   2  -2   97.39    8.90
  -4  -2   2  101.29    4.50
   4   2   2  100.49    4.10
  -4  -2   2   91.29    6.50
   4  -2  -2   99.59    4.60
   4   2   2   97.49    5.70
   4  -2  -2  102.69    5.00
  -4  -2   2  103.99    5.80
  -4  -2   2  103.89    5.20
   4   2   2  105.49    6.70
  -4   2  -2  105.99    4.60
   4  -2  -2  109.59    7.20
   4   2  -2  100.09    6.60
  -4   2   2  102.99    4.60
  -4  -2  -2   96.09    7.10
  -4  -2  -2  102.89    4.20
   4  -2   2   94.59    7.90
  -4   2   2  109.29    5.20
   4  -2   2  104.09    4.60
  -4   2   2  104.59    8.00
   4  -2   2  101.59    3.50
  -4   3  -2  319.17   11.20
   4   3   2  330.67   10.80
   4  -3  -2  340.97   11.90
   4   3   2  317.57   10.30
   4   3   2  313.57   14.30
   4  -3  -2  296.97   13.90
  -4  -3   2  318.77   10.50
   4   3  -2  327.57   14.10
   4   3  -2  312.27   10.90
  -4   3   2  311.67   11.30
  -4   3   2  319.27   11.20
   4  -3   2  317.37   10.60
   4  -3   2  332.77   15.70
  -4   4  -2  386.96   13.90
   4  -4  -2  399.26   15.40
   4   4   2  385.16   13.30
   4   4   2  375.86   17.40
   4   4  -2  370.96   17.20
  -4   4   2  398.76   14.50
   4   4  -2  401.66   13.80
   4  -4   2  407.56   14.00
  -4   4   2  392.56   14.10
   4  -4   2  392.36   18.30
  -4   5  -2    8.70    3.10
   4   5   2    1.60    5.40
  -4   5  -2    7.90    3.10
   4   5   2    8.60    2.60
  -4   5   2   12.10    3.60
   4   5  -2    9.40    2.90
   4  -5   2   15.40    4.80
  -4   5   2   11.70    3.10
   4  -5   2   15.10    5.60
   4   5  -2    4.40    5.40
   4   6   2    2.50    3.20
   4   6   2   -0.10    6.70
  -4   6  -2   -7.50    3.00
  -4   6   2    2.20    4.00
   4   6  -2    0.70    6.60
  -4   6   2   -1.50    3.10
   4  -6   2   -6.10    5.60
   4   6  -2   -2.40    2.70
   4   7   2   66.89   11.50
  -4   7  -2   74.59    8.30
   4   7   2   77.89    7.40
   4   7  -2   56.49    6.60
   4   7  -2   88.99   12.70
  -4   7   2   79.59    8.20
  -4   7   2   76.19    9.00
  -4   8  -2   11.10    5.10
   4   8   2   18.50   10.60
   4   8   2   16.60    4.80
   4   8  -2   16.40    5.50
  -4   8   2    3.00    7.00
  -4   8   2    5.90    5.10
   4   8  -2   15.10    9.80
   4   9   2   -0.30    5.50
   4   9   2  -14.80   11.90
  -4   9  -2    3.20    5.80
   4   9  -2    3.70   12.70
  -4   9   2   17.10    9.50
  -4   9   2  -12.30    5.70
   4   9  -2  -11.40    5.30
  -5   0   2  407.26   12.50
  -5   0  -2  419.86   16.70
  -5   0   2  377.66   15.40
   5   0   2  401.46   16.60
  -5   0  -2  395.76   13.40
  -5   0   2  397.06   13.50
   5   0  -2  406.56   12.60
  -5   0  -2  396.26   12.00
   5   0   2  411.46   12.20
   5   0   2  398.76   13.30
   5   0  -2  388.66   15.10
   5   1   2  514.95   15.60
  -5  -1   2  489.95   17.20
  -5   1  -2  513.25   14.90
  -5  -1   2  490.95   15.60
   5   1   2  494.75   18.30
   5  -1  -2  459.45   18.20
   5  -1  -2  511.55   15.20
  -5   1  -2  529.75   20.50
   5   1   2  488.15   17.10
  -5  -1   2  474.75   17.30
  -5   1  -2  496.95   14.90
  -5   1   2  481.05   18.90
  -5  -1  -2  525.25   18.30
  -5   1   2  474.75   15.00
  -5  -1  -2  498.65   17.20
   5  -1   2  443.26   19.20
   5   1  -2  502.15   17.20
  -5  -1  -2  508.35   15.10
   5  -1   2  479.55   14.60
   5   1  -2  482.35   16.00
   5  -1   2  519.05   14.90
   5   2   2    2.60    2.20
  -5   2  -2   -0.60    1.10
  -5  -2   2    2.90    2.70
   5  -2  -2    2.40    3.40
   5   2   2   -2.00    2.80
  -5  -2   2    1.90    1.40
   5   2  -2    3.60    2.60
  -5   2   2    2.30    1.50
  -5  -2  -2    2.20    1.00
   5  -2   2   -0.20    1.20
  -5   2   2    0.40    1.20
   5  -2   2    0.60    4.00
  -5  -2  -2    1.50    1.40
  -5   2   2   -2.70    4.10
   5  -3  -2  136.99    6.80
   5   3   2  160.98    6.10
  -5  -3   2  145.49    8.00
   5   3   2  170.58   10.00
  -5   3  -2  146.39    6.60
  -5  -3   2  157.28    7.10
   5   3   2  151.78    6.80
   5  -3  -2  145.89    9.80
  -5   3   2  152.78    6.70
   5   3  -2  134.49    8.90
   5  -3   2  145.69    5.40
  -5   3   2  148.69    6.60
   5  -3   2  140.49   11.00
   5   4   2    9.70    4.80
   5  -4  -2   11.70    3.40
   5   4   2   11.60    2.20
  -5   4  -2    8.40    2.40
  -5   4   2    2.60    2.20
   5  -4   2    9.30    2.70
  -5   4   2    7.80    2.70
   5   4  -2   10.40    4.20
   5   4  -2    9.40    2.20
   5  -4   2    7.50    5.20
   5   5   2    5.90    5.80
   5   5   2    3.70    2.20
  -5   5  -2   11.30    3.50
   5  -5  -2    7.20    5.40
   5   5  -2    8.80    2.70
   5  -5   2    6.50    5.60
   5  -5   2    2.40    4.00
   5   5  -2   -2.30    4.60
  -5   5   2   12.60    3.30
  -5   5   2    2.00    3.20
  -5   6  -2    5.20    3.60
   5   6   2    0.60    3.00
   5   6   2    8.50    7.10
   5   6  -2    1.00    3.00
  -5   6   2   -2.10    3.20
  -5   6   2    4.70    4.00
   5   6  -2    1.60    7.30
   5  -6   2    2.10    7.10
   5   7   2    6.90    3.70
   5   7   2   19.30    8.70
  -5   7  -2   10.80    4.70
  -5   7   2   14.00    5.90
   5   7  -2   24.20    9.30
   5  -7   2   16.40    8.70
   5   7  -2   14.50    4.10
  -5   7   2   20.50    5.10
   5   8   2    2.30    4.50
   5   8   2   -1.90   10.20
  -5   8  -2   -3.40    5.10
  -5   8   2   15.90    6.00
   5   8  -2   -0.10    4.80
   5   8  -2   -0.80    9.90
  -5   8   2   11.80    7.50
  -5   9  -2   -4.90    6.10
   5   9   2  -12.00   12.50
   5   9   2    9.70    5.70
   5   9  -2   26.70   13.20
   5   9  -2   -1.80    5.70
  -5   9   2    6.40    7.10
   6   0  -2 3034.00   83.89
   6   0   2 3089.79   83.39
   6   0   2 2953.40   84.69
  -6   0  -2 3099.19   84.89
   6   0  -2 2979.50   87.09
  -6   0   2 2998.50   87.59
   6   0   2 3068.49   88.59
  -6   0  -2 2998.80   88.89
  -6   0   2 3072.29   84.99
  -6   0  -2 2903.61   83.19
  -6   0   2 2948.10   83.69
   6   1   2  322.17   14.10
  -6   1  -2  320.87   10.40
  -6  -1   2  330.87   11.20
  -6  -1   2  313.87   12.80
   6   1   2  316.27   12.70
  -6  -1   2  315.37   13.60
   6  -1  -2  313.37   14.50
  -6   1  -2  328.97   10.60
   6   1   2  345.47   11.20
  -6  -1  -2  306.57   14.20
  -6   1   2  319.57   10.70
   6  -1   2  331.97   15.50
  -6  -1  -2  326.07   10.50
  -6  -1  -2  328.77   13.00
   6  -1   2  326.87   10.40
   6  -1   2  323.17   10.30
   6   1  -2  324.37   12.80
  -6   2  -2   17.50    2.20
   6  -2  -2   18.90    5.10
   6   2   2   16.90    3.90
   6   2   2   11.00    3.60
  -6  -2   2   19.00    4.00
  -6  -2   2   14.40    2.30
  -6  -2  -2   18.80    3.90
   6   2  -2   20.30    4.10
  -6   2   2   18.70    2.30
  -6   2   2   14.00    2.20
  -6  -2  -2   16.10    2.00
  -6  -2  -2   20.60    2.50
   6  -2   2   10.40    4.80
  -6  -3   2   50.29    4.70
  -6  -3   2   51.99    6.00
   6  -3  -2   54.19    7.30
  -6   3  -2   51.99    3.80
   6   3   2   48.90    5.20
   6   3   2   58.99    6.60
  -6  -3  -2   44.20    4.50
  -6   3   2   60.49    4.20
   6   3  -2   53.39    6.60
   6  -3   2   46.70    7.30
  -6   3   2   51.79    3.90
   6   4   2  571.44   18.50
   6  -4  -2  574.14   23.60
  -6   4  -2  553.14   19.20
   6   4   2  549.95   23.80
   6  -4  -2  600.14   19.30
   6  -4   2  596.44   17.70
  -6   4   2  565.94   18.50
  -6   4   2  561.14   19.40
   6  -4   2  597.44   25.40
   6   4  -2  571.24   23.50
   6   5   2   61.39    5.00
   6   5   2   53.49    9.30
  -6   5  -2   60.99    6.20
   6  -5  -2   55.69    6.40
   6  -5   2   67.09   10.00
   6   5  -2   60.99    5.40
   6   5  -2   52.39    8.60
  -6   5   2   56.29    6.30
  -6   5   2   52.59    5.40
   6  -5   2   50.19    5.50
   6   6   2   53.09   11.00
  -6   6  -2   49.00    6.00
   6   6   2   44.80    5.10
   6   6  -2   54.39    6.30
   6  -6   2   49.60   11.00
  -6   6   2   51.69    6.10
   6   6  -2   47.50   10.30
   6  -6   2   40.40    9.10
  -6   6   2   57.69    6.10
   6   7   2   -5.50    8.30
   6   7   2    1.30    3.60
  -6   7  -2    2.70    4.50
  -6   7   2    1.40    4.60
   6  -7   2    1.70    9.10
   6   7  -2   18.80    9.30
   6   7  -2   -8.20    3.30
  -6   7   2    1.60    4.40
  -6   8  -2   24.90    6.30
   6   8   2   38.60   13.20
   6   8   2   37.30    6.60
   6   8  -2   23.90    5.50
  -6   8   2   21.10    6.90
  -6   8   2   29.50    6.00
   6   8  -2   21.50   11.40
   6   9   2    2.20    5.70
   6   9   2  -23.30   12.80
  -6   9  -2   -2.20    6.10
  -6   9   2   -3.30    6.50
   6   9  -2   -3.20    5.60
   6   9  -2   12.20   12.80
   7   0   2  708.33   21.00
   7   0   2  683.53   22.30
  -7   0   2  693.73   21.30
  -7   0   2  716.83   22.70
  -7   0  -2  704.53   22.50
   7   0  -2  714.63   25.20
   7   0   2  708.23   26.50
  -7   0  -2  688.43   20.70
  -7   1  -2    1.30    1.20
  -7  -1   2    4.40    4.80
  -7  -1   2    5.60    1.50
  -7   1  -2    1.00    1.90
   7   1   2    2.70    1.90
   7   1   2    4.00    3.80
   7  -1  -2    3.00    3.60
   7   1   2   -3.40    2.40
   7   1  -2    1.70    2.50
  -7   1   2    0.50    1.70
   7  -1   2   -0.80    1.20
  -7  -1  -2    2.20    4.70
  -7  -1  -2    3.00    1.20
   7  -1   2    1.00    4.30
  -7  -1  -2    1.70    2.90
  -7   1   2    2.20    1.20
   7  -1   2   -0.30    1.40
  -7   2  -2  318.47   11.30
   7   2   2  334.87   14.50
   7  -2  -2  371.06   17.00
   7   2   2  350.16   14.90
  -7  -2   2  323.57   14.70
  -7  -2   2  333.47   12.30
   7  -2   2  309.77   17.30
  -7   2   2  339.57   11.40
   7   2  -2  334.07   14.50
  -7  -2  -2  331.17   11.80
  -7  -2  -2  338.57   14.60
  -7   2   2  332.37   11.50
   7   3   2    3.40    4.20
  -7  -3   2   11.70    3.10
   7  -3  -2    5.40    5.10
  -7   3  -2   10.40    2.50
   7   3   2   12.00    3.60
  -7  -3   2    8.60    4.10
  -7   3   2    6.60    1.90
   7   3  -2    5.50    4.10
   7  -3   2   11.00    5.90
  -7   3   2    0.70    1.90
  -7  -3  -2   12.30    2.50
   7  -4  -2  364.76   19.20
  -7   4  -2  388.46   14.30
   7   4   2  373.96   18.50
  -7  -4   2  356.86   16.20
  -7  -4   2  382.36   13.60
  -7   4   2  360.86   12.60
   7   4  -2  382.16   18.70
   7  -4   2  384.06   20.90
  -7  -4  -2  374.06   15.70
  -7   4   2  379.66   14.10
   7   5   2   14.70    7.00
  -7   5  -2   11.90    3.70
   7  -5  -2    7.90    4.40
  -7  -5   2   10.20    5.50
  -7   5   2   12.10    4.00
   7  -5   2    9.80    2.70
   7  -5   2    7.50    9.00
  -7   5   2   13.00    2.90
   7   5  -2    5.30    6.20
  -7   6  -2   20.40    5.10
   7   6   2   16.30    8.90
   7   6   2   25.30    4.50
  -7   6   2   17.90    4.60
   7  -6   2   30.20    9.50
   7   6  -2   19.60    8.60
  -7   6   2   31.50    4.70
  -7   7  -2    6.90    5.10
   7   7   2   11.10    8.50
   7   7   2   11.60    4.30
   7   7  -2   18.00   10.20
  -7   7   2   14.00    4.50
  -7   7   2   11.70    5.00
   7  -7   2   11.20   10.50
  -7   8  -2   17.60    6.10
   7   8   2   -0.50    4.60
   7   8   2   15.50   11.40
  -7   8   2    5.10    5.90
   7   8  -2   28.50   12.80
   8   0   2 2634.74   75.59
  -8   0  -2 2610.44   73.79
  -8   0   2 2628.54   74.39
   8   0  -2 2647.64   78.99
   8   0   2 2733.13   80.89
  -8   0   2 2640.24   75.89
  -8   0  -2 2642.74   75.69
  -8   1  -2  554.64   17.50
   8  -1  -2  564.54   22.70
  -8   1  -2  543.45   17.10
  -8  -1   2  536.75   17.80
   8   1   2  562.34   20.00
   8   1   2  565.34   22.60
   8  -1   2  559.34   24.10
  -8  -1  -2  553.94   17.30
  -8   1   2  551.14   17.40
  -8   1   2  560.44   18.00
   8   1  -2  549.05   20.00
   8   1  -2  545.15   20.80
   8  -1   2  551.94   17.30
  -8  -2   2  248.38    9.90
   8   2   2  234.78   12.60
   8   2   2  228.28   11.90
  -8  -2   2  232.68   14.10
  -8   2  -2  242.38    9.00
   8  -2  -2  249.58   14.70
   8   2  -2  233.28   12.00
  -8   2   2  243.88    9.20
   8  -2   2  255.27   16.20
  -8   2   2  246.38    8.60
  -8  -2  -2  209.38   13.40
  -8  -2  -2  243.18    9.30
  -8   2   2  241.58    9.20
  -8  -3   2  493.95   19.50
   8  -3  -2  466.45   22.20
   8   3   2  489.35   18.40
   8   3   2  457.45   20.50
  -8   3  -2  511.95   16.60
  -8  -3   2  481.15   17.80
   8  -3   2  514.35   24.40
  -8  -3  -2  481.65   17.20
  -8   3   2  468.15   14.80
  -8   3   2  496.65   16.60
   8   3  -2  484.75   20.40
  -8  -4   2  166.48   11.10
  -8  -4   2  215.68   10.70
   8   4   2  190.28   13.50
  -8   4  -2  220.08    9.90
   8  -4  -2  190.18   15.70
  -8   4   2  208.58    7.50
   8   4  -2  197.28   13.80
  -8   4   2  209.48    9.60
   8  -4   2  201.38   17.80
  -8  -4  -2  222.78   11.00
   8   5   2  186.38   15.10
  -8  -5   2  174.48   12.40
  -8   5  -2  183.28    9.90
  -8   5   2  190.48    7.90
   8  -5   2  199.48   18.90
  -8   5   2  198.38   10.50
   8   5  -2  186.88   15.50
  -8  -5  -2  207.48   12.70
   8   6   2   25.40    9.40
  -8   6  -2   29.80    5.40
  -8  -6   2   21.20    7.90
  -8   6   2   20.80    5.10
   8   6  -2   19.70    8.90
  -8   6   2   17.80    3.60
  -8  -6  -2    9.00    6.70
   8  -6   2   34.80   11.50
  -8  -7   2   64.49   11.60
   8   7   2   76.69   14.20
  -8   7  -2   66.69    7.90
   8  -7   2   63.49   14.00
   8   7  -2   52.99   12.20
  -8   7   2   60.19    7.40
  -8   7   2   72.49    7.20
  -8   8  -2    5.20    6.30
  -8  -8   2  -13.50    9.00
   8   8   2   -5.60   11.30
   8   8  -2   18.90   11.80
  -8   8   2   11.60    6.30
  -9   0  -2  642.24   22.40
  -9   0  -2  683.13   20.40
   9   0   2  657.43   22.20
  -9   0   2  666.93   20.80
   9   0  -2  689.73   25.90
   9   0   2  666.53   27.30
   9   1   2  274.97   12.60
  -9  -1   2  280.87   10.60
   9  -1  -2  273.87   15.90
   9   1   2  294.77   15.60
  -9   1  -2  285.17   10.00
  -9   1  -2  292.17   10.70
   9  -1   2  278.07   17.20
  -9   1   2  289.77   10.40
   9   1  -2  281.67   12.80
  -9   1   2  285.17   11.10
   9   1  -2  299.27   14.10
   9  -1   2  275.27   10.30
  -9  -1  -2  282.27   10.10
   9   2   2  358.76   16.40
  -9  -2   2  338.47   12.90
   9  -2  -2  340.87   18.80
  -9   2  -2  330.87   11.90
   9   2   2  314.57   15.10
  -9   2   2  344.47   12.30
   9  -2   2  328.27   19.90
  -9   2   2  341.07   12.30
  -9  -2  -2  338.77   12.20
   9   2  -2  339.67   15.80
  -9   2   2  352.86   11.70
   9   3   2   70.09    9.20
  -9  -3   2   49.80    8.70
  -9   3  -2   62.09    4.90
   9  -3  -2   42.00    9.00
   9   3   2   62.49    8.10
  -9  -3   2   63.79    5.70
   9   3  -2   59.69    8.50
  -9   3   2   67.19    5.20
  -9   3   2   64.69    3.40
   9  -3   2   73.19   11.70
  -9  -3  -2   61.59    5.10
  -9   3   2   59.79    3.80
  -9   4  -2  605.04   20.20
   9  -4  -2  519.35   26.80
  -9  -4   2  569.34   22.00
   9   4   2  569.14   25.50
  -9  -4   2  559.64   21.60
  -9   4   2  571.54   20.10
   9  -4   2  616.54   29.60
   9   4  -2  604.64   25.50
  -9  -4  -2  590.24   21.50
   9   5   2    5.60    7.20
  -9   5  -2   -1.20    3.70
  -9  -5   2   -6.10    4.70
   9   5  -2   -5.40    6.80
  -9   5   2   -5.80    3.50
  -9  -5  -2    8.90    5.10
   9  -5   2   -3.90    8.90
  -9   6  -2  171.38   10.40
  -9  -6   2  137.29   13.60
   9   6   2  143.29   15.50
  -9   6   2  171.88   10.70
   9  -6   2  170.68   21.40
   9   6  -2  176.08   17.40
  -9  -6  -2  156.48   13.80
   9   7   2    6.80   10.70
  -9   7  -2    8.40    5.40
  -9  -7   2    1.90    7.40
   9  -7   2    1.80   11.70
  -9   7   2   -5.80    5.30
   9   7  -2   11.00   10.70
  -9  -7  -2    0.10    7.20
   9   8   2   28.70   14.50
  -9   8  -2   31.40    7.30
  -9  -8   2   39.60   12.00
  -9   8   2   26.70    7.10
  -9  -8  -2   14.30    9.60
   9   8  -2   28.10   12.10
  10   0   2   19.40    7.50
 -10   0  -2   21.80    2.50
  10   0  -2   18.40    5.60
 -10   0   2   16.10    2.60
  10   0   2   23.90    4.20
  10  -1  -2  360.16   19.20
 -10   1  -2  385.16   13.00
 -10  -1   2  368.86   13.70
  10   1   2  406.26   19.40
  10   1   2  373.26   15.90
 -10   1  -2  389.76   13.80
  10   1  -2  402.46   18.10
 -10  -1  -2  391.26   13.10
  10   1  -2  382.76   16.10
 -10   1   2  386.06   13.40
  10  -1   2  379.66   13.50
  10  -1   2  376.86   21.10
 -10   1   2  392.76   14.20
  10  -2  -2  216.68   16.10
 -10   2  -2  237.28    7.80
 -10  -2   2  250.07   10.20
 -10   2  -2  240.18    9.60
  10   2   2  247.48   14.30
  10   2   2  220.08   12.90
  10   2  -2  238.28   13.20
 -10   2   2  240.98    9.70
 -10   2   2  237.08    9.20
 -10  -2  -2  238.98    9.50
  10  -2   2  246.98   17.70
 -10  -3   2  269.07   11.80
 -10   3  -2  278.87   10.90
  10   3   2  261.77   14.00
  10  -3  -2  233.18   18.30
 -10  -3  -2  270.97   11.10
  10  -3   2  242.68   19.50
  10   3  -2  271.57   15.80
 -10   3   2  269.07    8.40
 -10   3   2  247.48    8.60
 -10   3   2  238.28   10.70
  10   4   2  143.09   13.30
 -10  -4   2  103.89   12.80
 -10  -4   2  133.79    9.70
 -10   4  -2  138.59    8.30
  10  -4  -2  131.19   16.70
 -10  -4  -2  101.99    8.40
 -10   4   2  124.19    8.00
  10  -4   2  137.09   16.40
  10   4  -2  120.59   13.30
  10   5   2   15.80    8.20
 -10   5  -2   11.80    4.50
 -10  -5   2   15.70    6.10
 -10   5   2    7.70    4.10
  10   5  -2    5.00    7.50
  10  -5   2   19.70   11.70
 -10  -5  -2    8.40    5.40
 -10   6  -2   55.39    6.80
 -10  -6   2   49.60    8.50
  10   6   2   54.09   11.80
 -10   6   2   46.60    6.80
  10   6  -2   44.80   11.80
 -10  -6  -2   40.50    8.60
  10  -6   2   72.79   14.00
 -10  -7   2    6.80    8.00
 -10   7  -2    7.40    5.60
  10   7   2   12.30   11.50
 -10  -7  -2   13.30    7.70
  10  -7   2  -24.60   11.60
 -10   7   2    0.40    4.80
  10   7  -2   -4.20   10.50
  10   8   2   42.40   15.60
 -10   8  -2   46.40    8.10
 -10  -8   2   57.59   13.10
  10   8  -2   53.49   14.20
 -10   8   2   36.20    8.80
 -10  -8  -2   60.39   12.00
 -11   0   2  148.89    7.20
 -11   0  -2  163.88    6.90
  11   0   2  147.29   14.00
  11   0   2  151.08    8.70
  11   0  -2  160.78   12.80
 -11   1  -2  529.75   17.40
  11   1   2  517.45   20.50
  11   1   2  538.15   24.50
 -11   1  -2  526.65   18.20
  11  -1  -2  537.45   25.50
 -11  -1   2  534.35   18.00
  11  -1   2  541.75   27.10
 -11   1   2  548.85   17.90
  11  -1   2  519.55   17.80
 -11  -1  -2  536.55   17.40
 -11   1   2  520.35   18.80
  11   1  -2  543.25   23.30
  11   1  -2  527.25   20.80
 -11   2  -2  107.09    6.40
 -11  -2   2  107.99    6.90
  11   2   2  100.79   11.50
 -11   2  -2  101.29    5.20
  11  -2  -2  107.99   13.50
  11   2   2  114.79   10.20
 -11   2   2  111.19    6.20
  11   2  -2   94.29   10.00
 -11  -2  -2  101.29    6.00
  11  -2   2  129.49   15.50
 -11   2   2   99.09    6.20
  11  -3  -2  401.26   24.20
 -11  -3   2  444.26   17.10
  11   3   2  472.05   19.80
  11   3   2  431.06   21.00
 -11   3  -2  438.46   15.80
  11  -3   2  460.45   26.80
 -11   3   2  424.96   16.00
 -11   3   2  440.16   13.30
 -11  -3  -2  421.26   16.20
  11   3  -2  440.26   20.80
 -11  -4   2   60.19    7.30
  11  -4  -2   42.50   11.50
 -11   4  -2   61.49    6.80
  11   4   2   60.89   10.60
 -11  -4  -2   61.29    6.80
  11  -4   2   60.09   13.70
  11   4  -2   65.29   11.00
 -11   4   2   65.79    6.40
 -11   5  -2  180.08   11.00
 -11  -5   2  198.08   13.40
  11   5   2  223.68   18.00
  11   5  -2  195.38   16.60
  11  -5   2  200.78   22.60
 -11   5   2  204.98   11.40
 -11  -5  -2  210.68   12.50
 -11   6  -2   24.90    6.00
 -11  -6   2   30.60    7.90
  11   6   2   30.60   10.30
  11   6  -2   20.40    9.30
  11  -6   2   50.09   15.20
 -11   6   2   28.40    6.40
 -11  -6  -2   38.50    7.70
 -11  -7   2   45.40   10.80
  11   7   2   19.50   12.20
 -11   7  -2   20.60    6.20
  11  -7   2   13.10   14.20
 -11  -7  -2   32.20    9.60
  11   7  -2   43.30   13.20
 -11   7   2   36.10    6.90
 -11  -8   2   30.10   12.40
  11   8   2   47.60   16.10
 -11   8  -2   13.80    6.90
 -11  -8  -2   22.70   11.10
  11   8  -2   13.50   14.80
 -11   8   2   19.70    7.50
 -12   0  -2   94.89    5.50
  12   0   2  107.29   13.70
  12   0   2   87.59    7.20
  12   0  -2  117.99   13.80
 -12   0   2  104.79    6.40
  12   1   2    8.10    4.50
 -12   1  -2   14.60    4.50
  12   1   2    0.40    6.90
 -12   1  -2    7.70    2.50
 -12  -1   2   13.20    3.00
  12  -1  -2   11.20    7.70
  12   1  -2   11.90    6.50
 -12  -1  -2   11.60    2.60
  12  -1   2    9.40    3.00
 -12   1   2    0.40    2.40
  12  -1   2   19.70    8.60
  12   2   2  168.38   15.00
  12   2   2  180.68   13.30
 -12   2  -2  210.08    9.10
  12  -2  -2  174.48   18.20
 -12  -2   2  190.28    9.30
 -12   2  -2  183.28    8.10
 -12   2   2  195.68    8.70
 -12  -2  -2  198.98    8.90
  12  -2   2  159.78   17.60
  12   2  -2  186.78   13.20
 -12   2   2  182.38    9.00
  12   3   2    1.10    6.40
 -12   3  -2    7.00    3.30
  12  -3  -2   10.90    8.90
 -12  -3   2   -0.20    3.50
  12   3   2   13.80    5.80
  12  -3   2    9.80   10.60
 -12   3   2    4.90    3.60
 -12   3   2    8.10    1.60
  12   3  -2    9.00    7.30
 -12  -3  -2    3.20    2.90
  12  -4  -2    1.10    9.40
 -12   4  -2    2.50    3.60
 -12  -4   2   10.70    4.50
  12   4   2   14.00    7.50
 -12  -4  -2   12.70    4.50
 -12   4   2    2.30    3.40
  12   4  -2    9.80    7.20
  12  -4   2   13.10   11.40
 -12  -5   2    2.50    5.40
  12   5   2    5.90    8.40
 -12   5  -2   -3.00    4.00
 -12   5   2    5.40    4.20
  12   5  -2    1.10    7.90
  12  -5   2   -8.40   10.80
 -12  -5  -2   -0.60    4.80
  12   6   2    5.80   10.10
 -12  -6   2    0.40    6.10
 -12   6  -2   -1.80    4.80
  12  -6   2   -2.60   12.90
 -12  -6  -2    1.90    6.30
  12   6  -2   -2.80    8.80
 -12   6   2   11.80    5.30
 -12   7  -2    1.50    5.80
  12   7   2    8.60   11.60
 -12  -7   2   -7.60    8.00
 -12  -7  -2  -15.40    8.10
 -12   7   2   13.60    6.20
  12   7  -2   -6.50   11.70
  12  -7   2    7.20   15.00
 -13   0  -2 1486.65   43.40
  13   0   2 1429.16   53.49
  13   0   2 1463.75   45.80
 -13   0   2 1479.45   44.00
  13   0  -2 1463.95   52.29
  13  -1  -2  233.58   18.70
  13   1   2  241.18   13.40
  13   1   2  239.18   19.90
 -13   1  -2  210.68   11.60
 -13   1  -2  263.27   10.40
 -13  -1   2  239.48   10.70
  13  -1   2  236.48   20.20
 -13  -1  -2  241.88   10.20
 -13   1   2  231.88   10.50
  13  -2  -2  859.81   38.30
 -13   2  -2  882.41   28.00
  13   2   2  865.21   32.90
  13   2   2  931.31   35.80
 -13  -2   2  884.31   28.80
 -13   2  -2  878.11   26.90
 -13   2   2  868.81   28.30
 -13   2   2  869.11   27.60
 -13  -2  -2  937.21   28.20
  13  -2   2  808.52   39.50
  13   2  -2  887.51   33.00
  13   3   2  350.86   20.20
  13  -3  -2  384.66   25.60
 -13  -3   2  352.46   14.90
  13   3   2  358.46   19.60
 -13   3  -2  364.26   14.30
  13   3  -2  355.66   20.40
 -13  -3  -2  371.26   14.50
  13  -3   2  344.57   26.50
 -13   3   2  347.07   14.40
  13  -4  -2  299.97   24.60
 -13   4  -2  345.67   14.60
  13   4   2  318.17   21.00
 -13  -4   2  355.26   15.90
  13  -4   2  301.77   26.90
  13   4  -2  349.77   21.50
 -13  -4  -2  336.27   15.10
 -13   4   2  348.27   15.00
 -13  -5   2  237.78   14.50
 -13   5  -2  251.07   12.90
  13   5   2  261.97   19.60
 -13   5   2  250.27   13.20
  13  -5   2  256.37   25.60
 -13  -5  -2  249.48   14.00
  13   5  -2  249.58   20.10
 -13  -6   2   32.70    8.50
  13   6   2   28.10   12.30
 -13   6  -2   27.80    6.70
  13  -6   2   24.30   14.40
 -13  -6  -2   32.10    7.40
 -13   6   2   23.40    6.30
  13   6  -2   30.20   11.80
 -13   7  -2  113.59   12.40
  13   7   2  125.29   19.50
 -13  -7   2  132.19   14.70
 -13   7   2  111.99   12.80
  13  -7   2  126.29   23.00
 -13  -7  -2  134.69   14.00
  13   7  -2  130.79   19.10
  14   0   2   -5.50   10.00
 -14   0   2    2.60    3.10
 -14   0  -2    5.00    2.70
  14   0  -2    6.30    8.40
  14   0   2   -5.30    3.70
 -14   1  -2 1125.79   34.10
  14   1   2 1121.09   38.20
 -14  -1   2 1099.09   34.60
  14   1   2 1081.49   44.00
  14  -1  -2 1073.89   44.60
  14  -1   2 1128.49   46.80
 -14  -1  -2 1117.09   34.00
 -14   1   2 1081.79   34.50
  14   2   2   95.79   11.20
 -14  -2   2   91.39    7.20
 -14   2  -2   75.69    6.70
  14   2   2   69.49   12.30
  14  -2  -2   63.69   13.90
 -14   2  -2   66.79    6.10
  14  -2   2   77.79   15.80
 -14   2   2   99.69    8.00
  14   2  -2   58.99    9.40
 -14   2   2   67.39    6.80
 -14  -2  -2   77.59    6.20
 -14   3  -2  388.06   15.40
  14  -3  -2  367.96   26.30
  14   3   2  356.56   21.20
  14   3   2  391.76   21.30
 -14  -3   2  386.96   16.20
 -14  -3  -2  397.76   15.60
 -14   3   2  383.36   15.80
  14   3  -2  410.76   22.10
  14  -3   2  381.26   28.50
 -14   4  -2    8.90    4.10
  14   4   2    4.80    8.00
 -14  -4   2    6.20    4.70
  14  -4  -2    6.50   10.10
 -14  -4  -2    4.90    4.20
  14  -4   2    4.70   12.50
  14   4  -2    0.00    7.80
 -14   4   2    4.00    3.80
 -14   5  -2   85.79    9.10
  14   5   2   89.89   13.90
 -14  -5   2  116.89   10.80
  14   5  -2  124.49   16.00
 -14   5   2  119.29    9.30
 -14  -5  -2   93.59    9.90
  14  -5   2   83.89   17.70
 -14   6  -2   53.39    7.80
  14   6   2   68.29   14.70
 -14  -6   2   59.89    9.30
 -14   6   2   59.99    7.80
  14   6  -2   33.10   13.10
 -14  -6  -2   48.10    8.50
  14  -6   2   67.49   17.30
  14   7   2   15.80   12.70
 -14   7  -2   19.30    6.80
 -14  -7   2   -8.60    9.30
 -14  -7  -2   -2.20    8.30
  14   7  -2    2.30   13.40
  14  -7   2  -33.10   15.50
 -14   7   2    0.60    6.80
  15   0   2   14.10   10.50
 -15   0   2    7.20    3.80
  15   0   2   14.80    5.10
 -15   0  -2    4.10    3.10
  15   0  -2   -4.10    8.60
  15   1   2   45.80   12.20
 -15   1  -2   52.09    5.90
  15   1   2   43.20    8.00
 -15  -1   2   54.49    6.30
  15  -1  -2   38.60   12.40
 -15   1   2   52.29    5.70
  15  -1   2   35.50   12.30
 -15  -1  -2   47.40    5.30
  15  -2  -2    5.30   10.10
  15   2   2   18.30    9.90
 -15  -2   2   14.70    4.30
  15   2   2   26.20    8.40
 -15   2  -2   15.70    4.00
  15  -2   2   28.70   13.00
 -15   2   2   14.60    4.10
 -15  -2  -2   18.20    4.00
  15   3   2   10.70    7.60
 -15  -3   2    6.70    4.00
 -15   3  -2    6.30    3.80
  15  -3  -2    0.40   11.60
  15   3   2    7.10    8.00
 -15  -3  -2   10.50    4.10
  15  -3   2   -9.90   12.40
  15   3  -2    0.90    7.80
 -15   3   2    5.60    4.00
 -15  -4   2    8.50    5.10
 -15   4  -2   11.50    4.80
  15   4   2    8.30    8.10
  15   4  -2   -8.70    8.80
 -15   4   2    8.30    4.20
  15  -4   2    8.00   13.20
 -15  -4  -2    2.40    4.70
 -15   5  -2   23.20    6.10
 -15  -5   2   14.80    6.60
  15   5   2   21.60   11.50
 -15   5   2    8.50    5.80
  15  -5   2   25.90   15.50
  15   5  -2   33.20   13.40
 -15  -5  -2    6.60    5.30
 -15  -6   2   23.10    7.90
 -15   6  -2   20.70    7.10
  15   6   2   13.70   12.50
  15   6  -2   13.70   13.00
 -15   6   2   14.70    6.80
  15  -6   2   13.20   17.10
 -15  -6  -2   16.20    7.20
  16   0   2  336.97   26.70
 -16   0  -2  326.77   13.70
 -16   0   2  344.07   14.60
  16   0   2  360.56   16.70
  16  -1  -2  187.68   21.20
 -16  -1   2  162.88    9.80
 -16   1  -2  178.78    9.60
  16   1   2  167.88   20.40
  16   1   2  184.48   13.90
 -16   1   2  194.98   10.30
 -16  -1  -2  181.28    9.60
  16  -1   2  176.98   21.50
  16  -2  -2  165.98   21.20
  16   2   2  143.89   15.00
 -16  -2   2  155.88    9.60
 -16   2  -2  131.19    8.90
  16   2   2  176.68   19.60
 -16   2   2  141.89    9.20
 -16  -2  -2  134.69    8.80
  16  -2   2  136.79   19.40
  16  -3  -2   98.19   16.10
  16   3   2  132.69   17.10
 -16  -3   2   98.59    8.90
 -16   3  -2  101.49    8.40
  16   3   2  115.79   14.80
 -16   3   2   95.49    8.90
 -16  -3  -2   95.29    8.30
  16  -3   2  100.09   17.90
 -16  -4   2  138.69   11.00
  16   4   2  113.99   15.60
 -16   4  -2  103.79    9.60
 -16   4   2  120.19    9.90
  16  -4   2  101.09   18.80
  16   4  -2  108.19   15.30
 -16  -4  -2  107.29    9.60
  16   5   2   70.79   15.20
 -16  -5   2   53.69    9.30
 -16   5  -2   69.49    8.60
 -16   5   2   63.19    7.80
  16   5  -2   75.39   14.70
  16  -5   2   50.09   18.30
 -16  -5  -2   76.79    8.70
 -16  -6   2   -4.50    7.50
 -16   6  -2   -0.90    6.20
  16   6   2  -15.20   12.20
 -16  -6  -2   -6.30    6.90
  16  -6   2   -8.70   17.30
 -16   6   2   -5.90    6.00
  16   6  -2   13.10   12.60
  17   0   2   54.99   14.30
 -17   0  -2   75.19    7.10
 -17   0   2   70.79    7.40
  17   1   2   -1.90    7.00
 -17   1  -2    5.10    3.70
 -17  -1   2    5.70    3.90
  17   1   2    0.30   11.60
  17  -1   2  -12.80   11.60
 -17   1   2    3.90    3.80
 -17  -1  -2    3.50    3.60
 -17   2  -2   68.79    7.40
  17  -2  -2   74.79   15.60
  17   2   2   69.09   11.70
 -17  -2   2   83.69    7.60
  17   2   2   61.99   13.70
 -17   2   2   70.59    7.60
 -17  -2  -2   71.99    7.40
  17  -2   2   65.89   16.10
  17   3   2   -1.30    9.30
  17   3   2   -3.00   10.40
 -17   3  -2    2.00    4.60
 -17  -3   2    1.60    4.70
 -17   3   2    3.40    4.90
 -17  -3  -2    5.70    4.20
  17  -3   2   -3.60   13.40
  17   4   2    3.40   10.70
 -17   4  -2  -10.40    4.40
 -17  -4   2    3.10    5.40
 -17   4   2    7.90    5.50
  17  -4   2  -19.90   14.20
 -17  -4  -2    0.00    4.90
 -17  -5   2    7.00    6.80
  17   5   2   20.60   12.40
 -17   5  -2   13.70    6.70
 -17  -5  -2    4.00    6.00
  17  -5   2    0.30   16.40
 -17   5   2   -1.50    6.20
  17   5  -2    8.60   12.50
 -17  -6   2   -3.80    8.10
 -17   6  -2    8.20    6.90
  17  -6   2    1.30   18.30
 -17  -6  -2    6.50    7.60
 -17   6   2   11.40    7.40
 -18   0   2   97.49    8.60
  18   0   2  103.79   18.30
 -18   0  -2  102.59    8.30
  18   1   2   11.20    8.20
 -18  -1   2   10.50    4.80
  18   1   2  -25.90   11.00
 -18   1  -2    1.50    3.80
 -18  -1  -2    7.80    4.20
 -18   1   2   -2.80    4.10
  18  -1   2   12.40   13.60
 -18  -2   2  108.89    9.60
 -18   2  -2  122.89    9.40
  18   2   2   95.39   13.30
  18   2   2  109.79   16.70
 -18  -2  -2  118.49    9.10
 -18   2   2  126.59    9.20
  18  -2   2   86.39   18.90
 -18   3  -2   -3.20    4.70
 -18  -3   2    7.30    5.20
  18   3   2   21.50   10.70
  18  -3   2   11.50   14.40
 -18   3   2    6.70    5.10
 -18  -3  -2   16.50    5.20
  18   4   2   65.99   15.10
 -18   4  -2   73.89    8.60
 -18  -4   2   50.39    8.40
 -18   4   2   66.49    8.70
 -18  -4  -2   64.89    8.00
  18  -4   2   53.19   19.20
 -18   5  -2   17.60    6.80
 -18  -5   2   22.90    7.90
  18   5   2   45.30   15.30
 -18   5   2   17.20    6.60
  18  -5   2    7.40   18.90
 -18  -5  -2    8.80    7.00
 -19   0  -2   23.40    5.20
 -19   0   2   24.60    5.50
  19   0   2   41.00   15.40
  19   1   2   81.49   16.20
 -19  -1   2   58.89    7.00
 -19   1  -2   60.99    7.00
  19  -1   2   54.79   17.20
 -19   1   2   57.99    7.30
 -19  -1  -2   68.09    7.20
  19   2   2   36.70   11.40
 -19  -2   2   33.00    6.40
 -19   2  -2   44.70    6.90
  19   2   2   52.99   15.50
 -19   2   2   54.49    7.60
 -19  -2  -2   55.59    6.90
  19  -2   2   46.90   17.80
 -19  -3   2   22.60    6.60
 -19   3  -2   11.00    5.60
  19   3   2   13.40   11.30
 -19  -3  -2   20.40    6.00
 -19   3   2   22.50    6.00
  19  -3   2    2.60   15.20
 -19   4  -2   73.39    8.90
 -19  -4   2   65.99    9.00
  19   4   2   80.89   16.20
 -19   4   2   80.99    9.70
  19  -4   2   46.10   19.80
 -19  -4  -2   83.49    9.40
 -20   0  -2    3.00    4.80
 -20   0   2   -0.20    4.90
  20   0   2    7.20   14.10
 -20  -1   2   97.39    9.90
 -20   1  -2  109.69    9.40
  20   1   2   91.59   18.70
 -20   1   2   89.89   10.00
 -20  -1  -2   86.19    9.10
  20  -1   2   90.99   19.20
 -20   2  -2   13.00    5.50
  20   2   2   26.20   11.20
 -20  -2   2   19.50    6.30
  20   2   2   24.20   15.50
 -20   2   2   16.30    5.90
  20  -2   2   16.40   17.10
 -20  -2  -2   14.00    5.30
  20   3   2   51.09   14.10
 -20   3  -2   41.60    7.40
 -20  -3   2   44.90    8.00
 -20   3   2   50.09    7.80
  20  -3   2   12.50   17.50
 -20  -3  -2   61.89    8.30
 -20  -4   2    8.10    7.20
 -20   4  -2   -2.10    6.20
 -20  -4  -2    4.50    6.60
  20  -4   2  -20.30   20.40
 -20   4   2    7.50    6.50
  21   0   2  119.19   22.30
 -21   0   2  130.09   11.60
 -21   0  -2  149.69   11.50
 -21  -1   2  102.29   11.10
  21   1   2   80.29   19.70
 -21   1  -2  106.49   10.70
 -21  -1  -2  121.79   11.10
  21  -1   2  135.59   22.70
 -21   1   2  121.49   11.40
 -21  -2   2  278.37   15.90
 -21   2  -2  272.27   15.40
 -21   2   2  270.87   15.60
  21  -2   2  274.87   30.60
 -21  -2  -2  270.87   14.40
 -22   0  -2  151.48   12.40
  22   0   2  195.68   26.60
 -22   0   2  172.18   13.20
  22  -1   2   37.70   19.00
   0   0   3   -3.40    1.10
   0   0  -3   -4.70    1.00
   0   0  -3   -3.50    0.30
   0   0   3   -4.10    0.20
   0   1   3    0.30    0.50
   0  -1  -3    0.60    0.50
   0  -1  -3    1.40    1.60
   0  -1   3    0.00    0.60
   0   1  -3    0.50    0.50
   0   1   3    1.50    2.00
   0   2   3    6.00    2.70
   0   2  -3   16.40    1.80
   0  -2  -3   10.50    3.20
   0  -2   3   20.60    3.00
   0   2   3    8.10    1.40
   0  -2  -3   13.80    1.70
   0  -3   3   -1.20    2.70
   0   3  -3    0.50    1.10
   0   3   3    2.80    2.30
   0  -3   3    0.00    2.30
   0   3   3    1.00    2.80
   0  -3  -3    1.50    3.80
   0   3   3   -0.70    1.10
   0   3  -3   -0.30    2.00
   0   4   3    2.40    3.10
   0   4  -3    6.50    2.10
   0   4   3    3.80    1.60
   0  -4   3    5.60    3.40
   0   4   3    4.40    3.40
   0   4  -3   -0.60    2.70
   0   5   3    2.80    4.30
   0   5   3   -4.20    2.30
   0   5  -3    0.60    3.30
   0  -5   3   -5.90    3.60
   0   5  -3   -4.10    2.00
   0   5   3  -10.90    4.50
   0   6  -3   69.09    6.40
   0   6   3   74.69    9.50
   0  -6   3   65.39    7.20
   0   6   3   77.59    8.90
   0   6   3   79.39    6.50
   0   6  -3   87.59    9.90
   0   7   3   -7.60    6.70
   0   7  -3    3.10    6.50
   0   7  -3    4.80    3.60
   0   7   3    0.20    3.80
   0   8   3   36.10    6.60
   0   8   3   39.60   10.60
   0   8  -3   44.30    7.10
   0   9   3    0.10   10.90
   0   9  -3    3.90    6.20
   0   9   3   -1.80    5.80
   1   0  -3   -2.10    0.40
   1   0   3   -1.00    1.10
  -1   0  -3   -2.30    0.90
  -1   0   3   -1.90    0.40
  -1   1  -3   53.69    2.40
   1  -1  -3   55.19    2.30
  -1  -1   3   59.09    2.50
   1   1   3   56.79    2.20
   1  -1  -3   54.19    3.70
   1   1   3   61.79    4.40
   1  -1   3   59.99    2.40
   1   1  -3   52.89    2.40
  -1   1   3   56.59    3.80
  -1   1   3   56.39    2.40
  -1  -1  -3   58.59    2.20
  -1  -1  -3   60.59    4.60
   1   2   3   54.09    2.80
   1  -2  -3   60.49    5.20
  -1  -2   3   65.29    4.60
  -1  -2   3   59.59    3.20
   1  -2  -3   59.19    3.00
   1   2   3   48.60    5.10
  -1   2  -3   57.79    3.10
   1  -2   3   52.49    3.10
  -1   2   3   55.19    3.00
  -1  -2  -3   55.99    5.50
   1  -2   3   56.39    3.70
  -1   2   3   50.79    4.80
   1   2  -3   57.59    3.10
   1  -2   3   52.69    4.80
   1   2  -3   58.49    4.50
  -1  -2  -3   56.39    2.80
  -1   3  -3  331.27   11.30
  -1  -3   3  318.37   13.40
   1  -3  -3  342.47   13.70
   1   3   3  327.57   13.90
   1   3   3  347.87   11.20
  -1  -3   3  333.97   12.30
  -1   3  -3  342.67   12.40
   1  -3   3  335.17   12.60
  -1   3   3  343.17   11.30
   1  -3   3  347.77   13.90
  -1   3   3  347.17   13.30
   1   3  -3  322.87   11.30
  -1   3   3  330.17   12.90
   1   3  -3  323.57   13.10
   1   4   3   39.40    3.60
  -1  -4   3   43.40    5.40
   1   4   3   47.20    5.20
  -1   4  -3   62.39    5.60
   1   4   3   40.10    5.60
  -1   4  -3   56.79    4.00
  -1   4   3   44.60    5.80
  -1   4   3   63.79    7.30
   1   4  -3   44.30    3.90
  -1   4   3   41.90    3.80
   1   4  -3   44.00    5.70
   1   5   3   -7.40    3.90
   1   5   3    0.30    3.60
  -1   5  -3   -2.60    3.20
  -1   5  -3    0.40    2.60
  -1  -5   3    1.80    3.30
   1   5   3    5.60    2.70
   1  -5   3    6.50    4.40
   1   5  -3    1.20    4.20
  -1   5   3   -1.40    5.40
  -1   5   3   -3.00    3.60
  -1   5   3    1.80    2.80
   1   5  -3   -1.80    2.40
   1   6   3   52.49    6.10
  -1   6  -3   43.70    5.50
   1   6   3   36.70    7.90
  -1   6  -3   48.50    7.20
  -1   6   3   79.69    9.10
  -1   6   3   47.80    8.10
   1  -6   3   53.89    6.60
   1   6  -3   46.30    5.50
   1   6  -3   49.99    8.10
  -1   6   3   41.80    5.40
   1   7   3    3.50    4.00
  -1   7  -3    3.60    4.10
   1   7   3   -2.00    7.70
  -1   7  -3    4.40    5.80
   1   7  -3    3.70    3.60
   1   7  -3    0.40    6.80
  -1   7   3   11.90    4.50
  -1   7   3   15.60    7.20
   1   8   3   53.79   12.20
  -1   8  -3   60.09    7.90
   1   8   3   37.20    6.50
   1   8  -3   38.60   10.40
   1   8  -3   45.10    7.30
  -1   8   3   40.10    7.00
  -1   8   3   46.50   10.30
   1   9   3   -6.40    6.00
   1   9   3   31.10   12.20
  -1   9  -3    5.30    6.40
  -1   9   3   15.70   10.90
  -1   9   3   -4.50    5.40
   1   9  -3    0.20    5.90
  -2   0  -3   -0.90    0.20
  -2   0  -3   -0.80    1.10
  -2   0   3   -1.70    0.40
   2   0  -3   -0.50    0.60
   2   0   3    0.10    1.60
   2   0   3   -0.50    0.20
  -2  -1   3   -1.00    0.60
  -2  -1   3   -2.40    1.50
   2  -1  -3   -1.70    1.50
  -2   1  -3   -0.70    0.70
  -2  -1   3   -0.10    1.00
   2   1   3   -0.70    0.40
   2  -1  -3   -0.70    0.70
   2   1   3   -1.20    2.30
   2  -1   3    0.00    0.70
  -2   1   3    1.50    0.70
  -2  -1  -3   -0.50    0.50
   2  -1   3   -1.90    1.90
  -2  -1  -3    0.60    2.40
  -2   1   3    0.00    1.60
   2   2   3   14.20    1.50
  -2  -2   3   14.20    2.80
  -2   2  -3   15.30    1.80
   2   2   3   20.70    3.70
   2  -2  -3   11.20    1.50
  -2  -2   3    9.20    1.50
   2  -2  -3   16.30    2.80
  -2   2   3   12.00    2.90
   2  -2   3   12.30    1.90
  -2   2   3   12.80    1.60
   2  -2   3   18.10    4.00
  -2  -2  -3   16.10    3.50
  -2   2   3   17.20    3.20
  -2  -2  -3   14.80    1.60
   2  -2   3   12.20    1.60
   2   2  -3   13.00    1.50
   2   2  -3   16.90    3.10
   2   3   3  332.07   14.50
  -2   3  -3  329.87   11.70
   2  -3  -3  338.87   14.00
   2   3   3  338.27   11.40
   2   3  -3  352.26   14.10
   2  -3   3  375.76   15.30
   2   3  -3  357.36   11.90
  -2   3   3  338.77   11.70
  -2   3   3  341.37   13.40
   2  -3   3  385.46   12.70
  -2   3   3  351.36   14.30
  -2   4  -3   55.39    5.00
   2   4   3   36.30    3.30
  -2  -4   3   37.70    4.50
  -2   4  -3   50.69    3.90
   2   4   3   42.00    4.00
   2   4   3   36.90    6.20
   2   4  -3   34.30    3.50
   2  -4   3   44.10    6.10
   2  -4   3   51.79    6.40
  -2   4   3   30.40    6.20
  -2   4   3   33.30    3.70
   2   4  -3   35.20    5.00
  -2   4   3   37.70    5.50
   2   5   3  159.88    8.00
  -2   5  -3  159.58    8.10
  -2   5  -3  160.18    9.10
  -2  -5   3  168.68    7.00
   2   5   3  162.48   12.10
   2   5  -3  156.98   10.90
   2   5  -3  159.58    8.30
  -2   5   3  151.88   14.00
  -2   5   3  169.08    8.40
   2  -5   3  167.08   11.90
  -2   5   3  169.38   10.20
   2   6   3   61.49    6.30
  -2   6  -3   54.19    6.20
   2   6   3   60.79    9.60
  -2   6  -3   60.79    7.40
  -2   6   3   60.59    8.30
  -2   6   3   56.99    6.20
   2   6  -3   56.29    5.70
   2   6  -3   58.99    8.70
   2  -6   3   57.49    7.70
   2   7   3  455.25   17.90
   2   7   3  426.66   23.10
  -2   7  -3  462.05   18.50
  -2   7   3  453.25   21.30
  -2   7   3  427.86   18.00
   2   7  -3  467.75   23.20
   2   7  -3  465.25   18.10
   2   8   3   10.40    9.40
  -2   8  -3   19.60    5.60
   2   8   3   20.70    5.60
  -2   8   3   15.40    5.60
   2   8  -3   10.10    5.00
  -2   8   3    2.40    8.30
   2   8  -3   20.40    9.80
  -2   9  -3  151.28   12.80
   2   9   3  125.99   12.20
   2   9   3  151.28   18.80
  -2   9   3  136.89   11.60
  -2   9   3  118.79   15.10
   2   9  -3  148.59   12.50
   3   0   3  -11.70    1.90
   3   0  -3  -10.20    0.70
  -3   0  -3   -8.00    2.20
  -3   0  -3  -11.90    0.40
   3   0   3  -11.30    2.00
  -3   0   3  -11.80    0.70
   3   0   3  -11.80    0.40
  -3   1  -3   -7.00    0.80
   3   1   3   -7.60    2.70
   3  -1  -3   -4.30    0.80
  -3  -1   3   -5.10    1.00
  -3  -1   3   -5.00    1.80
  -3   1  -3   -5.20    2.80
   3   1  -3   -6.80    1.20
  -3  -1  -3   -5.00    2.70
  -3  -1  -3   -5.70    0.70
   3  -1   3   -4.40    3.00
  -3   1   3   -5.00    1.70
   3  -1   3   -4.10    1.20
   3  -1   3   -6.20    0.80
  -3   1   3   -4.20    1.10
  -3  -1  -3   -7.00    0.40
  -3  -2   3  108.49    4.90
  -3   2  -3  112.89    8.20
   3   2   3  114.69    7.00
  -3  -2   3  109.19    7.10
   3  -2  -3  113.19    4.80
  -3   2  -3  102.09    4.70
   3  -2  -3  117.39    5.90
   3   2   3  119.19    4.40
   3   2  -3  110.19    4.70
  -3   2   3  109.39    7.50
   3   2  -3  108.99    6.60
  -3  -2  -3  130.29    4.60
   3  -2   3  103.89    4.60
   3  -2   3  114.09    8.10
  -3   2   3  107.39    4.80
   3  -2   3  116.49    4.80
  -3  -2  -3  134.89    7.90
  -3   2   3  110.89    5.90
  -3   3  -3   10.40    1.80
   3  -3  -3   18.30    3.40
  -3   3  -3    8.00    5.00
   3   3   3   15.20    3.90
   3   3   3   13.90    2.00
  -3   3   3   11.90    2.10
   3  -3   3   18.70    2.70
   3  -3   3   17.70    4.80
  -3   3   3   18.80    5.10
  -3   3   3   13.30    3.20
   3   3  -3    8.10    3.10
   3   3  -3   12.10    1.90
  -3   4  -3  348.37   12.40
  -3  -4   3  339.07   11.30
   3  -4  -3  325.27   15.10
   3   4   3  303.07   15.40
   3   4   3  328.97   11.70
  -3   4   3  343.07   13.70
   3   4  -3  328.57   12.00
   3  -4   3  341.77   16.50
   3   4  -3  330.67   15.00
  -3   4   3  341.37   12.40
   3  -4   3  339.77   13.10
   3   5   3  118.19    6.70
   3   5   3  108.59   11.20
  -3   5  -3  114.09    7.10
   3   5  -3  107.59    6.60
   3   5  -3  115.99   10.10
   3  -5   3  120.69   10.90
  -3   5   3  113.49    8.40
  -3   5   3  107.79    7.10
   3   6   3  183.08    9.30
  -3   6  -3  170.18    9.90
   3   6   3  161.88   14.60
   3  -6   3  176.08   13.60
  -3   6   3  186.48   11.70
  -3   6   3  171.78    9.50
   3   6  -3  159.88   13.60
   3   6  -3  171.58    9.40
  -3   7  -3   52.99    6.60
   3   7   3   68.79    7.20
   3   7   3   66.69   11.10
  -3   7   3   64.09    9.20
   3   7  -3   60.29    6.90
   3   7  -3   77.39   11.50
  -3   7   3   59.49    6.90
   3  -7   3   60.19    8.40
   3   8   3   80.89    8.90
  -3   8  -3   87.29    9.00
   3   8   3   73.29   12.80
  -3   8   3   89.19   12.10
   3   8  -3   96.29   14.30
  -3   8   3   86.69    9.60
   3   8  -3   78.29    9.10
   3   9   3    4.10    5.70
  -3   9  -3   18.60    7.20
   3   9   3   26.30   13.40
   3   9  -3   20.90    6.10
  -3   9   3   20.20   10.30
  -3   9   3    9.70    6.60
   4   0   3    1.00    3.10
  -4   0  -3    1.00    0.70
   4   0   3   -3.10    2.60
   4   0   3   -0.10    0.50
  -4   0  -3    5.80    2.80
   4   0  -3   -0.50    0.90
  -4   0   3    1.80    0.90
  -4   0  -3   -3.80    2.80
  -4  -1   3   68.09    4.70
  -4   1  -3   67.89    3.60
   4   1   3   67.59    5.30
   4   1   3   66.09    5.40
  -4  -1   3   73.89    3.70
   4  -1  -3   67.29    3.20
  -4   1  -3   63.79    3.00
  -4   1  -3   64.79    6.90
   4  -1   3   69.89    3.70
   4  -1   3   67.29    6.50
   4   1  -3   67.09    4.00
  -4  -1  -3   61.19    5.00
  -4   1   3   64.49    3.20
  -4   1   3   70.19    5.90
  -4  -1  -3   66.69    3.00
   4  -1   3   70.89    3.00
  -4   1   3   67.29    4.60
  -4   2  -3    5.50    1.30
  -4  -2   3    5.60    1.90
   4   2   3    6.90    1.10
   4   2   3    7.00    3.20
  -4   2  -3    4.00    4.20
   4  -2  -3    8.40    2.20
   4   2   3    3.40    2.40
   4  -2   3    5.30    3.80
  -4   2   3    7.20    4.40
   4  -2   3    7.00    1.50
   4   2  -3   11.70    3.20
   4  -2   3    8.70    1.20
  -4  -2  -3    6.80    1.20
  -4   2   3    8.00    2.30
   4  -2   3    6.80    1.60
  -4   2   3    5.40    1.40
  -4   3  -3  186.58    7.20
   4   3   3  175.18   10.10
   4   3   3  176.18    7.60
   4   3   3  174.38    6.60
   4  -3  -3  176.68    8.30
  -4   3   3  164.08    7.90
   4  -3   3  181.88    7.00
   4   3  -3  179.48   10.00
  -4   3   3  166.98    7.20
   4  -3   3  186.78   11.80
   4   3  -3  173.98    7.00
  -4  -4   3   20.60    2.30
   4   4   3   16.60    2.30
   4   4   3   18.20    5.60
  -4   4  -3   21.40    3.10
   4  -4  -3   21.70    4.70
   4   4  -3   23.80    5.50
  -4   4   3   19.50    3.60
   4  -4   3   18.80    5.80
   4   4  -3   20.80    2.80
  -4   4   3   18.90    3.10
   4  -4   3   23.40    3.60
  -4   5  -3  167.88    8.70
   4   5   3  182.28    8.40
   4   5   3  139.89   12.90
  -4   5   3  174.78    9.00
  -4   5   3  178.18    9.70
   4   5  -3  171.08    8.30
   4   5  -3  185.68   13.10
   4  -5   3  187.48   13.40
   4  -5   3  192.28   10.70
   4   6   3   29.70    4.30
   4   6   3   29.50    9.10
  -4   6  -3   19.40    4.40
  -4   6   3   33.30    5.20
   4   6  -3   21.00    4.10
   4   6  -3   35.50    8.70
  -4   6   3   34.70    5.60
   4  -6   3   55.19    8.30
  -4   7  -3  365.46   16.30
   4   7   3  339.57   21.70
   4   7   3  381.16   15.50
   4   7  -3  342.27   15.20
  -4   7   3  366.56   18.30
   4   7  -3  374.76   22.00
  -4   7   3  352.66   16.20
   4  -7   3  410.76   20.60
   4   8   3   37.70   12.00
   4   8   3   42.40    6.10
  -4   8  -3   57.19    7.80
   4   8  -3   55.59    7.10
  -4   8   3   52.79    9.40
   4   8  -3   46.30   11.60
  -4   8   3   56.49    8.30
   4   9   3   75.19   16.40
   4   9   3  105.29   10.80
  -4   9  -3   68.09    9.30
   4   9  -3   80.79    9.30
  -4   9   3   87.79   12.50
  -4   9   3   68.39   10.00
   5   0   3   -1.10    0.70
  -5   0  -3    3.10    3.30
   5   0  -3    2.70    1.30
  -5   0  -3    0.80    0.60
  -5   0  -3    2.10    2.20
  -5   0   3   -4.40    2.70
  -5   0   3    0.50    0.80
   5   0   3   -3.50    1.50
   5   0   3    2.90    3.30
  -5   1  -3    5.70    4.50
  -5  -1   3    8.50    3.00
   5   1   3   11.20    1.70
   5  -1  -3    9.60    1.60
  -5   1  -3   14.20    1.90
  -5   1  -3   13.90    1.60
  -5  -1   3    8.00    3.00
  -5  -1   3   11.80    1.80
   5   1   3    5.30    2.60
   5   1   3    9.10    3.40
   5   1  -3   14.40    2.20
   5  -1   3   12.30    3.90
  -5  -1  -3   13.00    3.30
   5  -1   3    9.80    1.30
   5  -1   3    9.80    1.70
  -5   1   3   10.40    1.50
  -5   1   3    0.60    4.10
  -5  -1  -3   10.90    1.40
  -5   2  -3   75.69    3.90
   5   2   3   77.99    6.60
  -5  -2   3   76.59    5.00
   5   2   3   70.69    5.70
  -5  -2   3   73.09    5.50
  -5   2   3   76.09    4.10
  -5  -2  -3   74.89    4.30
   5  -2   3   74.59    8.50
   5   2  -3   75.49    5.90
   5  -2   3   75.89    2.80
  -5   2   3   79.19    4.60
  -5  -2  -3   80.19    3.60
   5   3   3   -1.10    1.00
  -5  -3   3    3.90    2.50
  -5   3  -3   -0.50    1.30
   5  -3  -3   -1.20    2.60
   5   3   3   -0.30    3.00
   5   3   3    0.10    2.50
  -5  -3   3   -4.40    2.30
   5  -3   3   -3.50    3.70
  -5   3   3   -0.20    2.20
  -5   3   3    0.00    1.60
   5  -3   3    2.10    1.40
   5   3  -3   -1.70    3.00
  -5   4  -3   -2.20    1.90
   5   4   3   -0.30    1.40
  -5  -4   3   -0.10    2.40
   5   4   3   -5.80    4.30
   5  -4  -3    4.00    3.40
   5   4  -3    8.60    4.20
   5   4  -3    3.40    1.90
   5  -4   3   -1.40    4.70
   5  -4   3    5.20    2.40
  -5   4   3   -1.30    2.00
  -5   4   3    4.00    2.80
  -5   5  -3   70.09    6.30
   5   5   3   66.99    5.20
   5   5   3   66.09    9.70
   5  -5   3   62.59    9.30
   5   5  -3   62.79    5.10
  -5   5   3   61.49    6.50
   5   5  -3   67.59    9.30
   5  -5   3   69.89    6.70
  -5   5   3   67.69    6.20
  -5   6  -3    0.90    3.70
   5   6   3    0.20    2.70
   5   6   3   -2.50    7.20
   5   6  -3   -1.00    2.90
  -5   6   3    1.50    3.40
   5   6  -3    3.60    7.40
   5  -6   3    8.40    7.70
  -5   6   3   11.20    4.20
  -5   7  -3  135.99   10.10
   5   7   3  127.89    8.80
   5   7   3  125.09   16.20
  -5   7   3  135.99   11.20
   5   7  -3  140.89   16.10
   5  -7   3  136.19   16.50
   5   7  -3  138.99    9.10
  -5   7   3  129.29    9.90
  -5   8  -3   31.00    7.00
   5   8   3   44.40   12.20
   5   8   3   25.90    5.50
   5   8  -3   26.00    5.80
  -5   8   3   34.00    7.10
   5   8  -3   43.50   12.80
  -5   8   3   27.10    8.30
  -5   9  -3   34.00    7.90
   5   9   3   41.30   15.10
   5   9   3   32.20    6.90
   5   9  -3   35.40    7.60
  -5   9   3   22.60    8.10
   6   0   3   -2.00    1.70
   6   0  -3   -1.20    1.40
  -6   0  -3   -0.30    0.80
   6   0   3   -1.10    3.30
  -6   0   3   -1.40    1.90
  -6   0   3   -0.60    1.00
  -6   0  -3   -0.90    2.20
  -6   0   3   -3.10    4.00
  -6   0  -3   -0.20    4.20
   6   0   3   -1.90    0.90
  -6  -1   3  220.88    8.40
  -6   1  -3  226.68    7.70
   6   1   3  244.28    8.40
  -6   1  -3  240.48    8.30
   6   1   3  219.58   11.80
  -6  -1   3  220.98   11.10
  -6  -1   3  213.28   10.40
   6   1   3  219.18   10.20
   6  -1   3  215.78    7.90
  -6   1   3  220.78    8.00
  -6  -1  -3  231.98    7.70
   6  -1   3  231.58    7.70
  -6  -1  -3  203.38   10.20
   6  -1   3  221.68   13.40
  -6  -1  -3  227.08   11.80
   6   2   3   15.40    4.00
   6   2   3    7.00    3.50
  -6  -2   3   15.70    3.70
  -6  -2   3   18.30    2.90
  -6   2  -3   16.00    2.10
   6  -2   3   16.70    5.50
  -6   2   3   15.00    2.50
  -6  -2  -3   16.60    2.00
  -6   2   3   17.60    2.50
   6   2  -3   14.80    3.50
  -6  -2  -3   16.20    2.20
   6   3   3   12.60    4.30
   6   3   3   16.70    3.10
  -6  -3   3   11.10    3.60
  -6  -3   3   11.20    3.10
  -6   3  -3   18.80    2.60
  -6  -3  -3   15.60    2.80
  -6   3   3   14.30    2.50
   6   3  -3   19.70    4.70
  -6   3   3   13.90    2.70
   6  -3   3   23.20    6.50
  -6  -4   3  404.06   14.20
   6   4   3  411.66   13.80
  -6   4  -3  413.66   14.80
   6   4   3  384.06   12.90
   6   4   3  416.86   19.40
   6  -4  -3  421.16   15.60
  -6  -4   3  378.46   17.40
  -6   4   3  411.06   14.60
   6  -4   3  409.76   13.00
  -6   4   3  414.26   15.10
   6   4  -3  420.46   19.40
   6  -4   3  394.26   21.10
  -6   5  -3   17.10    3.90
   6   5   3   20.20    3.10
   6   5   3   11.00    6.80
   6  -5  -3   25.80    5.90
  -6   5   3   21.50    4.10
   6  -5   3   23.50    4.20
   6   5  -3   21.00    3.70
   6  -5   3   13.90    7.40
  -6   5   3   20.50    4.20
   6   5  -3   20.10    7.70
  -6   6  -3  185.58   10.30
   6   6   3  166.78   16.10
   6   6   3  182.88    9.30
   6   6  -3  185.98    9.90
   6   6  -3  166.58   15.90
  -6   6   3  180.68   10.10
   6  -6   3  233.38   19.30
  -6   6   3  189.38   10.60
  -6   7  -3    2.30    4.70
   6   7   3    9.60    9.00
   6   7   3   -1.50    3.40
   6  -7   3   -2.80    9.90
  -6   7   3    4.80    4.90
  -6   7   3    4.60    4.70
   6   7  -3    0.40    3.80
   6   7  -3   -1.10    8.70
   6   8   3  235.98   22.30
  -6   8  -3  242.88   14.90
   6   8   3  237.88   13.20
  -6   8   3  247.28   15.70
   6   8  -3  262.97   22.90
   6   8  -3  240.78   13.40
  -6   8   3  195.28   13.90
   6   9   3    1.40    5.90
  -6   9  -3   16.10    7.40
  -6   9   3    4.10    7.40
   6   9  -3  -10.30    6.00
   7   0   3    0.60    1.30
  -7   0   3    1.20    1.10
   7   0   3    0.50    2.00
  -7   0  -3    0.30    0.90
   7   0   3    1.50    3.60
  -7   0   3   -2.30    2.30
  -7   0  -3   -2.50    2.30
   7   1   3    5.50    1.80
  -7   1  -3    4.70    2.20
   7   1   3    5.30    3.90
  -7  -1   3    3.30    4.80
  -7  -1   3    1.60    1.40
   7   1   3   -0.70    2.80
  -7   1  -3    2.40    1.10
   7  -1   3    6.30    4.80
  -7  -1  -3    7.40    4.70
  -7   1   3    1.70    1.20
  -7  -1  -3    4.80    1.20
   7  -1   3    3.20    1.50
   7  -1   3    2.00    1.60
   7   2   3    3.70    3.30
  -7   2  -3   -0.10    1.30
  -7  -2   3    1.70    4.20
   7  -2  -3    2.00    4.00
  -7  -2   3    1.30    1.60
   7   2   3    6.30    3.50
  -7   2   3   -0.30    2.10
  -7   2   3   -0.70    1.30
  -7  -2  -3    0.70    1.20
   7   2  -3   -2.70    2.50
   7  -2   3   -6.90    4.50
  -7  -2  -3    0.00    1.40
  -7   3  -3  126.69    6.30
   7   3   3  116.59    8.30
  -7  -3   3  116.39    7.50
   7   3   3  126.49   10.40
  -7  -3   3  128.29    8.80
   7   3  -3  113.19    9.60
  -7  -3  -3  113.89    6.60
  -7   3   3  122.39    6.40
   7  -3   3  117.09   11.60
  -7   3   3  130.09    6.60
  -7  -4   3   20.70    4.50
   7   4   3   25.60    6.90
  -7   4  -3   27.30    4.00
   7   4   3   30.10    3.70
  -7  -4   3   26.70    4.70
  -7  -4  -3   19.70    4.10
  -7   4   3   27.90    3.50
  -7   4   3   15.10    3.40
   7   4  -3   29.30    7.30
   7  -4   3   24.00    8.10
   7   5   3    3.90    6.50
  -7   5  -3   -3.10    3.30
  -7  -5   3    9.70    5.80
   7  -5  -3    0.10    4.90
   7  -5   3   -4.60    2.50
  -7   5   3   -3.00    2.90
   7   5  -3    9.00    6.20
   7  -5   3    7.30    9.30
  -7   5   3   -0.80    3.50
  -7   6  -3    0.00    3.70
   7   6   3   -6.70    7.30
   7   6   3   -0.80    2.90
   7   6  -3   -3.20    8.30
  -7   6   3   -1.80    3.70
  -7   6   3    0.90    3.60
   7  -6   3    0.40    8.80
  -7   7  -3   10.00    4.80
   7   7   3   15.80    9.60
   7   7   3   14.40    4.30
  -7   7   3   12.20    5.30
  -7   7   3   19.50    5.40
   7  -7   3  -16.80   10.40
   7   7  -3    5.50    8.30
   7   8   3   -0.80   11.60
  -7   8  -3   -6.80    5.60
   7   8   3    3.50    5.20
   7   8  -3    4.50   11.80
  -7   8   3    4.70    5.80
  -8   0   3   -4.30    3.20
   8   0   3    0.80    2.30
  -8   0   3    0.10    1.20
   8   0   3   -0.20    4.30
  -8   0  -3    3.00    2.90
  -8   0  -3    0.10    1.00
   8   0   3   -0.20    1.80
   8  -1  -3   58.69    7.30
   8   1   3   71.79    8.20
   8   1   3   62.59    6.10
  -8   1  -3   71.99    5.00
  -8  -1   3   60.49    4.20
  -8   1  -3   72.29    3.70
   8   1   3   67.79    5.00
  -8   1   3   67.59    4.00
   8  -1   3   61.79    4.20
   8  -1   3   76.19    9.60
  -8  -1  -3   72.19    3.80
  -8   1   3   71.09    5.00
   8  -2  -3  157.08   11.70
  -8   2  -3  153.18    6.40
  -8  -2   3  143.69    7.20
   8   2   3  147.99   10.40
  -8  -2   3  118.39   10.90
   8   2   3  156.48    9.80
  -8   2   3  149.59    6.70
  -8   2   3  151.38    7.20
   8   2  -3  144.19    9.10
  -8  -2  -3  125.09   11.40
  -8  -2  -3  153.58    6.60
   8  -2   3  154.18   13.50
   8   3   3  157.68   10.10
  -8   3  -3  162.38    7.50
  -8  -3   3  171.08   11.60
  -8  -3   3  158.08    8.70
   8   3   3  146.79   11.40
  -8   3   3  157.68    7.30
  -8  -3  -3  146.39    7.50
   8   3  -3  152.28   11.30
  -8   3   3  142.59    7.50
   8  -3   3  131.99   13.30
   8   4   3   14.70    3.70
  -8  -4   3    6.90    5.20
  -8  -4   3   10.20    4.10
  -8   4  -3    5.00    3.20
   8   4   3    8.80    6.40
   8   4  -3    8.70    5.70
  -8  -4  -3   13.10    3.30
  -8   4   3    1.00    3.00
   8  -4   3   13.10    8.70
  -8   4   3   15.80    2.50
   8   5   3   34.30    8.50
  -8  -5   3   23.30    6.70
  -8   5  -3   36.60    5.40
   8  -5   3   34.10   10.20
  -8  -5  -3   19.50    5.30
  -8   5   3   40.80    4.30
  -8   5   3   32.20    4.80
   8   5  -3   25.90    8.00
   8   6   3   39.50   10.00
  -8  -6   3   45.10    8.80
  -8   6  -3   49.00    6.80
   8  -6   3   45.20   12.90
  -8  -6  -3   61.09    9.00
  -8   6   3   49.60    6.70
   8   6  -3   51.29   10.70
  -8   6   3   51.19    6.10
  -8  -7   3  130.29   14.70
  -8   7  -3  125.09    9.70
   8   7   3  124.59   16.50
   8   7  -3  166.98   18.40
   8  -7   3  105.19   16.80
  -8   7   3  133.29   10.10
  -8   7   3  122.99    8.90
  -8  -8   3   13.40   10.50
  -8   8  -3    8.30    6.30
   8   8   3   12.20   12.80
   8   8  -3   20.80   12.10
  -8   8   3    9.50    6.50
  -9   0  -3   -0.20    3.40
  -9   0  -3    1.60    1.20
   9   0   3    5.20    5.20
   9   0   3   -0.30    2.40
  -9   0   3    0.20    1.40
  -9  -1   3   56.79    4.30
   9  -1  -3   56.09    8.20
  -9   1  -3   54.39    3.50
  -9   1  -3   57.49    5.30
   9   1   3   73.39    6.50
   9   1   3   76.99    9.50
  -9   1   3   55.29    5.50
   9  -1   3   60.49    4.40
  -9  -1  -3   62.19    3.60
  -9   1   3   52.99    3.90
   9  -1   3   51.69    9.00
   9   2   3   55.59    6.80
  -9   2  -3   42.70    3.60
   9   2   3   43.60    7.20
   9  -2  -3   53.19    8.90
  -9  -2   3   43.40    4.20
  -9  -2  -3   46.80    3.60
   9   2  -3   46.40    6.90
  -9   2   3   44.70    4.90
  -9   2   3   53.99    4.50
  -9   2   3   56.99    4.30
   9  -2   3   51.39    9.10
   9  -3  -3   18.70    8.00
   9   3   3   18.70    6.10
  -9   3  -3   24.70    3.50
   9   3   3   28.80    5.30
  -9  -3   3   21.30    4.20
  -9  -3   3   13.00    7.40
   9   3  -3   20.30    6.20
  -9  -3  -3   18.00    3.10
  -9   3   3   23.00    3.50
   9  -3   3   16.10    9.30
  -9   3   3   16.30    3.20
  -9  -4   3   25.50    5.30
  -9  -4   3   27.60    7.00
   9   4   3   23.70    7.40
  -9   4  -3   24.20    4.30
   9   4   3   38.30    5.10
   9   4  -3   22.50    7.50
  -9   4   3   33.30    4.90
  -9  -4  -3   28.40    4.60
   9  -4   3   21.80    9.10
  -9   4   3   34.40    3.80
   9   5   3   29.70    8.70
  -9  -5   3   36.90    4.10
  -9   5  -3   18.30    4.40
  -9  -5   3   24.20    7.20
  -9   5   3   33.20    3.50
  -9   5   3   29.00    5.00
   9  -5   3   28.30   11.10
   9   5  -3   31.00    9.30
  -9  -5  -3   32.10    6.50
  -9   6  -3    5.90    4.40
  -9  -6   3    8.70    6.30
   9   6   3    2.10    8.70
  -9  -6  -3    7.40    6.00
   9   6  -3   -1.10    9.10
  -9   6   3    5.20    3.30
  -9   6   3    7.70    4.60
   9  -6   3   14.80   12.10
  -9  -7   3   -3.70    8.60
  -9   7  -3    0.70    5.10
   9   7   3   13.20   10.30
  -9   7   3    8.70    6.30
  -9  -7  -3   18.60    8.00
   9  -7   3   -0.70   12.30
   9   7  -3    9.90   10.90
   9   8   3    2.90   13.10
  -9   8  -3   -8.60    6.00
  -9  -8   3    3.70   11.40
  -9  -8  -3   19.80   10.10
   9   8  -3    7.90   13.00
  -9   8   3    3.50    6.20
  10   0   3    4.30    6.00
  10   0   3    0.10    2.70
 -10   0  -3    1.20    1.30
 -10   0   3   -1.10    1.70
  10  -1  -3   37.70    7.50
 -10   1  -3   39.20    3.30
 -10   1  -3   36.10    4.80
  10   1   3   31.60    7.40
 -10  -1   3   40.20    3.80
  10   1   3   42.30    5.70
 -10   1   3   52.79    6.30
 -10   1   3   38.30    3.90
  10  -1   3   53.89    9.40
 -10  -1  -3   43.20    3.30
  10  -1   3   44.40    4.30
 -10   2  -3   92.69    5.60
 -10  -2   3  103.09    6.30
  10   2   3   96.19    9.30
  10  -2  -3  106.99   12.80
  10   2   3   98.19   10.60
 -10   2  -3   96.89    4.60
 -10   2   3  116.39    6.50
 -10   2   3   99.99    7.00
  10   2  -3  138.49   10.20
 -10  -2  -3  108.29    5.60
  10  -2   3  123.29   14.70
 -10   2   3  103.39    6.30
  10  -3  -3   76.49   11.30
 -10  -3   3   87.39    7.00
  10   3   3   84.79   10.40
  10   3   3   87.89    9.30
 -10   3  -3   79.69    6.10
 -10   3   3   78.49    4.90
  10  -3   3   72.19   12.80
 -10   3   3   83.29    6.20
  10   3  -3   76.49    9.40
 -10  -3  -3   67.79    5.50
 -10   3   3   79.39    5.50
 -10  -4   3    7.80    8.10
  10   4   3    4.50    7.00
  10   4   3   -6.80    4.00
 -10  -4   3    0.30    4.10
 -10   4  -3   -1.60    3.00
  10   4  -3    0.00    6.10
 -10   4   3   -1.90    3.40
  10  -4   3    0.50    9.10
 -10  -4  -3    1.00    3.20
 -10   4   3    5.30    2.00
 -10  -5   3  141.89   11.90
 -10   5  -3  140.69    9.00
  10   5   3  152.78   14.90
 -10  -5   3  127.79   10.60
 -10   5   3  146.39    9.20
  10  -5   3  150.48   18.20
  10   5  -3  142.99   14.60
 -10  -5  -3  146.69   11.00
 -10  -6   3  223.68   16.00
  10   6   3  214.68   19.50
 -10   6  -3  227.68   12.40
  10   6  -3  213.88   19.40
 -10  -6  -3  263.07   15.60
 -10   6   3  224.58   13.00
  10  -6   3  213.78   24.90
 -10   7  -3  165.98   11.90
  10   7   3  172.88   19.20
 -10  -7   3  155.48   17.00
  10   7  -3  183.08   20.90
  10  -7   3  159.78   20.20
 -10  -7  -3  195.98   16.10
 -10   7   3  172.98   12.60
 -10  -8   3   36.00   12.30
  10   8   3   34.40   14.30
 -10   8  -3   33.60    8.00
  10   8  -3   14.60   13.80
 -10  -8  -3   19.40   11.10
 -10   8   3   24.10    7.80
 -11   0   3    3.00    2.20
 -11   0  -3    0.00    1.40
  11   0   3    5.70    7.10
  11   0   3    2.10    3.00
 -11  -1   3    0.40    2.00
 -11   1  -3   -6.10    3.60
  11   1   3    3.60    3.70
  11  -1  -3    2.90    6.80
  11   1   3    4.40    6.60
 -11   1  -3   -1.20    1.70
  11  -1   3    6.10    7.70
 -11   1   3    4.30    2.40
 -11   1   3    2.80    3.60
 -11  -1  -3    4.20    1.70
  11  -1   3    1.00    2.30
 -11   2  -3   31.00    3.50
  11  -2  -3   11.20    7.80
 -11  -2   3   19.80    3.80
  11   2   3   23.10    6.00
 -11   2  -3   21.80    3.20
  11   2   3   14.00    6.10
 -11  -2  -3   18.60    2.80
  11   2  -3   26.60    6.70
 -11   2   3   20.10    3.90
 -11   2   3   23.70    3.80
  11  -2   3   11.20    9.10
  11   3   3   97.69   11.40
  11   3   3  128.99   11.40
  11  -3  -3  138.29   16.50
 -11   3  -3  108.59    7.10
 -11  -3   3  102.39    7.70
 -11   3   3  117.79    7.70
 -11   3   3  113.69    6.20
  11   3  -3  108.99   11.30
  11  -3   3  158.58   17.60
 -11  -3  -3  115.49    6.90
 -11   3   3  117.19    6.00
 -11  -4   3   33.50    5.70
  11   4   3   40.20    6.50
 -11   4  -3   36.20    5.00
  11   4   3   38.30    9.60
 -11   4   3   37.20    5.40
 -11  -4  -3   36.00    5.10
  11   4  -3   49.50    9.60
  11  -4   3   47.30   13.20
  11   5   3    5.30    7.50
 -11  -5   3    4.40    5.10
 -11   5  -3   -4.50    3.80
 -11  -5  -3    0.00    4.60
 -11   5   3    5.40    3.90
  11  -5   3    8.30   11.70
  11   5  -3    5.10    8.50
 -11  -6   3    4.80    6.10
  11   6   3    0.10    8.90
 -11   6  -3    4.00    4.80
 -11  -6  -3    1.70    6.30
  11  -6   3  -12.80   12.40
  11   6  -3    1.80    9.80
 -11   6   3   10.60    4.90
  11   7   3  -15.70   10.70
 -11   7  -3    6.60    5.40
 -11  -7   3   10.90    8.50
  11  -7   3   10.00   14.10
  11   7  -3   -1.00   10.40
 -11   7   3    7.20    5.90
 -11  -7  -3    5.20    7.70
 -11  -8   3   13.50   11.30
  11   8   3    8.50   14.50
 -11   8  -3   -0.60    7.10
  11   8  -3   -2.60   14.30
 -11   8   3   13.40    7.90
 -11  -8  -3    3.30   10.30
  12   0   3   -0.80    3.10
 -12   0  -3    1.00    1.70
  12   0   3    7.80    8.40
 -12   0   3    0.40    2.50
 -12   1  -3   47.60    4.30
 -12  -1   3   53.69    5.10
  12   1   3   48.00    7.10
 -12   1  -3   52.39    6.40
  12  -1  -3   44.40    9.40
  12   1   3   46.00    9.70
  12  -1   3   44.90    5.30
 -12  -1  -3   49.00    4.20
 -12   1   3   60.49    5.10
  12  -1   3   44.90   11.00
 -12  -2   3  235.18   10.90
  12  -2  -3  211.78   19.40
 -12   2  -3  240.78    9.00
  12   2   3  219.18   14.00
  12   2   3  243.88   17.30
 -12   2  -3  253.87   10.40
 -12   2   3  229.38   10.40
  12  -2   3  253.27   21.80
 -12   2   3  237.88   10.50
 -12  -2  -3  241.08    9.90
  12  -3  -3  159.38   17.00
 -12   3  -3  139.39    8.20
  12   3   3  126.09   13.50
  12   3   3  135.99   13.30
 -12  -3   3  138.69    9.30
 -12   3   3  137.19    6.80
 -12   3   3  141.59    6.50
 -12   3   3  131.69    8.20
 -12  -3  -3  145.79    8.10
  12   3  -3  140.29   13.80
  12  -3   3  130.29   17.00
 -12   4  -3  312.17   13.50
 -12  -4   3  309.07   15.00
  12   4   3  295.97   19.70
  12   4   3  328.47   15.50
  12  -4   3  308.17   25.40
 -12   4   3  302.97   13.70
  12   4  -3  278.77   18.80
 -12  -4  -3  302.27   13.70
  12   5   3   17.40    9.10
 -12  -5   3   17.60    5.80
 -12   5  -3   12.80    4.60
 -12  -5  -3   29.10    6.10
  12   5  -3    2.20    8.90
  12  -5   3   32.30   14.50
 -12   5   3   22.90    5.50
 -12   6  -3  595.04   22.80
 -12  -6   3  590.64   25.80
  12   6   3  524.25   29.70
  12   6  -3  601.64   30.70
 -12  -6  -3  562.54   24.30
  12  -6   3  588.74   36.00
 -12   6   3  591.24   22.80
 -12   7  -3   33.30    7.30
  12   7   3   13.80   13.20
 -12  -7   3   32.40   10.10
 -12  -7  -3   26.60    9.20
 -12   7   3   35.90    7.20
  12   7  -3   41.50   15.10
  12  -7   3   27.70   15.80
  13   0   3    0.80    3.40
 -13   0   3    1.50    2.40
  13   0   3   -3.40    8.40
 -13   0  -3    1.60    2.20
 -13   1  -3    9.60    5.80
 -13   1  -3   22.00    3.40
 -13  -1   3   17.80    3.60
  13  -1  -3   18.60    8.50
  13   1   3   25.80    9.60
  13   1   3   19.90    5.60
  13  -1   3   18.10    3.90
  13  -1   3   24.10   10.90
 -13   1   3   13.50    3.40
 -13  -1  -3   22.60    3.20
 -13  -2   3    9.80    3.70
  13   2   3    6.20    5.60
  13  -2  -3   12.90    9.90
 -13   2  -3    9.90    3.30
 -13   2  -3    6.40    3.00
  13   2   3    9.30    8.80
 -13  -2  -3   10.40    3.00
 -13   2   3    9.40    3.50
  13  -2   3   16.10   10.90
 -13   2   3   11.10    4.40
  13   3   3   98.89   12.30
 -13  -3   3  105.89    7.90
 -13   3  -3  106.19    7.60
  13   3   3  104.19   13.40
 -13   3   3  110.79    6.00
  13   3  -3  112.09   13.10
 -13   3   3  100.49    7.60
  13  -3   3   85.19   16.20
 -13  -3  -3  102.99    7.20
 -13   3   3  103.59    6.20
 -13   4  -3    4.00    3.60
  13   4   3   -2.30    7.30
 -13  -4   3   10.70    5.00
  13   4   3    7.90    5.70
  13  -4   3   20.30   13.30
 -13  -4  -3    0.60    3.90
 -13   4   3    6.50    3.90
  13   4  -3    1.80    7.80
  13   5   3   47.20   11.40
 -13   5  -3   76.59    8.50
 -13  -5   3   68.29    8.90
  13  -5   3   46.30   15.50
 -13   5   3   71.99    8.00
  13   5  -3   50.29   12.00
 -13  -5  -3   65.89    7.50
 -13   6  -3   66.29    8.20
  13   6   3   53.49   13.90
 -13  -6   3   71.29   10.00
  13  -6   3   80.59   18.10
 -13  -6  -3   57.49    9.10
  13   6  -3   71.29   14.70
 -13   6   3   82.89    9.70
 -13   7  -3   28.30    7.30
 -13  -7   3   32.20    9.80
  13   7   3   50.69   15.90
  13   7  -3   36.40   15.00
  13  -7   3   33.50   17.80
 -13  -7  -3   38.30   10.00
 -13   7   3   45.60    8.30
 -14   0   3   -1.60    2.60
 -14   0  -3    3.80    2.80
  14   0   3    9.70   10.40
  14   0   3   -1.10    3.90
 -14   1  -3   49.50    5.10
  14   1   3   45.30    7.90
 -14  -1   3   55.09    6.00
  14   1   3   43.20   11.90
  14  -1   3   48.80    5.90
 -14   1   3   44.00    5.30
 -14  -1  -3   35.60    4.30
  14  -1   3   41.40   13.80
  14   2   3   31.50   10.80
  14   2   3   23.20    7.00
 -14  -2   3   21.60    4.40
 -14   2  -3   21.00    4.30
 -14   2  -3   18.80    3.90
 -14   2   3   25.20    4.60
 -14  -2  -3   27.80    3.90
 -14   2   3   28.40    5.40
  14  -2   3   27.30   12.50
 -14  -3   3    8.40    3.90
  14   3   3   12.60    7.60
  14   3   3   10.50    8.40
 -14   3  -3    9.50    4.00
 -14   3   3   15.70    4.70
  14  -3   3   -3.40   10.80
 -14   3   3    6.00    3.20
 -14  -3  -3    5.80    3.80
 -14   3   3   18.90    3.30
 -14  -4   3   11.20    5.00
  14   4   3   28.90    7.70
  14   4   3    7.80    7.50
 -14   4  -3   21.20    4.80
  14   4  -3   17.90    9.40
 -14  -4  -3   30.80    5.40
 -14   4   3   17.90    4.80
  14  -4   3   29.40   14.80
 -14  -5   3    0.50    5.40
 -14   5  -3    4.00    4.70
  14   5   3    5.30   10.30
 -14  -5  -3    8.30    5.20
 -14   5   3   -4.40    4.30
  14   5  -3    8.40    9.40
  14  -5   3    0.90   13.90
 -14   6  -3   22.40    5.90
 -14  -6   3   21.30    8.00
  14   6   3    0.50   11.50
 -14   6   3   25.10    6.60
 -14  -6  -3   26.80    7.50
  14   6  -3   14.70   10.90
  14  -6   3   25.70   17.10
  14   7   3   18.30   14.40
 -14   7  -3   15.60    7.10
 -14  -7   3   19.90    8.90
  14  -7   3    1.50   18.20
 -14  -7  -3    4.20    8.40
 -14   7   3   21.10    7.20
  14   7  -3   16.10   13.70
 -15   0   3   -2.70    2.90
  15   0   3    6.40    4.80
  15   0   3   15.00   11.60
 -15   0  -3    3.10    2.70
  15   1   3   -2.10    5.70
 -15  -1   3    5.50    3.70
  15   1   3    7.50   10.80
 -15   1  -3    5.60    3.30
  15  -1   3  -10.40   11.40
 -15  -1  -3    1.00    2.80
 -15   1   3   -0.20    2.90
 -15   2  -3    7.90    3.90
  15   2   3    7.80    9.50
 -15  -2   3    2.60    3.50
  15   2   3   -2.90    6.70
 -15   2  -3  -10.20    4.30
  15  -2   3    1.80   12.50
 -15   2   3    4.60    3.50
 -15  -2  -3    2.30    3.40
 -15  -3   3   12.30    4.60
  15   3   3   12.90    9.50
 -15   3  -3   14.20    4.50
  15   3   3   20.20    9.50
 -15   3   3   15.80    4.60
  15  -3   3    9.50   12.90
 -15   3   3   18.70    3.80
 -15  -3  -3   13.70    4.20
 -15   4  -3    1.60    4.20
 -15  -4   3    1.50    4.50
  15   4   3    3.70    8.50
  15  -4   3  -13.60   13.80
 -15   4   3   -2.20    3.90
 -15  -4  -3    0.10    4.50
  15   5   3   10.60   11.60
 -15   5  -3   18.60    5.90
 -15  -5   3   21.70    7.10
  15   5  -3   10.20   11.80
 -15   5   3   11.90    5.30
  15  -5   3    1.40   14.90
 -15  -5  -3    5.10    5.20
 -15   6  -3   15.70    6.50
 -15  -6   3    4.10    8.10
  15   6   3    5.70   12.70
  15   6  -3    8.40   11.80
 -15   6   3   17.90    7.30
 -15  -6  -3    2.40    6.60
  15  -6   3    1.80   17.00
 -16   0   3    0.90    3.40
  16   0   3   -6.70    4.70
 -16   0  -3   -0.70    3.20
  16   0   3  -11.60   10.90
  16   1   3    7.30    5.90
 -16  -1   3    7.80    4.10
 -16   1  -3    4.30    3.50
  16   1   3   22.30   12.30
  16  -1   3    1.10   12.20
 -16   1   3   10.20    3.90
 -16  -1  -3    5.50    3.50
 -16   2  -3    0.50    3.80
  16   2   3    0.20    7.10
 -16  -2   3   -3.20    3.60
  16   2   3  -11.70   10.00
  16  -2   3   18.30   14.10
 -16   2   3   -4.10    3.40
 -16  -2  -3    0.20    3.60
 -16  -3   3   14.00    5.00
  16   3   3   17.30   10.80
 -16   3  -3   10.70    4.50
  16   3   3    5.40    8.50
 -16  -3  -3   14.80    4.40
 -16   3   3   24.00    5.20
  16  -3   3   21.40   15.30
  16   4   3   15.10   10.40
 -16   4  -3   15.50    5.10
 -16  -4   3    6.20    5.30
  16  -4   3   18.30   14.60
 -16  -4  -3   11.20    4.50
 -16   4   3    1.40    5.20
 -16  -5   3   89.49   10.50
 -16   5  -3   90.59   10.30
  16   5   3   88.59   16.10
 -16   5   3   77.39    9.10
 -16  -5  -3   80.89    9.00
  16  -5   3   68.89   19.30
 -16  -6   3   34.10    9.30
  16   6   3   12.00   12.60
 -16   6  -3   16.10    7.10
  16  -6   3   34.10   20.70
 -16   6   3   31.40    8.20
 -16  -6  -3   23.20    7.70
  17   0   3    8.20    6.20
 -17   0   3    2.40    3.60
 -17   0  -3   -4.20    3.50
  17   0   3    3.80   12.50
  17   1   3    5.10    7.50
 -17   1  -3   -0.70    3.70
 -17  -1   3   -2.00    3.70
  17   1   3   -9.10   12.60
  17  -1   3    0.70   13.00
 -17   1   3    0.60    3.70
 -17  -1  -3    1.00    3.20
 -17   2  -3   24.40    4.80
  17   2   3   35.60    9.70
 -17  -2   3   20.90    4.90
  17   2   3   27.50   12.30
  17  -2   3   27.50   14.00
 -17  -2  -3   25.50    5.10
 -17   2   3   23.80    5.20
  17   3   3   15.60    9.70
 -17  -3   3    3.80    5.00
  17   3   3    4.30   10.70
 -17   3  -3    2.90    4.20
 -17  -3  -3    5.80    4.20
 -17   3   3    5.20    4.90
  17  -3   3   -2.20   14.80
 -17   4  -3   18.80    5.40
 -17  -4   3    5.10    5.70
  17   4   3    1.70   10.70
  17  -4   3   13.10   14.80
 -17  -4  -3   17.70    5.70
 -17   4   3   19.40    6.20
 -17   5  -3   31.80    7.20
 -17  -5   3   17.00    7.50
  17   5   3   25.70   13.00
 -17  -5  -3   12.40    6.20
  17  -5   3   19.30   19.50
 -17   5   3   21.90    7.10
  18   0   3   -6.60   12.90
 -18   0   3    2.20    3.90
 -18   0  -3   -3.20    3.60
  18   1   3    8.20   12.10
 -18   1  -3    3.70    4.10
  18   1   3   12.70    8.30
 -18  -1   3    4.90    4.30
 -18   1   3    9.00    4.20
  18  -1   3   18.10   14.20
 -18  -1  -3    4.20    4.20
  18   2   3   48.70   11.50
 -18  -2   3   27.30    5.90
 -18   2  -3   28.30    5.40
  18   2   3   42.50   14.10
  18  -2   3   17.30   16.60
 -18   2   3   25.70    5.90
 -18  -2  -3   32.30    5.30
  18   3   3   53.49   13.00
  18   3   3   35.40   12.90
 -18  -3   3   43.50    7.40
 -18   3  -3   36.00    6.70
 -18   3   3   33.60    6.90
  18  -3   3   72.39   19.40
 -18  -3  -3   41.70    6.20
 -18   4  -3   60.09    8.20
  18   4   3   53.29   14.90
 -18  -4   3   55.69    8.50
 -18  -4  -3   47.90    7.30
 -18   4   3   51.49    8.50
  18  -4   3    5.00   18.00
 -18   5  -3   14.80    7.00
  18   5   3    5.00   14.00
 -18  -5   3   20.20    7.50
 -18  -5  -3    9.50    6.30
 -18   5   3   12.60    6.50
  18  -5   3    8.30   19.10
 -19   0  -3   -3.60    4.10
  19   0   3   14.10   14.80
 -19   0   3    6.40    4.50
 -19   1  -3   -2.70    4.00
  19   1   3  -14.30   13.40
  19   1   3   -5.90    8.20
 -19  -1   3    4.90    4.40
  19  -1   3  -18.90   16.50
 -19   1   3    3.30    5.00
 -19  -1  -3    6.90    4.20
  19   2   3   -5.40   12.90
  19   2   3   -2.40    9.30
 -19  -2   3   -4.80    5.00
 -19   2  -3    6.20    5.00
 -19  -2  -3    7.70    4.60
 -19   2   3    3.00    5.20
  19  -2   3    0.70   15.00
 -19   3  -3    8.20    5.80
  19   3   3   21.30   11.20
  19   3   3   -4.40   12.10
 -19  -3   3    5.00    5.70
 -19  -3  -3   13.90    5.70
 -19   3   3   -4.50    5.00
  19  -3   3   11.30   17.10
  19   4   3   -0.80   12.90
 -19   4  -3    0.50    6.20
 -19  -4   3    6.40    6.80
 -19   4   3   -2.30    5.40
  19  -4   3    2.30   18.10
 -19  -4  -3   -5.60    5.60
  20   0   3  -22.00   14.50
 -20   0  -3   -1.90    4.40
 -20   0   3   -0.10    4.80
 -20   1  -3    0.10    4.40
 -20  -1   3   -3.20    5.00
  20   1   3   -9.20   14.30
  20  -1   3   -1.80   15.00
 -20  -1  -3    8.70    5.00
 -20   1   3   -8.50    4.80
 -20  -2   3  -10.50    5.30
  20   2   3   42.20   16.00
 -20   2  -3   -0.70    5.20
  20   2   3    2.90   10.00
 -20   2   3    1.50    5.40
  20  -2   3   23.60   17.20
 -20  -2  -3    2.50    5.10
  20   3   3   99.09   17.00
 -20   3  -3   65.29    8.10
 -20  -3   3   81.79    9.60
  20  -3   3   73.49   21.10
 -20   3   3   95.69   11.20
 -20  -3  -3   81.29    8.60
  21   0   3  -19.90   16.40
 -21   0  -3   -1.70    5.50
 -21   0   3   -3.60    5.30
 -21   1  -3    9.60    5.50
  21   1   3   13.90   15.90
 -21  -1   3    9.00    6.00
  21  -1   3   11.00   18.10
 -21  -1  -3    1.30    5.60
 -21   1   3    7.40    5.70
 -21   2  -3   35.80    7.30
  21   2   3   10.30   11.80
  21   2   3   59.59   17.90
 -21  -2   3   34.00    8.00
  21  -2   3   71.09   21.00
 -21   2   3   33.90    7.30
 -21  -2  -3   19.90    6.20
 -22   0   3   -5.90    5.70
  22   0   3   11.70   18.30
 -22   0  -3   -5.10    5.70
   0   0  -4 1985.60   54.29
   0   0   4 1889.71   54.09
   0   0   4 1978.70   56.49
   0   0  -4 2025.20   56.69
   0   1   4   -1.10    0.60
   0  -1   4   -1.60    0.60
   0   1   4    1.00    2.60
   0   1  -4   -1.50    0.50
   0  -1  -4   -0.10    0.60
   0  -1  -4   -2.70    1.80
   0   2   4 2758.02   80.19
   0  -2   4 2949.00   81.99
   0  -2   4 2984.30   80.59
   0   2  -4 2829.62   80.49
   0  -2  -4 2951.00   80.19
   0  -2  -4 3002.40   83.39
   0   2   4 2861.01   82.89
   0   3   4   -0.60    1.20
   0   3  -4    1.30    1.20
   0   3   4   -2.50    2.90
   0  -3   4   -4.60    2.90
   0  -3   4    0.60    2.50
   0   4   4  121.29    8.80
   0  -4   4  120.09    8.40
   0   4   4  122.79    8.30
   0   4   4  117.19    5.80
   0   4  -4  122.19    6.10
   0   5   4    1.70    2.30
   0   5   4   -3.90    4.60
   0   5   4   -1.80    4.20
   0  -5   4    3.20    4.30
   0   5  -4    3.40    3.50
   0   5  -4    2.20    2.50
   0   6  -4   52.09    5.80
   0   6   4   56.39    7.30
   0   6   4   54.99    6.40
   0  -6   4   56.39    6.60
   0   6   4   40.70    8.70
   0   7   4   -0.10    7.30
   0   7  -4   -5.80    3.50
   0   7   4   -3.60    3.60
   0   8   4    7.00    9.50
   0   8  -4    8.90    5.10
   0   8   4    3.20    4.70
   0   9   4    3.00    6.10
   0   9   4   -6.80   10.90
   0   9  -4    2.30    6.30
   1   0  -4   11.70    1.10
   1   0   4   13.50    0.70
   1   0   4   13.00    2.30
  -1   0  -4   15.20    2.40
   1   0   4   14.50    0.80
  -1   0   4   15.40    1.10
   1   1   4 1272.07   36.70
   1  -1  -4 1397.76   39.50
   1   1   4 1422.66   40.00
  -1  -1   4 1300.27   37.20
   1  -1  -4 1346.17   37.00
  -1   1  -4 1290.17   37.10
  -1   1   4 1344.27   39.30
   1  -1   4 1350.56   37.20
  -1  -1  -4 1300.37   36.70
  -1  -1  -4 1379.36   39.80
  -1   1   4 1308.37   37.10
   1   1  -4 1301.77   37.20
  -1  -2   4  249.78    8.40
   1  -2  -4  248.28    8.10
  -1   2  -4  239.58    8.30
   1  -2  -4  241.58   10.20
  -1  -2   4  243.28   10.00
   1   2   4  255.87    8.00
   1   2   4  220.38   10.30
  -1  -2  -4  237.28   10.80
  -1  -2  -4  246.88    7.90
  -1   2   4  258.67   10.80
   1  -2   4  245.48    9.20
   1   2  -4  249.58    8.30
  -1   2   4  238.18    8.10
   1  -2   4  244.18    8.30
   1   3   4 1059.69   29.90
  -1   3  -4 1036.00   30.20
   1  -3  -4 1007.00   33.10
   1   3   4  998.80   33.00
  -1   3   4  989.60   32.30
   1  -3   4 1002.70   33.20
  -1   3   4 1062.99   31.80
   1   3  -4 1007.70   30.10
  -1   3   4 1001.70   29.90
   1  -3   4 1047.20   31.50
   1   4   4   96.19    8.30
  -1  -4   4  106.99    7.50
   1   4   4  112.19    6.80
  -1   4  -4  106.49    5.90
   1   4   4  100.89    5.30
   1   4  -4  114.39    7.80
  -1   4   4   99.19    8.90
   1   4  -4  110.39    5.80
  -1   4   4   99.19    5.50
  -1   4   4   97.39    7.90
   1  -4   4  104.19    8.50
  -1  -5   4   43.60    5.30
   1   5   4   30.90    4.00
   1   5   4   43.50    5.20
   1   5   4   42.30    7.40
  -1   5  -4   40.20    4.60
   1   5  -4   31.70    5.90
  -1   5   4   44.10    5.00
  -1   5   4   30.20    5.70
  -1   5   4   45.00    7.20
   1  -5   4   39.10    6.40
   1   5  -4   38.20    4.30
   1   6   4   27.90    4.60
  -1   6  -4   18.10    4.10
  -1  -6   4   18.80    4.30
   1   6   4   35.50    7.80
   1   6   4   30.80    5.00
  -1   6   4   29.80    4.40
  -1   6   4   31.50    8.00
   1   6  -4   31.80    7.00
   1  -6   4   21.30    5.70
   1   6  -4   21.70    4.20
  -1   6   4   11.00    8.20
  -1   7  -4   75.19    7.50
   1   7   4   92.79    8.20
   1   7   4  134.79   14.30
  -1   7   4   81.19    7.40
   1  -7   4   78.69    9.50
  -1   7   4   86.09   11.60
   1   7  -4   80.19    8.20
  -1   8  -4   21.70    6.00
   1   8   4   19.80    5.40
   1   8   4   40.70   10.70
   1   8  -4   16.30    5.80
  -1   8   4   27.70    9.70
  -1   8   4   26.70    5.60
   1   9   4    5.60    6.40
   1   9   4   19.30   12.30
  -1   9  -4   -5.50    6.30
  -1   9   4   -3.00    5.80
  -1   9   4    9.10   11.20
   1   9  -4   -4.10    5.70
   2   0  -4    0.30    0.70
   2   0   4    1.30    0.40
  -2   0  -4   -0.70    0.40
  -2   0  -4    1.60    1.80
  -2   0   4    3.30    0.90
   2   0   4    0.80    1.90
  -2   1  -4   10.40    1.20
   2   1   4   13.60    3.90
   2  -1  -4   12.70    2.50
   2  -1  -4   14.80    1.40
  -2  -1   4   12.50    1.40
  -2  -1   4   12.00    1.70
   2   1   4   11.80    0.90
  -2  -1  -4   23.80    4.10
  -2   1   4   14.30    1.60
   2  -1   4   14.50    2.60
  -2  -1  -4   10.10    1.00
   2  -1   4   12.00    1.40
  -2   1   4   12.70    2.20
  -2   2  -4  366.76   12.10
   2  -2  -4  375.06   13.90
   2  -2  -4  389.36   12.00
   2   2   4  376.86   11.70
  -2  -2   4  378.66   12.30
   2   2   4  430.16   15.20
  -2  -2   4  369.06   14.20
   2   2  -4  382.56   12.20
   2  -2   4  371.56   15.50
  -2   2   4  377.06   12.10
  -2  -2  -4  431.16   15.80
  -2   2   4  358.56   14.10
   2  -2   4  378.66   12.10
  -2  -2  -4  406.66   11.80
   2   3   4    0.10    1.10
   2   3   4   -3.50    2.90
   2  -3  -4   -3.50    3.20
  -2   3   4   -0.10    1.30
  -2   3   4   -1.80    2.80
  -2  -3  -4    3.40    1.60
   2   3  -4   -2.20    2.40
  -2   3   4   -0.60    3.50
   2   3  -4    0.00    1.00
  -2  -4   4    5.10    3.20
   2   4   4    5.00    2.50
   2   4   4    3.60    1.80
  -2   4  -4    3.10    1.80
   2   4   4    3.00    4.00
   2   4  -4    1.00    1.60
   2   4  -4    6.10    3.60
   2  -4   4    6.60    3.80
  -2   4   4    6.30    1.90
  -2   4   4    3.00    5.60
   2  -4   4    2.80    4.30
  -2   4   4    7.50    3.50
  -2   5  -4    7.10    2.80
   2   5   4    3.90    2.30
   2   5   4    4.20    3.10
   2   5   4   -0.70    5.10
  -2  -5   4    6.00    3.60
  -2   5   4    6.00    4.00
   2   5  -4    3.50    2.50
   2  -5   4    0.30    4.80
  -2   5   4    4.40    2.50
   2   5  -4    3.10    3.90
  -2   6  -4   35.10    5.10
   2   6   4   40.00    4.80
   2   6   4   27.70    8.60
  -2   6   4   39.10    7.50
   2   6  -4   41.90    5.50
   2   6  -4   35.40    8.00
   2  -6   4   48.30    7.50
  -2   6   4   30.30    4.90
   2   7   4   14.20    8.00
  -2   7  -4   -3.20    3.80
   2   7   4    4.10    3.70
  -2   7   4    7.70    7.00
  -2   7   4    0.80    3.80
   2  -7   4    3.70    5.90
   2   7  -4    5.40    3.80
   2   7  -4   -3.80    7.10
   2   8   4   81.59   13.70
  -2   8  -4   57.59    8.00
   2   8   4   55.49    7.10
  -2   8   4   52.89   10.30
   2   8  -4   43.00    6.90
  -2   8   4   57.49    8.10
   2   9   4    0.90   12.60
  -2   9  -4    6.20    6.00
   2   9   4   -3.60    6.00
  -2   9   4    2.30   11.10
   2   9  -4    2.30    6.10
  -2   9   4   -0.40    6.00
   3   0  -4 2999.30   82.19
   3   0   4 2934.61   83.59
  -3   0  -4 3061.89   83.49
  -3   0   4 2878.31   82.09
  -3  -1   4  601.34   18.30
   3   1   4  568.34   19.80
  -3   1  -4  580.04   17.10
   3  -1  -4  595.94   17.30
   3   1  -4  600.94   18.60
  -3   1   4  582.74   19.30
  -3   1   4  577.14   17.30
  -3  -1  -4  605.44   20.00
   3  -1   4  561.44   21.10
   3  -1   4  613.44   17.00
  -3  -1  -4  583.44   17.00
  -3  -1  -4  598.54   16.60
   3  -1   4  576.64   18.20
   3  -2  -4   31.30    2.80
   3  -2  -4   35.40    4.20
   3   2   4   32.80    4.60
  -3  -2   4   29.50    4.40
   3   2   4   32.10    2.00
  -3  -2   4   29.70    2.50
  -3   2  -4   27.60    2.40
  -3  -2  -4   20.80    4.40
  -3   2   4   44.80    5.70
  -3   2   4   37.10    4.60
   3  -2   4   36.30    5.90
   3  -2   4   29.90    2.50
  -3   2   4   31.20    2.60
  -3  -2  -4   35.50    2.20
   3  -3  -4   64.29    6.10
   3   3   4   67.99    6.60
   3   3   4   62.29    3.50
  -3   3   4   67.89    4.10
   3   3  -4   58.69    5.60
  -3   3   4   66.09    5.80
  -3   3   4   70.29    8.30
   3   3  -4   60.09    3.60
  -3   4  -4  970.90   29.30
   3   4   4  929.81   28.50
   3   4   4  939.61   33.30
  -3   4   4  958.60   29.20
  -3   4   4  966.30   30.90
   3  -4   4  948.61   33.90
   3   4  -4  925.21   32.40
   3   4  -4  985.00   29.20
   3  -4   4  946.01   29.80
   3   5   4    4.00    5.10
  -3  -5   4   -3.10    2.90
   3   5   4    3.40    2.20
  -3   5  -4    0.10    2.60
   3  -5   4   -5.80    5.10
   3   5  -4    2.10    2.40
  -3   5   4    2.50    3.60
  -3   5   4    4.00    2.70
   3   5  -4    2.60    5.20
  -3   6  -4  130.49    9.00
   3   6   4  135.59    8.00
   3   6   4  147.59   14.10
  -3   6   4  123.69   10.70
   3   6  -4  134.19    8.00
  -3   6   4  124.49    8.20
   3   6  -4  125.29   12.90
   3  -6   4  128.79   12.70
   3   7   4   17.60    8.80
   3   7   4   -0.10    3.70
  -3   7  -4   -7.20    4.00
   3   7  -4    5.80    4.10
   3   7  -4    0.40    7.90
  -3   7   4   -4.70    3.90
  -3   7   4    4.40    6.20
   3  -7   4    6.70    6.90
   3   8   4   42.60   11.60
   3   8   4   23.60    5.80
  -3   8  -4   27.30    6.50
  -3   8   4   33.70    9.40
   3   8  -4   15.60    5.20
  -3   8   4   29.10    6.60
   3   9   4   20.10   13.20
  -3   9  -4    9.00    6.90
   3   9   4    8.10    6.40
  -3   9   4   28.70   11.30
   3   9  -4   21.10    6.80
  -3   9   4    6.70    6.20
   4   0   4   45.80    4.60
  -4   0   4   49.10    2.80
   4   0   4   51.29    2.20
  -4   0  -4   59.69    4.90
  -4   0  -4   49.40    2.10
   4   0   4   42.60    5.80
   4   0  -4   51.69    3.00
   4  -1  -4  131.29    5.20
  -4  -1   4  132.29    5.70
  -4  -1   4  148.59    7.20
  -4   1  -4  134.39    4.90
   4   1   4  127.49    7.40
   4   1   4  134.29    8.00
  -4   1  -4  136.19    6.00
   4   1  -4  137.09    6.30
  -4  -1  -4  138.79    4.50
  -4   1   4  128.99    5.10
   4  -1   4  155.58    9.60
  -4   1   4  134.39    7.00
   4  -1   4  135.89    4.80
   4  -1   4  140.49    6.10
  -4  -1  -4  135.99    8.00
  -4  -1  -4  133.59    4.80
   4   2   4  264.97    8.30
  -4   2  -4  258.57    8.90
  -4  -2   4  275.87   10.50
   4   2   4  236.98   11.60
   4  -2  -4  255.67   10.50
   4  -2   4  245.38   13.40
   4  -2   4  258.77    9.20
  -4  -2  -4  273.37    8.40
  -4   2   4  240.28   12.70
  -4   2   4  256.77   10.20
   4  -2   4  259.57    8.90
  -4   2   4  257.27    9.00
   4   3   4   17.90    2.10
   4   3   4   18.80    4.40
   4   3   4   19.20    3.40
  -4   3  -4   31.10    3.00
   4  -3  -4   22.50    3.90
   4   3  -4   16.90    4.20
   4  -3   4   12.70    4.60
  -4   3   4   16.60    2.40
  -4   3   4   18.20    3.60
   4  -3   4   20.70    2.60
   4   3  -4   18.40    2.40
   4  -4  -4   73.79    8.10
   4   4   4   77.39    5.10
  -4   4  -4   90.29    5.40
   4   4   4   69.59    8.50
   4   4   4   77.69    4.50
   4   4  -4   85.29    5.10
  -4   4   4   74.79    5.30
  -4   4   4   81.19    6.60
   4   4  -4   78.29    7.70
   4   5   4    5.10    6.20
   4   5   4   -4.20    2.00
  -4   5  -4   -1.50    2.50
  -4   5   4    3.80    3.50
  -4   5   4    2.10    2.60
   4  -5   4    4.20    4.60
   4  -5   4    1.00    6.00
   4   5  -4    7.90    5.40
   4   5  -4    0.60    2.20
   4   6   4   12.70    8.10
  -4   6  -4   14.40    4.40
   4   6   4   15.40    3.70
  -4   6   4   18.50    4.40
  -4   6   4   15.20    5.40
   4  -6   4   12.60    7.50
   4   6  -4   17.40    8.20
   4   6  -4   12.90    3.80
   4   7   4   11.70    4.30
  -4   7  -4    2.90    4.70
   4   7   4   15.50    9.00
  -4   7   4    3.40    4.20
   4   7  -4   16.30    8.50
   4  -7   4    9.50    8.60
   4   7  -4    4.60    3.60
  -4   7   4    6.20    6.70
   4   8   4   12.00    4.50
  -4   8  -4   15.50    5.60
   4   8   4   18.00   11.20
   4   8  -4    7.30    4.50
  -4   8   4    8.20    5.30
  -4   8   4   26.10    8.60
  -4   9  -4    2.60    6.30
   4   9   4   10.50   13.30
   4   9   4   -3.30    6.00
   4   9  -4   12.70    6.00
  -4   9   4    4.40   10.30
  -4   9   4    8.40    7.20
   5   0   4  263.97   13.00
  -5   0  -4  251.47    8.00
  -5   0  -4  261.77   10.40
  -5   0   4  265.07    8.90
   5   0   4  243.38   10.10
   5   0   4  267.97    8.10
   5   0  -4  261.37    9.10
  -5  -1   4  237.08   10.50
  -5  -1   4  238.08    8.80
   5   1   4  232.48   10.40
  -5   1  -4  255.17    8.90
   5   1   4  242.78    8.30
  -5   1  -4  201.58   12.90
  -5   1  -4  245.48    7.80
   5  -1  -4  243.38    8.40
   5   1   4  236.78   11.60
  -5   1   4  246.58    8.30
  -5  -1  -4  224.78   10.70
  -5  -1  -4  248.68    7.80
  -5   1   4  212.18   11.80
   5  -1   4  219.68   12.90
   5   1  -4  222.48    9.40
   5  -1   4  237.68    8.90
   5  -1   4  255.27    7.80
   5   2   4   12.50    3.50
  -5  -2   4   15.70    2.40
   5   2   4   14.50    3.50
  -5  -2  -4   16.00    2.20
  -5  -2  -4   19.50    2.00
  -5   2   4   19.60    2.30
   5  -2   4   13.80    2.00
   5  -2   4   17.60    2.40
  -5   2   4   17.60    2.80
  -5   3  -4 1149.08   33.40
   5   3   4 1133.29   32.60
   5   3   4 1106.99   37.40
   5  -3  -4 1099.99   34.70
  -5  -3   4 1101.89   35.80
   5   3   4 1191.28   34.90
  -5   3   4 1115.59   34.50
   5  -3   4 1091.79   39.70
   5   3  -4 1122.99   37.00
   5  -3   4 1128.69   32.30
  -5   3   4 1140.99   33.50
   5   4   4   68.29    4.10
   5   4   4   70.59    9.50
   5   4   4   63.09    5.50
  -5   4  -4   64.19    5.00
  -5  -4   4   62.59    5.30
   5  -4  -4   65.89    7.60
   5   4  -4   82.69    8.80
   5  -4   4   67.59    5.10
   5   4  -4   60.19    4.50
  -5   4   4   60.09    5.90
   5  -4   4   57.79    8.50
  -5   4   4   67.69    5.00
  -5   5  -4  281.37   12.30
   5   5   4  290.57   11.40
   5   5   4  279.17   17.40
   5   5  -4  286.97   12.00
   5  -5   4  320.77   19.10
   5  -5   4  302.37   12.30
  -5   5   4  280.27   13.00
   5   5  -4  288.47   17.00
  -5   5   4  309.27   12.70
   5   6   4   22.50    3.90
   5   6   4   22.90    9.20
  -5   6  -4   19.60    4.70
  -5   6   4   18.20    5.10
   5   6  -4   22.00    4.10
   5   6  -4   26.20    8.60
  -5   6   4   27.20    4.70
   5  -6   4   28.00    8.90
  -5   7  -4  234.58   12.70
   5   7   4  225.88   18.90
   5   7   4  220.88   11.40
   5  -7   4  219.88   20.70
   5   7  -4  224.58   18.70
  -5   7   4  247.48   14.20
   5   7  -4  237.48   12.00
  -5   7   4  228.68   12.80
   5   8   4    9.10    4.70
   5   8   4   12.80   10.60
  -5   8  -4    6.70    5.90
   5   8  -4    4.10    4.70
  -5   8   4   -2.00    7.60
  -5   8   4    8.60    5.50
   5  -8   4    0.90   10.30
  -5   9  -4   -3.90    6.40
   5   9   4    9.60    6.30
   5   9   4   21.40   13.70
  -5   9   4   11.00    6.20
   5   9  -4    3.00    6.40
   6   0   4   55.09    2.70
  -6   0  -4   49.50    2.50
  -6   0   4   52.79    3.30
   6   0   4   48.70    4.40
  -6   0  -4   58.09    5.20
   6   0   4   52.39    7.20
  -6   1  -4   71.49    3.40
   6   1   4   69.59    3.90
  -6  -1   4   71.99    4.20
  -6   1  -4   72.99    4.40
  -6  -1   4   77.69    7.20
   6   1   4   67.79    5.70
   6   1   4   78.09    7.70
  -6  -1  -4   70.29    3.30
   6  -1   4   68.29    4.30
   6  -1   4   69.79    8.70
   6  -1   4   73.29    3.40
  -6   1   4   70.09    3.70
  -6  -1  -4   65.39    6.90
   6   2   4   50.09    6.50
  -6  -2   4   46.20    4.20
  -6  -2   4   54.29    5.90
   6   2   4   46.00    5.80
  -6   2  -4   53.79    3.40
  -6  -2  -4   56.09    3.00
   6  -2   4   51.99    3.20
  -6   2   4   52.09    4.60
  -6   2   4   54.39    3.50
   6  -2   4   64.09    8.60
  -6  -2  -4   50.49    3.50
  -6   3  -4   33.60    3.40
   6   3   4   31.10    6.20
  -6  -3   4   38.30    4.60
   6   3   4   35.80    4.80
  -6  -3   4   44.70    5.10
  -6   3   4   33.20    4.30
   6  -3   4   32.70    6.80
  -6   3   4   31.60    3.50
  -6  -3  -4   35.30    4.00
   6  -3   4   36.70    2.40
   6   3  -4   29.50    5.40
   6   4   4    1.00    1.40
   6  -4  -4    1.00    4.10
   6   4   4    4.70    2.90
   6   4   4    2.00    5.80
  -6  -4   4    3.00    3.60
  -6  -4   4   -1.60    3.60
  -6   4  -4   -0.50    2.30
  -6   4   4    3.80    2.90
   6  -4   4   -0.30    5.80
  -6   4   4    1.60    2.70
   6  -4   4    5.10    2.10
   6   4  -4    1.30    4.90
  -6   5  -4    0.50    3.00
   6   5   4    3.70    2.30
   6   5   4   11.20    7.20
   6  -5   4   26.40    8.50
   6  -5   4    7.30    3.10
   6   5  -4    9.60    6.80
  -6   5   4    5.60    3.70
  -6   5   4    7.00    3.70
   6   6   4   57.49    5.80
  -6   6  -4   45.50    6.10
   6   6   4   34.40    9.40
  -6   6   4   53.39    6.50
  -6   6   4   46.90    6.10
   6   6  -4   44.40   10.20
   6  -6   4   36.80   11.50
   6   6  -4   44.80    5.50
   6   7   4   -6.30    3.40
  -6   7  -4    3.90    4.90
   6   7   4   -3.80    8.20
   6   7  -4   13.70    9.80
   6  -7   4   -1.90   10.20
  -6   7   4   16.20    5.80
   6   7  -4    2.10    3.90
  -6   7   4    0.20    4.70
   6   8   4   34.30   12.40
  -6   8  -4   26.00    6.60
   6   8   4   35.90    6.00
  -6   8   4   38.60    7.30
   6   8  -4   35.40    6.10
  -6   8   4   63.69    9.80
   6  -8   4   28.80   12.20
  -7   0  -4 2190.68   62.19
  -7   0  -4 2298.87   64.99
  -7   0   4 2220.38   63.29
  -7   0   4 2258.67   65.09
   7   0   4 2201.18   64.59
   7   0   4 2307.07   62.49
   7   0   4 2188.58   69.19
  -7  -1   4 1696.83   49.50
   7   1   4 1694.03   51.79
   7   1   4 1744.73   54.39
  -7   1  -4 1721.93   48.40
   7   1   4 1796.42   49.10
  -7   1  -4 1790.62   49.30
  -7  -1  -4 1643.14   48.20
   7  -1   4 1662.43   55.99
   7  -1   4 1740.43   48.40
  -7   1   4 1660.43   48.90
   7  -1   4 1720.03   49.10
  -7  -2   4  881.01   27.20
  -7  -2   4  852.11   29.20
  -7   2  -4  858.71   25.60
   7   2   4  858.11   30.00
   7   2   4  835.32   29.40
   7  -2   4  861.61   24.40
  -7   2   4  838.72   25.90
  -7  -2  -4  873.01   25.10
  -7  -2  -4  850.81   25.80
   7  -2   4  841.42   32.90
  -7   2   4  876.61   27.20
   7   3   4 2279.67   66.79
  -7  -3   4 2246.78   66.09
  -7  -3   4 2316.67   66.39
   7   3   4 2279.37   69.09
  -7   3  -4 2239.18   63.99
  -7   3   4 2205.78   64.49
  -7   3   4 2211.18   64.19
   7  -3   4 2236.58   72.09
   7   3  -4 2269.47   68.79
  -7  -3  -4 2162.08   64.69
   7   4   4  542.25   18.90
  -7  -4   4  531.45   19.60
  -7  -4   4  557.14   21.60
  -7   4  -4  556.94   19.00
   7   4   4  551.24   24.40
  -7   4   4  580.44   19.30
  -7   4   4  539.45   18.70
  -7  -4  -4  545.25   20.50
   7  -4   4  587.84   27.30
   7   4  -4  566.84   24.10
  -7   5  -4  334.17   13.90
   7   5   4  314.67   19.00
   7  -5  -4  327.27   15.80
  -7  -5   4  346.27   17.60
   7  -5   4  339.77   11.50
   7   5  -4  323.27   18.70
  -7   5   4  332.27   13.50
  -7   5   4  314.87   13.90
   7  -5   4  313.37   23.00
   7   6   4   21.40    4.00
  -7   6  -4   20.40    5.20
   7   6   4   23.20    9.40
  -7  -6   4   23.30    7.60
  -7   6   4   19.50    4.90
   7  -6   4   13.70    9.80
  -7   6   4   35.80    5.00
   7   6  -4   30.80   10.00
   7   7   4  148.39   17.00
  -7   7  -4  159.28   10.70
   7   7   4  170.68    9.80
   7  -7   4  164.38   18.60
  -7   7   4  181.88   11.30
   7   7  -4  144.99   17.70
  -7   7   4  156.18   11.40
   7   8   4   32.60    5.90
  -7   8  -4   36.20    7.00
   7   8   4   43.40   13.20
   7  -8   4    8.70   13.10
  -7   8   4   31.30    6.90
  -8   0  -4   10.50    4.20
   8   0   4    9.60    2.20
  -8   0   4   12.30    2.10
   8   0   4   20.00    6.00
   8   0   4   14.30    3.40
  -8   0  -4    9.10    1.50
  -8   1  -4  539.55   16.50
   8   1   4  542.85   22.80
  -8   1  -4  530.75   17.80
  -8  -1   4  536.25   17.70
   8   1   4  515.55   19.70
   8   1   4  533.45   17.40
   8  -1   4  530.75   24.30
   8  -1   4  532.55   17.30
  -8  -1  -4  532.05   16.50
  -8   1   4  564.74   17.40
  -8   2  -4   73.89    4.30
   8   2   4   84.19    9.20
   8   2   4   69.79    7.60
  -8  -2   4   71.39    5.10
  -8   2   4   74.69    5.80
   8  -2   4   66.49    3.20
  -8   2   4   68.39    4.60
   8  -2   4   83.99   10.50
  -8  -2  -4   70.39    4.10
  -8  -3   4  104.49   11.00
  -8  -3   4  103.79    7.60
   8   3   4  124.49   11.00
   8   3   4  112.29    9.30
  -8   3  -4  123.39    6.20
   8   3  -4  105.99    9.70
  -8   3   4  121.19    6.70
  -8   3   4  114.59    7.20
  -8  -3  -4  112.69    6.30
   8  -3   4  104.39   12.40
  -8  -4   4   59.99    7.10
  -8  -4   4   75.29    7.60
   8   4   4   53.69    6.90
   8   4   4   56.99    9.60
   8   4  -4   53.89    8.80
   8  -4   4   68.09   12.90
  -8  -4  -4   70.09    6.40
  -8   4   4   60.59    5.50
  -8   4   4   50.09    5.30
  -8  -5   4    4.20    5.20
   8   5   4   -1.20    7.60
  -8  -5   4    1.30    3.70
  -8   5  -4   -0.20    3.50
  -8  -5  -4    6.80    4.50
   8  -5   4   -2.70    9.60
  -8   5   4    0.80    3.20
   8   5  -4    5.40    6.40
  -8   5   4    9.40    3.30
  -8   6  -4   12.40    4.70
   8   6   4    2.20    7.20
  -8  -6   4    9.60    6.70
  -8   6   4    9.50    4.20
   8  -6   4    7.20   11.00
  -8  -6  -4   18.00    6.60
   8   6  -4   15.20    8.60
  -8   6   4   13.80    5.10
   8   7   4    8.20    9.40
  -8   7  -4    7.80    4.60
  -8  -7   4    2.20    7.50
  -8   7   4    5.10    4.90
   8  -7   4  -12.00   12.00
  -8   7   4    3.80    5.30
   8   7  -4   18.10    9.60
  -8  -8   4   33.20   11.50
  -8   8  -4    6.90    6.30
   8   8   4    4.50   12.30
   8  -8   4   -3.10   13.50
  -8   8   4    2.40    5.90
  -9   0   4 1169.48   34.60
   9   0   4 1130.69   35.90
  -9   0  -4 1133.99   36.40
  -9   0  -4 1189.08   33.50
   9   0   4 1169.78   41.60
  -9   1  -4  152.08    6.40
  -9   1  -4  158.68    8.30
  -9  -1   4  162.88    7.40
   9   1   4  155.48   12.20
   9   1   4  160.38    9.50
  -9  -1  -4  157.68    6.30
   9  -1   4  160.98    7.40
  -9   1   4  154.48    8.60
   9  -1   4  163.78   14.10
  -9   1   4  154.28    7.00
  -9  -2   4  280.17   11.50
  -9   2  -4  269.97   10.20
   9   2   4  286.17   15.30
   9   2   4  277.37   14.60
  -9   2  -4  287.37    9.60
  -9  -2  -4  291.37   10.30
   9  -2   4  252.97   18.10
   9  -2   4  280.87    9.00
  -9   2   4  281.67   11.90
  -9   2   4  299.07   11.00
   9   3   4   -1.90    4.80
  -9  -3   4   -1.10    2.50
  -9   3  -4    4.40    2.40
   9   3   4    3.90    5.90
  -9  -3  -4    3.20    2.10
  -9   3   4    1.50    2.50
   9   3  -4   -1.40    4.70
  -9   3   4    2.90    2.90
   9  -3   4   12.20    8.80
   9   4   4  319.57   14.60
  -9  -4   4  317.17   16.90
   9   4   4  299.57   18.50
  -9  -4   4  312.97   15.20
  -9   4  -4  311.07   12.80
   9  -4   4  320.17   22.30
  -9   4   4  306.17   13.00
   9   4  -4  322.47   18.80
  -9  -4  -4  327.37   13.70
  -9   4   4  319.37   11.90
  -9  -5   4   24.40    6.70
  -9  -5   4   16.10    5.20
   9   5   4   11.80    8.20
  -9   5  -4   22.30    4.50
   9  -5   4   18.10   10.70
  -9  -5  -4   30.00    5.80
  -9   5   4   25.30    3.60
  -9   5   4   20.70    4.40
   9   5  -4   20.40    8.20
  -9  -6   4   42.30    9.00
   9   6   4   34.50   10.80
  -9   6  -4   53.89    6.60
   9   6  -4   45.70   10.70
  -9   6   4   55.39    6.00
  -9  -6  -4   48.90    8.10
   9  -6   4   43.10   13.70
  -9   6   4   37.00    6.20
  -9  -7   4  -14.90    8.40
  -9   7  -4   -4.40    4.70
   9   7   4    8.10   10.60
   9   7  -4    7.70   11.00
  -9   7   4    8.20    5.80
  -9  -7  -4    1.30    7.10
   9  -7   4  -15.10   12.70
  -9   8  -4   16.80    6.50
  -9  -8   4   -3.90   10.90
   9   8   4    8.90   13.50
  -9   8   4    4.40    6.90
  -9  -8  -4   17.60   10.80
   9  -8   4    8.40   14.50
 -10   0  -4  198.08    7.40
 -10   0   4  189.48    8.20
  10   0   4  193.78   15.00
  10   0   4  194.78    9.90
 -10  -1   4   16.20    2.90
  10   1   4   18.60    6.30
 -10   1  -4   10.80    4.00
  10   1   4   18.30    4.50
 -10   1  -4   16.40    2.20
 -10  -1  -4   16.80    2.00
 -10   1   4   17.20    3.00
  10  -1   4   12.70    2.90
  10  -1   4   22.70    8.60
 -10  -2   4  363.66   13.90
  10   2   4  324.77   16.60
  10   2   4  362.96   18.50
 -10   2  -4  373.26   11.80
 -10   2  -4  333.57   12.30
 -10   2   4  375.36   13.50
 -10   2   4  342.07   13.00
 -10  -2  -4  340.77   12.30
  10  -2   4  361.96   21.80
 -10   2   4  353.96   14.30
  10  -2   4  341.37   11.00
  10   3   4    5.00    5.60
  10   3   4   -3.60    5.10
 -10   3  -4    5.00    2.90
 -10  -3   4    1.20    3.30
 -10   3   4   -0.10    2.40
 -10  -3  -4    0.50    2.30
 -10   3   4    2.70    2.80
  10  -3   4   -8.10    8.80
  10   3  -4    6.70    5.80
 -10  -4   4   19.80    5.40
 -10   4  -4   13.00    3.80
  10   4   4   22.90    5.80
  10   4   4   13.20    7.60
 -10  -4   4   -3.20   10.40
 -10  -4  -4   19.60    4.60
 -10   4   4   16.70    4.20
  10  -4   4   17.60   11.60
  10   4  -4   15.60    7.90
 -10   4   4   24.80    3.00
  10   5   4    5.80    7.30
 -10  -5   4    7.50    5.20
 -10   5  -4   10.20    4.10
  10   5  -4    1.50    7.20
 -10   5   4    5.20    2.80
  10  -5   4    6.50   11.90
 -10   5   4    0.20    3.80
 -10  -5  -4   13.00    5.10
  10   6   4   24.40   10.50
 -10  -6   4   22.10    7.10
 -10   6  -4   15.60    4.80
 -10  -6  -4   18.60    6.80
  10   6  -4   25.10   10.30
  10  -6   4   25.90   13.60
 -10   6   4   14.20    5.30
  10   7   4   17.10   11.80
 -10   7  -4    3.40    5.60
 -10  -7   4   26.40    9.80
 -10   7   4   11.00    5.80
 -10  -7  -4    0.90    7.70
  10   7  -4   10.30   11.50
  10  -7   4   13.40   13.80
 -10   8  -4   -6.90    6.30
  10   8   4   11.20   13.60
 -10  -8   4   -9.70   10.90
  10  -8   4   -3.10   15.20
 -10  -8  -4    2.10    9.80
 -10   8   4   14.70    7.00
  11   0   4  162.98   16.00
 -11   0   4  172.98    8.20
 -11   0  -4  176.28    7.20
  11   0   4  178.48    9.70
 -11   1  -4  463.75   17.50
  11   1   4  493.55   24.10
 -11   1  -4  465.85   15.60
 -11  -1   4  484.95   16.90
  11   1   4  459.65   19.20
 -11   1   4  498.85   16.70
  11  -1   4  465.35   16.60
  11  -1   4  476.35   26.30
 -11  -1  -4  470.85   15.50
  11   2   4   44.80    8.50
  11   2   4   47.50    7.70
 -11  -2   4   56.59    5.50
 -11   2  -4   61.79    4.70
 -11   2  -4   58.59    4.60
 -11   2   4   59.09    5.30
  11  -2   4   48.50   11.50
 -11  -2  -4   47.00    4.10
 -11   2   4   58.89    6.70
 -11   3  -4  141.59    8.20
 -11  -3   4  164.38    9.70
  11   3   4  162.68   12.90
  11   3   4  187.18   14.40
 -11  -3  -4  185.38    8.40
  11  -3   4  158.68   20.30
 -11   3   4  155.38    8.70
 -11   3   4  157.38    7.90
 -11   3   4  181.88    8.40
 -11  -4   4    3.00    3.90
 -11   4  -4    2.20    3.50
  11   4   4   15.00    7.30
  11   4   4    0.80    5.30
 -11  -4  -4    6.10    3.50
 -11   4   4    8.80    2.60
 -11   4   4    5.60    3.90
  11   4  -4    9.70    7.80
 -11   4   4   14.00    2.90
  11   5   4  138.99   15.60
 -11   5  -4  127.19    9.20
 -11  -5   4  111.19   10.20
  11  -5   4   90.99   16.90
 -11   5   4  105.49    8.30
 -11  -5  -4  125.29   10.30
  11   5  -4  118.59   15.40
 -11   6  -4   23.80    5.90
  11   6   4   30.60   11.10
 -11  -6   4   30.90    8.00
  11  -6   4   11.50   13.70
 -11   6   4   28.10    6.20
  11   6  -4   18.00   11.50
 -11  -6  -4   14.10    6.80
 -11  -7   4   11.90    9.40
  11   7   4   11.30   11.00
 -11   7  -4   15.50    6.30
  11  -7   4    6.10   15.10
 -11  -7  -4   37.80    9.20
  11   7  -4   42.90   12.40
 -11   7   4   12.30    6.10
 -11   8  -4    2.50    6.70
 -11  -8   4   28.60   12.20
  11   8   4    3.00   14.60
 -11  -8  -4   16.20   10.90
  11  -8   4    0.10   17.10
 -11   8   4    7.90    7.00
  12   0   4   17.70    4.30
 -12   0   4   13.80    3.00
  12   0   4    9.00    8.30
 -12   0  -4   20.50    2.70
  12   1   4    9.80    7.60
 -12   1  -4   -4.80    5.10
 -12  -1   4    3.70    2.50
 -12   1  -4    4.80    2.10
  12   1   4   -0.20    4.40
  12  -1   4    6.50    8.80
 -12   1   4   -0.20    2.50
  12  -1   4   -1.10    2.80
 -12  -1  -4    2.70    1.80
 -12   2  -4   93.89    6.30
 -12   2  -4   94.29    5.80
  12   2   4   83.19   11.30
 -12  -2   4   91.19    7.10
  12   2   4   90.39   10.40
 -12  -2  -4   85.79    5.40
 -12   2   4   95.69    8.50
 -12   2   4   89.89    6.50
  12  -2   4   63.09   12.70
  12   3   4   36.70    8.20
 -12   3  -4   18.80    3.80
 -12  -3   4   28.40    4.80
  12   3   4   15.70    7.30
  12  -3   4   17.10   11.70
 -12  -3  -4   20.10    3.80
 -12   3   4   26.90    4.00
 -12   3   4   23.70    4.50
 -12   3   4   38.50    4.60
 -12   4  -4    0.30    3.40
  12   4   4   -2.10    6.90
 -12  -4   4    0.20    4.70
  12   4   4    6.10    5.80
 -12   4   4    1.90    4.00
 -12   4   4    5.80    2.40
 -12   4   4    8.00    2.30
  12  -4   4    0.40   10.50
 -12  -4  -4    0.50    3.50
  12   4  -4    1.30    7.00
 -12   5  -4   11.30    4.80
 -12  -5   4   19.00    6.40
  12   5   4   34.30   10.00
  12   5  -4   24.10   10.00
  12  -5   4   26.40   13.50
 -12  -5  -4   11.80    5.00
 -12   5   4   15.40    5.10
  12   6   4   16.30   11.40
 -12  -6   4   11.50    7.70
 -12   6  -4   12.00    5.10
 -12  -6  -4   14.90    6.60
  12  -6   4   14.80   14.10
  12   6  -4   13.90   10.70
 -12   6   4   10.60    5.20
 -12  -7   4   -3.70    8.80
  12   7   4    6.90   13.20
 -12   7  -4   15.40    5.80
 -12   7   4    6.70    6.60
  12  -7   4   -2.70   15.20
 -12  -7  -4    8.90    8.00
 -13   0   4  322.27   13.10
  13   0   4  331.57   14.70
  13   0   4  311.47   23.10
 -13   0  -4  340.87   12.10
  13   1   4   15.20    5.50
 -13  -1   4   14.70    3.80
  13   1   4   11.70    9.00
 -13   1  -4   20.20    3.40
  13  -1   4   22.80   10.20
  13  -1   4   15.40    3.90
 -13  -1  -4   15.80    2.90
 -13   1   4   17.80    3.80
 -13   2  -4  304.17   12.30
  13   2   4  310.37   17.40
 -13  -2   4  324.17   13.50
  13   2   4  342.57   22.20
 -13   2  -4  303.87   11.70
 -13   2   4  303.97   12.90
  13  -2   4  295.37   24.90
 -13  -2  -4  317.47   12.20
  13   3   4   11.10    7.90
  13   3   4   -1.90    7.00
 -13  -3   4    6.00    3.80
 -13   3  -4   12.50    3.80
 -13  -3  -4    6.10    3.10
 -13   3   4   12.20    3.60
 -13   3   4    8.50    3.70
  13  -3   4    0.60   10.00
 -13   3   4    5.40    3.50
  13   4   4  311.37   17.50
 -13   4  -4  302.57   13.70
  13   4   4  296.47   19.70
 -13  -4   4  332.27   15.70
 -13   4   4  310.37   13.90
 -13  -4  -4  300.67   13.60
  13  -4   4  307.67   27.60
 -13  -5   4    9.50    6.30
 -13   5  -4    2.30    4.40
  13   5   4   -1.50    9.00
  13  -5   4   16.50   13.80
 -13  -5  -4   -0.90    4.80
  13   5  -4    5.60    8.70
 -13   5   4    1.80    4.30
 -13   6  -4   22.40    6.20
  13   6   4   17.30   12.30
 -13  -6   4   28.00    8.30
  13  -6   4   46.40   17.00
 -13  -6  -4   30.20    7.70
 -13   6   4   18.30    5.80
  13   7   4   13.80   13.80
 -13  -7   4   -7.20    9.00
 -13   7  -4    9.80    6.70
 -13   7   4    4.40    6.00
  13  -7   4   13.80   17.60
 -13  -7  -4   -0.20    8.50
 -14   0  -4  272.27   10.70
  14   0   4  250.97   23.40
 -14   0   4  237.68   11.30
  14   0   4  262.97   13.50
  14   1   4    1.70    5.70
 -14   1  -4    1.30    2.50
 -14  -1   4    9.10    3.60
  14   1   4   14.80   10.00
 -14   1   4    0.50    3.10
  14  -1   4   10.30    3.50
  14  -1   4    2.60   10.80
 -14  -1  -4    3.00    2.90
 -14   2  -4  317.47   13.00
  14   2   4  331.07   18.60
 -14  -2   4  308.47   13.90
 -14   2  -4  331.17   12.40
  14   2   4  367.66   23.80
 -14   2   4  310.97   13.80
  14  -2   4  312.77   26.10
 -14   3  -4   25.20    4.60
  14   3   4   35.20    9.40
  14   3   4   59.09   11.50
 -14  -3   4   21.80    4.80
 -14   3   4   30.40    4.50
 -14  -3  -4   32.10    4.50
  14  -3   4   59.59   14.80
 -14   3   4   34.80    5.90
 -14   4  -4   64.39    7.30
  14   4   4   81.09   10.80
 -14  -4   4   68.39    8.00
  14   4   4   61.19   11.10
  14  -4   4   39.70   15.80
 -14   4   4   55.79    6.60
 -14  -4  -4   59.59    6.50
 -14  -5   4   11.70    6.70
  14   5   4   15.40   10.40
 -14   5  -4   22.10    5.60
  14  -5   4   34.90   16.10
 -14  -5  -4   22.50    5.90
 -14   5   4   17.00    5.60
 -14   6  -4   25.20    5.90
 -14  -6   4   35.80    8.60
  14   6   4   41.00   13.90
  14  -6   4   24.30   19.20
 -14   6   4   35.30    7.40
 -14  -6  -4   41.40    7.80
 -14  -7   4   32.90   10.20
  14   7   4   15.10   14.70
 -14   7  -4    3.30    7.00
 -14  -7  -4   13.40    8.30
  14  -7   4   -8.80   17.80
 -14   7   4   -0.60    7.00
  15   0   4  366.16   26.20
 -15   0   4  350.36   14.80
  15   0   4  363.86   16.80
 -15   0  -4  362.86   13.60
  15   1   4  114.19   11.40
 -15  -1   4  113.09    8.20
  15   1   4  112.49   17.00
 -15   1  -4  112.09    7.30
 -15  -1  -4  116.29    6.90
  15  -1   4  118.99    8.20
  15  -1   4  157.98   20.00
 -15   1   4  112.09    8.30
  15   2   4  538.05   24.90
 -15   2  -4  544.55   19.30
  15   2   4  550.44   29.80
 -15  -2   4  525.05   20.20
 -15   2   4  550.04   20.20
  15  -2   4  526.15   31.80
 -15  -2  -4  548.55   19.00
 -15   3  -4   67.99    7.20
 -15  -3   4   70.09    8.20
  15   3   4   75.49   11.60
  15   3   4   72.79   12.50
  15  -3   4   62.29   15.80
 -15   3   4   78.89    8.10
 -15   3   4   74.49    7.10
 -15  -3  -4   74.59    7.30
 -15  -4   4  418.36   18.50
  15   4   4  457.15   23.30
 -15   4  -4  390.36   16.80
  15   4   4  371.16   23.40
 -15   4   4  411.36   17.50
  15  -4   4  362.16   32.40
 -15  -4  -4  404.06   16.80
  15   5   4   18.90   12.20
 -15  -5   4   13.70    6.80
 -15   5  -4   10.70    5.00
  15  -5   4   10.80   15.80
 -15  -5  -4   10.20    5.20
 -15   5   4    4.70    5.30
  15   6   4  264.37   25.70
 -15   6  -4  248.78   15.00
 -15  -6   4  244.28   17.20
 -15  -6  -4  233.98   15.50
 -15   6   4  216.48   14.30
  15  -6   4  215.48   27.90
  16   0   4    1.70    5.20
 -16   0  -4    0.10    3.10
 -16   0   4   -1.90    3.60
  16   0   4    1.50   11.40
 -16  -1   4   16.60    4.50
 -16   1  -4    8.90    4.00
  16   1   4   13.40    6.50
  16   1   4    9.80   12.00
 -16   1   4   13.50    4.30
  16  -1   4   -0.60   12.20
 -16  -1  -4    8.90    3.30
  16   2   4   13.90   12.30
 -16  -2   4    5.90    3.90
  16   2   4   -8.20    7.20
 -16   2  -4    6.70    4.00
  16  -2   4   28.40   15.20
 -16   2   4    4.00    4.00
 -16  -2  -4   12.50    3.80
  16   3   4    8.20    8.80
 -16  -3   4    2.00    4.00
  16   3   4    5.90   10.70
 -16   3  -4   -2.00    3.90
 -16   3   4    0.40    4.50
  16  -3   4    0.70   14.00
 -16  -3  -4    2.10    3.90
 -16   3   4   -7.40    4.40
  16   4   4    1.80    9.90
 -16  -4   4    6.80    5.10
 -16   4  -4   -1.30    4.30
  16   4   4    5.60    9.00
 -16  -4  -4   -1.50    4.50
 -16   4   4    3.60    4.50
  16  -4   4    8.60   16.40
 -16  -5   4    8.10    6.60
  16   5   4    2.70   11.00
 -16   5  -4   11.50    6.00
 -16  -5  -4   -6.20    5.40
  16  -5   4  -15.90   16.40
 -16   5   4   -1.60    5.60
 -16   6  -4   -3.30    6.20
  16   6   4    9.50   13.30
 -16  -6   4    4.40    7.80
 -16  -6  -4   -3.10    7.30
 -16   6   4   -9.80    6.10
  16  -6   4    1.70   18.70
  17   0   4    6.60    6.70
  17   0   4    8.90   13.30
 -17   0  -4    9.80    3.80
 -17   0   4    2.80    4.10
  17   1   4  750.12   30.40
 -17   1  -4  691.73   24.60
 -17  -1   4  773.22   26.30
  17   1   4  730.73   39.40
 -17  -1  -4  742.13   24.70
  17  -1   4  709.53   39.50
 -17   1   4  752.52   26.10
 -17   2  -4   65.09    7.50
  17   2   4   46.60   14.10
  17   2   4   63.19   11.10
 -17  -2   4   65.89    7.50
  17  -2   4   73.09   18.00
 -17   2   4   66.69    7.40
 -17  -2  -4   49.20    6.00
  17   3   4  432.06   28.10
 -17  -3   4  445.46   19.20
  17   3   4  480.75   26.20
 -17   3  -4  458.45   18.30
 -17  -3  -4  447.86   17.90
 -17   3   4  458.45   18.90
  17  -3   4  420.86   34.60
 -17   4  -4   12.00    5.10
  17   4   4   23.10   11.40
 -17  -4   4    8.30    6.10
  17   4   4   19.70   11.90
 -17  -4  -4    6.70    5.10
 -17   4   4   10.30    5.40
  17  -4   4   56.79   18.60
  17   5   4  338.17   27.50
 -17  -5   4  318.87   18.60
 -17   5  -4  318.37   16.80
 -17   5   4  335.27   17.90
  17  -5   4  376.06   37.90
 -17  -5  -4  354.66   16.80
 -18   0   4   43.10    6.70
  18   0   4   46.20    8.40
 -18   0  -4   36.00    5.10
  18   0   4   45.30   15.50
  18   1   4   20.50   14.10
  18   1   4   36.70    9.60
 -18  -1   4   25.80    5.50
 -18   1  -4   29.70    5.30
 -18  -1  -4   31.10    5.30
 -18   1   4   32.00    5.80
  18  -1   4   27.50   16.60
  18   2   4   -2.50    8.70
  18   2   4   -2.00   12.90
 -18  -2   4    5.80    4.40
 -18   2  -4    1.30    3.90
  18  -2   4   11.90   14.60
 -18  -2  -4   -2.70    4.10
 -18   2   4    2.30    4.70
 -18   3  -4    5.60    4.70
  18   3   4  -11.90   11.40
 -18  -3   4    6.70    5.50
  18   3   4    7.30   10.40
 -18   3   4    7.30    5.90
  18  -3   4  -13.70   16.20
 -18  -3  -4    4.90    4.70
 -18   4  -4    4.50    5.30
 -18  -4   4   -8.70    5.60
  18   4   4   13.40   13.10
 -18  -4  -4    4.60    5.00
 -18   4   4   -3.70    4.90
  18  -4   4  -18.30   18.40
 -18  -5   4    7.60    7.30
  18   5   4    6.10   13.80
 -18   5  -4    7.80    6.60
 -18  -5  -4  -11.00    6.10
  18  -5   4  -48.80   17.90
 -18   5   4  -10.40    6.70
 -19   0  -4  141.79    9.60
 -19   0   4  144.19   11.00
  19   0   4  162.88   21.80
 -19  -1   4   37.90    6.10
  19   1   4   55.19   11.10
  19   1   4   50.99   16.60
 -19   1  -4   35.10    5.70
  19  -1   4   14.00   15.90
 -19  -1  -4   37.00    5.70
 -19   1   4   32.20    6.30
  19   2   4  124.99   17.00
 -19  -2   4  100.19   10.40
  19   2   4   79.49   17.50
 -19   2  -4  123.09    9.80
  19  -2   4  128.19   23.70
 -19  -2  -4  106.89    9.00
 -19   2   4  135.99   10.90
  19   3   4   34.60   12.80
 -19  -3   4   11.00    5.50
 -19   3  -4   18.40    5.80
  19   3   4   14.20   13.70
 -19  -3  -4    6.00    4.80
  19  -3   4   14.60   18.00
 -19   3   4    4.40    6.50
  19   4   4   76.79   17.30
 -19  -4   4   73.29    9.90
 -19   4  -4   93.69   10.60
 -19   4   4   80.79    9.50
 -19  -4  -4   73.09    8.30
  19  -4   4   45.30   21.20
  20   0   4   37.70   17.40
 -20   0   4   24.50    6.30
  20   1   4   71.79   12.00
  20   1   4   26.50   17.10
 -20  -1   4   42.10    7.00
 -20   1  -4   49.80    6.70
 -20   1   4   48.00    7.80
 -20  -1  -4   59.09    7.00
  20  -1   4   35.00   18.30
  20   2   4   33.90   12.00
  20   2   4   37.80   16.10
 -20   2  -4   29.20    6.10
 -20  -2   4   21.10    7.30
  20  -2   4    9.20   16.70
 -20  -2  -4   26.70    5.60
 -20   2   4   28.30    6.40
 -20   3  -4   18.90    6.20
 -20  -3   4   16.50    7.10
  20   3   4   38.20   15.00
  20   3   4   17.60   13.30
 -20  -3  -4   17.30    6.00
  20  -3   4   18.50   18.70
 -20   3   4   21.70    7.60
  21   0   4  146.39   24.90
 -21   0   4  163.68   12.60
 -21   0  -4  148.39   11.40
  21   1   4   37.90   18.90
 -21   1  -4   48.20    7.50
 -21  -1   4   54.79    8.20
 -21  -1  -4   61.69    7.50
  21  -1   4   51.49   20.70
 -21   1   4   49.80    8.60
  21   2   4  314.47   31.10
  21   2   4  278.77   24.50
 -21   2  -4  258.67   14.80
 -21  -2   4  301.07   16.70
 -21  -2  -4  283.67   15.10
  21  -2   4  291.97   33.60
 -21   2   4  307.17   16.50
   0   0  -5   -0.10    2.00
   0   0  -5    0.70    0.60
   0   0   5   -0.20    0.50
   0   0   5   -1.70    1.90
   0  -1   5   -1.00    0.70
   0   1  -5   -1.10    0.60
   0  -1  -5    1.20    0.60
   0   1   5    8.10    3.10
   0   1   5    0.60    0.70
   0  -1  -5   -0.50    2.10
   0   2  -5 1041.40   30.00
   0  -2  -5 1090.39   29.60
   0  -2   5 1069.29   30.10
   0   2   5 1010.80   29.60
   0  -2  -5  985.70   32.60
   0   2   5 1043.20   33.00
   0   3   5   -0.60    1.20
   0  -3   5   -0.80    3.30
   0   3  -5   -1.20    1.10
   0   3   5   -3.30    3.20
   0   4  -5    2.60    1.80
   0   4   5    0.70    1.60
   0   4   5    2.80    3.60
   0   4   5    4.50    3.90
   0  -4   5    1.50    3.80
   0   5   5   -3.60    2.00
   0  -5   5   11.50    4.70
   0   5  -5    1.70    2.40
   0   5   5    1.00    4.80
   0   5   5  -10.20    4.70
   0  -6   5    8.20    5.30
   0   6  -5    3.00    3.30
   0   6   5  -10.50    6.50
   0   6   5   -7.60    5.50
   0   6   5    1.60    3.40
   0   7   5   -4.10    7.10
   0   7   5   -2.50    3.80
   0   7  -5   -1.70    3.60
   0  -7   5    8.80    5.30
   0   8  -5   87.99    9.70
   0   8   5   93.89    9.20
   0   8   5   87.69   12.80
   0   9  -5   -1.70    5.90
   0   9   5   -6.70   10.90
   0   9   5    0.70    6.00
  -1   0   5   -3.60    0.60
   1   0  -5   -3.20    0.70
   1   0   5   -3.80    0.30
  -1   0  -5   -3.70    2.20
   1   0   5   -4.70    0.30
   1   0   5   -2.40    2.20
  -1   0   5   -6.80    2.10
  -1  -1   5    4.00    1.20
  -1  -1   5    2.30    0.80
   1  -1  -5    6.90    1.00
   1  -1  -5    8.20    2.80
   1   1   5   14.50    4.30
  -1   1  -5    3.80    0.80
   1   1   5    3.70    0.70
  -1   1   5    6.10    1.10
  -1   1   5    4.50    2.80
  -1  -1  -5    8.50    3.00
  -1  -1  -5    4.70    0.80
   1  -1   5    3.40    0.90
   1   2   5   45.00    2.50
  -1   2  -5   47.30    2.80
   1   2   5   52.49    6.00
  -1  -2   5   45.60    3.10
   1  -2  -5   48.80    2.70
   1  -2  -5   46.50    5.20
  -1  -2   5   45.80    4.40
  -1  -2  -5   45.60    6.30
   1  -2   5   45.30    2.80
  -1  -2  -5   47.40    2.40
  -1   2   5   50.19    5.80
  -1   2   5   48.50    2.70
   1   2  -5   45.50    2.70
   1   3   5  340.07   15.00
   1   3   5  347.67   11.30
  -1   3  -5  340.67   11.60
   1  -3   5  340.27   14.90
  -1   3   5  349.87   14.40
  -1  -3  -5  302.87   11.10
   1  -3   5  349.17   13.20
  -1   3   5  354.86   11.50
   1   3  -5  356.86   11.80
  -1  -4   5  102.09    7.70
  -1   4  -5   85.99    5.30
   1   4   5   89.19    4.70
   1   4   5   77.99    8.10
  -1   4   5   85.79    5.10
   1   4  -5   80.69    5.10
   1  -4   5   91.19    9.00
  -1   4   5   75.39    8.60
  -1   4   5   84.59    7.70
  -1  -5   5   62.79    7.10
  -1   5  -5   63.59    5.30
   1   5   5   73.99    7.00
   1   5   5   49.10    8.00
   1   5   5   70.49    5.40
  -1   5   5   67.79    8.70
   1  -5   5   70.99    8.70
  -1   5   5   73.09    5.80
  -1   5   5   61.09    8.20
   1   5  -5   69.79    5.60
   1   6   5   67.69    7.10
   1   6   5   71.69    6.50
  -1  -6   5   69.19    8.80
   1   6   5   75.69   10.10
  -1   6  -5   67.89    6.40
  -1   6   5   57.59    6.60
   1  -6   5   78.69    8.80
  -1   6   5   53.39   10.10
  -1   6   5   53.49    8.80
   1   6  -5   61.49    6.10
   1   7   5  111.99   14.20
   1   7   5  103.59    8.50
  -1   7  -5  101.19    8.10
  -1   7   5  112.49    9.00
  -1   7   5   96.59   12.30
   1  -7   5   97.49   11.60
   1   7  -5  100.19    8.10
  -1   8  -5   31.30    6.00
   1   8   5   27.50    5.50
   1   8   5   35.90   10.90
  -1   8   5   51.19   10.90
  -1   8   5   32.80    6.40
   1   8  -5   26.80    5.90
   1   9   5   45.90   14.20
   1   9   5   35.70    7.50
  -1   9  -5   27.60    7.10
   1   9  -5   26.10    7.10
  -1   9   5   41.90   12.20
  -1   9   5   24.10    7.30
  -2   0  -5    3.50    2.00
   2   0  -5   -0.20    0.80
  -2   0  -5   -0.50    0.30
   2   0   5    0.10    0.30
   2   0   5    0.50    2.10
  -2   0   5    1.60    0.60
  -2  -1   5    1.00    0.80
  -2   1  -5    0.60    0.70
   2  -1  -5    1.90    0.80
   2   1   5    4.80    3.20
   2   1   5    0.90    0.40
  -2  -1   5    0.30    1.10
   2  -1  -5    1.00    2.30
  -2   1   5    0.90    0.80
  -2  -1  -5    4.20    2.90
   2  -1   5    1.80    0.80
   2  -1   5    0.00    1.60
  -2  -1  -5    1.40    0.50
  -2   1   5    0.70    2.10
   2  -2  -5  282.17   11.50
  -2  -2   5  262.27    9.20
   2   2   5  273.07    8.60
   2  -2  -5  272.47    8.90
   2   2   5  282.87   12.20
  -2   2  -5  271.27    9.00
  -2  -2   5  257.47   11.30
   2   2  -5  275.87    9.10
  -2  -2  -5  278.17    8.60
   2  -2   5  262.57   13.00
  -2   2   5  263.07    9.00
  -2   2   5  269.27   11.80
   2  -2   5  275.27    9.10
   2   3   5  153.68    9.60
   2   3   5  175.38    6.60
  -2   3  -5  178.88    7.00
   2  -3  -5  169.58    9.70
  -2  -3  -5  169.28    6.70
   2   3  -5  165.78    6.80
   2  -3   5  207.28   11.40
   2  -3   5  176.08    8.00
  -2   3   5  164.88    6.80
  -2   3   5  168.98    9.60
   2   4   5  106.29    5.20
   2   4   5  117.69    9.70
  -2   4  -5   97.39    5.60
  -2   4   5  100.59    5.50
  -2   4   5   98.69    7.90
   2   4  -5  101.29    5.50
   2  -4   5   90.59    9.50
  -2   5  -5   23.50    3.90
  -2  -5   5   21.60    4.60
   2   5   5   28.30    3.90
   2   5   5   27.30    4.70
   2   5   5   17.10    6.80
  -2   5   5   29.50    5.90
   2   5  -5   17.60    3.30
  -2   5   5   22.80    3.80
   2  -5   5   30.20    6.80
   2   6   5   10.00    3.70
  -2   6  -5   10.40    4.00
   2   6   5   15.10    7.40
  -2  -6   5    9.00    4.20
  -2   6   5   12.90    6.00
  -2   6   5    9.60    3.70
   2  -6   5    5.30    6.30
   2   6  -5    6.30    3.50
   2   7   5  168.88   16.50
  -2   7  -5  182.48   10.70
   2   7   5  179.98   10.00
   2  -7   5  182.58   14.60
  -2   7   5  168.08   10.00
  -2   7   5  184.88   14.70
   2   7  -5  175.28   10.40
  -2   8  -5   81.59    8.60
   2   8   5   84.79    8.90
   2   8   5   76.29   12.90
  -2   8   5   95.59   12.40
  -2   8   5   66.69    8.10
   2   8  -5   97.79    9.60
   2   9   5   34.70    7.60
  -2   9  -5   24.90    6.90
   2   9   5   30.10   13.90
  -2   9   5   37.40    7.80
  -2   9   5   37.20   12.10
   2   9  -5   35.40    7.60
   3   0   5    0.60    0.30
   3   0   5    6.70    3.00
   3   0  -5    0.30    0.90
  -3   0  -5   -0.40    2.00
  -3   0   5    1.70    0.80
  -3   0  -5    0.60    0.40
  -3   1  -5    1.00    0.70
   3   1   5   -2.50    3.00
  -3  -1   5    0.90    1.00
   3  -1  -5    2.00    1.00
  -3  -1  -5    1.20    0.70
  -3   1   5   -0.10    0.70
  -3   1   5    2.30    2.10
   3  -1   5    0.00    1.80
  -3  -1  -5    1.80    0.50
   3   1  -5   -1.80    1.50
  -3  -1  -5    6.40    3.60
   3  -1   5    1.20    0.70
  -3  -2   5   53.59    4.50
   3  -2  -5   53.39    5.50
  -3   2  -5   52.59    3.10
   3   2   5   53.59    2.60
   3  -2  -5   57.99    3.40
   3   2   5   51.69    6.00
   3  -2   5   59.29    3.20
  -3   2   5   58.99    5.10
  -3   2   5   54.39    3.10
   3  -2   5   60.99    6.90
  -3  -2  -5   55.89    2.80
   3   3   5  124.69    8.60
   3   3   5  130.79    5.20
   3  -3  -5  110.09    8.30
   3  -3   5  145.99    6.50
  -3   3   5  116.59    5.60
  -3  -3  -5  126.99    5.40
   3   3  -5  116.59    5.50
  -3   3   5  112.39    8.00
  -3   4  -5  173.38    7.80
   3   4   5  155.38   11.10
   3   4   5  174.28    7.10
  -3   4   5  166.98    7.80
   3  -4   5  169.58    9.10
   3  -4   5  159.68   12.30
   3   4  -5  165.88    7.50
  -3   4   5  176.08    9.90
   3   5   5   -6.30    3.20
  -3   5  -5    9.20    3.00
   3   5   5    4.80    2.40
   3   5   5    2.20    5.80
  -3  -5   5   -1.00    3.80
   3  -5   5    3.90    5.50
   3   5  -5    5.40    2.60
  -3   5   5    5.30    4.00
  -3   5   5    5.30    2.70
   3   6   5  142.49    8.40
  -3   6  -5  139.99    8.80
   3   6   5  135.09   14.60
  -3   6   5  149.09   11.70
   3   6  -5  147.69    8.80
  -3   6   5  136.59    8.80
   3  -6   5  143.79   13.70
   3   7   5   -3.60    3.80
  -3   7  -5    0.80    4.20
   3   7   5    5.40    8.80
  -3   7   5   -0.60    6.30
   3  -7   5   -3.60    7.50
  -3   7   5   -0.20    3.60
   3   7  -5    7.30    3.70
   3   8   5   95.19   14.50
  -3   8  -5  119.89   10.10
   3   8   5   92.09    9.30
  -3   8   5  103.89   12.90
   3   8  -5  103.89    9.80
  -3   8   5  118.29   10.70
  -3   9  -5    5.50    6.90
   3   9   5    4.50    6.10
   3   9   5  -11.80   11.70
   3   9  -5    1.00    6.00
  -3   9   5    1.70   10.50
  -3   9   5    4.70    6.10
   4   0  -5    0.00    1.10
   4   0   5   -0.80    2.50
   4   0   5    0.20    0.50
   4   0   5    7.00    3.70
  -4   0  -5    3.10    2.10
  -4   0  -5    0.30    0.50
  -4   0   5    1.80    0.90
  -4   1  -5  123.79    6.10
   4  -1  -5  118.59    4.80
  -4  -1   5  105.69    5.10
   4   1   5  114.69    7.20
  -4   1  -5  109.19    4.20
   4  -1   5  117.49    4.20
  -4   1   5  116.69    4.70
   4  -1   5  113.99    8.80
   4  -1   5  120.29    5.70
  -4  -1  -5  113.39    4.00
  -4  -1  -5  116.59    3.80
  -4   1   5   98.39    6.50
  -4  -1  -5  117.79    8.00
   4   1  -5  113.59    5.80
   4  -2  -5  575.84   20.10
   4   2   5  579.34   17.00
   4   2   5  557.14   21.00
  -4   2  -5  556.24   17.60
  -4  -2   5  596.34   19.50
   4  -2   5  595.64   23.50
  -4  -2  -5  614.64   17.20
   4  -2   5  600.94   17.70
  -4   2   5  585.04   19.70
   4  -2   5  579.94   18.70
  -4   2   5  572.64   17.90
   4  -3  -5  207.08   10.70
   4   3   5  243.78    7.80
  -4   3  -5  202.78    8.20
   4   3   5  247.98   12.30
  -4  -3  -5  205.18    7.90
   4  -3   5  209.18   13.20
  -4   3   5  208.88   10.50
   4  -3   5  209.88    8.30
  -4   3   5  211.68    8.40
   4   4   5   98.29    9.80
   4   4   5   99.99    5.00
  -4   4  -5  102.49    5.70
  -4   4   5   93.89    7.40
   4   4  -5  103.99    5.80
   4  -4   5   94.09   11.10
  -4   4   5   96.49    5.90
   4  -4   5  108.99    7.00
   4   5   5  105.19   12.10
  -4  -5   5  127.59    7.70
   4   5   5  138.79    7.00
  -4   5  -5  128.89    7.60
  -4   5   5  128.89    9.20
   4   5  -5  124.49    7.30
  -4   5   5  121.09    7.60
   4   5  -5  122.09   11.30
   4  -5   5  112.59   12.80
   4   6   5  208.38   10.00
   4   6   5  228.68   17.40
  -4   6  -5  216.28   10.90
   4  -6   5  217.38   17.80
  -4   6   5  215.08   11.30
  -4   6   5  217.28   13.00
   4   6  -5  199.08   10.20
   4   7   5  249.48   19.70
   4   7   5  252.37   12.30
  -4   7  -5  238.18   13.10
  -4   7   5  266.17   13.40
  -4   7   5  272.07   16.20
   4   7  -5  243.58   12.50
   4  -7   5  275.57   19.60
   4   8   5   34.50    5.90
  -4   8  -5   33.00    6.70
   4   8   5   19.30   11.10
  -4   8   5   54.69   10.30
   4  -8   5   38.00   10.90
  -4   8   5   26.40    6.90
   4   8  -5   19.40    5.50
  -4   9  -5   45.00    9.00
   4   9   5   56.29   15.90
   4   9   5   45.50    7.30
  -4   9   5   48.00   12.10
   4   9  -5   47.20    7.90
  -4   9   5   39.30    8.20
   5   0   5   -1.50    2.10
  -5   0  -5    3.20    2.60
  -5   0  -5    0.20    0.60
   5   0   5   -1.20    3.50
   5   0   5    0.60    0.70
   5   0  -5   -2.60    1.50
  -5   0   5   -0.70    0.90
   5   1   5   64.59    6.70
   5   1   5   62.39    5.60
  -5  -1   5   62.49    3.90
  -5   1  -5   66.29    4.70
  -5   1  -5   59.49    3.00
  -5   1   5   65.09    3.50
  -5  -1  -5   65.79    2.80
   5  -1   5   64.79    3.00
  -5  -1  -5   60.89    7.00
   5  -1   5   53.49    7.40
   5  -1   5   71.09    4.70
   5   2   5  123.69    8.10
   5   2   5   97.69    7.90
  -5  -2   5  115.99    6.30
  -5   2   5  116.79    6.80
  -5  -2  -5  123.99    4.60
  -5  -2  -5  113.59    5.30
  -5   2   5  117.99    5.30
   5  -2   5  130.29    5.30
  -5   3  -5   95.99    4.90
   5   3   5  104.39    7.20
   5   3   5   86.59    8.20
  -5  -3   5  100.79    7.20
   5   3   5   99.19    4.40
   5  -3  -5   93.49    7.70
   5  -3   5   81.19    9.80
  -5   3   5  100.59    7.20
   5  -3   5  103.29    4.90
  -5   3   5   93.19    5.10
  -5   4  -5  217.28    9.60
   5   4   5  260.57   15.30
   5   4   5  235.48   10.30
   5   4   5  212.98    8.50
  -5   4   5  254.07   11.30
   5  -4   5  227.48    9.30
   5  -4   5  187.28   15.10
  -5   4   5  226.88    9.90
  -5   5  -5  135.39    8.10
  -5  -5   5  132.39    6.70
   5   5   5  128.19   13.50
  -5  -5   5  117.19    7.20
   5   5   5  132.59    6.90
  -5   5   5  140.39    9.20
   5  -5   5  133.69    8.90
   5   5  -5  133.49   12.00
  -5   5   5  127.29    7.80
   5  -5   5  122.19   14.40
   5   5  -5  128.79    7.40
   5   6   5   64.49   10.80
   5   6   5   66.89    6.00
  -5   6  -5   63.09    7.20
  -5   6   5   59.39    8.00
  -5   6   5   63.09    6.80
   5   6  -5   68.99    6.50
   5  -6   5   64.49   11.60
   5   6  -5   51.89    9.70
   5   7   5   64.19   12.30
  -5   7  -5   73.09    8.40
   5   7   5   71.89    7.30
  -5   7   5   80.29    8.10
   5  -7   5   75.49   13.30
   5   7  -5   75.99    7.70
  -5   7   5   85.39   11.50
   5   8   5   28.90    5.60
   5   8   5   38.80   13.60
  -5   8  -5   28.00    6.30
  -5   8   5   34.80    9.50
  -5   8   5   28.90    6.70
   5   8  -5   30.00    6.30
   5  -8   5   22.70   11.30
  -5   9  -5   19.30    7.70
   5   9   5   18.70   14.80
   5   9   5   10.30    6.50
   5   9  -5   16.40    6.20
  -5   9   5    9.20    6.80
   6   0   5   -3.40    2.10
  -6   0   5    0.80    1.20
   6   0   5    0.70    0.90
  -6   0  -5   -0.90    0.70
  -6   0  -5   -1.80    2.90
   6   0   5    6.10    4.20
  -6  -1   5  488.15   16.20
   6   1   5  490.65   20.30
  -6   1  -5  505.35   16.50
   6   1   5  508.45   15.50
   6   1   5  478.25   18.30
  -6   1  -5  495.75   15.00
   6  -1   5  513.35   22.00
   6  -1   5  514.05   15.00
  -6   1   5  489.45   15.70
   6  -1   5  494.95   16.40
  -6  -1  -5  488.55   14.80
  -6   2  -5  292.57   10.10
  -6  -2   5  305.47   11.60
   6   2   5  289.67   13.90
   6   2   5  277.67   13.50
  -6  -2  -5  288.77   10.10
  -6  -2  -5  304.77    9.50
  -6   2   5  293.37   10.30
  -6   2   5  287.67   11.90
   6  -2   5  303.37   16.60
   6  -2   5  288.77   10.40
  -6  -3   5   76.19    6.00
   6   3   5   62.59    8.60
  -6   3  -5   68.69    4.40
   6   3   5   78.49    7.60
  -6   3   5   75.59    6.70
   6  -3   5   77.19   10.50
  -6   3   5   71.49    4.70
   6  -3   5   64.29    4.00
  -6  -3  -5   64.49    4.90
   6  -3   5   69.99    3.90
  -6   4  -5  227.48   10.00
  -6  -4   5  227.08   10.70
  -6  -4   5  215.68   12.60
   6   4   5  222.98    8.80
   6  -4  -5  215.38   12.90
   6   4   5  246.08   10.80
   6   4   5  243.78   14.80
   6   4  -5  265.97   14.60
  -6   4   5  216.88   10.70
   6  -4   5  250.37    9.00
   6  -4   5  223.48   17.10
  -6   4   5  254.47   10.40
   6   5   5  173.38   14.80
   6   5   5  184.68    8.40
  -6   5  -5  183.08    9.70
  -6  -5   5  191.58    8.90
  -6   5   5  175.48    9.90
   6  -5   5  192.58   17.60
   6   5  -5  176.08   13.90
  -6   5   5  200.48   10.50
   6  -5   5  196.68    9.00
   6   6   5  204.98   17.70
   6   6   5  219.58   10.10
  -6   6  -5  200.48   11.20
   6  -6   5  224.88   20.50
   6   6  -5  208.18   16.80
  -6   6   5  214.78   11.50
  -6   6   5  210.18   11.90
  -6   7  -5   48.50    7.10
   6   7   5   51.59    5.90
   6   7   5   36.00   10.80
   6  -7   5   50.59   13.10
   6   7  -5   41.10    5.90
  -6   7   5   46.70    7.10
  -6   7   5   47.50    7.70
   6   8   5   66.09   14.80
  -6   8  -5   80.99    9.20
   6   8   5   71.99    8.40
   6   8  -5   85.69    9.50
  -6   8   5   66.39    9.70
   6  -8   5   63.79   14.30
  -6   8   5   74.49    9.20
   7   0   5   -2.30    2.50
  -7   0  -5    0.50    0.80
   7   0   5   -0.10    1.10
  -7   0   5    1.20    1.10
  -7   0  -5   -0.90    3.50
   7   0   5    3.20    4.20
  -7   1  -5   95.79    5.90
   7   1   5  109.69    7.80
   7   1   5  100.09    9.80
  -7   1  -5  105.79    4.50
  -7  -1   5  106.99    5.50
   7   1   5  114.59    5.20
   7  -1   5  105.19    6.00
   7  -1   5  104.99   11.00
  -7  -1  -5  106.59    4.30
   7  -1   5  106.29    4.60
  -7   1   5  104.79    5.00
   7   2   5  279.27   13.50
   7   2   5  282.37   14.40
  -7  -2   5  275.27   11.10
  -7   2  -5  282.77    9.90
  -7   2   5  275.97   10.30
  -7   2   5  277.77   11.90
   7  -2   5  286.47   17.10
  -7  -2  -5  273.77    9.80
   7  -2   5  283.27    9.60
  -7  -2  -5  284.47    9.30
   7   3   5   94.19    8.60
  -7  -3   5   66.79    5.80
  -7  -3   5   71.09    8.40
  -7   3  -5   71.19    4.70
   7   3   5   70.19    8.90
  -7  -3  -5   72.39    5.00
  -7   3   5   72.89    4.90
  -7   3   5   76.39    6.70
   7  -3   5   62.89   10.20
   7  -3   5   62.09    3.40
   7   4   5  222.78   15.10
  -7  -4   5  211.98   11.60
  -7   4  -5  239.98   10.10
   7   4   5  237.48   11.50
  -7  -4   5  237.48   12.30
   7  -4   5  233.48   18.40
   7  -4   5  219.18    7.70
   7   4  -5  223.78   14.30
   7  -4   5  245.78    7.70
  -7  -4  -5  214.08   10.80
  -7   4   5  221.18   10.00
  -7   4   5  215.28   10.50
   7   5   5  187.98    8.40
  -7  -5   5  194.08   13.70
  -7  -5   5  182.28    9.90
  -7   5  -5  174.58    9.90
   7   5   5  179.18   15.90
  -7   5   5  177.58   10.00
   7  -5   5  175.78    8.20
   7   5  -5  165.68   14.20
   7  -5   5  192.08    7.90
  -7   5   5  181.98   10.00
   7  -5   5  167.28   18.60
   7   6   5  162.38   16.40
   7   6   5  139.49    8.20
  -7   6  -5  121.89    9.30
  -7  -6   5  139.49   14.10
   7  -6   5  103.99   14.40
   7   6  -5  138.69   14.70
  -7   6   5  139.19    9.20
  -7   6   5  158.38    9.70
   7   7   5   93.49   14.80
  -7  -7   5   89.49   12.90
  -7   7  -5  103.09    8.90
   7   7   5   98.49    7.80
   7  -7   5  103.39   16.50
  -7   7   5  105.89   10.30
  -7   7   5   88.59    9.70
  -7   8  -5   25.50    7.00
  -7  -8   5   22.90   10.70
   7   8   5   45.30   13.70
   7   8   5   22.00    5.60
  -7   8   5   21.50    6.80
   7  -8   5   44.50   13.70
  -8   0  -5   -0.90    0.90
  -8   0  -5   -2.90    4.00
   8   0   5   -1.00    4.20
  -8   0   5    1.20    1.30
   8   0   5   -3.40    2.40
  -8  -1   5   35.80    3.50
   8   1   5   31.20    6.00
  -8   1  -5   32.10    4.30
  -8   1  -5   31.20    2.70
   8   1   5   27.90    4.90
   8   1   5   35.70    3.70
   8  -1   5   31.90    3.80
  -8   1   5   39.40    3.10
  -8  -1  -5   30.70    2.30
   8  -1   5   26.20    6.60
   8   2   5   14.70    5.20
  -8   2  -5   17.50    2.40
   8   2   5   12.60    4.60
  -8  -2   5   12.80    2.70
  -8  -2  -5   17.50    2.30
   8  -2   5   23.30    2.50
  -8   2   5   18.20    2.80
   8  -2   5   15.70    6.70
  -8   2   5   17.90    3.80
   8   3   5  357.16   18.20
  -8  -3   5  358.76   14.90
  -8   3  -5  345.37   12.70
   8   3   5  344.77   16.80
  -8   3   5  345.07   13.00
   8  -3   5  344.87   21.30
  -8  -3  -5  340.67   12.90
  -8   3   5  365.66   14.00
   8   4   5   57.19    6.50
  -8  -4   5   57.09    7.60
   8   4   5   52.19    9.30
  -8  -4   5   38.10    6.20
   8  -4   5   80.39   13.20
  -8  -4  -5   51.19    6.00
  -8   4   5   60.49    6.30
  -8   4   5   56.79    6.00
   8   5   5  202.18   16.80
  -8  -5   5  200.58   11.90
  -8  -5   5  204.78   13.20
   8   5   5  202.28    8.70
  -8   5  -5  208.18   10.70
   8   5  -5  197.08   16.40
  -8   5   5  222.48   10.40
   8  -5   5  174.98   19.70
  -8   5   5  214.68   10.70
  -8  -5  -5  207.98   12.70
  -8  -6   5  -13.20    5.90
   8   6   5    9.80    8.60
  -8   6  -5   -0.90    3.90
  -8   6   5    6.00    4.10
   8  -6   5   16.90   11.50
  -8   6   5   -2.40    4.10
   8   7   5  373.36   25.60
  -8   7  -5  368.26   17.20
  -8  -7   5  391.06   22.70
  -8   7   5  389.96   17.90
  -8   7   5  417.16   16.60
   8  -7   5  385.26   29.20
  -8   8  -5    7.10    5.90
   8   8   5   -6.60   11.40
  -8  -8   5    3.40    9.70
  -8   8   5    7.40    7.20
   8  -8   5    1.80   13.70
  -9   0  -5   -0.60    1.20
   9   0   5   -0.50    1.90
   9   0   5    0.00    2.90
  -9   0   5   -0.50    1.60
   9   0   5    3.50    5.40
  -9  -1   5    0.50    1.80
  -9   1  -5    0.40    2.90
   9   1   5    1.20    3.30
   9   1   5   -0.90    2.10
  -9   1  -5    3.00    1.40
   9   1   5   -3.50    5.20
   9  -1   5   -2.40    2.20
  -9   1   5    5.10    2.00
   9  -1   5    3.50    5.90
  -9  -1  -5    3.60    1.30
  -9   2  -5   73.69    4.40
   9   2   5   76.09    8.70
   9   2   5   66.49    8.30
  -9  -2   5   75.09    5.40
  -9  -2  -5   69.59    4.10
  -9   2   5   70.89    6.50
   9  -2   5  114.69   13.80
  -9   2   5   65.99    4.80
  -9  -3   5  224.18   11.20
   9   3   5  243.58   13.90
   9   3   5  220.88   14.30
  -9   3  -5  226.78    9.70
  -9  -3  -5  229.98    9.60
  -9   3   5  249.97   10.70
   9  -3   5  226.58   19.50
  -9   3   5  253.07   10.30
  -9  -4   5  132.99    9.90
   9   4   5   98.89   12.40
  -9   4  -5  125.09    7.60
  -9  -4   5  111.79   13.90
   9   4   5  132.19   10.20
   9  -4   5  120.49   16.20
  -9   4   5  119.89    7.80
  -9   4   5  105.49    7.50
  -9  -4  -5  108.49    7.70
   9   5   5   27.00    9.20
   9   5   5   34.70    4.70
  -9  -5   5   50.49    7.40
  -9   5  -5   33.90    5.10
  -9  -5   5   21.00    6.80
  -9  -5  -5   38.90    6.20
   9   5  -5   46.40    9.50
  -9   5   5   29.50    5.10
  -9   5   5   43.90    5.10
   9  -5   5   36.00   13.00
  -9   6  -5  105.29    8.50
  -9  -6   5  103.89   11.40
   9   6   5   99.19   13.90
  -9  -6  -5   93.69   10.10
   9  -6   5  100.09   16.70
  -9   6   5  104.19    8.10
  -9   6   5  117.19    8.90
   9   7   5   27.60   11.60
  -9  -7   5   44.70   10.30
  -9   7  -5   31.40    6.90
  -9   7   5   28.40    6.60
  -9  -7  -5   35.00    9.00
   9  -7   5   20.90   14.50
   9   8   5   76.89   16.20
  -9  -8   5   69.29   13.50
  -9   8  -5   75.69    9.90
  -9   8   5   68.29    9.60
  -9  -8  -5   74.79   12.80
   9  -8   5   38.70   15.90
  10   0   5    5.70    5.90
 -10   0   5   -0.40    1.60
 -10   0  -5   -0.30    1.20
  10   0   5    0.10    2.90
  10   1   5   -2.80    3.20
 -10  -1   5    3.70    2.20
 -10   1  -5   -1.80    3.50
  10   1   5   -2.60    5.70
 -10   1  -5    4.50    1.50
 -10   1   5   -3.10    1.70
 -10  -1  -5   -0.80    1.20
  10  -1   5    0.30    6.10
  10  -1   5    1.60    2.50
  10   2   5   38.90    7.60
 -10   2  -5   41.40    4.50
 -10  -2   5   43.00    5.10
  10   2   5   41.50    7.10
 -10   2  -5   33.10    3.80
 -10  -2  -5   41.40    3.50
  10  -2   5   39.60    3.60
 -10   2   5   44.10    4.50
 -10   2   5   48.80    6.40
  10  -2   5   39.90    9.50
 -10  -3   5   11.00    3.90
  10   3   5   11.10    5.90
 -10   3  -5   21.20    3.60
  10   3   5   15.00    6.10
  10  -3   5    9.10    8.40
 -10   3   5   16.50    3.60
 -10   3   5   25.10    4.20
 -10  -3  -5   17.90    3.00
 -10  -4   5   49.30    6.40
  10   4   5   59.79    7.90
 -10   4  -5   52.59    6.10
  10   4   5   55.59    9.80
 -10   4   5   45.60    5.40
 -10  -4  -5   53.59    5.90
  10  -4   5   41.60   12.90
 -10   4   5   51.49    6.10
  10   5   5    4.60    8.20
 -10  -5   5   14.40    6.30
 -10   5  -5    8.40    4.00
  10   5   5   11.30    4.20
 -10  -5  -5    0.80    4.30
 -10   5   5   11.00    3.60
  10  -5   5   15.70   11.40
 -10   5   5    6.90    3.80
 -10  -6   5  196.28   15.70
  10   6   5  197.68   17.80
 -10   6  -5  183.48   11.60
 -10   6   5  195.18    9.30
  10  -6   5  171.58   21.60
 -10  -6  -5  192.38   14.00
 -10   6   5  198.98   12.10
 -10   7  -5   39.70    6.90
  10   7   5   51.59   14.30
 -10  -7   5   35.10   11.10
 -10   7   5   28.30    6.50
 -10  -7  -5   42.80    9.70
  10  -7   5   39.50   15.30
 -10   8  -5   74.09    9.70
  10   8   5   86.49   18.10
 -10  -8   5   41.20   13.50
 -10   8   5   65.79    9.70
  10  -8   5   32.70   16.10
 -10  -8  -5   51.49   11.40
 -11   0   5    2.00    2.20
  11   0   5   -1.70    3.30
  11   0   5   -2.30    7.50
 -11   0  -5   -1.30    1.40
  11   1   5   12.70    4.90
 -11   1  -5    7.10    2.00
  11   1   5   -1.00    6.30
 -11   1  -5    3.20    4.70
 -11  -1   5   10.70    2.90
  11  -1   5    3.50    2.90
 -11   1   5    4.90    2.50
  11  -1   5    1.10    8.20
 -11  -1  -5    7.40    1.80
  11   2   5    2.20    5.30
  11   2   5    0.30    6.30
 -11  -2   5    6.00    2.70
 -11   2  -5    2.80    2.20
 -11   2  -5    0.70    3.00
 -11   2   5    7.50    4.20
 -11   2   5   -1.10    2.50
 -11   2   5    3.80    4.00
  11  -2   5    4.60    2.10
 -11  -2  -5    6.10    1.80
  11  -2   5    6.10    8.90
 -11  -3   5   81.39    7.10
  11   3   5   99.49   11.00
  11   3   5   68.79   10.10
 -11   3  -5   61.69    5.70
 -11   3   5   99.39    7.00
 -11   3   5   79.39    6.50
 -11  -3  -5   84.69    5.80
  11  -3   5   79.39   15.10
  11   4   5    6.30    7.60
 -11   4  -5   14.60    4.30
  11   4   5   34.10    6.60
 -11  -4   5   15.00    4.50
 -11   4   5   18.90    4.80
 -11   4   5   24.30    4.00
 -11  -4  -5   11.60    3.90
  11  -4   5   15.70   10.50
 -11  -5   5   16.40    6.60
 -11   5  -5   24.00    4.80
  11   5   5   26.90    5.20
  11   5   5   27.40   10.00
 -11   5   5   21.00    4.60
 -11   5   5   29.70    3.70
 -11  -5  -5   33.90    6.20
  11  -5   5    7.40   12.00
  11   6   5   -6.90    8.50
 -11  -6   5   14.40    7.30
 -11   6  -5   10.00    4.60
 -11   6   5    3.00    4.30
 -11  -6  -5    7.70    6.10
  11  -6   5  -17.40   12.20
 -11  -7   5   49.60   11.70
  11   7   5   45.10   13.30
 -11   7  -5   55.09    7.90
 -11   7   5   44.70    8.00
  11  -7   5   46.40   17.60
 -11  -7  -5   57.99   10.10
 -11   8  -5   -6.80    7.20
 -11  -8   5   -3.90   11.80
 -11  -8  -5   -8.70   10.20
 -11   8   5   12.70    8.10
  12   0   5   -5.00    8.00
  12   0   5   -3.30    3.30
 -12   0  -5    0.00    1.60
 -12   0   5   -0.90    2.30
 -12  -1   5   25.60    3.90
  12   1   5   45.40   10.80
  12   1   5   30.60    6.20
 -12   1  -5   17.00    6.40
 -12   1  -5   28.00    3.20
  12  -1   5   42.40   10.70
 -12   1   5   25.10    4.10
  12  -1   5   34.10    4.60
 -12  -1  -5   30.00    3.40
 -12   2  -5    2.00    2.40
  12   2   5   -5.50    5.00
 -12   2  -5   -0.50    3.40
  12   2   5   -4.50    7.00
 -12  -2   5    5.00    3.30
 -12   2   5    0.90    3.00
 -12   2   5    7.60    4.60
  12  -2   5    1.50    2.20
 -12  -2  -5   -1.20    1.90
  12  -2   5    4.50    9.50
  12   3   5  206.08   15.50
 -12  -3   5  222.18   11.70
  12   3   5  238.18   16.80
 -12   3  -5  213.48   10.00
 -12  -3  -5  213.58    9.70
 -12   3   5  213.38   10.60
 -12   3   5  223.48   10.50
  12  -3   5  176.58   20.90
 -12   3   5  219.48   10.70
 -12   4  -5   28.20    4.90
  12   4   5   25.70    7.40
 -12  -4   5   30.30    6.00
  12   4   5   23.40    8.80
  12  -4   5   14.70   13.00
 -12  -4  -5   16.30    3.80
 -12   4   5   17.10    4.40
 -12   4   5   27.50    4.00
 -12   4   5   28.00    4.10
  12   5   5   15.30    5.80
  12   5   5   15.20    8.40
 -12   5  -5   12.80    4.60
 -12  -5   5   10.80    5.80
 -12   5   5   11.20    4.50
 -12  -5  -5    4.30    5.00
  12  -5   5   -3.60   12.80
 -12   6  -5   58.79    7.10
 -12  -6   5   60.99   10.40
  12   6   5   50.19   12.90
  12  -6   5   77.09   17.90
 -12  -6  -5   72.69    8.80
 -12   6   5   63.89    8.70
 -12   7  -5   18.30    6.50
 -12  -7   5   10.30    9.50
  12   7   5    4.30   12.60
 -12  -7  -5   13.20    8.10
  12  -7   5   11.30   16.70
 -12   7   5   18.40    7.20
  13   0   5    2.90    9.80
 -13   0   5    0.20    2.70
  13   0   5    2.20    3.80
 -13   0  -5    3.10    2.00
 -13  -1   5    5.70    3.10
 -13   1  -5    7.60    2.70
  13   1   5    6.90    9.30
  13   1   5    3.90    5.20
 -13   1   5    5.20    3.10
  13  -1   5    9.00    3.90
 -13  -1  -5    9.20    2.40
  13  -1   5   18.50   10.70
 -13   2  -5    6.70    3.80
  13   2   5   -0.10    9.20
 -13   2  -5   -1.50    2.60
  13   2   5    6.80    6.00
 -13  -2   5    0.20    3.10
 -13  -2  -5    6.00    2.50
 -13   2   5   -0.80    3.20
  13  -2   5    3.00   11.10
 -13  -3   5  116.09    9.20
  13   3   5  124.49   12.80
 -13   3  -5  113.89    7.90
  13   3   5  113.49   14.60
 -13   3   5  123.59    9.70
  13  -3   5  123.89   18.60
 -13  -3  -5  126.49    7.60
 -13   3   5  128.79    8.50
 -13   3   5  115.69    8.20
  13   4   5   -3.80    7.50
 -13  -4   5   10.60    4.50
 -13   4  -5    1.60    3.70
  13   4   5    3.40    7.20
 -13   4   5    0.30    3.80
 -13   4   5    3.60    3.20
  13  -4   5   12.40   11.80
 -13  -4  -5   -0.30    3.40
 -13   5  -5  123.09    9.80
  13   5   5  136.39   11.20
 -13  -5   5  108.99   11.00
  13   5   5  122.59   15.90
 -13  -5  -5  112.09    9.80
  13  -5   5  139.59   20.60
 -13   5   5  106.79    9.10
 -13   6  -5    6.40    5.40
 -13  -6   5   12.10    7.80
  13   6   5   11.80   11.80
  13  -6   5   16.30   16.20
 -13  -6  -5   12.00    6.50
 -13   6   5   -2.50    5.60
 -13   7  -5  117.89   12.40
 -13  -7   5  117.59   14.40
  13   7   5   88.69   18.10
 -13  -7  -5   91.19   11.20
 -13   7   5  107.19   11.40
  13  -7   5   82.09   21.60
  14   0   5   -4.80    4.10
 -14   0  -5   -2.60    2.40
  14   0   5    7.40   11.30
 -14   0   5   -0.20    2.80
  14   1   5   23.20    7.10
 -14  -1   5   25.10    4.20
 -14   1  -5   32.80    4.20
  14   1   5   24.00   11.60
 -14  -1  -5   22.90    3.70
 -14   1   5   25.40    4.70
  14  -1   5   27.60   12.10
  14  -1   5   31.00    4.70
 -14   2  -5    0.10    2.80
  14   2   5   -2.60    6.60
 -14   2  -5   -1.40    4.00
 -14  -2   5    0.90    3.20
  14   2   5    5.60    9.60
 -14  -2  -5    0.10    2.70
 -14   2   5    0.80    3.20
  14  -2   5  -14.70   10.10
 -14   3  -5   48.30    5.80
  14   3   5   35.50   11.70
 -14  -3   5   47.60    6.20
  14   3   5   36.80    9.30
 -14   3   5   50.89    5.90
 -14  -3  -5   52.99    5.70
 -14   3   5   35.60    5.60
  14  -3   5   53.69   14.90
  14   4   5   79.99   11.40
 -14  -4   5   70.69    8.20
  14   4   5   73.59   12.00
 -14   4  -5   75.29    8.10
 -14   4   5   94.49    8.60
 -14   4   5  102.49    6.70
  14  -4   5   93.69   18.30
 -14  -4  -5   75.09    7.80
 -14  -5   5    3.80    5.70
 -14   5  -5    8.00    4.70
  14   5   5   -2.40   10.00
 -14  -5  -5    0.60    5.00
  14  -5   5    4.70   14.30
 -14   5   5    5.80    5.00
  14   6   5   28.00   14.10
 -14   6  -5    9.00    5.90
 -14  -6   5   34.50    8.90
 -14  -6  -5   21.20    6.90
 -14   6   5   22.60    6.40
  14  -6   5   33.80   18.20
 -14  -7   5   11.10    9.50
 -14   7  -5   16.30    7.50
  14   7   5    0.40   14.90
 -14  -7  -5   -0.80    8.10
  14  -7   5   -0.20   19.10
 -14   7   5    3.80    6.70
 -15   0   5    1.00    3.10
 -15   0  -5    2.00    2.50
  15   0   5   -2.30   11.10
  15   0   5    0.60    4.80
  15   1   5   -8.10   10.90
 -15  -1   5   -2.70    3.10
 -15   1  -5    1.10    2.80
  15   1   5    7.50    6.00
 -15   1   5   -1.00    3.60
  15  -1   5    8.70    4.00
 -15  -1  -5    3.20    2.70
  15  -1   5   -2.60   10.80
 -15   2  -5   41.70    5.20
  15   2   5   35.70    8.80
  15   2   5   37.00   11.90
 -15  -2   5   35.00    5.30
  15  -2   5   33.00   12.50
 -15   2   5   40.70    5.60
 -15  -2  -5   45.30    5.10
  15   3   5    9.90   11.00
  15   3   5   23.90    9.90
 -15   3  -5   24.10    4.60
 -15  -3   5   14.70    5.10
 -15   3   5   17.80    5.10
  15  -3   5   34.90   14.60
 -15   3   5   17.20    5.20
 -15  -3  -5   18.00    4.20
 -15   4  -5   78.09    8.10
  15   4   5  106.79   14.80
  15   4   5   89.39   13.40
 -15  -4   5   83.69    9.20
 -15  -4  -5   77.59    8.30
  15  -4   5   86.69   19.70
 -15   4   5   97.69    9.30
 -15   5  -5   45.20    7.00
 -15  -5   5   35.20    7.60
  15   5   5   56.59   13.50
 -15  -5  -5   36.60    6.60
  15  -5   5   65.19   21.10
 -15   5   5   36.40    7.30
 -15   6  -5  101.19   10.60
 -15  -6   5  135.69   14.70
  15   6   5   94.69   16.90
 -15  -6  -5  104.49   12.20
 -15   6   5  102.99   11.10
  15  -6   5   95.79   23.50
  16   0   5  -21.30   10.90
 -16   0  -5    4.60    3.10
  16   0   5    7.20    5.70
 -16   0   5    0.40    3.90
  16   1   5   24.60    7.50
 -16   1  -5   14.50    3.80
 -16  -1   5   24.20    4.60
  16   1   5   18.10   12.50
  16  -1   5   17.30    4.80
 -16  -1  -5   20.90    3.80
  16  -1   5   25.50   13.40
 -16   1   5   17.10    4.70
  16   2   5   71.99   11.20
  16   2   5   59.29   14.70
 -16  -2   5   58.29    7.10
 -16   2  -5   64.99    6.70
 -16   2   5   61.79    7.00
  16  -2   5   55.99   14.60
 -16  -2  -5   54.99    5.80
 -16   3  -5   47.90    6.30
 -16  -3   5   44.10    6.30
  16   3   5   38.40   13.50
  16   3   5   61.39   12.00
 -16   3   5   38.80    6.10
 -16   3   5   48.20    6.30
 -16  -3  -5   56.39    6.00
  16  -3   5   41.70   15.10
 -16  -4   5    7.30    5.60
  16   4   5   -8.60   10.00
  16   4   5    6.10   10.80
 -16   4  -5    8.40    5.00
 -16   4   5    5.10    5.50
  16  -4   5    2.10   15.70
 -16  -4  -5    7.30    4.80
 -16   5  -5   70.59    8.40
 -16  -5   5   66.99    9.20
  16   5   5   69.59   14.80
 -16  -5  -5   78.29    8.40
  16  -5   5   59.89   20.70
 -16   5   5   46.30    7.90
 -16   6  -5  138.39   12.50
  16   6   5  136.49   20.80
 -16  -6   5  139.29   14.20
  16  -6   5   98.09   24.40
 -16  -6  -5  106.49   11.00
 -16   6   5  126.89   13.50
  17   0   5   10.00    7.20
 -17   0   5   -0.10    3.70
 -17   0  -5   -6.90    3.10
  17   0   5  -32.00   11.00
 -17  -1   5   12.10    4.90
  17   1   5    1.30   14.10
 -17   1  -5    5.30    3.70
  17   1   5   16.30    8.30
 -17  -1  -5   -1.60    3.50
  17  -1   5  -13.60   12.20
 -17   1   5    4.60    4.20
  17  -1   5    2.20    4.60
  17   2   5   -2.90   12.80
 -17   2  -5   -0.50    3.90
  17   2   5   10.70    9.40
 -17  -2   5    3.50    3.90
 -17  -2  -5    2.10    3.90
  17  -2   5    0.30   13.60
 -17   2   5    5.60    4.30
  17   3   5   52.79   14.20
 -17  -3   5   47.20    6.50
  17   3   5   47.50   11.80
 -17   3  -5   64.09    7.50
 -17  -3  -5   37.70    5.90
 -17   3   5   44.10    7.00
  17  -3   5   30.50   18.40
 -17   4  -5   30.30    6.10
  17   4   5   48.00   12.80
 -17  -4   5   25.80    6.80
  17   4   5   28.60   12.80
 -17  -4  -5   25.90    5.70
  17  -4   5   45.40   18.20
 -17   4   5   27.50    6.40
  17   5   5   53.69   15.60
 -17   5  -5   43.90    7.80
 -17  -5   5   63.09   10.10
 -17  -5  -5   68.89    8.30
 -17   5   5   57.89    9.20
  17  -5   5   68.89   22.50
 -18   0  -5   -1.00    3.80
  18   0   5    5.30   14.00
  18   0   5    5.60    6.90
 -18   0   5    5.50    4.80
 -18  -1   5   20.80    5.70
  18   1   5   34.40    9.60
 -18   1  -5   13.90    4.50
  18   1   5  -11.90   13.50
 -18   1   5   16.40    5.20
  18  -1   5   13.10   15.40
 -18  -1  -5   14.00    4.40
  18   2   5   28.30   14.90
 -18   2  -5   41.50    5.90
 -18  -2   5   40.90    6.90
  18   2   5   52.39   11.50
  18  -2   5   35.10   17.20
 -18   2   5   44.00    7.00
 -18  -2  -5   37.10    5.40
 -18  -3   5   22.20    5.90
  18   3   5   37.60   11.50
  18   3   5   25.80   13.90
 -18   3  -5   14.70    5.60
  18  -3   5   14.40   15.10
 -18  -3  -5   14.70    4.90
 -18   3   5   17.10    6.00
  18   4   5   42.00   13.70
  18   4   5   21.10   12.80
 -18  -4   5   24.00    6.90
 -18   4  -5   29.10    6.70
  18  -4   5   48.10   21.80
 -18   4   5   33.40    7.40
 -18  -4  -5   25.80    5.90
  18   5   5   22.90   15.30
 -18   5  -5    7.80    6.10
 -18  -5   5   20.10    8.00
 -18  -5  -5   11.70    6.50
 -18   5   5   19.70    7.40
  18  -5   5   12.00   21.10
  19   0   5   -0.30   16.40
 -19   0  -5   -2.30    4.10
  19   0   5    4.60    7.70
 -19   0   5   -4.10    5.10
 -19  -1   5    1.00    4.80
 -19   1  -5    2.00    4.50
  19   1   5   17.60   15.30
  19   1   5   16.20    9.30
 -19  -1  -5   14.70    4.70
  19  -1   5  -20.90   15.40
 -19   1   5    7.60    5.40
 -19  -2   5   39.20    6.70
  19   2   5   60.29   12.20
  19   2   5   40.20   16.30
 -19   2  -5   42.90    6.50
 -19   2   5   34.10    6.40
  19  -2   5   41.60   19.80
 -19  -2  -5   46.90    6.10
  19   3   5    9.50   13.70
 -19   3  -5    8.10    5.40
 -19  -3   5    9.50    6.20
  19   3   5   -0.30   11.10
 -19   3   5    9.90    6.00
  19  -3   5   19.70   18.70
 -19  -3  -5    9.00    5.00
 -19   4  -5   49.99    7.90
  19   4   5   58.19   16.70
 -19  -4   5   48.40    8.90
  19   4   5   41.30   15.00
  19  -4   5   39.50   20.80
 -19  -4  -5   54.89    7.80
 -19   4   5   50.89    8.10
 -20   0  -5    1.10    4.50
 -20   0   5   -0.10    5.20
  20   0   5   14.60   17.30
 -20  -1   5   -7.00    4.80
 -20   1  -5   -5.50    4.70
  20   1   5   10.70    9.80
  20   1   5    4.30   17.10
  20  -1   5    1.50   18.20
 -20   1   5    2.40    5.20
 -20  -1  -5    7.90    4.80
  20   2   5   21.20   11.70
  20   2   5  -12.10   15.60
 -20  -2   5    2.90    5.60
 -20   2  -5   20.20    5.70
  20  -2   5    5.60   17.20
 -20   2   5    9.40    6.20
 -20  -2  -5    2.00    4.70
 -20   3  -5   12.60    6.10
 -20  -3   5   25.20    7.70
  20   3   5    3.90   13.50
  20   3   5    8.40   14.90
 -20   3   5   -1.90    6.70
  20  -3   5    2.60   18.20
 -20  -3  -5    8.70    5.90
 -21   0   5   -4.90    6.10
 -21   0  -5   -3.80    4.70
  21   0   5  -16.20   17.60
 -21  -1   5   -6.80    5.90
  21   1   5   -0.40   10.40
 -21   1  -5   -8.40    5.00
  21   1   5   22.40   18.70
  21  -1   5    7.40   18.30
 -21   1   5   -8.10    5.80
 -21  -1  -5  -10.70    4.80
 -21  -2   5   12.80    7.00
  21   2   5   -9.20   16.20
  21   2   5   38.20   13.30
 -21   2  -5   17.20    6.00
 -21  -2  -5   17.50    5.90
 -21   2   5   18.30    7.30
  21  -2   5   36.30   21.60
   0   0  -6 2413.46   66.29
   0   0   6 2368.96   65.99
   0   0   6 2430.46   69.69
   0   1  -6   -0.60    0.50
   0  -1   6    0.30    0.70
   0  -1  -6    1.70    0.60
   0   1   6    2.80    2.50
   0   1   6    0.60    0.60
   0  -1  -6    1.60    2.70
   0  -2  -6   34.50    2.10
   0   2   6   29.20    4.80
   0   2  -6   35.40    2.40
   0  -2   6   33.90    2.60
   0  -2  -6   31.50    4.90
   0   2   6   32.30    2.20
   0   3   6   -3.00    3.60
   0   3   6    0.20    1.30
   0   3  -6   -0.60    1.10
   0  -4   6 1206.78   39.10
   0   4  -6 1214.58   35.70
   0   4   6 1189.58   35.20
   0   4   6 1148.59   39.10
   0   5   6   -0.10    6.00
   0   5  -6   -4.40    2.20
   0   5   6   -0.60    4.80
   0   5   6   -0.30    2.30
   0  -5   6   -3.50    5.00
   0   6   6   89.39   12.10
   0   6  -6   70.79    7.00
   0  -6   6   82.09    9.10
   0   6   6   83.09    6.50
   0   6   6   73.29    9.10
   0   7   6    3.70    4.00
   0   7  -6    2.40    3.90
   0   7   6    1.20    7.70
   0  -7   6    7.20    6.10
   0   8   6   -1.60    9.40
   0   8  -6   -4.60    4.20
   0   8   6    0.30    4.40
   0   9   6    7.20   11.70
   0   9  -6   -4.80    6.40
   0   9   6    3.00    6.70
   1   0  -6   55.29    2.70
   1   0   6   57.79    4.80
   1   0   6   51.69    1.80
  -1   0  -6   49.99    5.00
  -1   0   6   53.89    2.40
  -1   0   6   46.70    4.90
   1   0   6   49.30    2.00
   1   1   6   37.90    1.70
   1  -1  -6   38.80    5.00
  -1  -1   6   39.50    2.90
   1  -1  -6   39.30    2.00
  -1  -1   6   36.10    2.10
  -1   1  -6   36.60    2.00
   1   1   6   44.50    5.30
  -1  -1  -6   40.00    1.60
  -1  -1  -6   37.60    4.50
   1  -1   6   37.60    2.10
  -1   1   6   41.00    4.70
  -1   1   6   38.30    2.00
   1   2   6   55.79    2.70
  -1  -2   6   52.89    3.30
   1  -2  -6   56.99    2.90
  -1   2  -6   61.39    3.10
   1  -2  -6   46.40    6.10
   1   2   6   56.19    6.50
   1  -2   6   54.49    3.20
  -1   2   6   55.09    3.00
  -1  -2  -6   59.59    2.80
   1   2  -6   60.39    3.10
  -1   2   6   58.29    6.00
  -1   3  -6  337.97   11.50
   1   3   6  329.17   14.80
   1   3   6  335.57   11.00
  -1   3   6  335.87   14.70
   1   3  -6  333.77   11.40
  -1  -3  -6  323.97   11.00
   1  -3   6  327.47   13.30
  -1   3   6  344.87   11.30
   1   4   6   73.89    8.60
   1   4   6   69.09    4.30
  -1  -4   6   68.89    7.50
  -1   4  -6   67.89    4.80
  -1   4   6   70.99    7.80
   1   4  -6   74.49    4.70
  -1   4   6   81.29    8.90
  -1   4   6   73.69    4.40
   1  -4   6   64.59    8.20
   1   5   6   35.00    7.50
  -1  -5   6   10.00    5.10
   1   5   6   19.70    5.20
  -1   5  -6   17.30    3.30
   1   5   6   17.80    3.30
  -1   5   6   22.60    5.90
   1  -5   6   19.70    5.80
   1   5  -6   20.10    3.50
  -1   5   6   16.90    3.60
   1   6   6   14.10    7.60
   1   6   6   22.20    4.30
  -1  -6   6   18.40    6.00
   1   6   6   21.30    6.10
  -1   6  -6   25.90    4.70
   1   6  -6   22.30    4.50
  -1   6   6   28.80    7.50
  -1   6   6   21.90    4.10
   1  -6   6   24.40    6.70
  -1   7  -6   36.20    5.80
   1   7   6   45.90    6.10
  -1  -7   6   46.60    6.70
   1   7   6   46.80   11.00
   1  -7   6   37.20    7.50
  -1   7   6   42.00   10.40
  -1   7   6   39.70    6.00
   1   7  -6   41.10    5.60
   1   8   6   42.30   12.00
  -1   8  -6   27.80    6.40
   1   8   6   32.40    6.30
  -1   8   6   21.90    5.80
  -1   8   6   34.30   10.40
   1   8  -6   10.80    5.00
   1   9   6   -5.60    5.70
  -1   9  -6    2.40    5.80
   1   9   6   -2.40   13.10
   1   9  -6    2.50    6.50
  -1   9   6    5.90    6.20
  -1   9   6   26.70   12.40
  -2   0  -6 1409.56   42.20
   2   0   6 1433.76   38.50
   2   0   6 1382.96   38.30
  -2   0   6 1363.86   39.40
   2   0   6 1386.76   42.00
   2   0  -6 1439.06   39.70
   2   1   6  884.71   24.90
   2  -1  -6  913.21   29.30
   2  -1  -6  902.01   25.70
  -2   1  -6  902.91   25.50
   2   1   6  895.81   29.40
  -2  -1   6  931.91   25.90
  -2  -1   6  866.01   26.80
  -2   1   6  916.71   29.00
   2  -1   6  914.31   25.50
  -2   1   6  883.21   25.70
  -2  -1  -6  914.71   29.00
  -2  -1  -6  914.91   24.90
   2  -1   6  889.21   28.40
   2   2   6   59.19    2.70
   2  -2  -6   67.99    3.40
   2  -2  -6   58.99    6.30
   2   2   6   52.19    6.50
  -2   2  -6   56.89    3.20
   2   2  -6   57.99    3.20
  -2   2   6   64.49    6.20
  -2   2   6   59.49    3.20
   2  -2   6   54.49    3.30
  -2  -2  -6   60.09    2.70
   2   3   6  759.72   26.60
  -2   3  -6  743.03   22.60
   2   3   6  737.23   22.00
   2  -3   6  745.83   27.40
  -2   3   6  733.93   25.80
   2  -3   6  729.23   23.90
  -2   3   6  750.62   22.50
  -2  -3  -6  722.43   22.00
   2   3  -6  747.03   22.70
   2   4   6  571.34   18.30
   2   4   6  578.34   23.30
  -2   4  -6  572.14   18.90
  -2   4   6  595.54   18.90
   2   4  -6  582.14   18.90
   2  -4   6  560.84   23.60
  -2   4   6  563.24   21.80
   2   5   6   89.99   11.40
   2   5   6   82.49    5.70
  -2  -5   6   82.99    8.90
   2   5   6   90.29    7.50
  -2   5  -6   88.69    6.30
  -2   5   6   83.09    6.30
   2  -5   6   94.59   10.80
   2   5  -6   87.99    6.20
  -2   5   6   77.89    9.20
   2   6   6   48.80    5.80
   2   6   6   34.90    8.90
  -2  -6   6   43.80    6.50
   2   6   6   53.09    6.00
  -2   6  -6   39.90    5.20
  -2   6   6   46.10    5.80
   2   6  -6   43.70    5.30
   2  -6   6   63.49    9.10
  -2   6   6   51.99    8.80
  -2   7  -6   70.79    7.30
   2   7   6   61.49    6.90
   2   7   6   49.20   11.30
   2  -7   6   62.29    9.80
  -2   7   6   66.59    7.70
   2   7  -6   62.49    6.80
  -2   7   6   78.79   11.10
   2   8   6   -4.40    4.10
  -2   8  -6    5.30    5.10
   2   8   6    5.90    9.60
  -2   8   6    1.60    8.70
   2   8  -6    6.60    4.80
  -2   8   6   -9.00    4.50
  -2   9  -6    8.00    6.90
   2   9   6   -2.80    5.60
   2   9   6    4.90   13.00
  -2   9   6   -0.80   10.90
  -2   9   6   -1.90    6.00
   2   9  -6    4.60    6.30
   3   0   6 1605.74   45.20
  -3   0  -6 1653.83   48.90
   3   0   6 1599.74   49.00
  -3   0   6 1673.13   46.60
   3   0  -6 1740.93   46.90
   3   1   6   22.80    4.70
  -3  -1   6   26.00    2.50
  -3   1  -6   21.40    1.70
   3  -1  -6   18.90    2.00
  -3  -1  -6   27.10    4.80
   3   1  -6   23.30    2.90
   3  -1   6   24.20    3.50
  -3   1   6   22.60    3.70
  -3   1   6   20.50    1.90
   3  -1   6   22.30    1.60
  -3  -1  -6   23.30    1.10
  -3   2  -6   20.40    2.10
   3  -2  -6   20.20    2.40
   3  -2  -6   11.50    3.80
   3   2   6   29.50    4.90
   3   2   6   21.60    1.50
  -3  -2   6   20.30    2.80
  -3   2   6   22.60    3.80
  -3  -2  -6   19.50    1.70
  -3   2   6   22.40    2.20
   3  -2   6   20.30    2.30
   3  -2   6   22.70    5.30
   3   3   6    5.10    4.00
  -3   3  -6    3.90    1.50
   3   3   6    4.60    1.20
   3   3  -6    4.90    1.40
  -3  -3  -6    2.90    1.70
   3  -3   6    1.40    2.40
  -3   3   6    5.20    3.80
  -3   3   6    2.10    1.50
   3  -3   6    2.30    4.20
  -3   4  -6  343.87   12.80
   3   4   6  374.16   12.40
   3   4   6  349.67   17.20
   3  -4   6  348.47   14.40
   3   4  -6  364.76   13.10
  -3   4   6  358.56   13.10
   3  -4   6  378.46   18.40
  -3   4   6  365.06   15.50
   3   5   6  135.19   12.60
  -3   5  -6  129.69    7.80
   3   5   6  134.89    7.70
   3   5   6  117.09    6.50
  -3  -5   6  136.39    9.40
  -3   5   6  128.09    7.50
  -3   5   6  116.49   10.00
   3  -5   6  121.59   12.90
   3   5  -6  132.59    7.50
  -3   6  -6   38.30    5.60
  -3  -6   6   31.50    5.30
   3   6   6   41.20    9.90
   3   6   6   33.50    4.80
   3   6  -6   41.40    5.40
  -3   6   6   42.00    8.10
  -3   6   6   29.70    5.30
   3  -6   6   39.70    8.80
   3   7   6   15.30    9.80
   3   7   6   12.00    4.40
  -3   7  -6   21.00    5.30
  -3   7   6   25.20    5.40
   3  -7   6   26.70    8.80
  -3   7   6   23.50    8.20
   3   7  -6   19.30    4.90
  -3   8  -6    9.00    5.40
   3   8   6    3.20   10.50
   3   8   6    3.30    4.60
  -3   8   6   16.00    9.60
   3   8  -6   11.50    5.50
  -3   8   6   15.70    6.60
   3  -8   6   -9.00   13.40
   3   9   6   59.79   16.00
   3   9   6   45.90    7.50
  -3   9  -6   28.00    7.30
  -3   9   6   49.99   12.10
   3   9  -6   33.60    7.70
  -3   9   6   28.80    7.40
   4   0   6  661.03   22.30
   4   0   6  670.23   18.60
  -4   0   6  664.43   20.00
  -4   0  -6  648.04   18.60
  -4   0  -6  670.43   22.10
   4   0  -6  675.33   20.30
   4   1   6 2228.18   63.59
  -4  -1   6 2108.19   60.89
  -4   1  -6 2056.39   59.39
  -4   1  -6 2304.77   62.39
   4  -1  -6 2215.88   60.09
  -4   1   6 2129.69   59.99
  -4  -1  -6 2057.49   58.89
   4  -1   6 2110.49   61.59
  -4  -1  -6 2175.68   58.79
   4  -1   6 2180.28   66.29
   4  -1   6 2178.68   59.29
  -4  -1  -6 2015.70   63.39
   4   1  -6 2070.89   61.39
  -4   1   6 2215.08   63.49
   4  -2  -6  378.66   15.70
  -4  -2   6  383.46   14.30
   4   2   6  376.36   11.70
  -4   2  -6  407.86   12.60
   4   2   6  355.56   16.20
  -4  -2  -6  394.76   11.90
   4  -2   6  420.16   12.70
  -4   2   6  382.16   15.00
  -4   2   6  372.06   12.70
   4  -2   6  425.76   14.30
   4  -2   6  434.16   18.80
   4   3   6  983.70   29.30
  -4  -3   6 1013.30   33.10
   4   3   6 1182.08   35.60
  -4   3  -6  986.00   30.10
   4  -3   6 1008.40   36.80
  -4   3   6 1000.70   32.90
  -4  -3  -6  991.50   29.40
   4  -3   6  987.30   30.40
  -4   3   6  985.90   30.20
  -4   4  -6   32.10    3.80
   4   4   6   40.80    7.40
   4   4   6   35.20    3.10
   4  -4   6   34.60    7.60
   4   4  -6   32.80    3.90
  -4   4   6   24.10    4.90
  -4   4   6   33.60    3.90
   4  -4   6   38.50    4.60
  -4  -5   6   22.60    4.90
   4   5   6   21.00    7.40
   4   5   6   24.30    3.40
  -4   5  -6   20.20    3.70
   4   5  -6   19.50    3.70
  -4   5   6   20.10    5.20
   4  -5   6   27.70    8.00
  -4   5   6   18.70    3.90
  -4   6  -6    1.00    3.90
   4   6   6    2.50    3.20
   4   6   6    2.10    7.40
  -4  -6   6   -3.60    3.70
   4  -6   6   -4.80    8.00
  -4   6   6    1.60    3.60
  -4   6   6    6.90    5.40
   4   6  -6    4.20    3.20
  -4   7  -6   10.50    4.60
   4   7   6    8.10    9.00
   4   7   6    3.70    3.80
  -4   7   6   22.30    7.50
   4   7  -6    3.20    4.20
  -4   7   6    4.20    4.40
   4  -7   6    6.40    9.60
   4   8   6   23.90   11.70
  -4   8  -6    2.20    5.20
   4   8   6   13.00    4.90
  -4   8   6    6.10    8.50
  -4   8   6    5.30    5.90
   4  -8   6   22.70   12.00
   4   8  -6   14.00    5.10
   4   9   6   15.50    6.90
   4   9   6   26.50   15.00
  -4   9  -6   10.20    6.50
   4   9  -6   27.80    7.30
  -4   9   6   -8.90   10.60
  -4   9   6    5.50    6.80
   5   0   6   46.70    6.40
  -5   0   6   44.10    3.00
  -5   0  -6   44.40    5.00
  -5   0  -6   47.90    2.10
   5   0   6   45.90    2.10
   5   0   6   41.50    5.50
  -5   1  -6  137.19    5.10
  -5   1  -6  147.89    7.50
  -5  -1   6  133.89    6.20
   5   1   6  133.09    8.40
   5  -1   6  147.99   10.80
  -5   1   6  135.09    8.20
   5  -1   6  143.69    7.60
  -5  -1  -6  132.69    4.60
   5  -1   6  137.39    5.00
  -5   1   6  139.29    5.70
  -5  -1  -6  136.09    4.50
  -5  -2   6   50.49    4.30
   5   2   6   40.90    6.20
  -5   2  -6   45.90    3.10
  -5   2   6   46.80    3.30
   5  -2   6   47.20    3.90
   5  -2   6   35.60    6.50
   5  -2   6   43.60    3.20
  -5  -2  -6   43.00    3.00
  -5   2   6   50.49    5.20
  -5  -2  -6   47.60    2.60
   5  -3  -6  170.68   10.70
   5   3   6  144.09   11.40
  -5   3  -6  162.18    6.90
   5   3   6  175.88    6.20
  -5  -3   6  163.08    9.20
  -5   3   6  166.08    9.80
   5  -3   6  162.48    7.90
   5  -3   6  163.38   13.20
  -5  -3  -6  148.89    6.50
  -5   3   6  170.08    7.40
   5  -3   6  167.08    7.10
   5   4   6   17.30    6.60
   5   4   6   10.70    3.90
  -5  -4   6   10.20    4.70
  -5   4  -6   10.60    2.60
   5   4   6   15.40    2.20
   5  -4   6   15.90    7.30
  -5   4   6   13.70    3.10
  -5   4   6    9.90    4.30
   5  -4   6   17.30    3.20
   5   5   6   71.09   10.80
   5   5   6   74.29    5.30
   5   5   6   67.49    7.10
  -5   5  -6   74.39    6.30
  -5   5   6   64.89    7.80
   5  -5   6   85.59    8.70
  -5   5   6   77.09    6.50
   5   5  -6   87.39    6.30
   5  -5   6   60.29   10.30
  -5   6  -6    6.70    3.60
   5   6   6    8.40    3.30
   5   6   6    3.40    8.80
   5   6  -6    8.80    4.00
  -5   6   6   15.80    5.70
   5  -6   6   21.80   10.80
  -5   6   6    9.00    4.20
   5   7   6   20.60    4.30
  -5   7  -6   17.20    5.40
   5   7   6   16.70    9.80
   5  -7   6   16.40   10.80
  -5   7   6   21.70    5.70
  -5   7   6   18.90    7.40
   5   7  -6   22.40    4.90
  -5   8  -6    3.50    5.70
   5   8   6    1.40    4.30
   5   8   6   -0.50   11.40
   5   8  -6    0.90    4.90
   5  -8   6   -8.80   11.90
  -5   8   6    1.80    5.60
  -5   8   6   21.90    8.80
   6   0   6 8169.08  220.38
   6   0   6 8092.69  223.68
  -6   0  -6 8102.69  223.88
  -6   0   6 7946.60  221.68
   6   0   6 8091.29  228.38
  -6   1  -6  168.38    7.90
  -6   1  -6  143.39    5.50
  -6  -1   6  146.49    6.50
   6   1   6  141.99    8.80
   6   1   6  144.99   10.70
  -6   1   6  141.49    6.00
   6  -1   6  146.79    7.90
   6  -1   6  147.59   11.40
   6  -1   6  152.48    5.40
  -6  -1  -6  143.09    5.00
   6   2   6 4177.88  117.19
  -6   2  -6 3897.31  112.19
  -6  -2   6 4040.50  114.19
   6   2   6 4214.88  117.49
   6  -2   6 4060.39  120.89
  -6  -2  -6 3941.41  112.09
  -6  -2  -6 4069.89  111.49
   6  -2   6 4075.49  113.09
  -6   2   6 4067.19  115.09
  -6   2   6 4029.20  112.69
  -6   3  -6   51.69    3.80
  -6  -3   6   50.79    5.80
   6   3   6   55.69    8.10
   6   3   6   46.80    6.50
   6  -3   6   54.69    3.90
  -6   3   6   57.89    4.50
   6  -3   6   59.89    9.90
  -6  -3  -6   57.79    4.70
  -6   3   6   45.10    5.90
   6  -3   6   49.00    4.20
   6   4   6 1082.19   34.10
  -6   4  -6 1066.79   32.30
   6   4   6 1115.99   38.60
  -6  -4   6  986.00   35.20
   6   4   6 1110.29   31.10
  -6   4   6 1048.00   32.40
   6  -4   6 1032.20   32.10
   6  -4   6  968.60   40.30
   6  -4   6 1018.00   31.20
  -6   4   6 1035.80   33.90
  -6  -5   6   31.10    6.70
  -6  -5   6   51.39    5.50
  -6   5  -6   37.00    5.20
   6   5   6   40.90    9.60
   6   5   6   42.50    4.50
   6   5   6   43.40    5.10
   6  -5   6   54.99    6.60
   6  -5   6   26.90   10.70
  -6   5   6   43.20    5.80
  -6   5   6   50.89    6.50
   6   6   6  164.38    8.60
   6   6   6  160.08   16.90
  -6   6  -6  154.08   10.00
   6  -6   6  132.19   16.10
  -6   6   6  174.48   11.30
  -6   6   6  146.69    9.40
  -6   7  -6    4.80    4.70
   6   7   6    0.30    3.70
   6   7   6    6.60   10.30
  -6   7   6    3.30    4.80
   6  -7   6    9.40   11.60
  -6   7   6    3.50    6.50
   6   8   6   39.80   13.20
   6   8   6   36.40    5.90
  -6   8  -6   21.10    6.80
  -6   8   6   37.90    8.90
  -6   8   6   31.90    7.30
   6  -8   6   45.80   14.50
   7   0   6  339.17   17.90
   7   0   6  332.07   13.70
  -7   0  -6  335.67   10.30
   7   0   6  339.47   10.60
  -7   0  -6  329.57   14.40
  -7   0   6  329.87   11.70
  -7   1  -6 1070.59   31.00
   7   1   6 1068.29   37.90
  -7   1  -6 1096.89   33.20
   7   1   6 1159.58   31.70
   7   1   6 1037.60   34.90
  -7  -1   6 1088.49   32.60
  -7   1   6 1111.99   32.10
   7  -1   6 1068.49   32.90
   7  -1   6 1108.59   31.00
   7  -1   6 1001.40   38.80
  -7  -1  -6 1070.49   30.70
   7   2   6   81.69    7.70
   7   2   6   76.19    8.90
  -7  -2   6   83.49    5.50
  -7   2  -6   87.09    4.40
  -7   2   6   84.99    4.90
   7  -2   6   96.99   11.90
   7  -2   6   86.09    5.40
  -7   2   6   68.49    6.50
  -7  -2  -6   84.09    3.90
  -7  -2  -6   81.79    4.10
   7   3   6  674.63   27.30
  -7   3  -6  682.73   21.90
   7   3   6  711.43   26.30
  -7  -3   6  700.23   24.40
   7  -3   6  709.53   31.00
   7  -3   6  683.13   20.60
  -7   3   6  686.93   22.20
  -7   3   6  696.93   24.00
   7  -3   6  719.73   21.30
  -7  -3  -6  700.33   22.30
   7   4   6  102.19   11.10
  -7  -4   6  101.69    9.00
  -7  -4   6  114.99    9.70
   7   4   6  116.99    9.60
  -7   4  -6  108.09    6.80
   7  -4   6   91.39   13.40
  -7   4   6   96.99    6.50
   7  -4   6  106.29    5.50
  -7  -4  -6  102.29    7.10
  -7   4   6  106.09    8.60
   7  -4   6  104.19    5.40
   7   5   6  120.99    6.50
   7   5   6  111.09   13.20
   7   5   6   98.79    7.60
  -7  -5   6  106.19   11.30
  -7   5  -6  103.69    7.30
  -7  -5   6  113.49    9.50
   7  -5   6  104.49    6.60
  -7   5   6  105.39    8.10
   7  -5   6  103.79   14.40
  -7   5   6  109.79    8.30
   7   6   6    2.20    8.40
  -7  -6   6    2.90    6.60
  -7   6  -6    4.40    4.30
   7   6   6   -0.40    3.10
  -7   6   6   -8.60    3.70
   7  -6   6    3.90   11.00
  -7   6   6   -4.70    4.50
   7   7   6    9.00   10.50
   7   7   6   12.00    4.20
  -7  -7   6   -5.40    8.10
  -7   7  -6   16.30    5.50
  -7   7   6   16.00    6.10
   7  -7   6   11.80   12.40
  -7   7   6   18.50    5.70
   7   8   6   16.30   12.80
  -7   8  -6    9.80    6.50
  -7  -8   6   -1.10    9.60
   7   8   6   -5.20    4.60
  -7   8   6    1.20    5.90
  -7   8   6    1.80    9.10
   7  -8   6   12.00   14.50
  -8   0  -6  112.89    4.50
   8   0   6   98.09    7.30
  -8   0   6  114.49    5.70
   8   0   6  109.39    4.90
   8   0   6  117.19   11.30
   8   1   6 1318.47   45.90
  -8   1  -6 1301.97   38.30
  -8  -1   6 1311.77   39.90
   8   1   6 1367.46   42.70
   8   1   6 1373.36   39.10
  -8   1  -6 1407.56   40.60
  -8  -1  -6 1374.66   38.10
   8  -1   6 1342.87   47.80
   8  -1   6 1255.77   38.30
  -8   1   6 1397.36   39.60
   8  -1   6 1327.97   40.20
  -8  -2   6   98.39    6.30
   8   2   6   99.89   10.00
  -8   2  -6  103.79    5.00
   8   2   6   77.69    8.80
   8  -2   6  100.09    5.50
  -8  -2  -6   94.09    4.60
   8  -2   6  108.49   13.30
  -8   2   6   88.99    7.30
  -8  -2  -6   91.69    4.50
  -8   2   6  101.79    5.50
   8   3   6  758.22   30.20
  -8   3  -6  793.22   25.00
  -8  -3   6  822.32   27.30
   8   3   6  792.12   29.60
   8  -3   6  793.82   35.50
  -8   3   6  829.92   26.70
   8  -3   6  806.22   22.90
  -8   3   6  789.02   25.40
  -8  -3  -6  802.52   25.10
   8  -3   6  809.52   23.10
  -8   4  -6    2.30    2.70
  -8  -4   6   -0.80    3.90
   8   4   6   -2.50    5.10
   8   4   6    2.80    6.60
  -8  -4   6    9.60    7.00
   8  -4   6    1.10    8.40
  -8  -4  -6   -3.50    2.80
  -8   4   6    2.00    3.20
  -8   4   6   -4.60    4.00
  -8   5  -6  183.68   10.20
  -8  -5   6  196.08   12.30
   8   5   6  189.38    9.70
  -8  -5   6  186.78   12.90
   8   5   6  169.38   16.70
  -8   5   6  197.18   10.40
  -8   5   6  188.68   10.20
   8  -5   6  187.78   20.50
  -8  -5  -6  194.98   12.10
  -8  -6   6   18.50    7.60
  -8   6  -6   16.00    4.50
   8   6   6   14.10    9.20
  -8   6   6   26.70    5.10
  -8   6   6   28.70    5.20
   8  -6   6    5.70   11.80
  -8  -7   6   23.00   10.70
  -8   7  -6   28.10    6.20
   8   7   6   24.80   10.60
   8  -7   6   20.60   13.90
  -8   7   6   30.70    6.80
  -8   7   6   18.40    6.10
   8   8   6    7.80   13.20
  -8  -8   6    7.40   10.70
  -8   8  -6    2.60    5.80
  -8   8   6    8.70    6.80
   8  -8   6  -14.20   14.50
   9   0   6  868.31   28.70
  -9   0   6  890.11   26.90
   9   0   6  859.61   25.70
   9   0   6  847.82   34.50
  -9   0  -6  859.21   25.20
   9   1   6   10.00    2.90
  -9  -1   6   16.80    3.10
  -9   1  -6    7.30    3.50
  -9   1  -6   15.70    2.00
   9   1   6   -2.40    5.60
   9   1   6    8.90    4.30
  -9  -1  -6   11.10    1.70
  -9   1   6    7.20    2.10
   9  -1   6   11.80    3.30
   9  -1   6    6.80    7.40
  -9  -2   6  228.28   10.20
  -9   2  -6  231.28    8.80
   9   2   6  241.58   15.20
   9   2   6  212.08   12.80
  -9   2   6  233.78    9.70
  -9  -2  -6  217.58    8.30
   9  -2   6  231.88    8.80
  -9   2   6  213.08   11.40
   9  -2   6  204.68   17.80
   9   3   6   10.70    6.00
   9   3   6    5.00    5.30
  -9   3  -6    1.10    2.20
  -9  -3   6    2.90    3.40
  -9  -3  -6    2.30    1.90
   9  -3   6    0.30    7.70
  -9   3   6    3.10    3.50
  -9   3   6    0.20    2.50
   9   4   6  151.68   14.20
  -9  -4   6  181.28   11.70
  -9   4  -6  151.78    8.50
   9   4   6  167.78   12.00
   9  -4   6  137.19   17.10
  -9   4   6  150.58    9.80
  -9  -4  -6  148.29    8.60
  -9   4   6  147.69    8.60
   9   5   6    4.40    7.50
   9   5   6    2.10    4.60
  -9   5  -6    5.90    3.20
  -9  -5   6    0.70    5.30
  -9  -5  -6    2.10    4.20
  -9   5   6   10.60    4.20
   9  -5   6   -4.60   10.30
  -9   5   6   -0.60    3.70
  -9  -6   6   -4.00    6.70
  -9   6  -6    3.10    4.00
   9   6   6    7.40    9.50
   9  -6   6    6.50   12.20
  -9   6   6   13.30    4.50
  -9   6   6    2.30    4.60
  -9  -6  -6    9.60    6.20
   9   7   6    3.50   11.10
  -9   7  -6    2.40    5.90
  -9  -7   6    6.50    9.80
  -9   7   6    7.90    5.10
   9  -7   6  -12.20   13.70
  -9  -7  -6    6.90    7.80
  -9   8  -6    5.10    6.50
  -9  -8   6  -13.50   10.80
   9   8   6    4.70   13.30
  -9   8   6    2.30    6.50
   9  -8   6  -19.90   15.80
  -9  -8  -6   -5.20    9.90
 -10   0  -6  225.28    8.20
  10   0   6  223.68   11.40
  10   0   6  238.88   17.60
 -10   0   6  247.38   10.00
  10   1   6   93.59   12.30
 -10  -1   6   65.49    5.60
 -10   1  -6   72.39    4.10
  10   1   6   64.69    7.60
 -10   1  -6   57.79    6.80
 -10  -1  -6   69.39    3.80
  10  -1   6   70.29    6.00
  10  -1   6   60.79   11.50
 -10   1   6   73.09    5.20
  10   2   6   36.30    7.30
 -10   2  -6   42.10    5.40
 -10   2  -6   39.90    3.70
 -10  -2   6   36.30    4.80
  10   2   6   28.00    7.60
  10  -2   6   34.30    3.80
 -10   2   6   29.10    4.10
  10  -2   6   33.60   10.60
 -10  -2  -6   33.00    3.10
 -10   2   6   28.50    5.50
  10   3   6  185.38   13.80
  10   3   6  201.48   14.20
 -10  -3   6  191.38   10.70
 -10   3  -6  189.28    8.90
 -10   3   6  185.38    9.20
 -10  -3  -6  174.28    8.10
 -10   3   6  196.78   10.20
  10  -3   6  196.78   18.50
 -10   4  -6  160.68    9.00
  10   4   6  127.79   14.90
 -10  -4   6  172.58   11.50
  10   4   6  152.88   12.60
 -10  -4  -6  157.08    8.80
 -10   4   6  157.88    9.70
  10  -4   6  169.08   21.40
 -10   4   6  159.28    9.30
  10   5   6   74.89    9.50
  10   5   6   64.99   11.60
 -10   5  -6   62.59    7.10
 -10  -5   6   54.59    8.20
 -10   5   6   88.99    7.10
  10  -5   6   69.69   15.10
 -10  -5  -6   65.09    7.10
 -10   5   6   63.59    7.40
  10   6   6    4.10   10.00
 -10   6  -6    1.30    3.80
 -10  -6   6   -6.00    6.60
 -10   6   6   -2.30    4.40
 -10  -6  -6    6.40    6.20
 -10   6   6    1.70    4.40
  10  -6   6  -18.30   12.10
 -10   7  -6   37.80    6.70
  10   7   6   25.60   13.10
 -10  -7   6   29.80   10.20
  10  -7   6   35.40   16.20
 -10   7   6   27.70    6.80
 -10  -7  -6   26.50    8.40
 -10  -8   6  -24.30   11.40
 -10   8  -6    4.70    7.00
  10   8   6    5.10   14.70
 -10  -8  -6   -1.40    9.30
 -10   8   6   -6.00    6.00
  10  -8   6   11.90   17.40
 -11   0  -6   11.50    1.90
  11   0   6   10.80    4.00
 -11   0   6    9.50    3.00
  11   0   6   11.50    9.20
 -11   1  -6    1.90    1.80
 -11   1  -6   -1.50    4.50
  11   1   6    8.50    7.80
 -11  -1   6   -0.80    2.10
  11   1   6    0.40    4.40
 -11  -1  -6   -0.20    1.40
  11  -1   6   -1.60    3.00
 -11   1   6    2.40    2.20
  11  -1   6    8.80    9.40
 -11  -2   6   18.20    4.00
 -11   2  -6   22.80    3.90
  11   2   6   14.70    6.50
  11   2   6   25.00    8.10
 -11   2  -6   18.70    3.10
 -11   2   6   13.70    4.70
 -11  -2  -6   17.60    2.50
  11  -2   6   19.00    2.90
 -11   2   6   14.20    3.30
  11  -2   6   -3.80    9.10
  11   3   6   -4.60    6.30
 -11   3  -6   -2.20    2.50
  11   3   6   -2.10    6.40
 -11  -3   6   -5.20    3.40
 -11   3   6    7.00    3.90
  11  -3   6    4.30   11.20
 -11  -3  -6    2.50    2.30
 -11   3   6    5.60    3.40
  11   4   6    1.40    6.00
  11   4   6    2.90    7.40
 -11  -4   6    1.70    4.10
 -11   4  -6    6.80    3.50
 -11   4   6    5.40    3.50
 -11   4   6   -4.70    4.00
  11  -4   6    3.00   10.70
 -11  -4  -6   -3.00    3.10
  11   5   6   -2.30    8.70
  11   5   6    1.30    5.50
 -11   5  -6   -1.80    3.50
 -11  -5   6    0.30    5.20
 -11  -5  -6   -6.40    4.30
  11  -5   6   17.10   13.90
 -11   5   6    8.70    3.80
 -11   5   6   -3.00    3.70
 -11  -6   6   19.60    8.70
  11   6   6   48.90   12.40
 -11   6  -6   44.40    6.40
 -11  -6  -6   21.30    7.30
  11  -6   6   31.70   14.90
 -11   6   6   19.40    6.20
 -11   7  -6    4.40    5.20
 -11  -7   6   22.10   10.00
  11   7   6   21.30   12.50
  11  -7   6   12.10   16.40
 -11   7   6   10.50    6.00
 -11  -7  -6   19.20    7.80
  12   0   6  498.15   19.30
  12   0   6  468.15   27.40
 -12   0  -6  476.75   15.60
 -12   0   6  481.85   17.40
  12   1   6   23.60    9.80
  12   1   6    5.20    5.00
 -12  -1   6   12.70    3.30
 -12   1  -6   12.70    2.60
 -12   1   6   14.30    3.40
  12  -1   6   29.50   10.20
  12  -1   6   11.80    3.90
 -12  -1  -6   11.40    2.30
 -12   2  -6  233.78    9.80
  12   2   6  236.48   19.10
 -12   2  -6  244.58   10.90
  12   2   6  227.38   15.30
 -12  -2   6  226.08   11.20
 -12  -2  -6  228.08    9.10
 -12   2   6  228.28   10.70
 -12   2   6  239.68   13.00
  12  -2   6  207.28   22.70
  12  -2   6  245.88    9.40
 -12  -3   6    1.00    3.30
  12   3   6    4.80    7.70
  12   3   6    3.50    7.60
 -12   3  -6    3.60    3.00
 -12   3   6    1.70    4.10
 -12   3   6    6.40    3.90
  12  -3   6    0.70   10.70
 -12  -3  -6    0.70    2.40
  12   4   6  323.87   21.20
 -12  -4   6  329.97   16.10
 -12   4  -6  306.17   13.50
  12   4   6  328.47   18.30
 -12   4   6  310.37   14.20
 -12   4   6  320.27   13.50
  12  -4   6  305.67   27.30
 -12  -5   6   -3.70    5.40
  12   5   6    6.20    6.20
 -12   5  -6    2.40    4.10
  12   5   6    6.30    9.10
 -12   5   6    7.70    3.60
  12  -5   6   18.40   13.60
 -12   5   6    7.10    4.40
 -12  -5  -6   -1.40    4.70
 -12   6  -6   71.39    8.00
 -12  -6   6   64.59   10.30
  12   6   6   61.29   12.70
  12  -6   6   51.19   16.70
 -12   6   6   51.99    7.30
 -12  -6  -6   39.70    7.90
 -12  -7   6   13.30   10.00
  12   7   6   20.90   12.30
 -12   7  -6   14.90    6.60
 -12  -7  -6    3.40    7.60
 -12   7   6   11.00    7.00
  12  -7   6  -12.10   17.40
  13   0   6   -0.70    9.80
 -13   0   6    1.40    3.30
  13   0   6   -3.00    4.00
 -13   0  -6    1.40    2.00
  13   1   6    8.10    9.40
 -13  -1   6    1.60    3.20
 -13   1  -6    2.20    2.30
  13   1   6    3.00    5.70
  13  -1   6    5.40    3.70
 -13   1   6   -0.60    3.00
 -13  -1  -6    2.10    2.00
  13  -1   6   -1.80   10.70
 -13  -2   6    2.30    3.30
 -13   2  -6   -4.40    4.30
 -13   2  -6    3.00    2.90
  13   2   6    0.80    8.90
  13   2   6    4.10    6.50
 -13   2   6   -0.70    3.30
  13  -2   6    4.00    2.70
 -13  -2  -6    0.60    2.00
  13  -2   6    3.40   10.20
 -13   2   6   -0.90    4.80
 -13  -3   6   18.10    4.60
  13   3   6   30.70    9.40
 -13   3  -6   25.20    4.20
  13   3   6   32.00   10.10
 -13  -3  -6   25.90    3.90
  13  -3   6   39.10   13.90
 -13   3   6   24.70    4.80
 -13   3   6   22.90    5.30
 -13   4  -6   23.00    4.70
  13   4   6   21.10    8.80
 -13  -4   6   23.90    5.90
  13   4   6   33.30    9.20
 -13   4   6   27.20    5.30
  13  -4   6   11.60   12.70
 -13  -4  -6   25.30    4.50
 -13   4   6   15.40    5.00
 -13  -5   6    2.90    5.60
  13   5   6   27.50   10.60
 -13   5  -6   13.60    4.80
  13   5   6    8.60    6.70
  13  -5   6   -9.40   13.30
 -13   5   6    8.20    5.20
 -13  -5  -6   13.10    5.20
 -13  -6   6   12.50    7.90
 -13   6  -6   -4.60    4.80
  13   6   6   -5.80   11.00
 -13   6   6    2.30    4.70
 -13  -6  -6    4.10    5.60
  13  -6   6    1.60   15.40
 -13  -7   6   13.90   10.80
 -13   7  -6   30.80    8.00
  13   7   6   26.10   14.20
  13  -7   6   15.20   19.00
 -13  -7  -6   24.70    8.30
 -13   7   6   26.30    8.20
 -14   0   6   96.99    7.70
  14   0   6   85.19    9.30
  14   0   6   92.69   16.20
 -14   0  -6   98.99    6.00
 -14   1  -6 1255.17   37.30
  14   1   6 1251.97   50.39
  14   1   6 1296.77   42.80
 -14  -1   6 1183.98   38.80
 -14  -1  -6 1303.17   37.10
  14  -1   6 1266.27   39.10
  14  -1   6 1107.89   50.89
 -14   1   6 1252.67   38.90
 -14   2  -6   31.00    4.20
 -14   2  -6   41.80    5.90
  14   2   6   28.50   11.00
  14   2   6   47.40    9.30
 -14  -2   6   26.50    4.90
 -14   2   6   44.80    7.10
  14  -2   6   26.30   14.20
 -14   2   6   41.60    5.50
  14  -2   6   40.30    4.20
 -14  -2  -6   44.70    4.50
  14   3   6  425.06   26.90
 -14  -3   6  492.95   19.80
 -14   3  -6  499.45   18.20
  14   3   6  474.45   24.80
  14  -3   6  409.26   31.90
 -14   3   6  516.95   19.30
 -14   3   6  533.15   19.40
 -14  -3  -6  498.85   17.50
  14   4   6   16.70   10.00
 -14  -4   6   15.90    5.80
 -14   4  -6   20.10    4.80
  14   4   6    9.30    9.60
 -14  -4  -6   13.80    4.30
 -14   4   6    8.70    4.80
 -14   4   6   20.60    4.90
  14  -4   6    7.30   14.60
  14   5   6  186.48   19.30
  14   5   6  184.68   14.50
 -14  -5   6  185.38   13.20
 -14   5  -6  165.48   11.20
 -14   5   6  162.58   12.10
  14  -5   6  145.49   21.90
 -14  -5  -6  185.58   11.50
 -14  -6   6   -3.90    8.20
 -14   6  -6   -3.50    5.80
  14   6   6   15.40   12.60
 -14  -6  -6    2.50    6.00
  14  -6   6  -14.40   17.70
 -14   6   6   -0.40    6.20
  14   7   6   17.40   16.70
 -14  -7   6   26.70   10.60
 -14   7  -6   21.60    8.30
 -14  -7  -6   31.20    8.80
  14  -7   6   18.50   20.70
 -14   7   6   20.90    8.70
  15   0   6  209.58   24.20
 -15   0  -6  164.18    8.70
 -15   0   6  226.48   10.80
  15   0   6  211.98   12.90
 -15  -1   6  316.17   14.20
  15   1   6  314.87   17.90
 -15   1  -6  313.97   12.60
  15   1   6  321.17   26.80
 -15   1   6  306.77   14.00
  15  -1   6  338.27   14.50
  15  -1   6  298.07   27.30
 -15  -1  -6  337.07   12.50
  15   2   6  275.87   18.30
 -15   2  -6  271.57   11.60
  15   2   6  279.77   24.50
 -15  -2   6  257.07   12.70
 -15  -2  -6  269.87   11.10
 -15   2   6  260.07   12.80
  15  -2   6  230.88   25.30
 -15   3  -6  149.79    9.50
  15   3   6  198.78   21.10
 -15  -3   6  130.19   10.00
  15   3   6  166.58   17.00
 -15   3   6  148.19   10.80
 -15  -3  -6  159.38    8.80
  15  -3   6  135.49   20.90
 -15   3   6  171.48   10.50
 -15   4  -6   81.19    8.60
  15   4   6  104.39   14.40
 -15  -4   6   94.49   10.20
  15   4   6   95.99   14.70
 -15  -4  -6  103.69    8.30
 -15   4   6   99.29    9.60
  15  -4   6   91.99   19.50
 -15  -5   6  180.68   14.60
 -15   5  -6  146.89   11.10
  15   5   6  152.78   15.80
  15   5   6  183.38   19.40
 -15  -5  -6  162.88   11.00
  15  -5   6  113.89   22.20
 -15   5   6  157.88   11.90
 -15   6  -6   14.00    6.40
  15   6   6    5.90   12.90
 -15  -6   6   18.30    9.80
 -15   6   6   10.50    6.60
 -15  -6  -6    7.60    6.40
  15  -6   6   36.90   21.10
  16   0   6  183.88   13.70
 -16   0  -6  180.78    9.00
 -16   0   6  182.28   10.20
  16   0   6  215.28   24.70
  16   1   6  530.15   24.30
 -16   1  -6  529.15   18.50
 -16  -1   6  520.85   20.00
  16   1   6  485.55   32.30
 -16   1   6  522.25   20.00
 -16  -1  -6  516.35   18.10
  16  -1   6  536.95   20.10
  16  -1   6  528.05   33.90
  16   2   6  182.18   20.70
  16   2   6  155.98   15.80
 -16  -2   6  170.58   10.90
 -16   2  -6  185.78    9.60
 -16   2   6  171.48   10.90
 -16  -2  -6  177.98    9.20
  16  -2   6  154.98   22.30
 -16  -3   6  139.99   10.30
  16   3   6  142.09   18.60
 -16   3  -6  152.88    9.70
  16   3   6  172.78   17.10
 -16   3   6  168.08   11.00
 -16  -3  -6  158.68    9.30
 -16   3   6  127.09   10.90
  16  -3   6  153.38   22.80
 -16  -4   6   31.50    7.50
  16   4   6   55.99   12.50
  16   4   6   37.20   12.20
 -16   4  -6   25.00    6.10
 -16  -4  -6   38.00    5.90
  16  -4   6   22.70   17.40
 -16   4   6   40.40    6.70
  16   5   6   -0.30   13.80
  16   5   6   24.90   12.80
 -16   5  -6   45.30    8.00
 -16  -5   6   35.70    8.70
  16  -5   6   21.60   18.90
 -16  -5  -6   33.30    6.20
 -16   5   6   37.30    8.00
 -16  -6   6    7.80    7.90
 -16   6  -6   -2.00    6.10
  16   6   6   12.10   14.80
 -16  -6  -6    5.20    6.60
 -16   6   6    1.10    6.90
  16  -6   6  -26.30   18.90
 -17   0  -6   23.20    4.50
 -17   0   6   25.20    5.10
  17   0   6   -1.70   13.30
  17   0   6   30.40    7.80
  17   1   6   54.49   15.40
  17   1   6   49.90   10.40
 -17  -1   6   36.00    6.20
 -17   1  -6   50.79    5.60
 -17   1   6   43.20    6.40
 -17  -1  -6   58.89    6.10
  17  -1   6   31.90   13.70
  17  -1   6   47.50    6.30
 -17  -2   6   85.49    8.20
 -17   2  -6   82.59    7.50
  17   2   6  102.59   13.50
  17   2   6   43.10   15.80
 -17   2   6  110.59   13.40
 -17  -2  -6   77.89    7.40
  17  -2   6   76.99   18.30
 -17   2   6   77.09    8.10
 -17  -3   6   13.30    5.40
  17   3   6   31.50   11.40
  17   3   6   10.00   12.90
 -17   3  -6   19.00    5.00
 -17  -3  -6    1.60    4.00
 -17   3   6   10.40    5.80
  17  -3   6   20.40   16.90
 -17  -4   6   16.20    6.30
  17   4   6   22.10   12.60
  17   4   6   37.70   13.70
 -17   4  -6   22.80    5.90
  17  -4   6   20.80   17.90
 -17  -4  -6   28.90    5.70
 -17   4   6   14.40    5.90
 -17  -5   6   64.29    9.90
 -17   5  -6   51.99    7.40
  17   5   6   41.50   14.10
 -17  -5  -6   50.39    7.40
 -17   5   6   52.89    8.30
  17  -5   6   39.50   22.50
 -18   0   6  485.75   19.20
  18   0   6  432.56   33.90
 -18   0  -6  466.95   17.40
  18   0   6  449.95   21.80
 -18   1  -6   52.49    6.10
 -18  -1   6   48.20    6.70
  18   1   6   42.60   16.10
  18   1   6   39.60   10.00
  18  -1   6   58.09    7.50
 -18   1   6   62.29    7.80
  18  -1   6   24.70   17.80
 -18  -1  -6   49.30    5.60
 -18   2  -6  566.94   21.10
  18   2   6  535.65   35.40
  18   2   6  572.44   29.40
 -18  -2   6  589.14   23.20
 -18   2   6  582.94   22.90
 -18  -2  -6  573.54   20.40
  18  -2   6  553.24   39.60
 -18   2   6  624.24   26.40
 -18  -3   6   38.70    7.00
  18   3   6   70.69   16.90
 -18   3  -6   55.69    7.00
  18   3   6   58.29   14.40
  18  -3   6   59.39   18.70
 -18   3   6   38.70    6.70
 -18  -3  -6   51.99    6.40
  18   4   6   98.69   17.50
  18   4   6  135.59   18.20
 -18   4  -6  134.29   11.90
 -18  -4   6  159.68   13.60
  18  -4   6  155.68   26.10
 -18  -4  -6  160.78   10.90
 -18   4   6  137.69   12.70
  18   5   6   16.10   13.80
 -18   5  -6   36.60    7.70
 -18  -5   6   36.60    8.50
  18  -5   6   37.60   22.80
 -18   5   6   28.60    8.50
 -18  -5  -6   12.20    6.50
 -19   0   6   -1.40    5.00
 -19   0  -6   -1.60    3.90
  19   0   6  -15.20   15.00
  19   0   6    3.00    8.00
 -19   1  -6   73.49    8.00
 -19  -1   6   96.19    9.70
  19   1   6   73.09   12.30
  19   1   6   72.39   19.80
  19  -1   6   83.79   21.70
 -19  -1  -6   84.19    8.00
 -19   1   6   98.39    9.90
 -19   2  -6    9.00    5.00
  19   2   6   -1.50   15.60
 -19  -2   6   -2.40    5.50
  19   2   6   11.00   10.30
 -19  -2  -6   -3.70    4.30
 -19   2   6   -1.10    5.00
  19  -2   6   19.20   18.70
 -19   2   6   15.40   10.50
  19   3   6   30.70   13.80
 -19   3  -6   35.10    6.70
  19   3   6   16.10   15.60
 -19  -3   6   17.80    6.90
 -19  -3  -6   38.70    6.00
  19  -3   6   55.29   21.40
 -19   3   6   24.60    6.70
  19   4   6   31.20   15.00
  19   4   6   38.40   14.70
 -19   4  -6   16.70    6.60
 -19  -4   6    0.90    6.80
  19  -4   6  -16.80   19.00
 -19  -4  -6    4.70    5.60
 -19   4   6   -1.70    6.60
  20   0   6   11.70    9.10
  20   0   6   12.60   17.70
 -20   0  -6   -2.30    4.40
 -20   0   6    1.90    5.30
 -20   1  -6  297.37   14.20
  20   1   6  307.17   21.50
  20   1   6  283.17   33.20
 -20  -1   6  305.97   16.10
 -20   1   6  282.17   15.30
  20  -1   6  266.17   34.70
 -20  -1  -6  301.77   13.90
  20   2   6   40.30   12.60
 -20   2  -6   27.60    6.00
  20   2   6   30.50   18.10
 -20  -2   6   24.00    7.20
  20  -2   6   -5.10   18.70
 -20  -2  -6   15.60    5.30
 -20   2   6   14.30    6.90
  20   3   6  208.38   24.00
 -20  -3   6  198.88   14.30
  20   3   6  188.28   23.40
 -20   3  -6  201.38   13.40
 -20   3   6  213.58   14.70
 -20  -3  -6  186.08   12.20
  20  -3   6  169.28   28.70
  21   0   6   26.20   19.30
 -21   0   6   16.60    6.50
 -21   0  -6   12.80    5.60
  21   1   6   11.40   11.00
 -21  -1   6   -5.00    5.80
 -21   1  -6    5.80    5.40
  21   1   6   19.60   19.30
  21  -1   6   14.60   20.00
 -21   1   6   -6.40    6.10
 -21  -1  -6   -3.70    5.00
  21   2   6   63.09   20.40
  21   2   6   62.59   15.00
 -21   2  -6   73.79    8.50
 -21  -2   6   60.29    9.40
  21  -2   6   45.60   22.00
 -21  -2  -6   65.59    7.50
 -21   2   6   59.89    9.50
   0   0   7   -2.40    0.70
   0   0   7   -2.30    2.20
   0  -1  -7   -0.20    0.60
   0   1   7    1.40    2.40
   0  -1   7   -0.50    0.80
   0  -1   7   -1.90    1.10
   0  -1  -7    0.30    3.50
   0   1   7   -0.60    0.60
   0  -2  -7    6.20    1.20
   0  -2   7    5.40    1.60
   0   2   7    3.80    3.60
   0   2  -7    3.60    1.10
   0   2   7    2.60    1.00
   0   3   7    0.10    3.80
   0   3  -7   -2.00    1.10
   0   3   7   -0.70    1.20
   0   4   7    4.20    4.60
   0   4  -7    0.60    1.90
   0  -4   7    2.80    4.80
   0   5   7    2.90    6.20
   0   5   7    1.90    2.60
   0   5  -7    4.00    2.50
   0  -5   7    0.50    5.50
   0  -6   7    6.60    6.60
   0   6   7   11.60    7.20
   0   6  -7    6.50    3.50
   0   6   7    3.10    3.40
   0   7   7    2.50    3.90
   0   7   7    6.30    8.10
   0  -7   7  -14.50    6.70
   0   7  -7   -2.80    3.90
   0   8  -7   15.80    5.90
   0   8   7   15.20   10.40
   0   8   7   16.70    5.40
   0   9   7    5.70    6.30
   0   9   7   25.00   14.10
   0   9  -7   -9.70    5.30
   1   0  -7   -2.70    0.90
   1   0   7    1.00    2.40
   1   0   7   -0.40    0.40
  -1   0   7   -0.40    0.70
   1   0   7    0.10    0.50
  -1   0   7   -0.20    2.30
  -1   0  -7   -0.50    2.70
  -1  -1   7  447.46   13.40
  -1   1  -7  449.76   13.20
   1   1   7  444.86   17.00
   1  -1  -7  449.26   17.50
  -1  -1   7  442.96   14.40
   1   1   7  451.95   12.80
   1  -1  -7  468.05   13.30
   1  -1   7  456.85   13.30
  -1  -1  -7  454.95   12.70
  -1   1   7  434.96   16.70
  -1  -1  -7  432.76   16.90
  -1   1   7  446.06   13.20
   1  -1   7  427.36   16.80
  -1  -2   7    6.00    1.50
   1  -2  -7    8.30    1.40
   1   2   7   15.40    4.60
  -1   2  -7   12.70    1.70
   1   2   7    8.50    1.20
   1  -2   7   11.10    1.90
  -1  -2  -7   12.70    1.40
  -1   2   7    9.70    1.50
   1   2  -7    8.50    1.40
  -1   2   7   11.50    4.30
   1   3   7  240.68    8.30
   1   3   7  247.78   12.70
  -1   3  -7  232.78    8.70
   1   3  -7  231.58    8.80
  -1   3   7  234.28   12.70
  -1   3   7  235.48    8.60
  -1  -3  -7  232.98    8.40
   1   4   7   83.29    4.60
  -1   4  -7   89.69    5.20
   1   4   7   80.29    8.70
   1  -4   7   85.19    9.60
  -1   4   7   80.19    8.60
  -1   4   7   82.89    4.90
   1   4  -7   75.29    5.10
  -1   5  -7  124.29    7.30
  -1  -5   7  128.39   11.50
   1   5   7  135.59    7.00
   1   5   7  121.79   11.50
   1   5   7  117.89   10.60
  -1   5   7  112.39    7.10
  -1   5   7  124.89   11.50
   1   5  -7  120.69    7.10
   1  -5   7  132.79   11.90
   1   6   7  101.49    7.20
   1   6   7   87.09   11.60
  -1  -6   7   84.79    9.70
  -1   6  -7   87.39    7.10
   1   6   7   95.99    9.20
   1  -6   7   96.19   10.90
  -1   6   7  106.69   12.30
   1   6  -7   90.59    7.50
  -1   6   7   81.19    7.10
   1   7   7  142.49    9.60
  -1  -7   7  151.68   12.10
  -1   7  -7  139.59    9.40
   1   7   7  157.18   16.90
  -1   7   7  148.49    9.80
   1  -7   7  130.19   14.60
  -1   7   7  172.18   15.60
   1   7  -7  137.79    9.70
   1   8   7   63.29    7.60
   1   8   7   73.69   13.70
  -1   8  -7   63.89    8.10
   1   8  -7   80.79    8.90
  -1   8   7   52.19    7.30
  -1   8   7   68.29   12.00
   1   9   7   21.70   13.40
   1   9   7    9.20    6.70
  -1   9  -7   16.80    7.30
  -1   9   7   30.40    8.10
   1   9  -7   27.50    7.30
  -1   9   7   59.59   14.10
   2   0  -7   -2.10    1.00
   2   0   7   -0.40    0.30
  -2   0   7    0.60    0.80
  -2   0  -7    0.40    2.90
   2   0   7    1.90    2.50
   2   0   7    0.20    0.40
  -2  -1   7    4.90    1.50
  -2   1  -7    5.00    0.90
   2   1   7    3.90    3.80
  -2  -1   7    3.60    1.10
   2   1   7    5.20    0.60
   2  -1  -7    9.20    4.20
   2  -1  -7    6.70    1.10
  -2  -1  -7    6.20    0.60
   2  -1   7    7.00    2.60
   2  -1   7    4.00    1.00
  -2  -1  -7    9.10    4.00
  -2   1   7    6.70    1.20
  -2   1   7    2.80    2.70
   2   2   7   30.90    1.80
   2   2   7   36.50    6.10
   2  -2  -7   30.90    2.60
  -2   2  -7   25.50    2.30
  -2  -2   7   35.40    4.00
   2  -2   7   30.60    2.60
  -2  -2  -7   30.00    2.00
  -2   2   7   27.60    4.50
  -2   2   7   31.60    2.40
  -2   3  -7   -1.60    1.10
   2   3   7   -1.20    3.30
   2   3   7   -1.00    1.10
  -2   3   7    0.90    1.30
   2   3  -7    1.20    1.30
   2  -3   7    1.40    3.40
   2  -3   7   -5.00    3.80
  -2   3   7    2.30    4.10
  -2  -3  -7    0.90    1.50
   2   4   7   -0.30    4.40
  -2   4  -7    0.30    1.90
   2   4   7    1.10    1.50
  -2   4   7   -1.20    1.70
   2  -4   7    1.40    4.90
   2   4  -7    1.50    1.70
  -2   4   7   -3.30    3.80
   2   5   7   17.50    7.00
  -2  -5   7   17.60    5.30
  -2   5  -7   18.50    3.70
   2   5   7   23.90    3.40
   2   5  -7   13.70    3.20
  -2   5   7   19.00    3.60
  -2   5   7   17.70    5.80
   2  -5   7   18.90    6.60
   2   6   7   -8.70    7.10
   2   6   7    1.60    3.20
  -2  -6   7    7.20    5.70
  -2   6  -7    2.30    3.60
   2   6   7    2.40    5.50
   2  -6   7   -1.10    6.70
  -2   6   7    3.60    6.00
   2   6  -7    6.10    3.40
  -2   6   7    1.20    3.20
   2   7   7   -3.50    8.30
  -2   7  -7   -5.10    3.70
   2   7   7    0.90    3.80
  -2  -7   7    0.10    7.60
   2  -7   7   -7.70    8.10
  -2   7   7   -0.60    8.00
  -2   7   7    0.70    4.10
   2   7  -7    0.80    3.70
  -2   8  -7    3.40    5.30
   2   8   7   10.00    5.30
   2   8   7   18.10   11.50
  -2   8   7    2.10    9.40
  -2   8   7    1.60    5.00
   2   8  -7    4.00    4.70
   2   9   7    4.40    6.20
  -2   9  -7    3.30    6.60
   2   9   7    3.20   13.40
   2   9  -7    5.40    6.40
  -2   9   7   11.20    6.50
  -2   9   7   27.80   12.30
  -3   0   7   -0.70    0.90
  -3   0  -7   -1.50    0.30
   3   0   7   -1.10    0.30
   3   0   7    0.20    2.30
  -3   0  -7   -1.90    2.80
   3   0  -7    0.70    1.30
  -3  -1   7  675.33   20.70
   3  -1  -7  665.13   19.80
   3   1   7  670.53   23.70
  -3   1  -7  651.33   19.20
   3  -1   7  666.43   19.20
  -3   1   7  662.63   19.70
   3   1  -7  668.83   21.40
  -3  -1  -7  674.23   18.40
  -3  -1  -7  683.43   18.60
  -3   1   7  690.23   23.70
   3  -1   7  651.23   22.20
   3   2   7  253.97    7.80
  -3  -2   7  250.67   10.30
  -3   2  -7  241.08    8.40
   3   2   7  252.97   13.00
  -3   2   7  234.88    8.60
   3  -2   7  242.48   11.20
   3  -2   7  248.38    8.60
  -3  -2  -7  252.57    7.80
  -3   2   7  245.38   11.60
   3   3   7   13.00    5.00
  -3   3  -7   10.70    2.10
   3   3   7   11.60    1.70
   3  -3   7    8.10    5.00
  -3  -3  -7   10.00    1.90
  -3   3   7   10.10    2.00
  -3   3   7   17.30    4.90
   3   3  -7    9.70    1.90
   3   4   7  808.92   24.30
  -3   4  -7  818.82   25.30
   3   4   7  775.82   30.20
  -3   4   7  793.72   25.10
   3  -4   7  816.62   31.90
   3   4  -7  818.32   25.20
  -3   4   7  771.12   28.10
  -3  -5   7   39.40    6.20
   3   5   7   33.20    8.10
   3   5   7   38.80    4.20
  -3   5  -7   41.50    4.80
   3  -5   7   40.10    8.10
  -3   5   7   41.80    7.30
  -3   5   7   35.70    4.40
   3   5  -7   31.10    4.30
   3   6   7  407.46   16.00
   3   6   7  401.96   15.80
  -3  -6   7  409.26   17.60
  -3   6  -7  438.46   17.10
   3   6   7  448.76   23.40
   3   6  -7  455.05   17.00
   3  -6   7  430.36   23.20
  -3   6   7  429.86   16.80
  -3   6   7  459.05   20.90
  -3   7  -7    2.10    3.90
   3   7   7    6.10    9.30
   3   7   7   -0.40    3.80
   3  -7   7   10.00    9.20
   3   7  -7    5.90    4.10
  -3   7   7    1.10    7.90
  -3   7   7    6.60    4.40
   3   8   7  230.18   12.70
   3   8   7  241.88   22.20
  -3   8  -7  222.68   13.50
  -3   8   7  196.48   13.40
  -3   8   7  212.98   19.10
   3  -8   7  228.98   24.30
   3   8  -7  231.08   13.30
   3   9   7   19.70   14.10
  -3   9  -7    7.60    7.20
   3   9   7    7.60    6.30
   3   9  -7    9.80    6.50
  -3   9   7   -3.50   11.20
  -3   9   7   10.50    6.50
  -4   0  -7   -1.70    2.60
  -4   0   7   -0.30    0.90
  -4   0  -7   -1.00    0.40
   4   0  -7   -0.20    1.80
   4   0   7    2.80    3.10
   4   0   7    0.70    0.40
  -4   1  -7   29.10    1.80
   4   1   7   26.00    4.80
   4  -1  -7   25.40    2.50
  -4  -1   7   33.90    3.00
  -4   1  -7   34.80    4.50
  -4  -1  -7   30.20    1.40
  -4  -1  -7   31.90    1.30
   4  -1   7   31.70    4.20
  -4   1   7   28.80    4.50
   4  -1   7   30.80    1.90
  -4   1   7   34.60    2.50
  -4  -2   7   21.40    3.10
   4   2   7   14.80    4.60
   4   2   7   18.50    1.40
  -4   2  -7   25.00    2.20
  -4   2   7   21.30    2.40
  -4   2   7   18.70    3.90
   4  -2   7   16.70    5.80
  -4  -2  -7   22.00    1.80
   4  -2   7   21.70    2.30
  -4   3  -7   40.00    3.40
   4   3   7   42.20    2.70
  -4  -3   7   40.40    5.30
   4   3   7   40.30    7.20
   4  -3   7   40.00    7.70
  -4   3   7   37.50    6.00
  -4  -3  -7   45.30    3.30
  -4   3   7   39.70    3.50
   4   4   7    5.90    1.70
  -4   4  -7    6.30    2.30
   4   4   7   -0.60    6.00
   4   4  -7    8.70    2.40
   4  -4   7    5.70    6.00
  -4   4   7    5.70    4.70
   4  -4   7   10.20    4.20
  -4   4   7    5.80    2.50
   4   5   7   29.80    3.60
  -4   5  -7   19.90    4.10
   4   5   7   24.90    8.70
  -4   5   7   32.10    6.80
  -4   5   7   25.80    4.30
   4  -5   7   16.40    8.20
   4   5  -7   34.50    4.60
   4   6   7   -0.80    7.50
  -4  -6   7   -0.50    4.70
  -4   6  -7    2.80    4.00
   4   6   7    0.60    3.00
  -4   6   7    2.50    3.70
   4   6  -7    2.90    3.30
  -4   6   7    4.90    6.70
   4  -6   7   -1.30    8.90
  -4   7  -7   52.49    6.70
   4   7   7   52.79   12.10
   4   7   7   44.60    5.80
  -4   7   7   48.90    8.80
   4  -7   7   34.40   12.10
  -4   7   7   44.70    6.60
   4   7  -7   42.30    5.70
  -4   8  -7    7.80    5.40
   4   8   7   17.80    5.50
   4   8   7   21.60   12.20
  -4   8   7   12.10    9.10
  -4   8   7   27.80    6.80
   4  -8   7   29.80   12.60
   4   8  -7   17.90    5.20
   5   0   7   -0.30    0.60
  -5   0  -7   -9.40    3.10
   5   0   7    0.80    3.40
  -5   0   7   -1.20    1.00
  -5   0  -7   -1.60    0.60
   5   1   7   10.20    4.10
  -5   1  -7   16.50    3.50
  -5  -1   7   15.00    2.40
  -5  -1  -7   13.40    1.10
  -5  -1  -7   14.50    1.10
  -5   1   7   13.20    1.90
  -5   1   7   19.90    4.40
  -5  -2   7   53.19    4.50
   5   2   7   49.00    6.60
  -5   2  -7   44.60    3.00
  -5  -2  -7   47.60    2.60
   5  -2   7   51.59    8.40
   5  -2   7   50.29    3.50
  -5   2   7   47.80    3.40
  -5  -2  -7   44.60    3.00
  -5   2   7   50.79    5.80
  -5   3  -7 1379.26   40.60
  -5  -3   7 1443.46   43.60
   5   3   7 1339.77   45.60
   5   3   7 1359.16   39.50
   5  -3   7 1423.96   42.10
   5  -3   7 1400.26   49.10
  -5  -3  -7 1406.36   39.80
  -5   3   7 1399.26   44.20
  -5   3   7 1383.66   40.80
   5   4   7  367.36   19.60
  -5  -4   7  367.66   17.80
   5   4   7  473.65   13.90
  -5   4  -7  440.36   15.10
  -5   4   7  411.66   15.00
   5  -4   7  426.36   15.20
   5  -4   7  386.46   22.30
  -5   4   7  412.76   17.60
   5   5   7  772.42   22.80
   5   5   7  711.63   24.10
   5   5   7  680.33   30.30
  -5   5  -7  692.93   23.80
   5  -5   7  726.13   32.60
  -5   5   7  694.13   26.20
  -5   5   7  693.03   24.00
   5   6   7  123.79   15.60
  -5  -6   7  127.79    9.30
  -5   6  -7  134.49    9.40
   5   6   7  139.49    8.00
   5  -6   7  182.48   19.30
   5   6  -7  133.49    8.40
  -5   6   7  159.38   12.10
  -5   6   7  134.69    9.30
   5   7   7  885.01   37.80
   5   7   7  843.02   28.10
  -5   7  -7  836.02   29.70
  -5   7   7  892.11   30.20
  -5   7   7  832.72   32.30
   5   7  -7  883.21   29.40
   5  -7   7  775.72   37.40
  -5   8  -7  155.18   12.10
   5   8   7  151.18   18.90
   5   8   7  139.79   10.30
  -5   8   7  129.69   12.00
  -5   8   7  150.98   15.80
   5  -8   7  137.89   17.60
   5   8  -7  109.49   10.80
  -6   0   7   -2.10    1.30
   6   0   7    1.00    3.50
  -6   0  -7   -3.30    0.70
  -6   0  -7   -8.70    3.60
   6   0   7   -2.90    4.20
   6   0   7   -4.90    0.80
  -6   1  -7   48.10    2.80
   6   1   7   45.10    6.20
  -6  -1   7   45.30    3.80
   6   1   7   33.50    6.50
  -6   1  -7   63.19    6.00
   6  -1   7   54.29    8.80
  -6  -1  -7   54.79    2.40
  -6  -1  -7   50.89    2.30
   6  -1   7   69.19    6.00
  -6   1   7   49.99    3.40
   6  -1   7   48.00    2.80
   6   2   7   35.00    6.20
   6   2   7   28.20    5.70
  -6  -2   7   22.80    3.30
  -6   2  -7   25.90    2.60
  -6   2   7   21.60    2.70
  -6  -2  -7   30.60    2.50
   6  -2   7   33.30    7.80
   6  -2   7   38.90    4.30
  -6  -2  -7   25.90    2.30
  -6   2   7   38.50    5.40
   6   3   7    1.80    4.60
  -6  -3   7    2.20    2.90
   6   3   7   -9.40    3.90
  -6   3  -7    4.20    1.60
  -6   3   7    5.30    3.90
  -6  -3  -7    2.60    2.00
   6  -3   7   -4.10    6.50
  -6   3   7   -2.80    1.90
   6  -3   7   -3.40    2.30
  -6  -3  -7   -0.50    1.80
  -6  -4   7   18.80    5.00
  -6   4  -7   37.50    4.30
   6   4   7   32.40    2.90
   6   4   7   35.50    7.80
   6   4   7   32.80    5.50
   6  -4   7   37.30    4.30
   6  -4   7   36.00    4.70
  -6   4   7   22.90    3.80
   6  -4   7   38.80    9.70
  -6   4   7   35.60    6.20
   6   5   7   16.70    5.00
  -6   5  -7   21.00    4.40
   6   5   7   11.50    7.40
   6   5   7   17.00    2.90
  -6  -5   7   18.10    6.50
  -6   5   7    8.90    3.90
  -6   5   7   18.10    5.20
   6  -5   7   28.10    4.90
   6  -5   7   15.80    9.40
   6   6   7    2.40    3.10
  -6  -6   7    5.90    6.90
   6   6   7   10.90    8.50
  -6  -6   7    6.70    4.70
  -6   6  -7    6.10    4.00
  -6   6   7    9.40    5.40
   6  -6   7    5.40   10.20
  -6   6   7    4.20    4.10
  -6   7  -7    5.50    4.60
   6   7   7    9.50    9.80
   6   7   7   19.20    4.50
  -6   7   7   22.40    7.20
   6  -7   7    9.30   13.10
  -6   7   7    4.00    5.00
  -6   8  -7   10.40    6.70
   6   8   7   29.70    5.60
   6   8   7   42.90   14.30
  -6   8   7   26.90    9.40
   6  -8   7   21.10   15.20
  -6   8   7   34.50    7.30
  -7   0   7    4.20    1.40
   7   0   7    5.60    4.70
   7   0   7    0.00    2.80
   7   1   7    2.70    1.70
   7   1   7    1.00    3.40
  -7   1  -7    5.90    3.50
  -7  -1   7    2.90    1.60
   7   1   7    2.50    4.50
  -7   1  -7    1.80    1.20
  -7  -1  -7    3.10    0.90
   7  -1   7    0.70    5.10
  -7   1   7    3.60    1.60
   7  -1   7    6.60    3.20
  -7   2  -7  338.87   11.20
  -7  -2   7  319.17   12.70
   7   2   7  353.36   16.10
   7   2   7  318.47   16.60
  -7  -2  -7  323.67   10.30
   7  -2   7  331.37   12.60
  -7   2   7  324.87   14.30
  -7   2   7  322.07   11.70
   7  -2   7  295.17   19.80
  -7  -2  -7  320.87   10.70
   7   3   7   81.79   10.30
   7   3   7  102.39   10.10
  -7  -3   7  107.19    8.00
  -7   3  -7  110.29    5.70
  -7  -3  -7  105.79    5.80
  -7   3   7  112.99    8.10
   7  -3   7  106.59   13.30
  -7   3   7  112.59    6.30
   7  -3   7  108.09    5.90
   7   4   7  167.68   11.70
  -7  -4   7  164.58   11.30
  -7   4  -7  163.58    8.40
   7   4   7  164.68   14.20
   7  -4   7  171.98   18.60
   7  -4   7  164.28    7.50
  -7  -4  -7  167.68    8.90
  -7   4   7  167.98   11.00
   7  -4   7  167.08    7.30
  -7   4   7  159.78    8.40
  -7  -5   7   90.39   10.10
  -7  -5   7  106.09   10.00
   7   5   7  109.29    6.10
  -7   5  -7   91.39    7.40
   7   5   7  128.29    9.90
   7   5   7  128.59   14.80
   7  -5   7   88.89   13.90
   7  -5   7   97.89    7.10
  -7   5   7   91.09    7.60
  -7   5   7   95.79    8.80
   7  -5   7   95.29    7.40
  -7  -6   7  214.98   10.10
   7   6   7  242.18   19.40
   7   6   7  220.38   10.10
  -7  -6   7  196.48   16.10
  -7   6  -7  230.88   12.00
  -7   6   7  209.68   13.40
  -7   6   7  224.98   11.70
   7  -6   7  199.48   23.80
   7   7   7  201.08   11.00
  -7  -7   7  213.88   18.90
   7   7   7  193.48   20.70
  -7   7  -7  220.98   12.80
   7  -7   7  217.88   25.20
  -7   7   7  211.58   14.80
  -7   7   7  221.08   13.00
  -7   8  -7   64.79    9.20
   7   8   7   51.39   14.90
   7   8   7   35.70    6.30
  -7  -8   7   40.20   12.50
  -7   8   7   43.70    9.10
  -7   8   7   42.10    7.60
   7  -8   7   59.19   17.30
   8   0   7    3.50    3.20
  -8   0  -7    0.10    0.90
   8   0   7    5.70    5.70
   8   0   7    0.50    1.40
  -8   0   7    3.50    1.80
   8   1   7    1.10    1.90
   8   1   7    3.50    4.00
  -8   1  -7    2.70    1.30
  -8   1  -7   -4.50    3.50
   8   1   7    8.40    5.00
  -8  -1   7    6.40    1.90
   8  -1   7   17.30    7.30
   8  -1   7    0.00    1.70
  -8  -1  -7    3.10    1.00
   8  -1   7    5.30    3.30
  -8   1   7    5.00    2.00
  -8   2  -7   49.00    3.50
  -8  -2   7   43.90    4.40
   8   2   7   49.90    8.30
   8   2   7   38.70    6.80
  -8   2   7   45.20    4.20
  -8  -2  -7   35.40    2.90
   8  -2   7   46.60    4.90
  -8  -2  -7   39.00    2.90
   8  -2   7   21.50    8.40
  -8   2   7   43.40    5.90
   8   3   7   48.20    8.30
  -8   3  -7   40.00    4.20
  -8  -3   7   35.20    5.10
  -8  -3  -7   44.60    4.00
   8  -3   7   26.50   10.10
   8  -3   7   42.70    4.60
  -8   3   7   42.60    4.60
  -8   3   7   35.40    5.10
  -8  -4   7   21.30    5.30
  -8   4  -7   21.80    3.90
   8   4   7   23.70    8.60
   8   4   7   47.00    7.30
  -8   4   7   36.10    6.10
   8  -4   7   51.09   11.90
  -8  -4  -7   28.00    4.10
  -8   4   7   27.80    4.30
   8  -4   7   26.80    3.40
  -8  -5   7  -11.70    6.90
   8   5   7    5.80    5.00
  -8   5  -7   -1.50    3.60
  -8  -5   7    4.00    5.30
   8   5   7   -2.70    7.80
   8  -5   7    0.40   10.60
  -8   5   7    9.40    4.20
   8  -5   7    6.60    2.50
  -8  -5  -7    1.90    4.70
  -8   5   7    3.30    4.30
   8  -5   7   -1.30    2.50
  -8  -6   7    8.10    6.40
   8   6   7   18.00    9.20
  -8   6  -7   -1.80    3.90
   8  -6   7    9.80   12.10
  -8   6   7    3.60    4.60
  -8   6   7    1.20    4.90
  -8  -6  -7   -1.20    6.10
   8   7   7   13.80   11.80
  -8  -7   7  -12.30    8.50
  -8   7  -7   -7.80    4.70
  -8   7   7   -0.50    5.30
   8  -7   7   -3.50   13.70
  -8   7   7    5.70    6.60
  -8  -8   7   21.50   13.10
   8   8   7   23.50   13.90
  -8   8  -7   14.30    6.50
   8  -8   7   15.90   16.30
  -8   8   7    0.60    7.20
   9   0   7    4.80    1.90
  -9   0   7   -3.00    1.70
   9   0   7   -4.60    3.30
   9   0   7  -15.70    5.70
  -9   0  -7   -0.30    1.10
   9   1   7   -1.20    3.70
  -9   1  -7   -2.20    4.00
   9   1   7   -1.60    2.30
  -9  -1   7    4.00    2.10
   9   1   7    5.40    6.70
  -9   1  -7    1.10    1.30
   9  -1   7   -1.90    6.60
   9  -1   7   -2.80    2.80
  -9   1   7    0.80    1.80
  -9  -1  -7   -0.20    1.10
   9   2   7  237.88   15.80
  -9   2  -7  233.78    8.80
   9   2   7  220.48   14.00
  -9  -2   7  231.58   10.70
  -9   2   7  214.88    9.60
  -9   2   7  231.48   12.20
  -9  -2  -7  228.08    8.40
   9  -2   7  235.78    9.70
   9  -2   7  237.18   19.90
   9   3   7  141.09   12.80
  -9  -3   7  137.89    8.70
   9   3   7  165.58   13.40
  -9   3  -7  137.29    7.10
   9  -3   7  167.78   17.30
  -9   3   7  152.98    9.30
  -9   3   7  141.49    8.00
   9  -3   7  144.79    6.20
  -9  -3  -7  151.98    6.90
  -9   4  -7  345.17   13.70
   9   4   7  352.26   18.40
   9   4   7  338.27   20.20
  -9  -4   7  352.56   16.40
  -9  -4  -7  365.66   14.20
   9  -4   7  313.87   25.40
  -9   4   7  385.66   16.00
  -9   4   7  360.36   14.60
   9   5   7   22.30    9.70
  -9   5  -7    7.50    4.20
   9   5   7    6.80    5.70
  -9  -5   7    7.10    5.80
  -9  -5  -7    2.10    4.30
   9  -5   7   13.50   10.90
  -9   5   7    4.90    3.70
  -9   5   7   13.40    4.60
   9   6   7  248.68   19.90
  -9   6  -7  283.97   13.50
  -9  -6   7  240.38   17.70
  -9  -6  -7  253.57   15.50
   9  -6   7  211.28   26.40
  -9   6   7  263.37   13.30
  -9   6   7  250.97   13.10
  -9  -7   7   -2.30    9.50
  -9   7  -7    4.10    5.70
   9   7   7    4.00   10.80
   9  -7   7   -3.10   14.80
  -9  -7  -7    3.60    8.00
  -9   7   7    9.40    6.00
  -9   7   7   -0.60    5.60
   9   8   7  152.28   20.90
  -9  -8   7  158.08   18.40
  -9   8  -7  127.99   12.90
   9  -8   7  140.59   22.20
  -9   8   7  151.78   12.80
  -9  -8  -7  108.79   14.60
  10   0   7    1.50    3.70
  10   0   7   -9.80    6.10
 -10   0  -7    0.40    1.30
 -10   0   7    0.90    2.30
  10   1   7    7.50    6.80
 -10  -1   7    5.60    2.50
 -10   1  -7    2.10    4.70
  10   1   7   10.50    4.80
 -10   1  -7   10.30    1.90
 -10   1   7    5.60    2.40
 -10  -1  -7    8.10    1.80
  10  -1   7   20.30    9.00
  10  -1   7    9.10    3.50
 -10   2  -7  148.69    6.80
  10   2   7  158.78   12.70
 -10   2  -7  156.88    9.10
 -10  -2   7  159.08    8.70
  10   2   7  160.48   14.40
  10  -2   7  161.68   17.30
  10  -2   7  156.88    7.70
 -10   2   7  145.69    7.70
 -10   2   7  164.38   10.30
 -10  -2  -7  145.59    6.40
  10   3   7    7.70    6.60
 -10  -3   7    4.40    3.50
 -10   3  -7    2.80    2.60
  10   3   7   -3.80    6.10
 -10   3   7    4.60    3.90
 -10  -3  -7    0.60    1.90
  10  -3   7    2.50    9.80
 -10   3   7    0.30    3.10
  10   4   7   21.90    6.50
  10   4   7   24.70    9.50
 -10   4  -7   15.40    4.00
 -10  -4   7   21.40    5.20
 -10   4   7   18.70    5.20
 -10   4   7   19.50    4.30
  10  -4   7   11.20   11.30
 -10  -4  -7   18.50    3.80
 -10  -5   7   10.50    6.40
 -10   5  -7    1.30    3.80
  10   5   7   -0.50    5.90
  10   5   7    4.20    8.00
 -10   5   7    7.00    4.40
  10  -5   7   -5.10   12.00
 -10  -5  -7    7.00    4.30
 -10   5   7    4.80    3.80
 -10  -6   7   61.99   10.20
  10   6   7   57.69   12.80
 -10   6  -7   80.29    8.60
 -10   6   7   82.09    8.40
 -10   6   7   57.59    7.40
  10  -6   7   65.09   16.50
 -10  -6  -7   64.49    8.50
 -10  -7   7   14.60    9.50
 -10   7  -7    2.90    5.90
  10   7   7    0.40   11.50
 -10  -7  -7    9.60    7.50
 -10   7   7    1.00    6.10
  10  -7   7   13.10   15.50
 -10  -8   7  -17.90   11.70
  10   8   7    1.10   13.60
 -10   8  -7    4.50    7.10
 -10   8   7   14.60    7.10
 -10  -8  -7  -10.30    9.50
  10  -8   7    3.90   17.70
  11   0   7    1.40    3.70
 -11   0  -7   -0.70    1.40
 -11   0   7    1.00    2.20
  11   0   7    3.10    8.30
  11   1   7   14.10    8.70
 -11   1  -7    3.80    1.70
 -11  -1   7    5.50    2.70
  11   1   7    9.20    4.90
 -11  -1  -7    1.90    1.40
 -11   1   7    1.30    2.40
  11  -1   7    5.20    3.50
  11  -1   7    7.80    9.40
  11   2   7    6.20    7.70
  11   2   7    2.10    6.30
 -11   2  -7    0.00    2.10
 -11  -2   7    3.20    3.10
 -11   2  -7    1.30    4.00
 -11  -2  -7    0.90    1.60
 -11   2   7    3.80    2.90
  11  -2   7    1.70    2.60
 -11   2   7    1.00    4.50
  11  -2   7   18.10   11.60
 -11   3  -7  175.38    8.50
  11   3   7  171.48   15.70
 -11  -3   7  168.08    9.90
  11   3   7  149.69   15.20
 -11  -3  -7  160.18    7.50
 -11   3   7  157.58    9.00
 -11   3   7  176.58   10.30
  11  -3   7  141.29   18.30
  11   4   7   29.20    9.30
 -11   4  -7   41.90    5.10
  11   4   7   53.79    8.50
 -11  -4   7   50.09    7.40
 -11   4   7   31.20    5.20
 -11  -4  -7   39.00    4.70
 -11   4   7   43.70    6.40
  11  -4   7   17.30   11.50
 -11  -5   7   89.19   10.30
  11   5   7   66.39   11.90
 -11   5  -7   93.79    8.20
  11   5   7   73.09    9.30
 -11   5   7   96.19    8.60
 -11   5   7   81.29    8.30
 -11  -5  -7   75.29    8.50
  11  -5   7   90.29   18.30
 -11   6  -7    4.40    5.00
  11   6   7    2.70   10.70
 -11  -6   7    8.30    7.10
 -11   6   7   -4.20    4.70
 -11  -6  -7   -7.30    5.90
  11  -6   7    0.80   14.40
 -11  -7   7  120.89   14.60
 -11   7  -7  129.59   11.80
  11   7   7  110.19   18.60
 -11  -7  -7   95.09   11.30
  11  -7   7  110.69   20.90
 -11   7   7  110.99   11.80
  12   0   7   12.30    9.90
 -12   0  -7   -1.20    1.50
 -12   0   7   -3.10    2.60
  12   0   7    2.30    3.90
 -12   1  -7   36.10    3.90
 -12  -1   7   51.19    5.60
  12   1   7   34.10   10.80
  12   1   7   28.30    7.20
  12  -1   7   42.70    5.60
 -12   1   7   26.80    4.60
 -12  -1  -7   39.00    3.30
  12  -1   7   19.00   12.20
 -12   2  -7    0.80    4.30
 -12  -2   7    2.00    3.60
  12   2   7   -5.30    6.10
 -12   2  -7   -1.00    2.20
  12   2   7    1.40    9.30
 -12  -2  -7    2.50    1.80
  12  -2   7   -0.70    2.90
 -12   2   7   -1.60    4.60
 -12   2   7    4.20    3.20
  12  -2   7   -6.40    9.80
  12   3   7    1.00    7.70
 -12  -3   7   -2.50    3.60
  12   3   7    3.70    7.10
 -12   3  -7   -2.60    2.70
  12  -3   7   -0.70    9.90
 -12  -3  -7    3.40    2.30
 -12   3   7   -5.90    4.10
 -12   3   7   -2.40    3.30
  12   4   7   16.60    7.60
 -12   4  -7   13.80    4.30
  12   4   7   23.90    9.50
 -12  -4   7   20.50    5.70
 -12   4   7    6.80    5.20
  12  -4   7   21.50   13.20
 -12   4   7   17.00    4.40
 -12  -4  -7   18.70    4.10
  12   5   7    2.20    7.10
 -12   5  -7   -7.20    3.60
 -12  -5   7   -1.10    5.30
  12   5   7   -2.90    8.50
 -12   5   7    3.00    4.20
 -12  -5  -7   14.20    5.00
  12  -5   7   -2.10   12.90
 -12   5   7    5.20    4.40
  12   6   7   14.40   11.30
 -12   6  -7    6.30    5.20
 -12  -6   7    7.80    7.00
 -12   6   7    7.20    5.50
  12  -6   7    1.90   14.70
 -12  -6  -7   14.60    6.10
  12   7   7  -16.40   11.90
 -12  -7   7   -9.70    9.00
 -12   7  -7    7.60    6.50
 -12  -7  -7  -10.80    7.30
 -12   7   7   -2.80    6.60
  12  -7   7   10.10   20.10
  13   0   7    6.00   10.80
 -13   0   7    1.20    3.00
 -13   0  -7   -0.70    1.90
  13   0   7    6.80    5.00
  13   1   7  133.29   17.00
 -13   1  -7  105.39    6.10
  13   1   7  120.29   12.60
 -13  -1   7  111.99    7.80
  13  -1   7  106.09    8.20
  13  -1   7   96.49   15.50
 -13   1   7  107.19    7.40
 -13  -1  -7  117.39    5.70
  13   2   7    0.90    9.60
  13   2   7    7.50    7.00
 -13   2  -7   12.30    3.30
 -13   2  -7    5.40    5.00
 -13  -2   7    0.70    3.70
 -13   2   7   10.30    5.20
 -13   2   7    8.30    3.70
  13  -2   7    4.40    3.10
  13  -2   7    2.50   10.50
 -13  -2  -7    1.10    2.20
 -13   3  -7  125.29    8.00
  13   3   7  127.89   15.70
 -13  -3   7  136.59   10.10
  13   3   7  116.49   14.90
 -13  -3  -7  132.79    7.30
 -13   3   7  136.89    9.80
 -13   3   7  123.99    9.00
  13  -3   7  133.59   20.20
  13   4   7   -8.30    8.30
  13   4   7    4.90    8.40
 -13   4  -7   -3.10    3.90
 -13  -4   7   -1.70    5.20
 -13   4   7  -11.20    5.10
 -13   4   7   -7.20    3.80
 -13  -4  -7   -2.20    3.20
  13  -4   7   11.40   13.50
  13   5   7  227.58   19.40
  13   5   7  240.78   16.90
 -13  -5   7  237.88   14.80
 -13   5  -7  248.08   12.80
 -13  -5  -7  268.47   13.30
 -13   5   7  248.08   13.60
  13  -5   7  240.08   28.50
 -13   6  -7  106.69   10.90
  13   6   7  109.19   17.80
 -13  -6   7  130.49   14.10
  13  -6   7   86.09   22.10
 -13   6   7  134.19   11.00
 -13  -6  -7  113.09   11.60
  13   7   7  123.89   19.80
 -13  -7   7  130.69   14.90
 -13   7  -7  105.89   12.00
  13  -7   7  116.49   24.40
 -13   7   7   89.29   10.80
 -13  -7  -7   95.99   11.00
 -14   0   7    2.90    3.50
  14   0   7    1.00    5.00
  14   0   7   16.20   10.80
 -14   0  -7    2.10    2.20
  14   1   7   -9.50   10.60
  14   1   7   14.70    6.40
 -14   1  -7   12.00    3.20
 -14  -1   7    8.10    3.70
  14  -1   7   -4.90   12.30
  14  -1   7   12.60    4.00
 -14   1   7    8.10    4.00
 -14  -1  -7   11.00    2.50
  14   2   7   18.80   12.30
 -14   2  -7   11.70    6.80
 -14   2  -7   37.80    4.60
  14   2   7   24.80    8.50
 -14  -2   7   26.50    5.30
 -14  -2  -7   31.80    3.70
 -14   2   7   23.10    4.90
  14  -2   7   30.20    4.10
 -14   2   7   23.40    6.70
  14  -2   7    5.80   12.50
 -14  -3   7   13.20    4.50
 -14   3  -7    8.50    3.90
  14   3   7   -4.50    9.90
  14   3   7   11.10    9.00
 -14   3   7   20.40    4.50
 -14   3   7   14.80    5.40
 -14  -3  -7   11.90    3.40
  14  -3   7   14.90   12.20
  14   4   7   55.29   12.40
 -14  -4   7   36.90    7.00
 -14   4  -7   48.50    6.30
  14   4   7   49.80   12.40
 -14   4   7   52.99    6.80
  14  -4   7   38.60   16.30
 -14   4   7   37.70    6.70
 -14  -4  -7   62.49    6.70
 -14  -5   7   19.20    7.10
  14   5   7    6.30   10.80
 -14   5  -7   15.10    4.90
  14   5   7    6.20    8.90
 -14  -5  -7   13.10    5.10
  14  -5   7   25.10   16.30
 -14   5   7   13.60    5.40
 -14  -6   7   23.80    9.60
 -14   6  -7   31.40    7.20
  14   6   7   21.20   12.40
  14  -6   7   19.40   19.00
 -14  -6  -7   34.30    7.00
 -14   6   7   27.90    7.50
  15   0   7    1.10   12.60
 -15   0   7   -0.30    3.70
 -15   0  -7    1.40    2.60
  15   0   7    6.80    5.50
  15   1   7   59.29   13.90
 -15   1  -7   66.99    5.70
 -15  -1   7   66.79    7.50
  15   1   7   68.09    9.70
  15  -1   7   53.29   14.90
 -15  -1  -7   63.29    5.50
  15  -1   7   61.09    7.90
 -15   1   7   62.99    7.10
  15   2   7  133.19   14.70
 -15  -2   7  129.89    9.10
  15   2   7  139.19   18.50
 -15   2  -7  122.59    8.00
  15  -2   7  126.09   20.10
 -15  -2  -7  154.98    7.80
 -15   2   7  145.19   13.20
  15  -2   7  151.18    7.90
 -15   2   7  119.39    9.30
  15   3   7   40.00   10.50
 -15   3  -7   40.30    5.30
 -15  -3   7   39.70    6.50
  15   3   7   38.50   13.80
 -15   3   7   32.70    5.60
 -15   3   7   52.09    7.30
 -15  -3  -7   38.50    4.80
  15  -3   7   26.80   14.00
  15   4   7  244.38   22.70
  15   4   7  246.08   21.30
 -15  -4   7  241.28   14.60
 -15   4  -7  252.17   12.60
 -15   4   7  245.38   13.20
  15  -4   7  219.78   28.80
 -15  -4  -7  259.77   12.10
  15   5   7   -1.80   10.70
 -15   5  -7    2.90    5.00
 -15  -5   7   -2.80    6.10
  15   5   7   -4.00    9.40
 -15   5   7   -5.70    4.70
  15  -5   7    0.00   16.00
 -15  -5  -7    3.20    4.90
 -15  -6   7  443.76   23.50
 -15   6  -7  410.66   19.20
  15   6   7  411.66   30.90
  15  -6   7  399.76   39.90
 -15  -6  -7  399.46   18.90
 -15   6   7  409.56   19.80
 -16   0   7   -6.50    3.90
  16   0   7    0.90   13.20
  16   0   7   -5.50    6.30
 -16   0  -7    5.10    2.80
 -16   1  -7   11.40    3.80
 -16  -1   7    7.70    4.60
  16   1   7   -6.40   13.30
  16   1   7    8.30    7.90
  16  -1   7   19.20   13.30
  16  -1   7    6.40    4.80
 -16   1   7    2.20    4.30
 -16  -1  -7    8.30    3.20
 -16  -2   7   -3.10    3.80
 -16   2  -7    0.80    3.60
  16   2   7    0.60    8.50
  16   2   7   15.50   13.10
  16  -2   7    9.40   14.40
 -16   2   7   -5.40    3.70
 -16  -2  -7   -5.70    3.00
 -16   2   7   10.20    7.80
 -16   3  -7   70.59    7.70
  16   3   7   38.20   14.80
  16   3   7   59.59   11.80
 -16  -3   7   71.69    8.50
 -16   3   7   75.49    8.30
  16  -3   7   41.20   16.60
 -16   3   7   62.29    8.30
 -16  -3  -7   60.99    6.20
 -16  -4   7   -1.40    5.60
 -16   4  -7    4.20    4.60
  16   4   7   -5.70   12.30
  16   4   7   -0.30    9.60
  16  -4   7    7.30   17.50
 -16  -4  -7   -1.80    4.30
 -16   4   7    5.90    4.90
 -16  -5   7   57.39    9.40
 -16   5  -7   43.70    7.30
  16   5   7   45.50   14.00
 -16  -5  -7   35.80    6.60
  16  -5   7   39.70   20.50
 -16   5   7   51.09    8.30
 -16  -6   7    2.90    8.90
  16   6   7   -7.30   14.10
 -16   6  -7   -6.40    6.20
 -16  -6  -7    2.30    6.70
 -16   6   7    9.00    6.90
  16  -6   7  -11.50   20.40
  17   0   7    9.30    7.00
 -17   0   7   -2.50    4.10
  17   0   7   12.90   13.90
 -17   0  -7   -1.70    3.40
 -17   1  -7    1.70    3.60
 -17  -1   7    1.80    4.20
  17   1   7    4.50    8.30
  17   1   7   -4.80   13.60
  17  -1   7   -1.60    5.10
  17  -1   7    1.80   14.50
 -17  -1  -7    3.80    3.20
 -17   1   7   -6.00    4.10
 -17  -2   7    5.70    4.60
  17   2   7    8.80    9.00
  17   2   7   11.90   14.10
 -17   2  -7    2.50    4.10
 -17   2   7   -0.60    4.40
 -17   2   7   18.70    8.30
 -17  -2  -7    3.50    3.40
  17  -2   7   -1.80   15.00
 -17   3  -7  318.17   15.00
  17   3   7  352.56   23.40
  17   3   7  375.56   30.40
 -17  -3   7  362.16   17.30
 -17   3   7  356.56   16.60
 -17   3   7  349.87   17.80
  17  -3   7  304.77   33.60
 -17  -3  -7  336.57   14.20
 -17   4  -7    0.70    4.90
  17   4   7   -3.20   13.00
  17   4   7   25.50   12.90
 -17  -4   7   -2.90    6.30
 -17  -4  -7   -6.40    4.50
 -17   4   7    6.40    5.60
  17  -4   7  -11.00   16.70
 -17  -5   7  280.67   18.40
  17   5   7  354.96   28.50
 -17   5  -7  292.97   16.20
  17  -5   7  276.37   32.60
 -17   5   7  308.07   16.60
 -17  -5  -7  305.97   15.20
  18   0   7   -3.20    7.00
 -18   0  -7   -1.80    3.50
 -18   0   7   -5.70    4.30
  18   0   7  -17.70   14.40
  18   1   7   11.70    9.00
 -18   1  -7    1.80    4.00
 -18  -1   7   -1.00    5.00
  18   1   7   19.90   15.30
  18  -1   7   -2.00    5.90
 -18   1   7    9.80    5.30
  18  -1   7   25.60   16.30
 -18  -1  -7   -1.60    3.50
 -18   2  -7    5.00    4.30
 -18  -2   7   -4.20    4.50
  18   2   7    0.20    9.60
  18   2   7   19.10   15.50
 -18   2   7    8.20    9.80
 -18   2   7    0.10    5.30
 -18  -2  -7   -9.10    3.70
  18  -2   7   -4.70   16.30
 -18   3  -7    3.10    4.70
  18   3   7   -2.90   14.20
  18   3   7    1.10   10.70
 -18  -3   7    2.10    5.30
 -18  -3  -7   -1.40    4.50
  18  -3   7   16.20   17.40
 -18   3   7    5.00    5.60
  18   4   7    2.20   12.90
 -18   4  -7   -3.70    5.40
 -18  -4   7    6.40    7.40
 -18  -4  -7   -6.70    4.90
  18  -4   7   16.10   18.90
 -18   4   7   -1.30    5.50
  19   0   7    3.90    8.60
 -19   0  -7   -5.50    3.90
 -19   0   7    1.50    5.10
  19   0   7   11.90   18.20
 -19   1  -7    4.40    4.20
 -19  -1   7   -3.60    5.00
  19   1   7   -4.40   15.80
  19   1   7    1.00    9.40
 -19  -1  -7   -0.20    4.10
  19  -1   7    2.20   17.20
 -19   1   7    0.90    4.70
 -19   2  -7  104.49    9.30
 -19  -2   7   81.09    9.30
  19   2   7  101.69   15.80
  19   2   7  112.99   20.90
  19  -2   7  128.19   25.90
 -19  -2  -7  103.39    8.80
 -19   2   7   94.09   10.00
 -19   2   7  134.29   15.50
 -19   3  -7   48.90    7.00
  19   3   7   44.50   14.90
  19   3   7   37.70   16.30
 -19  -3   7   39.80    8.20
  19  -3   7   29.70   19.50
 -19  -3  -7   41.40    6.20
 -19   3   7   50.39    8.20
 -19   4  -7   91.09    9.60
 -19  -4   7   97.59   11.70
  19   4   7   81.29   16.60
  19   4   7   65.09   17.60
 -19  -4  -7   92.59    9.90
 -19   4   7  100.39   11.20
  19  -4   7  134.39   27.70
 -20   0   7   -2.00    5.60
  20   0   7   -8.30    8.90
 -20   0  -7    2.70    4.40
  20   0   7   -6.50   17.90
 -20  -1   7    7.00    6.00
 -20   1  -7    2.30    4.30
  20   1   7  -13.40   17.40
  20   1   7   14.30   10.50
 -20  -1  -7   -5.30    4.40
 -20   1   7    4.10    5.80
  20  -1   7    3.20   18.50
  20   2   7    6.20   19.30
  20   2   7   11.50   12.00
 -20  -2   7   21.30    7.20
 -20   2  -7   -2.30    5.10
 -20   2   7    6.10    6.30
  20  -2   7   40.20   21.70
 -20  -2  -7    6.80    4.90
  20   3   7   40.80   15.30
  20   3   7   10.50   17.80
 -20  -3   7   18.30    7.20
 -20   3  -7   36.10    7.10
 -20   3   7   17.20    7.30
 -20  -3  -7   21.00    5.70
  20  -3   7   28.00   22.20
  21   0   7   -1.90   20.30
 -21   0  -7   -2.30    4.80
 -21   0   7   -3.10    6.00
  21   1   7   -2.30   19.50
  21   1   7  -14.70   10.90
 -21  -1   7   -6.30    5.90
 -21   1  -7   11.80    5.30
 -21  -1  -7    4.40    5.10
 -21   1   7   -1.70    6.50
  21  -1   7    0.80   19.80
   0   0   8 3891.31  111.29
   0   0  -8 4236.98  111.89
   0   0   8 4064.79  116.29
   0  -1  -8    0.60    0.70
   0   1   8   -3.10    2.70
   0  -1   8   -1.40    0.80
   0  -1   8    1.70    1.20
   0   1   8   -0.20    0.60
   0   2   8  584.84   23.10
   0  -2   8  595.24   18.50
   0  -2  -8  652.53   17.90
   0   2  -8  592.24   18.30
   0   2   8  607.54   18.00
   0   3   8   -1.70    4.50
   0   3   8   -2.50    1.10
   0   3  -8    1.90    1.30
   0   4  -8  833.52   25.90
   0   4   8  841.12   25.40
   0   4   8  807.32   30.30
   0   5   8   -1.70    2.40
   0   5  -8   -1.50    2.40
   0  -5   8    1.40    5.90
   0   5   8   -6.10    5.60
   0   6   8  124.39   14.40
   0   6  -8  140.19    8.70
   0   6   8  113.79    7.90
   0  -6   8  111.49   12.70
   0   7   8    1.10    4.20
   0   7  -8   -4.30    3.70
   0   7   8    5.60    8.70
   0  -7   8  -15.80    7.30
   0   8   8   18.10   10.80
   0   8   8    7.10    5.10
   0   8  -8   10.30    5.60
   0   9   8    6.40   12.20
   0   9  -8    0.40    6.30
   0   9   8   -0.30    6.70
  -1   0  -8   25.50    5.50
   1   0   8   26.60    1.30
   1   0   8   25.30    4.50
  -1   0   8   26.60    1.80
   1   0  -8   25.50    2.20
  -1   0   8   25.30    4.90
   1   0   8   25.60    1.50
   1  -1  -8  153.28    5.40
  -1  -1   8  158.58    6.40
   1   1   8  155.88    4.90
  -1   1  -8  155.98    5.30
  -1  -1   8  150.68    5.50
   1   1   8  163.18    9.30
  -1   1   8  163.38    5.40
  -1  -1  -8  162.88    4.90
   1  -1   8  153.98    5.40
  -1   1   8  144.69    8.70
   1  -1   8  148.79    9.00
  -1   2  -8    0.70    0.90
   1   2   8    5.10    4.40
   1  -2  -8   -0.20    1.00
   1   2   8    0.10    0.80
  -1   2   8    7.20    4.00
  -1   2   8   -2.50    0.90
   1  -2   8    1.20    1.40
  -1  -2  -8   -0.80    0.80
   1   2  -8    1.40    1.00
   1   3   8   34.50    2.70
   1   3   8   29.90    6.00
  -1   3  -8   37.00    3.10
  -1  -3  -8   34.80    3.20
  -1   3   8   30.90    6.10
  -1   3   8   33.80    2.90
   1   3  -8   33.40    2.80
  -1   4  -8    3.00    1.80
   1   4   8    6.50    1.90
   1   4   8    0.40    4.70
   1   4  -8    8.50    2.40
  -1   4   8    8.30    2.10
  -1   4   8    4.60    5.10
   1  -4   8   11.70    5.80
  -1   5  -8    1.20    2.70
   1   5   8   -7.50    6.10
  -1  -5   8    7.40    5.40
   1   5   8    2.40    2.40
   1  -5   8   22.20    6.40
  -1   5   8   -1.80    6.50
   1   5  -8   -2.40    2.30
  -1   5   8    2.30    2.60
  -1  -6   8   22.40    6.90
   1   6   8    7.70    3.60
  -1   6  -8    7.70    3.90
   1   6   8   11.50    7.70
   1  -6   8   20.30    7.40
  -1   6   8   11.50    4.00
  -1   6   8    5.50    7.40
   1   6  -8   14.50    3.60
  -1  -7   8   25.60    7.70
   1   7   8   19.20   10.30
   1   7   8   25.60    4.90
  -1   7  -8   22.80    4.70
  -1   7   8   26.10    9.90
   1   7  -8   21.50    5.20
   1  -7   8   21.20    8.50
  -1   7   8   24.40    5.30
  -1   8  -8   16.30    5.50
   1   8   8    7.10    4.90
   1   8   8   16.70   11.00
   1   8  -8    7.80    5.20
  -1   8   8    8.50    5.40
  -1   8   8   19.50   10.30
  -1   9  -8    3.30    6.20
   1   9   8    7.90    6.60
  -1   9   8    5.90    6.40
   1   9  -8   14.40    6.50
   2   0  -8  805.42   23.60
   2   0   8  779.42   26.60
  -2   0   8  820.52   23.30
  -2   0  -8  803.52   27.40
  -2   0   8  756.72   27.60
   2   0   8  796.42   22.00
   2   0   8  798.92   22.10
  -2  -1   8  782.42   23.30
  -2  -1   8  756.52   22.40
   2   1   8  739.23   26.70
  -2   1  -8  752.42   21.80
   2  -1  -8  782.72   22.30
   2   1   8  804.82   21.20
   2  -1   8  772.62   21.90
  -2   1   8  747.53   26.30
   2  -1   8  747.03   26.00
  -2  -1  -8  756.92   21.10
  -2   1   8  768.92   22.20
  -2  -2   8   84.09    5.50
   2   2   8  102.59    8.90
  -2   2  -8   88.89    4.10
   2  -2  -8   89.49    4.20
   2   2   8   82.09    3.40
   2  -2   8   90.69    4.40
  -2   2   8   81.89    4.10
  -2   2   8  101.59    7.60
  -2  -2  -8   95.19    3.50
   2   3   8  961.30   32.90
  -2   3  -8  919.71   27.90
   2   3   8  908.31   27.10
   2   3  -8  950.70   28.10
  -2   3   8  954.00   27.90
  -2   3   8  917.71   32.20
  -2  -3  -8  929.51   27.10
  -2   4  -8   16.40    2.80
   2   4   8   16.30    2.50
   2   4   8   10.30    6.00
   2  -4   8   18.10    6.10
  -2   4   8   17.20    2.80
  -2   4   8   20.10    5.90
   2   4  -8   17.90    3.00
  -2  -5   8   98.69   10.90
  -2   5  -8   91.99    6.40
   2   5   8   92.49    5.80
   2   5   8   66.89   10.00
   2   5  -8   96.39    6.60
   2  -5   8  109.39   12.70
  -2   5   8   81.29    6.30
  -2   5   8   82.19   10.60
   2   6   8   -9.30    7.30
   2   6   8    0.30    7.00
  -2  -6   8   -4.30    6.20
   2   6   8   -0.80    3.20
  -2   6  -8    0.30    3.20
   2  -6   8    7.30    8.20
  -2   6   8   -4.30    6.40
  -2   6   8   -4.50    3.10
   2   6  -8    1.90    3.20
   2   7   8  101.79    8.20
  -2  -7   8  106.39   11.50
   2   7   8  102.29   13.60
  -2   7  -8  109.49    9.20
   2   7  -8  106.39    8.70
   2  -7   8  111.79   13.70
  -2   7   8   97.79    8.80
  -2   7   8  123.79   15.10
   2   8   8   15.00    5.50
  -2   8  -8   23.30    6.30
   2   8   8   14.60   10.40
   2   8  -8   12.90    5.50
  -2   8   8    2.60    9.40
  -2   8   8   15.50    6.10
   3   0  -8  128.09    5.60
  -3   0  -8  118.59    8.70
   3   0   8  132.59    8.10
  -3   0   8  129.99    5.20
  -3   1  -8  229.18    7.40
  -3  -1   8  246.38    8.90
   3   1   8  232.28   12.00
   3  -1  -8  236.08    8.10
   3  -1   8  226.68   10.60
   3  -1   8  234.38    7.40
  -3   1   8  225.58   11.60
  -3   1   8  232.88    7.90
  -3  -2   8  248.28   10.10
   3   2   8  241.28    7.50
   3   2   8  250.67   13.40
  -3   2  -8  238.98    8.30
   3  -2   8  242.38   11.40
  -3   2   8  244.38    8.60
   3  -2   8  231.78    8.40
  -3   2   8  240.98   11.70
  -3  -2  -8  241.48    7.50
   3   3   8  189.88    6.80
   3   3   8  185.88   12.50
  -3   3  -8  182.88    7.50
  -3   3   8  211.48   12.10
   3  -3   8  194.78   13.60
  -3  -3  -8  185.98    6.90
  -3   3   8  182.38    7.60
   3   4   8   76.69    4.40
  -3   4  -8   85.09    5.40
   3   4   8   72.29    9.90
   3   4  -8   80.19    5.20
   3  -4   8   65.69    9.90
  -3   4   8   68.99    9.00
  -3   4   8   83.89    5.30
  -3   5  -8  181.78    9.50
   3   5   8  192.18   15.90
   3   5   8  209.78    8.70
  -3   5   8  202.78    9.50
   3   5  -8  188.58    9.40
  -3   5   8  187.18   13.40
   3  -5   8  212.98   17.00
   3   6   8    4.50    6.10
   3   6   8    9.60    3.20
  -3   6  -8   11.30    4.30
   3   6   8   16.10    8.60
  -3  -6   8    3.40    6.20
  -3   6   8   11.80    4.20
   3   6  -8    6.80    3.80
  -3   6   8    8.30    6.80
   3  -6   8   18.30    9.10
  -3   7  -8    8.60    4.60
   3   7   8    6.60    3.80
   3   7   8   -0.40    8.20
   3   7  -8    3.60    4.10
   3  -7   8   -7.20   10.50
  -3   7   8    1.30    4.30
  -3   7   8   -7.90    7.80
   3   8   8    2.10   11.10
   3   8   8    5.60    4.70
  -3   8  -8    2.50    5.30
   3  -8   8   -3.90   13.00
  -3   8   8    6.50   10.40
  -3   8   8    5.90    5.60
   3   8  -8    2.40    4.60
   4   0   8 2089.39   57.39
  -4   0   8 2096.79   59.29
   4   0   8 2129.69   62.99
   4   1   8 2341.17   70.69
  -4  -1   8 2449.55   67.29
  -4   1  -8 2359.16   69.89
  -4   1  -8 2294.57   65.39
   4  -1   8 2506.45   69.39
  -4   1   8 2404.86   70.99
  -4   1   8 2232.88   66.19
   4  -1   8 2385.16   65.39
  -4   2  -8  349.37   11.50
   4   2   8  352.06   10.60
   4   2   8  340.47   15.90
  -4  -2   8  363.06   13.50
   4  -2   8  357.86   11.60
  -4   2   8  355.36   11.90
  -4   2   8  356.16   15.20
   4  -2   8  373.66   14.50
   4  -2   8  357.96   18.70
  -4  -2  -8  372.06   10.80
   4   3   8 1684.63   53.79
  -4   3  -8 1625.64   48.00
   4   3   8 1671.43   47.10
  -4  -3   8 1699.93   51.39
  -4  -3  -8 1668.83   47.20
   4  -3   8 1702.63   56.39
  -4   3   8 1659.83   48.30
  -4   3   8 1696.23   52.79
   4   4   8  633.84   19.50
  -4   4  -8  635.34   20.60
   4   4   8  560.44   25.80
   4  -4   8  602.64   28.60
  -4   4   8  644.14   24.40
  -4   4   8  678.23   20.90
   4   5   8  106.69   13.80
  -4   5  -8  108.59    7.20
   4   5   8  100.29    5.90
  -4   5   8  103.09   10.90
   4  -5   8  120.49   15.20
  -4   5   8   95.99    7.10
   4   5  -8   88.39    6.70
   4   6   8   27.30    8.80
  -4   6  -8   25.30    5.20
   4   6   8   22.40    3.70
  -4  -6   8   22.40    6.50
  -4   6   8   33.10    8.10
   4   6  -8   23.20    4.40
  -4   6   8   20.20    4.90
   4  -6   8   20.40   10.90
  -4   7  -8   75.19    7.80
   4   7   8   60.29   13.10
   4   7   8   56.69    6.20
  -4   7   8   69.39   10.70
  -4   7   8   76.99    7.90
   4  -7   8   64.69   13.60
   4   7  -8   70.79    7.90
  -4   8  -8   31.80    6.40
   4   8   8   23.20   12.20
   4   8   8   24.40    5.60
  -4   8   8   30.90    7.20
   4   8  -8   23.90    6.30
  -4   8   8   20.50   10.50
   4  -8   8   19.90   12.20
   5   0   8    5.20    3.50
   5   0   8    0.00    0.60
  -5   0  -8    0.30    0.60
  -5   0   8    1.90    1.20
   5   1   8   24.30    5.70
  -5   1  -8   22.50    1.80
  -5  -1   8   24.50    2.80
  -5   1  -8   19.70    4.50
  -5   1   8   21.90    2.40
  -5  -1  -8   22.70    1.20
   5  -1   8   28.80    7.00
   5  -1   8   21.50    1.80
  -5   1   8   15.10    4.10
   5  -1   8   26.70    3.90
  -5  -2   8   24.40    3.40
   5   2   8   24.00    5.30
  -5   2  -8   27.80    2.60
  -5  -2  -8   29.70    2.10
   5  -2   8   23.70    6.60
  -5   2   8   33.30    3.00
   5  -2   8   27.10    4.00
   5  -2   8   27.30    3.00
  -5   2   8   27.20    4.90
  -5  -2  -8   25.90    2.30
   5   3   8   38.60    7.40
   5   3   8   43.40    2.70
  -5  -3   8   46.80    5.20
  -5   3  -8   41.30    3.50
   5  -3   8   66.69    6.00
  -5  -3  -8   43.10    3.40
  -5   3   8   52.59    4.20
   5  -3   8   51.99   10.40
  -5   3   8   41.90    6.20
   5   4   8   22.10    2.50
  -5  -4   8   20.90    5.00
  -5   4  -8   24.50    3.50
   5   4   8   25.20    8.20
  -5   4   8   30.60    4.00
   5  -4   8   31.70    9.10
   5  -4   8   20.10    4.60
  -5   4   8   28.80    6.30
  -5  -5   8  139.99   11.80
   5   5   8  136.99   15.10
   5   5   8  175.78    7.40
  -5   5  -8  145.69    8.70
   5  -5   8  159.38   18.70
  -5   5   8  149.88    9.00
  -5   5   8  151.28   11.90
   5   6   8    7.50    4.70
  -5  -6   8    8.90    5.70
   5   6   8    6.30    3.10
   5   6   8   23.00    9.30
  -5   6  -8   17.20    4.30
   5  -6   8   10.60   10.30
  -5   6   8    4.60    4.00
  -5   6   8   10.10    6.70
  -5   7  -8    1.50    4.40
   5   7   8   15.60   10.80
   5   7   8   -1.90    3.60
   5  -7   8   -5.50   12.40
   5   7  -8    4.80    4.40
  -5   7   8    9.70    7.50
  -5   7   8    0.10    5.10
  -5   8  -8    2.90    6.10
   5   8   8   -0.50    4.60
   5   8   8   -6.70   11.50
   5   8  -8    7.10    4.80
   5  -8   8   19.80   14.00
  -5   8   8    0.60    9.10
  -5   8   8    8.90    6.00
  -6   0  -8 3304.07   91.39
   6   0   8 3451.75  101.39
   6   0   8 3403.46   91.49
  -6   0   8 3218.48   93.29
   6   0   8 3317.67   96.49
  -6   1  -8  701.63   24.20
  -6   1  -8  687.43   20.20
  -6  -1   8  675.53   21.90
   6   1   8  681.43   25.00
   6  -1   8  714.33   28.80
  -6  -1  -8  699.03   19.40
   6  -1   8  715.43   20.10
  -6   1   8  680.13   21.30
  -6  -1  -8  693.33   19.50
   6  -1   8  678.73   23.90
  -6   1   8  666.03   25.40
   6   2   8  475.45   20.30
  -6   2  -8  486.15   15.10
  -6  -2   8  500.65   17.20
  -6  -2  -8  493.85   14.60
  -6   2   8  476.45   15.70
  -6  -2  -8  483.75   14.20
   6  -2   8  441.06   23.70
   6  -2   8  458.25   16.90
  -6   2   8  468.15   18.80
  -6  -3   8  102.69    7.80
   6   3   8  102.29   10.60
  -6   3  -8   91.19    5.20
  -6   3   8  110.29    8.40
  -6   3   8   92.99    5.70
  -6  -3  -8   97.39    4.90
  -6  -3  -8   94.79    5.50
   6  -3   8   81.69   11.40
   6  -3   8   84.29    6.40
   6   4   8  847.72   30.40
  -6   4  -8  849.32   26.80
   6   4   8  841.82   25.30
   6   4   8  814.72   33.20
  -6  -4   8  867.31   30.30
   6  -4   8  860.71   27.80
   6  -4   8  805.42   36.80
  -6   4   8  855.81   27.10
   6  -4   8  833.72   26.70
  -6   4   8  859.51   30.20
   6   5   8   58.79    4.40
  -6  -5   8   36.10    7.70
  -6   5  -8   37.80    5.00
   6   5   8   49.50    9.80
   6  -5   8   29.20   11.20
  -6   5   8   38.50    5.40
   6  -5   8   46.00    6.60
  -6   5   8   49.10    7.30
  -6   6  -8   56.69    6.60
   6   6   8   34.80   10.10
   6   6   8   53.49    5.70
  -6  -6   8   19.40    8.00
  -6  -6   8   43.70    6.50
   6  -6   8   51.69   13.30
  -6   6   8   46.10    8.60
  -6   6   8   46.30    6.30
   6   7   8    2.60    9.10
  -6   7  -8   -0.50    4.80
  -6  -7   8    0.10    8.50
   6   7   8    5.10    3.70
   6  -7   8  -10.10   12.90
  -6   7   8    9.30    7.20
  -6  -8   8  -10.00   10.90
   6   8   8    1.10   13.00
  -6   8  -8   10.70    6.30
   6   8   8    3.70    4.70
  -6   8   8   10.60    9.20
   6  -8   8    6.60   14.30
  -6   8   8    0.40    6.00
  -7   0   8   40.30    3.40
   7   0   8   39.60    2.50
   7   0   8   38.40    5.60
   7   0   8   41.20    8.10
  -7   0  -8   36.80    2.10
  -7   1  -8  239.98    8.00
  -7   1  -8  210.58   11.90
   7   1   8  224.48   12.40
   7   1   8  242.18   15.00
  -7  -1   8  233.08    9.50
   7  -1   8  238.88   11.50
   7  -1   8  238.58    7.90
   7  -1   8  234.38   16.80
  -7   1   8  239.78    9.10
  -7  -1  -8  242.98    7.40
  -7   2  -8   11.60    2.00
  -7  -2   8   11.30    2.80
   7   2   8   18.00    5.60
   7   2   8   10.70    5.70
  -7  -2  -8   18.20    2.10
  -7   2   8   19.80    2.90
  -7   2   8   25.10    4.90
   7  -2   8   22.90    4.20
   7  -2   8   17.70    8.20
  -7  -2  -8   20.70    2.10
  -7  -3   8  236.08   11.30
  -7   3  -8  205.88    8.70
   7   3   8  219.28   13.90
   7   3   8  215.28   15.10
  -7   3   8  220.78   11.70
   7  -3   8  230.28    9.80
  -7   3   8  220.18    9.60
  -7  -3  -8  213.18    8.80
   7  -3   8  218.58   18.20
  -7  -4   8    5.10    4.10
  -7   4  -8   -2.70    2.70
   7   4   8   -2.40    6.60
   7   4   8    0.10    5.60
   7  -4   8    3.50    3.10
   7  -4   8    5.30    9.70
  -7  -4  -8    3.10    2.80
  -7   4   8    3.90    5.20
  -7   4   8    1.30    3.00
   7  -4   8   11.50    3.20
   7   5   8  361.86   20.90
  -7  -5   8  342.67   18.10
  -7   5  -8  328.87   14.10
  -7   5   8  313.57   15.40
   7  -5   8  343.87   14.00
   7  -5   8  331.97   24.90
   7  -5   8  357.76   13.40
  -7   5   8  334.57   14.40
   7   6   8    7.70    3.10
  -7  -6   8    1.70    6.90
   7   6   8    7.20    8.90
  -7   6  -8    8.30    4.40
  -7   6   8   13.10    5.00
   7  -6   8    9.40   11.90
  -7   6   8    9.60    6.10
   7  -6   8   15.20    5.20
   7   7   8   53.49   13.60
  -7  -7   8   19.40   10.10
   7   7   8   27.20    5.00
  -7   7  -8   36.40    6.50
  -7   7   8   30.20    6.20
   7  -7   8   30.60   14.90
  -7   7   8   36.70    8.50
  -7   8  -8    4.40    6.40
  -7  -8   8   -3.10   10.30
   7   8   8    0.70    4.80
   7   8   8   -0.90   12.80
  -7   8   8   -0.10    8.80
  -7   8   8   14.90    6.70
   7  -8   8    3.20   15.20
   8   0   8 1411.36   44.80
   8   0   8 1450.55   40.60
  -8   0  -8 1450.15   40.30
  -8   0   8 1456.45   42.40
   8   0   8 1406.86   50.89
  -8   1  -8 1055.39   29.90
  -8   1  -8 1007.80   33.40
   8   1   8  995.10   34.90
   8   1   8 1006.70   38.60
   8   1   8 1028.10   30.30
  -8  -1   8 1035.60   31.80
  -8  -1  -8 1033.60   29.20
   8  -1   8 1055.79   41.10
   8  -1   8 1069.39   29.90
   8  -1   8 1048.70   33.00
  -8   1   8 1009.40   31.10
   8   2   8  377.76   18.30
   8   2   8  441.76   20.80
  -8   2  -8  401.56   13.30
  -8  -2   8  402.46   15.50
  -8   2   8  402.56   14.30
   8  -2   8  381.76   23.40
   8  -2   8  393.26   15.20
  -8   2   8  406.46   17.40
  -8  -2  -8  411.56   12.70
  -8  -2  -8  406.36   12.50
   8   3   8  441.76   21.40
   8   3   8  451.35   21.50
  -8   3  -8  472.65   15.60
  -8  -3   8  451.65   17.70
  -8  -3  -8  490.25   15.30
  -8   3   8  506.85   18.90
   8  -3   8  485.55   16.20
   8  -3   8  374.56   26.20
  -8   3   8  381.76   15.70
   8   4   8  419.86   19.60
   8   4   8  370.86   21.10
  -8  -4   8  393.36   18.00
  -8  -4  -8  382.76   14.80
  -8   4   8  364.46   15.30
  -8   4   8  422.06   18.00
   8  -4   8  394.76   26.80
   8  -4   8  394.56   13.40
   8  -4   8  411.76   13.90
  -8   5  -8   97.49    7.40
  -8  -5   8  110.79   11.40
   8   5   8  109.19   11.60
   8   5   8   86.39   13.00
   8  -5   8  117.59    6.60
   8  -5   8  101.99    6.40
  -8   5   8   89.39    8.00
  -8   5   8   97.79    9.00
   8  -5   8   88.99   15.90
  -8  -5  -8   94.59    9.00
   8   6   8  115.99   16.10
  -8  -6   8  105.49   12.00
  -8   6  -8  116.89    9.10
  -8  -6  -8  104.69   12.10
  -8   6   8  114.79   11.10
   8  -6   8  105.89   18.10
  -8   6   8  118.89    9.50
   8   7   8   17.10   11.20
  -8  -7   8   31.40   10.10
  -8   7  -8   31.20    6.30
   8  -7   8    5.10   14.90
  -8   7   8   20.40    6.60
  -8   7   8   30.30    8.40
  -8   8  -8   11.70    6.20
  -8  -8   8   12.20   11.90
   8   8   8   -2.00   12.60
  -8   8   8    2.50    7.30
   8  -8   8   -9.20   15.70
  -9   0   8    4.90    2.10
   9   0   8  -13.60    5.90
   9   0   8    0.80    1.70
  -9   0  -8    1.30    1.10
   9   0   8    1.50    3.70
  -9   1  -8   45.00    3.30
  -9  -1   8   47.30    4.70
   9   1   8   34.60    8.60
   9   1   8   45.70    4.30
   9   1   8   43.80    6.80
   9  -1   8   47.20    6.20
   9  -1   8   41.50   10.60
  -9  -1  -8   40.50    2.60
  -9   1   8   50.19    4.60
  -9  -2   8   -3.30    2.30
  -9   2  -8    1.40    1.70
   9   2   8   -2.50    5.10
   9   2   8   -7.30    5.70
   9  -2   8   10.20    8.80
  -9   2   8    4.70    4.10
   9  -2   8    0.30    2.80
  -9  -2  -8    2.30    1.60
  -9  -2  -8    1.00    1.30
  -9   2   8   -1.30    2.20
  -9  -3   8   16.30    4.20
  -9   3  -8   13.60    2.80
   9   3   8   15.50    6.70
   9  -3   8   -1.40   10.00
  -9   3   8   14.10    4.50
  -9  -3  -8   15.20    2.50
  -9   3   8   19.40    3.80
   9  -3   8   17.40    2.70
  -9  -4   8   -2.30    4.00
  -9   4  -8    5.90    3.00
   9   4   8    1.70    5.90
   9   4   8    0.10    6.60
  -9  -4  -8    2.20    2.70
   9  -4   8    1.90    2.20
   9  -4   8    7.30   11.00
  -9   4   8    0.80    5.10
  -9   4   8    0.90    3.60
   9  -4   8    3.90    2.00
   9   5   8   27.20    6.70
   9   5   8   17.40    8.60
  -9   5  -8   15.50    4.30
  -9  -5   8   17.00    6.10
  -9  -5  -8   23.30    5.20
   9  -5   8   18.00   12.40
  -9   5   8   13.00    4.90
  -9   5   8   21.90    5.20
   9   6   8    8.10    9.70
  -9   6  -8    5.10    4.60
  -9  -6   8   -8.90    7.30
  -9  -6  -8   -2.80    5.80
  -9   6   8    7.60    4.60
   9  -6   8    5.40   14.10
  -9   6   8    5.60    5.50
  -9   7  -8   -3.10    5.40
  -9  -7   8   -8.10    9.30
   9   7   8   18.30   10.90
  -9   7   8   -5.70    5.20
  -9  -7  -8   -1.40    7.30
  -9   7   8   12.40    6.80
   9  -7   8    5.00   14.80
  -9   8  -8   -5.10    7.00
   9   8   8   17.50   13.80
  -9  -8   8   37.30   13.40
  -9   8   8    6.80    6.70
  -9  -8  -8   -4.00   10.00
   9  -8   8    6.30   17.60
  10   0   8  489.25   17.20
 -10   0   8  596.34   19.10
 -10   0  -8  549.95   16.70
  10   0   8  544.05   21.30
  10   0   8  585.54   28.60
 -10  -1   8  448.26   16.20
 -10   1  -8  442.16   14.10
  10   1   8  429.36   15.10
  10   1   8  455.35   24.50
  10   1   8  446.96   19.60
  10  -1   8  433.76   16.90
 -10  -1  -8  429.86   13.50
  10  -1   8  395.76   26.20
  10   2   8  413.26   23.20
  10   2   8  403.46   19.70
 -10   2  -8  410.56   13.90
 -10  -2   8  404.26   15.90
 -10   2   8  416.26   18.30
 -10  -2  -8  419.66   13.20
  10  -2   8  347.37   25.80
  10  -2   8  420.06   15.10
 -10   2   8  397.46   14.90
  10   3   8  364.86   20.90
  10   3   8  366.66   20.50
 -10   3  -8  371.46   13.60
 -10  -3   8  348.57   15.80
  10  -3   8  377.36   12.50
 -10  -3  -8  379.66   12.80
 -10   3   8  354.56   14.50
  10  -3   8  329.67   25.30
 -10   3   8  370.46   16.20
  10   4   8  152.98   16.00
 -10   4  -8  157.18    8.60
 -10  -4   8  141.99   11.10
  10   4   8  154.68   14.90
 -10  -4  -8  142.89    8.00
  10  -4   8  123.19   17.90
 -10   4   8  152.28   11.10
 -10   4   8  150.68    9.30
 -10  -5   8   91.59   10.40
  10   5   8   96.09   10.00
  10   5   8   75.59   12.70
 -10   5  -8   84.99    7.80
 -10   5   8   78.59    8.10
 -10   5   8  105.09    9.00
  10  -5   8   75.69   17.00
 -10  -5  -8   70.79    8.20
  10   6   8   10.00   10.70
 -10   6  -8   11.20    5.00
 -10  -6   8    6.00    7.90
  10  -6   8  -18.30   13.30
 -10   6   8   -0.90    4.50
 -10   6   8   21.40    5.60
 -10  -6  -8   -1.20    5.70
  10   7   8   69.19   15.70
 -10   7  -8   53.29    7.60
 -10  -7   8   48.50   11.60
 -10  -7  -8   50.69    9.00
 -10   7   8   48.20    8.50
  10  -7   8   40.70   16.90
  11   0   8   40.80   11.60
 -11   0   8   49.99    4.80
 -11   0  -8   47.60    3.20
  11   0   8   43.50    6.50
 -11   1  -8   22.60    2.70
  11   1   8   10.80    9.70
 -11  -1   8   18.10    3.40
  11   1   8   18.60    5.70
  11  -1   8   11.20    9.20
 -11   1   8   24.20    4.00
 -11  -1  -8   23.30    2.60
  11  -1   8   30.50    4.80
 -11  -2   8   22.00    4.20
 -11   2  -8   24.10    5.50
  11   2   8   33.80    7.70
 -11   2  -8   17.60    3.10
  11   2   8   26.70   10.00
 -11   2   8   18.30    5.40
 -11   2   8   18.30    3.80
  11  -2   8   21.90    4.20
 -11  -2  -8   23.20    2.50
  11  -2   8   37.50   13.60
 -11   3  -8   13.90    3.30
  11   3   8    8.70    8.10
 -11  -3   8    7.30    4.20
  11   3   8   14.00    7.90
 -11   3   8    6.30    3.50
  11  -3   8   13.20    2.50
 -11  -3  -8    9.60    2.20
  11  -3   8   12.40   11.60
 -11   3   8   19.20    5.20
 -11   4  -8    3.50    3.60
  11   4   8    4.60    7.00
 -11  -4   8   -1.80    4.30
  11   4   8   -0.40    8.40
 -11   4   8    2.30    3.80
 -11  -4  -8   -3.60    2.60
  11  -4   8  -13.20   11.30
 -11  -5   8    4.70    6.30
 -11   5  -8    4.00    3.90
  11   5   8   20.80    7.60
  11   5   8   -6.50    8.30
 -11   5   8    4.10    3.80
 -11   5   8   14.70    4.80
  11  -5   8    4.90   13.80
 -11  -5  -8   20.30    4.40
  11   6   8    5.10   10.60
 -11   6  -8    0.60    4.70
 -11  -6   8   -4.30    7.90
 -11  -6  -8   -5.40    5.50
 -11   6   8    4.10    5.40
  11  -6   8    1.70   14.50
 -11   6   8    3.60    5.20
  11   7   8   -1.70   12.70
 -11   7  -8   -1.30    5.90
 -11  -7   8   10.40   10.10
  11  -7   8   19.00   17.10
 -11  -7  -8    4.00    7.50
 -11   7   8    8.80    6.50
 -12   0   8  159.98    8.80
 -12   0  -8  170.58    6.80
  12   0   8  174.58   11.70
  12   0   8  137.89   17.80
 -12  -1   8    8.20    3.20
 -12   1  -8    4.20    1.90
  12   1   8    2.20    6.00
  12   1   8   11.70   10.00
 -12   1   8   12.40    3.40
  12  -1   8   20.60   10.80
  12  -1   8   17.50    4.50
 -12  -1  -8    9.10    1.80
 -12  -2   8  202.98   10.90
 -12   2  -8  222.28    9.20
  12   2   8  229.38   20.40
  12   2   8  186.08   15.50
 -12   2  -8  208.68   12.00
 -12   2   8  208.38   13.30
 -12   2   8  223.18   10.50
 -12  -2  -8  222.38    8.40
  12  -2   8  216.38   21.80
  12  -2   8  220.58   10.00
  12   3   8   -6.50    8.50
  12   3   8    7.80    7.50
 -12   3  -8    3.00    2.90
 -12  -3   8   -4.90    3.40
 -12   3   8   -3.80    3.10
 -12  -3  -8    3.80    2.30
 -12   3   8   -1.40    4.60
  12  -3   8   11.60   11.70
  12   4   8  133.29   14.10
 -12  -4   8  134.69   10.20
  12   4   8  101.19   14.10
 -12   4  -8  119.99    8.40
  12  -4   8  106.19   18.90
 -12   4   8  131.19    9.20
 -12   4   8  103.39   10.20
 -12  -4  -8  129.29    8.00
 -12   5  -8   30.50    5.90
  12   5   8   24.00   10.30
 -12  -5   8   39.20    8.30
  12   5   8   29.60    8.50
 -12  -5  -8   32.50    5.50
  12  -5   8   29.40   15.50
 -12   5   8   28.80    5.60
 -12   5   8   38.50    5.90
 -12  -6   8   84.19   11.60
 -12   6  -8   63.19    7.80
  12   6   8   58.59   14.60
 -12  -6  -8   67.19    8.50
  12  -6   8   85.19   18.20
 -12   6   8   65.19    8.50
 -12  -7   8    8.10   10.10
 -12   7  -8   18.40    6.70
  12   7   8   16.60   14.00
 -12  -7  -8   12.00    7.50
  12  -7   8   18.30   19.10
 -12   7   8   14.10    7.20
 -13   0   8   67.79    6.60
  13   0   8   56.19   14.90
  13   0   8   62.69    8.20
 -13   0  -8   55.89    4.00
 -13  -1   8   32.50    4.80
  13   1   8   24.80   12.10
  13   1   8   50.79    8.90
 -13   1  -8   43.00    4.30
 -13  -1  -8   43.00    3.60
 -13   1   8   51.09    5.80
  13  -1   8   43.40   12.50
  13  -1   8   59.59    7.40
  13   2   8  110.89   15.20
  13   2   8  100.19   13.10
 -13   2  -8   89.79    6.30
 -13   2  -8   83.99    8.30
 -13  -2   8   97.99    7.90
  13  -2   8  105.79   17.70
 -13   2   8  100.89   11.00
 -13   2   8   93.09    7.70
 -13  -2  -8   94.59    5.30
  13  -2   8  110.89    7.10
  13   3   8   40.30   11.50
  13   3   8   33.10   10.30
 -13   3  -8   32.80    4.70
 -13  -3   8   32.80    6.00
  13  -3   8   25.70   13.60
 -13   3   8   29.40    6.50
 -13  -3  -8   29.10    3.70
 -13   3   8   38.10    5.60
 -13  -4   8  117.79   11.00
  13   4   8  139.79   16.50
 -13   4  -8  135.19    9.00
  13   4   8  164.08   18.40
 -13   4   8  121.09   11.40
 -13  -4  -8  111.49    7.90
 -13   4   8  134.79    9.70
  13  -4   8   91.49   17.60
  13   5   8    6.10    9.60
 -13  -5   8    5.50    6.40
  13   5   8    4.70    8.50
 -13   5  -8    9.50    4.80
 -13   5   8   14.10    5.20
 -13  -5  -8    6.50    4.50
 -13   5   8    7.20    5.40
  13  -5   8    6.20   14.90
  13   6   8   95.39   16.10
 -13   6  -8   75.19    9.10
 -13  -6   8   83.79   11.50
 -13  -6  -8   75.19    8.80
  13  -6   8   82.09   22.20
 -13   6   8   70.69    9.00
  13   7   8   27.90   14.30
 -13  -7   8    9.90   10.00
 -13   7  -8   26.30    8.10
 -13   7   8   22.30    8.20
  13  -7   8   16.30   20.70
 -13  -7  -8   18.00    8.20
  14   0   8  110.19   10.90
  14   0   8   99.59   17.40
 -14   0   8  116.19    8.50
 -14   0  -8  113.59    6.00
 -14  -1   8  629.04   22.30
  14   1   8  592.34   26.10
 -14   1  -8  615.74   20.10
  14   1   8  611.64   34.60
  14  -1   8  623.54   22.70
  14  -1   8  547.65   34.70
 -14  -1  -8  643.64   19.60
 -14   1   8  614.04   21.90
 -14  -2   8  146.89    9.50
 -14   2  -8  151.18    7.90
  14   2   8  119.69   17.20
  14   2   8  114.29   14.50
  14  -2   8  116.09   18.40
 -14   2   8  167.18   13.60
 -14   2   8  144.89    9.10
  14  -2   8  152.88    8.50
 -14  -2  -8  148.69    7.20
 -14  -3   8  286.47   14.50
  14   3   8  292.37   24.30
 -14   3  -8  288.87   12.70
  14   3   8  283.37   20.40
 -14   3   8  287.57   15.10
  14  -3   8  277.17   28.50
 -14   3   8  306.57   14.00
 -14  -3  -8  296.97   11.60
 -14  -4   8   -1.00    4.90
 -14   4  -8    5.30    4.10
  14   4   8   20.20   10.50
  14   4   8    4.90   10.40
  14  -4   8   21.70   14.70
 -14   4   8    0.80    4.80
 -14   4   8  -13.30    5.90
 -14  -4  -8   -3.80    3.40
 -14   5  -8  148.29   10.30
  14   5   8  190.18   21.00
 -14  -5   8  150.78   12.90
 -14  -5  -8  135.39   10.60
  14  -5   8  142.09   23.60
 -14   5   8  145.29   11.10
  14   6   8    6.50   13.10
 -14  -6   8  -10.40    8.30
 -14   6  -8    4.80    5.70
  14  -6   8  -15.80   18.60
 -14   6   8  -10.80    6.10
 -14  -6  -8    2.60    5.70
  15   0   8    9.50   12.20
  15   0   8   -3.50    6.00
 -15   0  -8    0.00    2.60
 -15   0   8    3.30    3.90
 -15  -1   8   16.80    4.90
  15   1   8    8.60   12.50
 -15   1  -8   12.00    3.20
  15   1   8   23.00    8.10
  15  -1   8   40.90   15.70
 -15   1   8   16.50    4.10
 -15  -1  -8   12.10    3.00
  15  -1   8   21.00    5.30
 -15  -2   8    4.90    4.50
  15   2   8   22.90   12.90
 -15   2  -8    1.90    3.50
  15   2   8   10.60    8.70
 -15  -2  -8    7.20    2.90
 -15   2   8    7.00    3.90
 -15   2   8   12.70    7.10
  15  -2   8    1.90    4.00
  15  -2   8  -18.30   12.00
 -15  -3   8    4.30    4.50
  15   3   8   13.20   13.30
  15   3   8    1.70    9.10
 -15   3  -8    3.20    4.00
 -15   3   8    6.00    4.70
  15  -3   8   -2.60   13.20
 -15  -3  -8    5.90    3.20
 -15   3   8    5.10    6.20
 -15  -4   8   27.90    7.10
  15   4   8   40.90   11.70
  15   4   8   27.90   12.30
 -15   4  -8   22.50    5.10
  15  -4   8   15.80   16.00
 -15  -4  -8   35.00    5.10
 -15   4   8    6.20    6.80
 -15   4   8   27.10    5.80
  15   5   8    1.00   11.40
 -15  -5   8   24.10    8.00
  15   5   8   -8.40   11.70
 -15   5  -8    4.60    5.20
 -15   5   8    2.00    5.60
 -15  -5  -8    5.10    5.00
  15  -5   8   18.80   17.80
 -15   6  -8   12.50    6.40
  15   6   8    3.50   13.00
 -15  -6   8   10.90    8.60
  15  -6   8   -3.90   21.20
 -15   6   8   22.40    6.90
 -15  -6  -8    8.80    6.60
  16   0   8  989.50   34.50
  16   0   8  865.11   45.10
 -16   0   8  929.91   31.20
 -16   0  -8  884.31   28.40
 -16   1  -8  606.44   20.30
 -16  -1   8  603.54   22.60
  16   1   8  600.84   27.20
  16   1   8  586.84   37.20
  16  -1   8  635.64   38.20
 -16   1   8  566.84   22.00
  16  -1   8  615.64   23.10
 -16   2  -8  621.74   21.50
 -16  -2   8  632.84   23.60
  16   2   8  582.44   28.60
  16   2   8  530.45   36.40
  16  -2   8  635.34   21.10
 -16  -2  -8  624.54   20.50
 -16   2   8  606.24   22.90
 -16   2   8  679.73   28.10
  16  -2   8  605.74   40.10
  16   3   8  331.97   22.50
  16   3   8  330.87   28.80
 -16   3  -8  270.27   13.30
 -16  -3   8  281.27   15.40
 -16   3   8  296.47   15.00
 -16  -3  -8  302.97   12.50
 -16   3   8  298.27   16.60
  16  -3   8  245.28   31.90
  16   4   8  439.76   30.00
 -16   4  -8  386.86   16.90
  16   4   8  404.36   26.70
 -16  -4   8  384.46   19.30
 -16  -4  -8  413.06   16.10
  16  -4   8  376.96   35.30
 -16   4   8  406.46   18.10
  16   5   8  113.29   18.50
 -16   5  -8  110.69   10.90
 -16  -5   8  113.39   12.20
  16  -5   8  130.29   25.10
 -16   5   8  103.29   11.00
 -16  -5  -8  101.99   10.00
 -17   0   8    6.10    4.10
  17   0   8  -15.00   13.70
 -17   0  -8    3.60    3.30
  17   0   8   -1.20    7.40
  17   1   8   85.39   12.10
 -17   1  -8   71.99    6.80
 -17  -1   8   59.49    7.20
  17   1   8   58.29   17.60
 -17  -1  -8   68.59    6.30
  17  -1   8   80.09   19.70
  17  -1   8   83.59   10.30
 -17   1   8   76.19    7.80
 -17  -2   8   -2.60    4.20
  17   2   8   13.60    9.90
 -17   2  -8    6.40    4.10
  17   2   8   -7.50   13.10
  17  -2   8   -0.30   16.40
 -17   2   8    5.40    9.70
 -17   2   8   -1.40    4.70
 -17  -2  -8   -4.90    3.40
  17   3   8   65.09   13.60
 -17  -3   8   50.89    8.00
 -17   3  -8   37.90    5.70
  17   3   8   15.50   14.30
 -17   3   8   40.10    6.90
 -17   3   8   33.70    8.40
 -17  -3  -8   36.20    5.30
  17  -3   8   28.60   18.60
  17   4   8    5.80   14.70
 -17   4  -8   13.30    5.50
 -17  -4   8    7.60    6.30
  17   4   8   17.20   12.80
 -17  -4  -8   17.20    5.00
 -17   4   8   18.50    5.80
  17  -4   8    9.40   18.50
 -17  -5   8   20.00    7.80
 -17   5  -8    9.40    6.30
  17   5   8   19.30   14.00
 -17   5   8    4.00    6.30
  17  -5   8   -0.60   20.70
 -17  -5  -8    5.50    5.60
  18   0   8  313.57   18.80
  18   0   8  287.77   31.20
 -18   0   8  281.37   14.60
 -18   0  -8  290.97   12.50
 -18  -1   8   45.60    7.30
  18   1   8   44.80   11.00
 -18   1  -8   30.70    5.00
  18   1   8   52.09   17.70
  18  -1   8   40.40    7.50
  18  -1   8   31.50   18.40
 -18   1   8   29.60    6.10
 -18  -1  -8   33.10    4.80
  18   2   8  413.56   33.40
  18   2   8  392.56   24.30
 -18   2  -8  351.16   15.40
 -18  -2   8  341.27   17.30
  18  -2   8  348.27   35.00
 -18  -2  -8  370.56   14.70
 -18   2   8  416.96   23.80
 -18   2   8  359.86   17.30
  18   3   8    5.80   11.20
 -18   3  -8    3.20    4.60
  18   3   8   -5.20   15.70
 -18  -3   8    5.00    6.00
 -18  -3  -8    2.30    4.40
 -18   3   8    3.20    5.60
  18  -3   8    8.10   18.80
  18   4   8  114.89   19.10
 -18   4  -8   89.69    9.10
 -18  -4   8   91.99   10.80
  18   4   8   79.49   16.90
  18  -4   8   53.79   23.20
 -18   4   8   95.89   10.20
 -18  -4  -8  103.19    9.20
 -19   0  -8  200.88   10.70
  19   0   8  225.28   18.20
  19   0   8  206.78   27.80
 -19   0   8  196.18   12.50
 -19   1  -8    9.00    4.60
 -19  -1   8    1.20    5.10
  19   1   8   23.30   17.30
  19   1   8   22.70   11.00
 -19   1   8    2.80    5.90
 -19  -1  -8    9.60    4.40
  19  -1   8   18.90   18.50
 -19  -2   8  112.59   11.60
  19   2   8  140.59   16.70
 -19   2  -8  108.39    9.30
  19   2   8  111.19   22.40
  19  -2   8   99.29   22.90
 -19   2   8  131.09   14.60
 -19   2   8   98.29   11.40
 -19  -2  -8  121.39    9.10
 -19   3  -8   13.60    5.70
 -19  -3   8   22.10    7.10
  19   3   8   18.00   13.60
  19   3   8   -6.50   16.70
 -19  -3  -8    1.60    4.60
 -19   3   8   15.90    6.90
  19  -3   8  -16.40   18.80
  19   4   8   25.80   14.80
  19   4   8   12.70   15.50
 -19   4  -8   31.20    7.00
 -19  -4   8   30.30    9.30
 -19  -4  -8   25.60    6.00
 -19   4   8   17.40    7.80
  19  -4   8   40.00   23.20
  20   0   8   12.30    9.90
 -20   0   8   12.50    6.30
  20   0   8   43.40   20.70
 -20   0  -8   11.30    4.90
 -20  -1   8  382.56   18.90
 -20   1  -8  386.76   16.30
  20   1   8  436.56   38.10
  20   1   8  374.26   24.60
 -20   1   8  401.56   18.90
 -20  -1  -8  399.46   16.00
  20  -1   8  377.36   39.80
 -20  -2   8    1.80    6.60
 -20   2  -8   11.80    5.30
  20   2   8   -9.30   11.80
  20   2   8  -10.50   18.80
  20  -2   8   10.80   19.20
 -20  -2  -8    2.90    4.70
 -20   2   8    8.70    6.10
  20   3   8  179.58   22.00
 -20   3  -8  152.38   12.20
  20   3   8  120.89   22.00
 -20  -3   8  174.78   14.80
 -20  -3  -8  151.18   10.50
  20  -3   8   97.29   27.30
 -20   3   8  137.79   14.40
 -21   0  -8    8.40    5.20
 -21   0   8   -2.90    6.00
  21   0   8   19.40   21.70
  21   1   8  -20.40   19.60
  21   1   8   24.60   12.50
 -21   1  -8    5.30    5.50
 -21  -1   8    3.90    6.00
  21  -1   8  -16.50   18.60
 -21  -1  -8   12.80    5.10
 -21   1   8    9.20    6.40
   0   0   9    5.40    3.20
   0   0  -9    1.60    1.20
   0   0   9    0.50    0.70
   0   1   9    0.30    0.70
   0  -1   9   -0.80    1.20
   0  -1   9   -0.30    0.90
   0   1   9    1.60    2.80
   0  -1  -9   -1.80    0.80
   0  -1   9    0.10    3.10
   0   2   9   77.29    8.90
   0   2  -9   68.29    3.60
   0  -2  -9   70.79    3.20
   0   2   9   73.79    3.40
   0   3   9    5.80    5.10
   0   4  -9   41.60    4.10
   0   4   9   31.00    6.90
   0   4   9   38.50    3.60
   0   5  -9    1.70    2.90
   0   5   9    3.90    6.90
   0   5   9   -2.60    2.40
   0  -5   9    4.10    6.10
   0   6  -9   19.90    4.10
   0   6   9   15.50    8.90
   0   6   9   16.00    3.90
   0  -6   9   24.80    8.00
   0   7   9    3.80    9.30
   0  -7   9  -16.70    8.20
   0   7   9   -1.20    4.10
   0   7  -9    4.30    3.70
   0   8   9   19.10   11.70
   0   8   9   10.00    5.30
   0   8  -9    7.10    5.00
   1   0   9    0.40    0.50
   1   0   9    0.90    2.60
   1   0  -9    1.00    1.20
   1   0   9    0.10    0.60
  -1   0   9    1.50    0.80
  -1   0   9    3.80    3.40
   1   1   9   97.69    7.70
  -1  -1   9  103.19    5.00
   1  -1  -9  107.59    4.20
   1   1   9  106.39    3.60
  -1  -1   9  104.39    4.30
   1  -1   9  105.39    4.20
   1  -1   9  107.79    5.00
  -1  -1  -9  110.19    3.70
  -1   1   9  105.49    7.90
   1  -1   9   98.09    7.60
  -1   1   9  104.99    4.00
   1  -2  -9    2.50    1.20
  -1  -2   9    1.00    1.90
  -1   2  -9   -1.60    0.90
   1   2   9   -0.60    0.90
   1   2   9    2.90    4.30
  -1  -2  -9    1.50    0.90
  -1   2   9   -1.10    1.00
   1  -2   9   -1.40    1.60
  -1   2   9   -4.30    3.50
   1   3   9   95.89    4.40
  -1   3  -9   93.09    4.80
   1   3   9   89.29   10.50
  -1   3   9  119.09   10.70
  -1  -3  -9   89.29    4.70
   1   3  -9  101.09    4.90
  -1   3   9   91.19    4.70
   1   4   9   18.40    2.50
   1   4   9   22.50    7.00
  -1   4  -9   22.50    3.30
  -1   4   9   21.70    2.80
   1  -4   9   24.10    6.90
  -1   4   9   22.00    6.40
   1   4  -9   24.30    3.30
  -1  -5   9   28.90    7.30
  -1   5  -9   25.10    3.90
   1   5   9   21.30    8.00
   1   5   9   31.90    3.90
  -1   5   9   17.40    7.50
   1  -5   9   24.20    7.80
   1   5  -9   21.80    3.60
  -1   5   9   23.60    3.90
  -1  -6   9   29.20    7.90
   1   6   9   17.00    4.10
   1   6   9   18.80    8.60
  -1   6  -9   18.80    4.60
   1  -6   9   24.20    8.70
   1   6  -9   26.70    4.70
  -1   6   9   23.10    4.50
  -1   6   9   20.60    8.50
   1   7   9  309.67   13.90
  -1   7  -9  310.27   14.60
  -1  -7   9  305.47   18.70
   1   7   9  314.47   21.80
   1  -7   9  301.57   21.40
   1   7  -9  290.57   14.10
  -1   7   9  318.17   21.00
  -1   7   9  293.27   13.90
   1   8   9   31.40   12.60
  -1   8  -9   18.90    5.50
   1   8   9   12.70    5.30
   1   8  -9   12.40    5.00
  -1   8   9   23.90    5.80
  -1   8   9   34.90   11.70
   2   0  -9    1.00    1.50
   2   0   9    0.60    0.50
  -2   0   9   -3.50    2.90
   2   0   9    0.50    2.40
  -2   0   9    0.30    0.90
   2   1   9   12.20    4.40
   2   1   9    3.90    0.50
  -2  -1   9    4.60    1.50
   2  -1  -9    4.40    1.30
  -2  -1   9    3.90    1.40
  -2   1  -9    4.80    0.80
  -2   1   9    4.10    1.10
   2  -1   9    7.00    3.50
   2  -1   9    3.80    1.00
  -2   1   9    8.90    3.40
  -2  -1  -9    5.10    0.60
   2   2   9   58.29    2.70
  -2  -2   9   58.49    4.70
   2  -2  -9   54.59    3.60
  -2   2  -9   56.89    3.20
   2   2   9   59.89    7.70
   2  -2   9   59.19    3.70
  -2   2   9   55.69    6.60
  -2   2   9   59.19    3.30
  -2  -2  -9   61.09    2.70
  -2   3  -9   12.90    2.10
   2   3   9   12.50    1.70
   2   3   9   10.10    6.10
  -2   3   9   22.00    5.50
  -2   3   9   14.40    2.10
   2   3  -9   12.70    2.20
  -2  -3  -9   13.30    1.90
  -2   4  -9  111.99    6.20
   2   4   9  112.09    5.30
   2   4   9  100.59   11.00
   2  -4   9  101.19   11.90
  -2   4   9  110.69    6.10
   2   4  -9  115.09    6.30
  -2   4   9   88.99   10.70
   2   5   9   15.80    7.40
  -2   5  -9   16.90    3.70
   2   5   9   26.30    3.40
   2   5  -9   25.50    4.10
  -2   5   9    9.90    3.20
   2  -5   9   25.50    8.90
  -2   5   9   24.60    7.90
   2   6   9  206.18   17.30
  -2   6  -9  212.48   10.90
  -2  -6   9  195.18   15.20
   2   6   9  191.28    9.80
  -2   6   9  207.78   16.20
   2   6  -9  208.88   10.40
   2  -6   9  198.78   18.10
  -2   6   9  200.38   10.40
   2   7   9   88.99   13.90
  -2  -7   9   74.19    9.30
   2   7   9   76.29    7.60
  -2   7  -9   75.39    7.80
   2   7  -9   89.09    8.50
  -2   7   9   84.49   12.60
  -2   7   9   97.69    8.30
   2  -7   9   86.29   13.50
  -2   8  -9   65.19    8.20
   2   8   9   77.69   14.60
   2   8   9   73.89    8.70
  -2   8   9   56.99    7.90
   2   8  -9   70.29    8.20
  -2   8   9   70.19   12.70
  -3   0   9   -1.80    0.90
   3   0   9   -0.40    2.90
  -3   0   9   -2.00    2.90
   3   0  -9   -1.20    1.90
   3   1   9   52.99    7.10
   3  -1  -9   39.10    3.20
  -3   1  -9   39.70    2.10
  -3  -1   9   37.90    3.10
   3  -1   9   42.20    5.40
   3  -1   9   40.50    2.20
  -3   1   9   43.90    2.70
  -3   1   9   32.20    5.10
   3   2   9  180.88    5.80
  -3  -2   9  182.08    8.40
   3   2   9  187.48   12.30
  -3   2  -9  180.28    6.60
   3  -2   9  167.68    6.80
  -3   2   9  184.68    6.90
  -3  -2  -9  179.88    5.80
  -3   2   9  161.08   10.10
   3  -2   9  175.88   10.00
  -3   3  -9   23.00    2.70
  -3  -3   9   20.00    3.90
   3   3   9   18.40    6.00
   3   3   9   21.00    2.10
   3  -3   9   30.00    7.80
  -3  -3  -9   28.10    2.80
  -3   3   9   28.30    3.10
  -3   3   9   22.60    5.90
   3   4   9  548.55   17.20
  -3   4  -9  535.85   18.10
  -3   4   9  542.55   18.10
   3  -4   9  515.05   25.80
  -3   4   9  539.25   23.00
   3   4  -9  557.84   18.30
  -3   5  -9    4.80    3.20
   3   5   9    3.40    7.60
   3   5   9    2.70    2.20
  -3   5   9    3.80    7.10
   3  -5   9   -4.50    7.60
   3   5  -9    8.80    3.10
  -3   5   9    3.40    3.00
  -3  -6   9  208.58   14.70
   3   6   9  166.88   16.70
  -3   6  -9  188.28   10.50
   3   6   9  191.58    9.50
  -3   6   9  195.38   10.60
   3  -6   9  197.78   20.50
   3   6  -9  197.08   10.40
  -3   6   9  190.18   15.50
  -3   7  -9   -1.90    4.30
   3   7   9   -1.60    3.80
   3   7   9    1.30    9.10
  -3   7   9   -0.40    4.30
  -3   7   9   -9.40    8.00
   3   7  -9    1.00    4.00
   3  -7   9    8.40   11.50
   3   8   9  100.59    9.50
  -3   8  -9  107.29   10.90
   3   8   9  109.39   18.20
  -3   8   9   81.19    9.00
  -3   8   9  137.39   16.00
   3   8  -9  108.89   10.40
   3  -8   9   96.29   16.50
   4   0   9    2.50    3.40
  -4   0   9   -0.70    1.10
  -4   1  -9    6.60    0.90
   4   1   9    2.70    4.00
  -4  -1   9    8.70    1.80
   4  -1   9    6.50    3.10
   4  -1   9    8.30    1.20
  -4   1   9    6.30    1.30
  -4   1   9    6.10    3.50
  -4  -2   9   86.09    5.50
  -4   2  -9   70.59    3.80
   4   2   9   78.79    9.30
   4  -2   9   72.19    4.10
   4  -2   9   78.59    7.00
  -4   2   9   69.79    7.10
  -4  -2  -9   81.79    3.10
  -4   2   9   75.59    4.20
  -4   3  -9   36.70    3.40
   4   3   9   37.10    8.00
  -4  -3   9   36.90    4.80
   4   3   9   42.80    2.60
  -4   3   9   47.30    3.80
  -4  -3  -9   40.70    3.00
   4  -3   9   45.00    6.00
   4  -3   9   52.69   10.10
  -4   3   9   37.10    6.50
  -4   4  -9  182.28    8.30
  -4  -4   9  195.38   11.80
   4   4   9  158.18   13.90
   4   4   9  173.18    7.10
   4  -4   9  169.38   16.30
  -4   4   9  182.98    8.60
  -4   4   9  184.88   13.10
   4   5   9   44.50   10.40
  -4   5  -9   55.29    6.00
   4   5   9   44.30    4.30
  -4   5   9   56.89    9.00
   4   5  -9   36.20    4.60
  -4   5   9   43.10    5.00
   4  -5   9   49.80   12.10
  -4  -6   9   73.69    9.20
   4   6   9   61.49   11.80
   4   6   9   78.29    6.30
  -4   6  -9   73.39    7.40
   4  -6   9   45.90   12.80
  -4   6   9   79.59   10.40
   4   6  -9   71.09    6.50
  -4   6   9   63.69    7.30
   4   7   9   66.79   12.90
   4   7   9   65.49    7.30
  -4   7  -9   83.29    8.70
  -4   7   9   69.29    7.50
   4   7  -9   66.19    7.40
  -4   7   9   65.79   11.50
   4  -7   9   75.99   14.80
   4   8   9   74.69    8.60
  -4   8  -9   69.59    8.50
   4   8   9   64.79   14.70
  -4   8   9   69.69    8.60
   4  -8   9   81.19   16.10
   4   8  -9   78.69    9.10
  -4   8   9   58.99   12.50
  -5   0   9    2.50    1.30
   5   0   9   -0.80    0.50
   5   0   9   -1.60    3.80
  -5  -1   9  196.08    8.10
  -5   1  -9  193.38    6.60
   5   1   9  200.88   12.20
   5  -1   9  204.98   10.30
   5  -1   9  204.88    6.50
  -5   1   9  185.88    7.40
  -5   1   9  200.58   11.50
   5   2   9    3.70    5.30
  -5   2  -9    4.20    1.40
  -5  -2   9    5.80    2.20
  -5   2   9    4.80    3.90
  -5  -2  -9    2.70    0.90
  -5   2   9    4.00    1.60
   5  -2   9    5.30    1.90
  -5  -2  -9    1.70    1.10
   5  -2   9   -1.40    5.40
   5  -2   9    0.20    2.70
   5   3   9  563.34   16.50
  -5  -3   9  566.64   20.80
  -5   3  -9  557.84   17.70
   5   3   9  549.85   23.90
  -5   3   9  521.65   18.00
  -5   3   9  552.14   22.20
  -5  -3  -9  559.64   16.70
   5  -3   9  550.54   26.80
   5  -3   9  547.95   20.40
   5   4   9  121.19    5.40
   5   4   9  129.39   13.50
  -5   4  -9  117.79    6.80
  -5  -4   9  108.79    9.00
  -5   4   9  111.19    7.10
   5  -4   9  116.59   14.60
  -5   4   9  119.79   11.60
   5  -4   9  128.79    9.40
  -5  -5   9  214.28   14.90
  -5   5  -9  225.98   10.90
   5   5   9  257.17   18.20
   5   5   9  235.78    9.20
   5  -5   9  173.38   19.50
  -5   5   9  224.28   11.10
  -5   5   9  238.98   14.50
   5   6   9   -1.30    5.30
  -5  -6   9    5.80    6.40
   5   6   9   -3.10    2.70
  -5   6  -9   -0.40    3.50
   5   6   9    0.30    8.70
   5  -6   9   -4.30   10.50
  -5   6   9   -5.10    6.70
  -5   6   9   -3.70    3.70
   5   7   9  162.38   19.80
  -5   7  -9  171.48   11.30
   5   7   9  172.08    9.90
   5  -7   9  165.28   19.90
  -5   7   9  165.18   11.60
  -5   7   9  184.38   17.10
   5   8   9   15.70    5.00
   5   8   9   31.70   13.00
  -5   8  -9   17.30    6.30
  -5   8   9   21.20   10.60
  -5   8   9   14.60    6.20
   5  -8   9   23.30   15.10
  -6   0   9   -0.20    1.30
   6   0   9   -0.90    0.80
  -6   1  -9    4.10    1.20
   6   1   9    4.50    4.00
  -6  -1   9    4.30    1.60
  -6   1   9    6.30    1.60
  -6  -1  -9    5.70    0.70
   6  -1   9    8.90    6.50
   6  -1   9    9.40    4.00
  -6  -1  -9    5.30    0.70
  -6   1   9    5.60    3.40
  -6  -2   9   40.30    4.60
  -6   2  -9   39.00    3.10
   6   2   9   43.40    7.30
  -6  -2  -9   38.60    2.30
   6  -2   9   31.00    7.90
  -6  -2  -9   40.20    2.50
  -6   2   9   42.00    3.70
  -6   2   9   43.50    6.40
   6  -2   9   42.00    5.50
  -6  -3   9    7.60    3.60
  -6   3  -9    4.20    1.70
   6   3   9    6.20    5.90
   6  -3   9   31.50    9.70
  -6   3   9    6.00    2.50
  -6   3   9   11.50    4.60
   6  -3   9    3.10    3.20
  -6  -3  -9    2.00    1.90
  -6  -3  -9    7.80    1.80
   6   4   9  154.58   15.00
  -6   4  -9  161.08    8.10
   6   4   9  157.78    6.50
  -6  -4   9  157.08   11.20
  -6   4   9  160.48    8.20
   6  -4   9  174.58    9.90
   6  -4   9  140.19    9.60
   6  -4   9  153.98   18.00
  -6   4   9  167.78   12.50
  -6  -5   9   -1.80    5.40
   6   5   9    1.50    1.90
   6   5   9    2.40    8.00
   6   5   9    3.10    5.40
  -6   5  -9    0.80    3.10
  -6   5   9   -5.40    4.80
   6  -5   9    1.20    4.90
   6  -5   9    7.50    9.90
  -6   5   9    0.10    3.10
  -6  -6   9   54.19   10.10
   6   6   9   88.99    6.20
   6   6   9   76.39   12.10
   6   6   9   77.49    8.00
  -6   6  -9   89.29    8.30
  -6   6   9   91.49   12.20
  -6   6   9   69.09    8.20
   6  -6   9   84.29   15.70
   6   7   9    4.70    3.90
  -6  -7   9   12.00    9.90
   6   7   9   -1.40    9.80
  -6   7  -9    5.40    4.60
  -6   7   9   11.40    8.40
   6  -7   9    9.40   14.20
  -6   7   9    4.40    5.00
  -6   8  -9   94.59   10.30
   6   8   9   93.69   17.10
  -6  -8   9  102.39   15.50
   6   8   9  105.09    9.40
  -6   8   9  105.59   10.70
  -6   8   9  151.08   18.10
   6  -8   9  145.49   19.80
  -7   0  -9    3.20    1.00
  -7   0   9   -0.10    1.60
   7   0   9    1.30    1.00
   7   0   9    6.50    4.30
   7   0   9    1.40    5.40
  -7   1  -9  254.97    8.40
   7   1   9  247.58   13.60
   7   1   9  250.37   16.10
  -7  -1   9  243.98   10.10
  -7   1   9  264.17   14.10
  -7  -1  -9  252.07    7.50
  -7   1   9  245.78    9.60
   7  -1   9  246.58   12.20
  -7  -1  -9  245.38    7.50
   7  -1   9  252.97   17.90
   7  -1   9  244.78    8.20
   7   2   9    3.00    5.50
  -7   2  -9    3.00    1.50
   7   2   9   -0.60    4.50
  -7  -2   9    3.90    2.50
  -7  -2  -9    3.80    1.20
  -7   2   9    5.60    2.30
   7  -2   9   20.80    8.50
   7  -2   9   -1.50    3.40
  -7  -2  -9    7.20    1.30
  -7   2   9    6.30    3.90
  -7   3  -9   28.70    3.50
   7   3   9   16.10    6.90
   7   3   9   29.50    7.20
  -7  -3   9   32.10    5.20
  -7   3   9   26.80    3.80
  -7   3   9   36.30    5.80
   7  -3   9   28.70   10.20
   7  -3   9   35.50    4.60
  -7  -3  -9   35.50    3.60
  -7  -3  -9   26.10    3.00
   7   4   9    2.50    5.30
   7   4   9   16.60    8.30
  -7   4  -9    8.70    3.10
  -7  -4   9   17.30    5.50
  -7  -4  -9    9.30    3.00
   7  -4   9   13.40    4.00
   7  -4   9    9.50    3.50
   7  -4   9   32.80   10.70
  -7   4   9   13.90    5.80
  -7   4   9   13.40    3.80
   7   5   9   61.59   11.30
  -7  -5   9   38.60    7.70
   7   5   9   64.49    8.60
  -7   5  -9   58.89    6.50
  -7   5   9   59.59    8.10
  -7   5   9   49.00    5.90
   7  -5   9   58.19    6.40
   7  -5   9   40.90   13.20
   7   6   9   36.60    4.50
   7   6   9   28.80    6.90
  -7   6  -9   32.30    5.60
   7   6   9   32.00   11.10
  -7  -6   9   24.70    8.20
   7  -6   9   42.20   14.10
   7  -6   9   31.20    6.70
  -7   6   9   43.80    6.60
  -7   6   9   44.70    8.80
   7   7   9   44.30    5.80
  -7  -7   9   35.10   11.30
   7   7   9   44.50   14.70
  -7   7  -9   57.19    7.40
  -7   7   9   43.80    9.20
   7  -7   9   44.30   16.00
  -7   7   9   52.59    7.40
   7   8   9   -2.30   13.10
  -7   8  -9    2.00    6.00
   7   8   9    5.90    5.20
  -7  -8   9   -1.50    9.30
   7  -8   9    3.20   16.20
  -7   8   9    7.40    7.10
  -7   8   9   -0.40    9.50
   8   0   9   -1.40    3.80
  -8   0  -9    0.40    0.90
   8   0   9   -8.00    6.40
  -8   0   9   -1.00    1.60
   8   0   9    0.50    1.30
  -8   1  -9   -1.50    1.20
   8   1   9   24.40    7.50
  -8  -1   9    2.70    2.20
   8  -1   9   -1.90    1.50
   8  -1   9    0.80    3.80
   8  -1   9  -13.30    6.60
  -8   1   9    0.10    1.80
  -8   2  -9    7.70    1.80
   8   2   9   -1.20    5.40
  -8  -2   9    7.70    3.20
   8   2   9    9.10    6.00
  -8   2   9    2.20    4.20
   8  -2   9    5.30    3.90
  -8  -2  -9    5.20    1.30
  -8  -2  -9    4.00    1.40
   8  -2   9    7.00    8.90
  -8   2   9    7.50    2.70
   8   3   9   91.89   11.50
  -8   3  -9   93.69    5.60
  -8  -3   9  104.49    8.00
   8   3   9   85.49   11.20
  -8  -3  -9   88.99    5.00
  -8   3   9  103.09    8.80
  -8   3   9   95.89    6.20
   8  -3   9   76.09   13.30
   8  -3   9   90.09    7.60
  -8  -4   9   48.60    7.20
   8   4   9   51.89    8.80
   8   4   9   34.70    9.80
   8  -4   9   62.19   13.60
   8  -4   9   49.00    5.90
   8  -4   9   57.39    5.80
  -8   4   9   44.00    7.60
  -8   4   9   48.90    5.60
  -8  -4  -9   45.50    5.00
   8   5   9  147.39   16.70
   8   5   9  104.79   13.00
  -8   5  -9  109.59    8.30
  -8  -5   9  121.39   12.30
   8  -5   9  143.39   19.40
  -8  -5  -9  118.59    9.30
  -8   5   9  124.89    8.40
   8  -5   9  126.59    7.80
  -8   5   9  115.29   10.80
   8   6   9   -1.60    6.50
   8   6   9   16.10   10.60
  -8   6  -9    4.90    4.10
  -8  -6   9   -0.50    7.10
  -8   6   9   -7.90    4.30
   8  -6   9   -8.70   13.10
  -8  -6  -9    3.30    6.00
  -8   6   9    1.90    6.50
  -8   7  -9  143.59   12.00
  -8  -7   9  174.38   17.90
   8   7   9  166.38   20.60
  -8   7   9  174.48   12.50
   8  -7   9  151.28   21.80
  -8   7   9  145.29   14.40
  -8   8  -9   24.30    7.50
  -8  -8   9   11.20   12.10
   8   8   9   22.90   15.50
   8  -8   9    5.50   16.80
  -8   8   9   23.30    7.80
   9   0   9    1.30    3.80
   9   0   9   -2.40    1.60
   9   0   9   -4.30    8.20
  -9   0  -9    1.10    1.20
  -9   0   9    0.00    2.10
   9   1   9  267.17   18.70
  -9  -1   9  254.57   10.80
   9   1   9  282.87   14.90
  -9   1  -9  251.87    8.80
   9  -1   9  256.37   21.30
  -9  -1  -9  261.17    8.10
   9  -1   9  217.48    8.80
  -9   1   9  257.27   10.50
   9  -1   9  242.58   12.10
   9   2   9   42.20    8.70
  -9   2  -9   29.00    3.30
   9   2   9   36.90    8.80
  -9  -2   9   49.80    5.50
   9  -2   9   21.40    9.90
  -9   2   9   32.90    4.20
  -9   2   9   29.40    6.20
  -9  -2  -9   31.50    2.60
  -9  -2  -9   35.60    3.00
   9  -2   9   39.40    5.30
   9   3   9  114.69   13.80
  -9  -3   9  101.49    8.10
  -9   3  -9  112.39    6.20
   9   3   9   96.69   12.30
   9  -3   9  109.49   16.50
  -9   3   9  112.49    7.60
  -9   3   9  120.39    9.50
   9  -3   9  117.49    7.70
  -9  -3  -9  116.19    5.50
  -9  -4   9  158.38   10.90
  -9   4  -9  171.68    8.80
   9   4   9  157.58   16.00
   9   4   9  154.78   14.10
  -9  -4  -9  155.28    8.00
  -9   4   9  151.88    8.90
  -9   4   9  171.38   12.10
   9  -4   9  165.48    7.50
   9  -4   9  116.79   17.70
   9  -4   9  157.38    7.80
   9   5   9    1.20    8.20
  -9  -5   9   12.20    6.10
   9   5   9   -6.10    7.20
  -9   5  -9    3.20    3.60
  -9   5   9    6.90    5.60
  -9  -5  -9    1.20    4.30
   9  -5   9    6.50   11.50
  -9   5   9    4.70    4.20
   9   6   9  247.28   21.00
  -9   6  -9  244.58   13.10
  -9  -6   9  267.47   18.20
  -9   6   9  251.07   13.10
  -9   6   9  283.07   15.10
   9  -6   9  222.78   27.90
  -9  -6  -9  254.87   15.10
   9   7   9   34.70   13.60
  -9  -7   9   10.90    9.00
  -9   7  -9   20.10    6.10
   9  -7   9   -5.70   15.60
  -9   7   9   10.70    6.20
  -9  -7  -9   10.20    8.30
  -9   7   9   34.40    9.10
  -9   8  -9  179.88   13.80
   9   8   9  219.78   26.00
  -9  -8   9  154.18   19.90
   9  -8   9  123.49   22.90
  -9   8   9  167.08   14.80
  -9  -8  -9  148.19   15.70
  10   0   9    1.40    4.30
  10   0   9   -1.20    2.20
  10   0   9    5.90    9.50
 -10   0   9    1.60    2.40
 -10   0  -9    2.90    1.30
  10   1   9    1.80    2.60
  10   1   9    3.10    5.40
  10   1   9    0.70    8.50
 -10   1  -9   -1.40    1.40
 -10  -1   9    0.60    2.50
  10  -1   9   -8.60    3.50
  10  -1   9   -0.30    9.00
 -10  -1  -9    3.10    1.20
 -10   1   9    1.90    2.20
  10   2   9    5.10    7.60
 -10   2  -9    3.90    2.10
 -10  -2   9    0.80    2.90
  10   2   9    5.70    6.60
 -10   2   9    4.70    2.90
  10  -2   9    5.70    3.60
  10  -2   9    5.90   10.60
 -10  -2  -9   -0.10    1.90
 -10   2   9   -1.90    4.70
 -10  -2  -9    2.80    1.50
 -10   3  -9    3.80    2.60
 -10  -3   9    1.60    3.40
  10   3   9   -0.70    8.00
  10   3   9   -2.60    7.20
  10  -3   9   -2.50   10.50
 -10  -3  -9    6.10    1.90
 -10   3   9    6.40    4.60
 -10   3   9    5.10    3.70
  10  -3   9    7.90    3.30
  10   4   9    3.70    7.30
 -10  -4   9   -3.10    4.50
 -10   4  -9   -2.90    3.10
  10   4   9   -4.10    8.00
 -10  -4  -9    1.90    2.60
  10  -4   9   -5.70   10.90
 -10   4   9    1.70    3.80
 -10   4   9  -10.30    5.20
  10   5   9   32.60    8.30
  10   5   9   51.79   11.70
 -10   5  -9   42.60    6.00
 -10  -5   9   28.40    6.70
 -10   5   9   39.60    7.00
 -10   5   9   45.50    6.30
  10  -5   9   57.29   15.50
 -10  -5  -9   35.70    5.70
 -10   6  -9   40.70    6.30
  10   6   9   48.60   13.80
 -10  -6   9   48.00   10.10
 -10   6   9   32.50    6.20
 -10   6   9   45.10    7.70
  10  -6   9   20.90   15.20
 -10  -6  -9   35.10    7.00
 -10  -7   9   59.49   12.20
  10   7   9   63.29   16.00
 -10   7  -9   69.29    8.80
 -10   7   9   61.99    9.00
 -10  -7  -9   40.10    9.00
  10  -7   9   23.30   18.00
 -11   0   9   -0.20    2.80
  11   0   9    8.20    9.10
  11   0   9   -5.10    4.30
 -11   0  -9   -0.30    1.40
 -11   1  -9  112.59    5.30
  11   1   9   71.79   12.80
  11   1   9  108.99   11.70
 -11  -1   9  109.69    7.40
  11  -1   9  115.19    9.10
  11  -1   9   83.09   14.80
 -11  -1  -9  103.29    4.70
 -11   1   9  104.29    7.10
 -11   2  -9   69.19    4.90
  11   2   9   75.19   10.80
  11   2   9   76.29   13.90
 -11  -2   9   82.09    6.90
 -11  -2  -9   67.59    3.90
 -11   2   9   62.99    6.40
  11  -2   9   62.79    7.30
  11  -2   9   48.60   15.50
 -11   2   9   77.99    9.50
 -11   3  -9  127.09    7.40
 -11  -3   9  128.69    9.70
  11   3   9  110.19   14.70
  11   3   9  131.89   17.00
  11  -3   9  140.79    7.10
  11  -3   9  129.19   19.60
 -11   3   9  124.89    8.00
 -11  -3  -9  124.09    6.20
 -11   3   9  120.29   10.10
 -11   4  -9    0.20    3.40
  11   4   9   -4.40    8.30
  11   4   9   -4.40    8.00
 -11  -4   9   -1.20    4.80
 -11   4   9    1.00    3.70
 -11  -4  -9   -2.20    2.70
  11  -4   9  -14.70   10.70
 -11   4   9   -9.00    5.40
  11   5   9   37.20   11.30
 -11  -5   9   14.40    6.10
 -11   5  -9   22.70    5.10
  11  -5   9    9.90   13.40
 -11  -5  -9   11.00    4.30
 -11   5   9   20.60    5.00
 -11   5   9   23.90    5.90
  11   6   9   23.50   11.20
 -11   6  -9   14.80    5.80
 -11  -6   9   17.40    8.70
 -11   6   9   13.90    6.10
 -11  -6  -9   23.10    6.40
  11  -6   9   17.50   16.50
 -11   6   9   19.30    6.20
  11   7   9  106.59   19.00
 -11   7  -9  113.39   12.00
 -11  -7   9  123.59   15.70
  11  -7   9  136.39   23.90
 -11   7   9   98.49   11.00
 -11  -7  -9  107.19   11.70
 -12   0   9   -1.50    2.90
  12   0   9  -10.60   10.00
 -12   0  -9   -1.30    1.60
  12   0   9   -9.10    5.00
  12   1   9   11.10   10.70
  12   1   9    2.80    6.40
 -12   1  -9   -2.10    1.80
 -12  -1   9   -1.80    3.10
  12  -1   9  -24.70   10.90
 -12  -1  -9    1.40    1.50
  12  -1   9    4.50    4.50
 -12   1   9    1.60    3.40
  12   2   9   -8.90    6.10
 -12   2  -9    3.80    2.20
 -12  -2   9    1.20    3.30
 -12   2  -9   13.10    6.70
  12   2   9  -14.20    9.50
 -12   2   9    1.80    3.30
 -12   2   9   -0.70    5.90
 -12  -2  -9    5.90    1.70
  12  -2   9    3.20    3.80
  12  -2   9    5.00   11.70
  12   3   9   28.60   12.50
 -12   3  -9   13.10    3.60
 -12  -3   9   16.70    5.10
  12   3   9   17.80    8.90
  12  -3   9   18.20    3.30
 -12  -3  -9   16.60    2.60
  12  -3   9   32.30   14.10
 -12   3   9   20.10    4.50
 -12   3   9   31.70    6.50
 -12   4  -9    2.80    3.70
  12   4   9   -1.00    8.40
 -12  -4   9   -1.20    5.00
  12   4   9    3.00    8.80
 -12  -4  -9    3.20    2.90
  12  -4   9    7.90   13.90
 -12   4   9    3.60    6.10
 -12   4   9    7.90    4.10
  12   5   9  -10.20    8.40
 -12   5  -9    5.90    4.50
 -12  -5   9    7.60    5.90
  12   5   9   -2.90    9.60
 -12   5   9   -1.50    4.50
 -12  -5  -9   -9.50    3.90
  12  -5   9   18.30   14.20
 -12   5   9    9.90    5.60
  12   6   9   17.30   11.80
 -12   6  -9   23.10    6.10
 -12  -6   9   15.70    8.20
 -12  -6  -9   25.60    6.50
  12  -6   9    5.10   15.80
 -12   6   9   16.90    6.30
 -12   7  -9    1.70    6.80
 -12  -7   9    4.90   10.00
  12   7   9    4.90   14.20
 -12  -7  -9    3.50    7.80
 -12   7   9   -1.70    6.80
  12  -7   9    5.80   18.70
 -13   0   9    2.30    3.30
 -13   0  -9    2.50    1.80
  13   0   9    2.50    5.40
  13   0   9    1.80   12.70
 -13   1  -9    2.00    2.30
 -13  -1   9    7.10    3.90
  13   1   9   -1.90    6.40
  13   1   9    4.20   10.90
  13  -1   9   10.90   12.40
 -13   1   9    5.80    3.20
 -13  -1  -9    3.40    1.70
  13  -1   9    1.60    4.40
  13   2   9   18.90    8.70
 -13   2  -9   26.80    4.10
 -13  -2   9   20.70    4.60
 -13   2  -9   33.50    8.60
  13   2   9   22.10   12.30
 -13   2   9   24.20    4.70
  13  -2   9   37.40   14.60
  13  -2   9   37.80    5.10
 -13  -2  -9   33.30    3.30
 -13   2   9   24.30    7.30
 -13  -3   9   83.39    8.80
 -13   3  -9   65.49    6.40
  13   3   9   78.89   12.90
  13   3   9   83.29   13.50
  13  -3   9   68.09   17.20
 -13   3   9   78.39    7.60
 -13   3   9   74.89    9.20
 -13  -3  -9   79.89    5.40
 -13   4  -9    1.70    3.80
  13   4   9   -4.70   11.00
  13   4   9   -3.10    9.20
 -13  -4   9   -3.60    4.70
 -13   4   9    3.10    4.40
  13  -4   9    7.60   14.70
 -13  -4  -9    0.10    3.30
 -13   4   9  -11.70    6.00
 -13   5  -9  111.19    9.20
 -13  -5   9  138.29   13.50
  13   5   9  118.79   14.10
  13   5   9  125.29   16.90
 -13   5   9  106.39   10.80
 -13  -5  -9  110.59    9.00
 -13   5   9  121.19   10.50
  13  -5   9   90.49   20.80
  13   6   9   23.50   13.70
 -13   6  -9   37.20    7.20
 -13  -6   9   33.10    9.80
 -13  -6  -9   24.80    6.50
 -13   6   9   34.70    7.20
  13  -6   9    9.50   19.00
 -13   7  -9  154.78   14.00
 -13   7   9  111.79   12.80
 -14   0  -9   -1.90    2.00
  14   0   9  -28.10   11.10
  14   0   9    2.40    6.30
 -14   0   9    2.60    3.50
  14   1   9   14.50    7.20
 -14  -1   9    0.00    3.40
 -14   1  -9    4.00    2.30
  14   1   9    0.30   11.00
  14  -1   9    4.30    4.70
 -14  -1  -9    0.80    2.00
  14  -1   9  -12.30   10.60
 -14   1   9   -0.30    3.20
  14   2   9   -1.00    7.90
  14   2   9    0.00   12.40
 -14  -2   9    0.10    3.90
 -14   2  -9    3.30    2.90
 -14   2   9    6.20    4.10
  14  -2   9   -0.80    4.10
  14  -2   9    4.40   11.90
 -14  -2  -9   -1.70    2.00
 -14   2   9   -0.40    7.00
 -14   3  -9   32.10    4.90
  14   3   9   31.40   10.80
 -14  -3   9   34.80    6.50
  14   3   9   42.00   13.60
 -14   3   9   53.99    8.30
  14  -3   9   39.40   15.90
 -14   3   9   40.10    6.30
 -14  -3  -9   38.40    4.10
 -14   4  -9   -4.30    4.20
 -14  -4   9    1.40    5.30
  14   4   9   -7.60   11.30
  14   4   9   -0.10    9.70
 -14   4   9    4.20    4.60
  14  -4   9  -13.40   13.90
 -14   4   9   -7.10    6.70
 -14  -4  -9   -2.00    3.30
  14   5   9   40.40   14.10
 -14  -5   9   50.99    8.70
  14   5   9   41.20   12.40
 -14   5  -9   48.10    6.90
  14  -5   9   24.40   19.50
 -14  -5  -9   42.40    6.10
 -14   5   9   38.30    6.90
  14   6   9   13.70   12.60
 -14  -6   9   16.60    8.90
 -14   6  -9    9.10    6.20
 -14  -6  -9    1.90    5.80
  14  -6   9    0.80   19.70
 -14   6   9   -0.20    6.50
  15   0   9   -8.20   13.00
 -15   0  -9   -6.00    2.20
 -15   0   9   -2.20    3.50
  15   0   9    3.90    7.00
 -15   1  -9   17.20    3.50
  15   1   9   24.30    9.10
  15   1   9   -5.30   12.40
 -15  -1   9   15.40    4.40
  15  -1   9   21.80    5.90
 -15  -1  -9   18.20    2.90
  15  -1   9    6.70   13.60
 -15   1   9   15.10    4.70
 -15   2  -9  140.89    8.20
 -15  -2   9  121.39    9.30
  15   2   9  143.29   16.00
  15   2   9  116.19   18.10
  15  -2   9  108.39   18.50
  15  -2   9  139.89    9.40
 -15  -2  -9  143.19    7.00
 -15   2   9  143.69   10.00
 -15   2   9  149.59   15.50
 -15   3  -9    3.30    4.00
  15   3   9    6.40    9.10
 -15  -3   9    1.00    5.20
  15   3   9  -26.60   12.10
 -15   3   9    7.30    4.80
 -15  -3  -9    5.70    3.30
  15  -3   9   39.90   15.30
 -15   3   9    3.20    7.10
 -15   4  -9  130.69    9.90
  15   4   9  171.18   20.20
 -15  -4   9  155.58   13.10
  15   4   9  179.38   23.10
 -15   4   9   97.89   12.50
 -15  -4  -9  143.69    8.70
 -15   4   9  145.09   11.30
  15  -4   9  124.49   23.20
  15   5   9   23.30   13.30
 -15   5  -9   10.90    5.50
  15   5   9   10.30   12.60
 -15  -5   9    7.20    7.40
  15  -5   9   13.70   19.40
 -15   5   9    8.10    6.10
 -15  -5  -9   14.60    5.10
 -15   6  -9  129.59   13.00
 -15  -6   9  146.59   15.30
  15   6   9  142.79   21.10
 -15   6   9  145.49   13.70
  15  -6   9   84.69   25.00
 -15  -6  -9  123.49   11.90
 -16   0   9    9.10    4.10
  16   0   9   -3.60    7.00
  16   0   9   -6.10   13.20
 -16   0  -9    2.40    3.00
  16   1   9   19.90    9.00
 -16  -1   9    7.90    4.80
 -16   1  -9   12.60    3.40
  16   1   9   14.30   14.20
 -16   1   9   10.30    4.70
  16  -1   9   31.20    6.70
 -16  -1  -9   14.90    3.40
  16  -1   9   25.10   14.80
 -16  -2   9   10.60    4.80
 -16   2  -9   21.20    4.50
  16   2   9   21.30   10.90
  16   2   9   36.30   15.80
 -16  -2  -9   13.30    3.40
 -16   2   9   16.00    5.60
  16  -2   9    5.40   15.50
  16  -2   9   15.70    4.90
 -16   2   9   19.10    9.60
 -16  -3   9   50.79    8.50
  16   3   9   43.60   12.10
 -16   3  -9   36.10    5.70
  16   3   9   34.50   15.30
 -16   3   9   59.39    9.40
  16  -3   9   21.60   20.30
 -16  -3  -9   42.80    4.80
 -16   3   9   42.90    7.20
  16   4   9   47.50   13.40
  16   4   9   40.50   15.40
 -16   4  -9   45.80    6.30
 -16  -4   9   37.30    8.10
  16  -4   9   30.40   18.30
 -16  -4  -9   40.40    5.50
 -16   4   9   37.00    7.00
 -16   5  -9   51.79    7.80
  16   5   9   67.19   16.00
 -16  -5   9   69.09   10.20
 -16   5   9   73.09    9.70
  16  -5   9   55.19   21.90
 -16  -5  -9   61.29    7.30
  17   0   9  -14.80   13.40
 -17   0  -9    1.50    3.20
  17   0   9   -2.20    7.80
 -17   0   9   -6.90    4.00
  17   1   9    1.10    8.80
 -17   1  -9    7.10    3.70
 -17  -1   9   -2.80    4.40
  17   1   9    2.40   14.20
  17  -1   9   10.10    6.40
 -17   1   9    5.30    4.90
 -17  -1  -9    4.10    3.10
  17  -1   9   -9.20   15.60
  17   2   9    6.90    9.70
 -17   2  -9   -4.40    3.90
  17   2   9   24.30   15.60
 -17  -2   9    2.00    5.30
  17  -2   9   13.10   18.60
 -17  -2  -9   -0.80    3.20
 -17   2   9   -2.60    4.80
 -17   2   9   17.70    9.90
 -17   3  -9  136.79   10.00
  17   3   9  164.68   19.80
  17   3   9  161.48   21.40
 -17  -3   9  156.88   11.60
  17  -3   9  114.09   24.10
 -17   3   9  151.68   11.90
 -17  -3  -9  142.59    9.00
 -17   3   9  161.18   15.00
  17   4   9   -1.00   11.70
  17   4   9  -25.30   15.50
 -17  -4   9    8.40    6.80
 -17   4  -9   15.00    5.30
 -17  -4  -9    9.20    4.70
  17  -4   9   18.10   19.50
 -17   4   9   -1.60    5.80
  17   5   9  134.99   20.10
 -17  -5   9  112.79   12.60
 -17   5  -9  138.09   12.20
 -17  -5  -9  106.99   10.30
  17  -5   9  113.89   26.10
 -17   5   9  106.79   11.70
 -18   0   9   -4.30    4.80
  18   0   9   24.00    9.40
  18   0   9  -21.70   14.60
 -18   0  -9    2.30    3.70
 -18  -1   9   12.60    5.70
  18   1   9   -3.00    9.20
 -18   1  -9   -0.40    4.00
  18   1   9  -31.00   16.10
  18  -1   9   -1.20    6.60
 -18   1   9    0.10    4.60
  18  -1   9    5.20   18.30
 -18  -1  -9    1.60    3.60
 -18   2  -9   20.80    5.20
 -18  -2   9   16.70    6.40
  18   2   9   27.20   11.60
  18   2   9   21.90   16.90
  18  -2   9   11.80   16.20
 -18  -2  -9   20.20    4.50
 -18   2   9   19.30   10.60
 -18   2   9    8.40    5.60
 -18  -3   9   -1.10    5.90
 -18   3  -9    8.20    5.00
  18   3   9    9.60   16.20
  18   3   9    5.90   12.50
  18  -3   9   36.70   19.00
 -18  -3  -9   -6.70    3.90
 -18   3   9   10.50    6.10
  18   4   9   67.39   16.50
 -18  -4   9   53.39    9.60
  18   4   9   50.39   17.20
 -18   4  -9   71.19    8.10
  18  -4   9   30.00   21.10
 -18   4   9   62.99    9.60
 -18  -4  -9   56.69    6.50
  19   0   9   18.20   10.00
 -19   0  -9   -9.70    3.90
 -19   0   9    7.80    5.90
  19   0   9    0.70   17.50
 -19  -1   9    8.40    5.50
  19   1   9  -18.20   19.00
  19   1   9   17.10   11.10
 -19   1  -9    7.70    4.50
  19  -1   9    1.10   17.60
 -19  -1  -9    6.90    4.30
 -19   1   9    9.40    5.70
 -19   2  -9   52.09    6.70
  19   2   9   67.99   19.60
  19   2   9   43.30   12.90
 -19  -2   9   49.70    8.70
 -19  -2  -9   62.29    6.20
 -19   2   9   45.30   13.20
  19  -2   9   37.50   20.70
 -19   2   9   63.69    8.90
  19   3   9   -3.50   12.60
 -19  -3   9    5.70    6.40
 -19   3  -9   10.90    5.60
  19   3   9    0.10   18.50
 -19  -3  -9    4.90    4.50
 -19   3   9   20.60    7.10
  19  -3   9   40.30   19.00
  20   0   9   10.00   20.10
 -20   0  -9   -7.40    4.20
 -20   0   9   -8.20    5.70
  20   0   9   10.60   10.10
 -20   1  -9    1.90    4.70
  20   1   9   -0.60   11.10
  20   1   9  -17.80   17.80
 -20  -1   9   -1.20    6.00
 -20  -1  -9   -0.20    4.30
 -20   1   9   -1.80    6.00
  20  -1   9   12.30   19.90
  20   2   9   11.90   13.00
 -20  -2   9    0.20    6.80
 -20   2  -9    0.70    5.00
  20   2   9    6.10   19.40
  20  -2   9   21.60   21.00
 -20   2   9   -1.20    6.80
 -20  -2  -9   -8.30    4.50
   0   0  10  761.62   21.60
   0   0 -10  767.22   22.30
   0   0  10  716.63   26.90
   0  -1 -10   -1.30    0.90
   0   1  10    0.00    0.70
   0  -1  10   -6.70    3.30
   0   1  10    0.60    3.30
   0  -1  10   -0.60    1.20
   0  -1  10   -1.30    1.00
   0   2  10   98.89    4.20
   0   2 -10   99.49    4.50
   0  -2 -10   99.69    4.10
   0   2  10  107.49    9.30
   0   3 -10   -0.80    1.30
   0   3  10   -0.90    1.40
   0   3  10    2.50    5.40
   0   4  10   44.90    3.80
   0   4 -10   45.50    4.40
   0   4  10   46.20    9.20
   0   5  10   -2.30    2.60
   0   5  10   10.70    7.50
   0   5 -10    2.10    2.70
   0  -5  10   -7.80    6.80
   0   6 -10    9.70    3.70
   0   6  10    8.30    3.40
   0  -6  10   22.70    9.60
   0   6  10   11.40    8.10
   0   7  10   14.40    9.90
   0  -7  10   -4.50    9.90
   0   7  10    2.70    4.40
   0   7 -10    0.50    4.30
   0   8  10   -3.20    4.80
   0   8 -10    5.80    5.10
   0   8  10   -6.10   10.80
   1   0  10    1.40    0.70
   1   0  10    1.80    0.70
  -1   0  10   -1.50    3.00
  -1   0  10    2.60    0.90
   1   0 -10   -1.20    1.40
   1   0  10    2.40    2.70
   1   1  10    4.80    0.80
  -1  -1  10    4.20    1.50
   1   1  10    5.30    3.50
   1  -1 -10    4.90    1.30
  -1  -1  10    2.80    1.20
  -1  -1 -10    6.00    0.90
  -1   1  10    6.00    1.10
   1  -1  10    5.00    1.20
  -1   1  10    9.10    3.80
   1  -1  10    5.00    1.60
   1  -1  10   -0.90    3.20
   1   2  10   45.30    7.80
  -1   2 -10   30.90    2.50
   1   2  10   31.90    2.20
  -1  -2  10   32.60    4.00
   1  -2 -10   27.50    2.60
  -1   2  10   34.20    2.50
  -1   2  10   35.80    6.10
  -1  -2 -10   32.00    2.10
   1   3  10   94.69   10.70
  -1   3 -10   86.99    4.50
   1   3  10   85.29    4.20
  -1   3  10   83.09    4.40
  -1   3  10   81.09   10.50
  -1  -3 -10   85.69    4.40
   1   3 -10   84.89    4.60
   1   4  10   44.50    9.10
   1   4  10   37.60    3.50
  -1   4 -10   39.90    4.30
   1   4 -10   44.20    4.40
  -1   4  10   42.30    8.40
  -1   4  10   47.00    4.00
   1   5  10  111.39    6.40
   1   5  10  102.69   13.90
  -1   5 -10  111.19    7.30
  -1   5  10  112.39    7.10
  -1   5  10   97.89   13.10
   1  -5  10  109.19   14.20
   1   5 -10   96.59    6.60
  -1  -6  10   27.80    8.60
  -1   6 -10   18.70    4.50
   1   6  10   19.30    9.20
   1   6  10   17.30    4.20
  -1   6  10   11.40    8.90
   1   6 -10   24.30    4.50
   1  -6  10    7.50    8.80
  -1   6  10   20.20    4.40
  -1  -7  10   46.90    9.50
  -1   7 -10   25.80    5.60
   1   7  10   26.70   11.10
   1   7  10   17.60    4.80
  -1   7  10   13.80   10.00
   1  -7  10   23.50   11.20
   1   7 -10   33.80    5.50
  -1   7  10   22.30    5.10
   1   8  10   22.40    5.50
  -1   8 -10   20.60    5.80
   1   8  10   17.00   12.00
   1   8 -10   17.10    5.30
  -1   8  10   26.10   11.60
  -1   8  10   20.80    6.40
   2   0  10 2600.34   76.09
   2   0  10 2530.95   69.89
   2   0  10 2505.35   69.79
  -2   0  10 2575.24   77.29
  -2   0  10 2522.95   71.09
   2   0 -10 2594.84   71.79
   2  -1 -10   97.89    4.50
   2   1  10  104.49    3.10
   2   1  10   96.69    8.30
  -2  -1  10   99.29    5.00
  -2  -1  10   97.49    4.60
   2  -1  10  107.59    8.20
   2  -1  10  104.59    4.10
  -2   1  10  100.19    8.40
  -2  -1 -10  105.29    3.30
  -2   1  10   95.79    4.20
   2   2  10  343.77   10.40
  -2  -2  10  334.57   13.00
   2   2  10  358.76   17.60
  -2   2 -10  349.37   11.20
   2  -2  10  349.17   16.10
  -2   2  10  337.27   11.30
  -2   2  10  346.77   15.80
   2  -2  10  340.97   11.50
  -2  -2 -10  356.16   10.40
   2   3  10  267.07   16.00
  -2   3 -10  249.48    9.30
   2   3  10  248.28    8.50
  -2  -3 -10  254.07    8.70
  -2   3  10  242.78    9.20
  -2   3  10  268.67   15.50
  -2   4 -10  169.78    7.90
   2   4  10  165.08    6.90
   2   4  10  168.68   14.20
  -2   4  10  159.08    7.70
  -2   4  10  177.78   13.90
   2   4 -10  169.28    7.90
   2  -4  10  156.28   15.20
  -2   5 -10   26.90    4.40
   2   5  10    8.30    8.70
   2   5  10   20.70    3.20
  -2   5  10   19.90    3.70
   2  -5  10   47.90    9.90
   2   5 -10   16.30    3.60
  -2   5  10    9.40    7.20
  -2   6 -10   -1.00    3.50
  -2  -6  10    1.30    7.40
   2   6  10   -0.60    2.90
   2   6  10   -2.50    8.00
   2   6 -10    2.00    3.10
  -2   6  10    5.00    8.20
  -2   6  10    3.80    3.40
   2  -6  10    1.20    9.50
   2   7  10   37.60    5.30
  -2   7 -10   39.60    6.30
  -2  -7  10   43.20    9.40
   2   7  10   37.00   12.20
  -2   7  10   36.50    6.00
   2   7 -10   38.30    5.90
  -2   7  10   51.49   11.40
   2  -7  10   60.69   14.00
   2   8  10    4.50   12.60
   2   8  10    0.90    5.00
  -2   8 -10    4.70    5.50
  -2   8  10    7.30    6.60
   2   8 -10    6.50    4.90
  -2   8  10   16.10   10.70
  -3   0  10 3524.75   99.69
   3   0  10 3164.88   96.79
  -3   0  10 3334.77   92.69
   3   0 -10 3330.67   93.29
  -3   1 -10    6.30    0.90
   3   1  10   12.20    5.10
  -3  -1  10    7.20    1.80
   3  -1 -10    6.30    1.90
  -3   1  10    7.70    1.50
   3  -1  10    3.30    3.20
  -3   1  10    8.10    3.90
   3  -1  10    5.60    1.10
  -3  -2  10 1105.19   34.90
  -3   2 -10 1105.89   32.60
   3   2  10 1117.59   31.60
   3   2  10 1158.58   39.40
  -3  -2 -10 1173.38   31.60
   3  -2  10 1185.28   37.80
   3  -2  10 1129.29   32.80
  -3   2  10 1099.29   37.80
  -3   2  10 1141.29   33.00
   3   3  10    2.00    1.10
   3   3  10    2.70    5.60
  -3   3 -10    0.90    1.40
  -3  -3  10    1.80    3.10
  -3   3  10    5.20    5.60
  -3   3  10    1.30    1.60
  -3  -3 -10    0.60    1.40
  -3   4 -10  943.71   29.40
   3   4  10  956.20   28.40
   3   4  10  951.60   36.30
   3  -4  10  969.00   38.20
  -3   4  10  941.51   29.40
  -3   4  10  979.50   35.50
   3   5  10    7.50    8.90
  -3   5 -10    5.70    3.20
   3   5  10    6.80    2.30
  -3   5  10    9.30    3.10
   3  -5  10    7.70    9.40
  -3   5  10    9.40    7.30
   3   5 -10    5.70    2.90
   3   6  10  146.89    8.20
  -3   6 -10  148.79    9.40
   3   6  10  137.39   16.30
  -3  -6  10  149.99   14.50
  -3   6  10  144.29   15.30
   3  -6  10  149.49   16.90
   3   6 -10  152.98    9.30
  -3   6  10  135.19    9.60
  -3   7 -10   13.90    4.90
   3   7  10   14.40    4.40
  -3  -7  10   15.00    9.00
   3   7  10   16.40   10.50
   3   7 -10   16.80    4.50
  -3   7  10   15.50    9.70
   3  -7  10   10.40   12.10
  -3   7  10    3.80    4.90
   3   8  10   15.70    5.50
  -3   8 -10   27.10    6.50
   3   8  10   24.10   14.50
  -3   8  10   14.90    6.20
  -3   8  10   19.80   10.70
   3  -8  10   -5.30   14.50
   3   8 -10    3.00    5.30
   4   0  10   12.10    4.10
  -4   0  10    9.00    1.60
  -4  -1  10   14.50    2.20
  -4   1 -10    9.00    1.00
   4   1  10   14.00    5.00
  -4   1  10    3.70    4.10
  -4   1  10   10.00    1.60
   4  -1  10   11.50    1.30
   4  -1  10   10.30    3.70
  -4   2 -10    6.00    1.50
   4   2  10   25.60    6.60
  -4  -2  10    8.10    2.50
   4  -2  10    3.70    3.30
  -4  -2 -10   10.00    1.10
  -4   2  10    8.70    1.90
   4  -2  10    8.70    1.90
  -4   2  10    1.40    3.60
   4   3  10   97.09   10.90
  -4  -3  10  103.79    7.40
   4   3  10  107.99    4.30
  -4   3 -10   93.99    5.10
   4  -3  10  108.79   13.30
  -4   3  10  118.59   10.90
  -4  -3 -10  112.19    4.60
   4  -3  10   95.09    8.70
  -4   3  10  105.99    5.70
  -4  -4  10   19.80    5.40
  -4   4 -10   32.70    3.90
   4   4  10   33.00    2.80
   4   4  10   26.80    8.50
  -4   4  10   22.10    7.40
  -4   4  10   26.00    3.80
   4  -4  10   23.20    9.20
  -4   5 -10   -2.20    2.90
   4   5  10   -0.70    2.00
   4   5  10   -8.20    7.20
   4  -5  10   -1.10    9.60
  -4   5  10    2.00    3.10
  -4   5  10  -11.60    6.40
  -4   6 -10    4.10    3.60
   4   6  10    1.00    2.90
  -4  -6  10    7.70    7.10
   4   6  10    2.70    8.30
  -4   6  10    2.80    3.90
   4  -6  10    1.30   11.20
   4   6 -10    5.20    3.10
  -4   6  10    4.20    7.90
   4   7  10   28.20    4.90
   4   7  10   44.30   13.10
  -4   7 -10   20.50    5.40
   4  -7  10   29.80   13.90
  -4   7  10   30.80    5.80
   4   7 -10   31.90    5.50
  -4   7  10   40.40   10.10
   4   8  10    1.80   12.60
  -4   8 -10   10.30    5.80
   4   8  10    8.20    4.80
  -4   8  10   10.40   10.40
  -4   8  10    7.90    6.20
   4  -8  10   -6.10   14.70
   4   8 -10    7.60    5.60
  -5   0  10  280.07   10.00
   5   0  10  271.67   14.30
  -5   1 -10 1471.85   41.40
   5   1  10 1512.95   48.20
  -5  -1  10 1514.35   43.60
   5  -1  10 1444.66   46.10
  -5   1  10 1458.25   48.30
   5  -1  10 1552.04   41.40
  -5   1  10 1417.96   42.60
   5   2  10   55.59    8.40
  -5  -2  10   60.19    5.10
  -5   2 -10   57.29    3.30
  -5  -2 -10   52.89    2.70
   5  -2  10   57.09    6.30
  -5   2  10   51.59    3.80
  -5  -2 -10   57.99    2.40
  -5   2  10   52.19    7.00
   5  -2  10   46.10    3.70
   5  -2  10   68.89   11.30
   5   3  10 1139.19   39.80
   5   3  10 1111.79   31.30
  -5  -3  10 1093.19   35.70
  -5   3 -10 1114.89   32.60
   5  -3  10 1083.79   43.00
  -5   3  10 1083.09   33.00
  -5   3  10 1082.69   37.90
  -5  -3 -10 1097.59   31.40
   5  -3  10 1086.99   36.10
   5   4  10   50.69    9.90
  -5   4 -10   51.99    5.00
   5   4  10   55.89    3.60
  -5  -4  10   56.99    7.60
   5  -4  10   62.79    7.90
  -5   4  10   54.79    5.50
  -5   4  10   64.89    9.10
   5  -4  10   58.69   12.20
  -5   5 -10  164.28    9.10
  -5  -5  10  173.48   13.80
   5   5  10  169.28    7.50
   5   5  10  155.18   16.40
  -5   5  10  185.68   14.50
   5  -5  10  150.78   19.50
  -5   5  10  167.68    9.50
   5   6  10   21.10    3.90
   5   6  10   20.40    9.50
  -5  -6  10   12.20    7.60
  -5   6 -10   25.80    4.90
  -5   6  10   18.20    7.90
   5  -6  10   21.10   12.70
  -5   6  10   22.80    5.00
  -5  -7  10  174.28   18.30
   5   7  10  175.08   20.40
  -5   7 -10  161.68   11.20
   5   7  10  160.88    9.80
   5  -7  10  175.78   21.00
  -5   7  10  186.78   11.80
  -5   7  10  183.68   17.40
   5   8  10   -3.80    4.50
   5   8  10    5.90   13.50
  -5  -8  10    5.40   10.90
  -5   8 -10    7.10    5.70
  -5   8  10   -4.30   10.30
  -5   8  10  -14.60    6.10
   5  -8  10  -25.20   14.70
   6   0  10   25.50    6.20
  -6   0  10   18.80    2.60
  -6   0 -10   22.10    1.30
   6   0  10   22.40    1.40
  -6  -1  10   92.89    5.60
  -6   1 -10  103.79    4.10
   6   1  10  121.59   10.80
  -6   1  10  112.99    9.60
  -6   1  10  101.29    5.20
   6  -1  10   99.19    8.50
   6  -1  10  106.79   13.90
   6  -1  10  108.69    4.10
  -6  -2  10   12.20    2.90
   6   2  10   11.80    6.00
  -6   2 -10   13.30    2.00
  -6   2  10   15.20    4.40
  -6  -2 -10   14.50    1.60
  -6   2  10   18.90    2.80
   6  -2  10   -2.90    7.20
   6  -2  10   17.50    4.10
  -6  -2 -10   14.00    1.40
  -6  -3  10    2.20    3.50
   6   3  10    6.80    6.40
  -6   3 -10   -0.60    1.60
  -6  -3 -10    1.50    1.50
   6  -3  10   -3.50    8.20
  -6  -3 -10    1.80    1.80
   6  -3  10   -3.80    3.40
  -6   3  10   -1.40    2.10
  -6   3  10   -8.20    4.00
   6   4  10   42.70   10.10
  -6   4 -10   50.99    5.20
   6   4  10   50.99    3.40
  -6  -4  10   45.40    7.50
  -6   4  10   52.59    8.80
   6  -4  10   46.10   11.20
  -6   4  10   55.69    5.20
   6  -4  10   55.79    6.60
   6   5  10    2.80    2.00
   6   5  10   -4.90    7.80
  -6  -5  10   -8.80    4.60
  -6   5 -10   -5.30    3.20
  -6   5  10   -0.90    3.30
   6  -5  10    6.20    5.00
   6  -5  10    2.80   10.50
  -6   5  10   -6.00    6.30
   6   6  10    2.10    2.90
   6   6  10   -0.80    6.70
  -6  -6  10   13.40    7.80
  -6   6 -10   11.40    4.00
   6   6  10   15.20    9.00
  -6   6  10   12.20    7.40
  -6   6  10    1.30    4.40
   6  -6  10  -13.60   12.40
   6   7  10    6.10   11.80
  -6   7 -10   14.70    4.80
  -6  -7  10   11.20    9.50
   6   7  10   10.80    4.20
   6  -7  10   13.20   15.00
  -6   7  10   11.00    9.60
  -6   7  10   14.60    5.20
  -6  -8  10  -26.20   10.50
   6   8  10    1.70    4.80
  -6   8 -10    0.70    5.30
   6   8  10   -7.20   13.10
   6  -8  10  -16.20   16.00
  -6   8  10   11.30   10.50
  -6   8  10   -2.60    5.90
  -7   0  10  142.59    6.90
  -7   0 -10  144.69    4.80
   7   0  10  147.89   15.00
   7   0  10  145.99    5.00
   7   0  10  144.09   10.70
   7   1  10  543.55   26.20
  -7  -1  10  534.05   18.40
  -7   1 -10  532.85   16.20
   7   1  10  537.95   22.60
  -7   1  10  550.64   17.90
   7  -1  10  555.44   27.70
  -7   1  10  525.45   22.90
   7  -1  10  551.24   16.20
  -7  -1 -10  546.65   15.30
  -7  -1 -10  553.64   15.30
   7  -1  10  562.74   21.30
  -7  -2  10   63.69    6.10
  -7   2 -10   77.79    4.20
   7   2  10   54.99    9.00
  -7   2  10   72.89    5.00
   7  -2  10   72.29    7.60
   7  -2  10   65.29   13.00
  -7  -2 -10   71.59    3.10
  -7  -2 -10   76.99    3.20
  -7   2  10   78.09    8.60
   7   3  10  457.65   22.90
  -7   3 -10  478.45   15.90
  -7  -3  10  449.56   18.30
  -7   3  10  509.45   17.00
   7  -3  10  445.96   27.40
  -7  -3 -10  487.35   15.40
  -7  -3 -10  483.55   14.70
   7  -3  10  474.65   18.00
  -7   3  10  476.05   20.40
   7   4  10  158.18   13.50
  -7   4 -10  153.38    8.10
  -7  -4  10  148.09   11.50
   7   4  10  141.99   15.90
  -7   4  10  157.48    8.80
   7  -4  10  146.89   18.20
   7  -4  10  152.58    9.50
  -7  -4 -10  168.28    8.30
   7  -4  10  149.49    9.80
  -7   4  10  170.28   13.30
   7   5  10   27.60    7.30
  -7  -5  10   26.80    7.70
  -7   5 -10   29.70    5.00
   7   5  10   26.10   10.40
   7  -5  10   41.30    6.00
  -7   5  10   27.50    5.20
  -7   5  10   22.30    7.60
   7  -5  10   18.70   12.10
  -7  -6  10   25.70    7.80
   7   6  10   18.20   10.10
   7   6  10   15.60    7.30
  -7   6 -10   14.70    4.60
   7   6  10   15.40    3.60
  -7   6  10   19.90    7.80
   7  -6  10   15.30    6.30
   7  -6  10    6.30   14.00
  -7   6  10   14.90    4.70
   7   7  10   72.69   16.00
  -7   7 -10   73.59    8.30
   7   7  10   69.69    7.70
  -7  -7  10   70.79   12.40
   7  -7  10   75.59   18.30
  -7   7  10   88.89   11.70
  -7   7  10   65.79    8.40
  -7   8 -10    9.60    6.70
   7   8  10   19.50   13.70
   7   8  10   15.10    5.50
  -7  -8  10    8.30   12.40
   7  -8  10   19.80   17.40
  -7   8  10   18.60   10.40
  -7   8  10    9.60    6.70
   8   0  10   13.70    1.70
   8   0  10    7.60    4.40
   8   0  10   12.20    7.70
  -8   0 -10   12.80    1.20
  -8   0  10   12.60    2.50
  -8   1 -10  291.67    9.50
   8   1  10  293.47   19.60
   8   1  10  270.37   15.40
  -8  -1  10  281.67   11.60
   8  -1  10  259.57   20.90
   8  -1  10  293.97    9.50
   8  -1  10  286.67   14.20
  -8  -1 -10  299.77    8.70
  -8   1  10  303.27   11.30
  -8   1  10  254.17   15.70
  -8  -1 -10  289.87    8.60
   8   2  10    2.40    6.20
  -8  -2  10    3.40    3.20
  -8   2 -10    9.00    1.90
   8   2  10    7.50    7.40
  -8  -2 -10    9.50    1.40
  -8   2  10    6.60    2.60
  -8  -2 -10   11.60    1.50
   8  -2  10   10.20    4.60
   8  -2  10   11.10    9.30
  -8   2  10   16.70    5.40
  -8  -3  10  110.99    8.60
  -8   3 -10  113.59    6.10
   8   3  10  119.39   14.00
   8   3  10  104.19   12.40
   8  -3  10  119.19   17.20
  -8   3  10  106.49    6.70
   8  -3  10  130.89    8.80
  -8  -3 -10  114.99    5.40
  -8  -3 -10   97.29    5.10
  -8   3  10  104.29   10.20
   8   4  10    6.50    6.50
  -8   4 -10    7.30    2.90
   8   4  10   -0.80    7.10
  -8  -4  10    1.70    4.40
   8  -4  10    2.00    3.60
   8  -4  10    8.70    4.10
  -8   4  10   -0.20    3.60
   8  -4  10   14.10   11.20
  -8   4  10    6.10    6.50
  -8  -4 -10    0.10    2.50
   8   5  10   24.00    9.80
  -8  -5  10   12.20    5.90
   8   5  10   26.30    7.70
  -8   5 -10   19.40    4.30
  -8  -5 -10   24.20    4.90
  -8   5  10   20.80    4.70
  -8   5  10   22.90    7.30
   8  -5  10    6.40   12.70
   8  -5  10   14.60    4.60
  -8   6 -10    7.70    4.60
  -8  -6  10    5.20    7.90
   8   6  10    5.40    9.50
   8   6  10    1.50    7.50
  -8  -6 -10    4.90    6.20
  -8   6  10   10.40    5.20
  -8   6  10   12.30    7.90
   8  -6  10   -0.90   14.10
  -8   7 -10   20.30    6.80
  -8  -7  10   21.80   11.20
   8   7  10   36.40   12.60
  -8  -7 -10    8.60    8.20
  -8   7  10   19.10    6.50
   8  -7  10    4.60   16.00
  -8   7  10   22.60    9.00
  -8  -8  10   34.10   14.50
  -8   8 -10    0.80    6.60
   8   8  10    1.40   14.00
   8  -8  10   37.30   19.60
  -8  -8 -10   13.50   10.10
  -8   8  10    2.00    7.20
   9   0  10  506.85   20.80
  -9   0  10  507.15   17.80
  -9   0 -10  518.45   15.30
   9   0  10  515.55   15.60
   9   0  10  502.15   28.30
  -9  -1  10   -1.30    2.50
   9   1  10    1.10    5.40
  -9   1 -10    0.40    1.40
   9   1  10   -0.60    7.60
   9  -1  10   -6.40    8.40
   9  -1  10   -1.30    4.00
  -9  -1 -10    3.40    1.00
  -9  -1 -10    4.80    1.10
   9  -1  10    1.20    2.00
  -9   1  10    2.90    2.50
   9   2  10  329.07   18.30
  -9   2 -10  304.37   10.80
  -9  -2  10  306.67   13.00
   9   2  10  311.17   20.30
   9  -2  10  301.77   14.30
  -9  -2 -10  301.47    9.80
  -9  -2 -10  306.57    9.80
  -9   2  10  311.27   16.60
   9  -2  10  341.47   25.10
  -9   2  10  296.97   12.20
   9   3  10   21.40    8.80
   9   3  10   16.90    8.80
  -9  -3  10   16.40    4.20
  -9   3 -10   21.50    3.30
  -9   3  10   16.60    4.00
  -9  -3 -10   20.30    2.40
  -9   3  10   17.00    5.80
   9  -3  10   30.50   12.70
  -9  -3 -10    5.30    3.50
   9  -3  10   21.40    4.80
  -9   4 -10  411.16   15.00
   9   4  10  394.36   21.80
  -9  -4  10  395.36   18.00
   9   4  10  369.26   22.10
  -9   4  10  389.46   19.60
   9  -4  10  393.36   15.20
   9  -4  10  404.26   14.20
  -9  -4 -10  400.56   14.30
  -9   4  10  361.56   15.40
   9  -4  10  426.46   30.20
   9   5  10    3.30    9.00
   9   5  10    3.50    7.90
  -9  -5  10    4.40    6.00
  -9   5 -10    8.40    4.00
   9  -5  10    1.70   13.10
  -9  -5 -10    5.80    4.00
  -9   5  10    6.30    4.10
  -9   5  10   17.60    6.50
  -9  -6  10  114.49   13.40
  -9   6 -10  124.49    9.60
   9   6  10  113.19   16.90
   9  -6  10  121.99   20.60
  -9   6  10  159.28   14.80
  -9   6  10  111.29   10.10
  -9  -6 -10  143.49   12.10
  -9   7 -10   31.50    6.90
  -9  -7  10   19.10   10.60
   9   7  10   37.30   13.00
   9  -7  10   14.00   17.90
  -9  -7 -10   23.00    8.50
  -9   7  10   33.90    8.70
  -9   7  10   19.40    6.50
  10   0  10  287.07   15.40
 -10   0 -10  308.27    9.50
 -10   0  10  273.37   11.60
  10   0  10  272.67   10.10
  10   0  10  305.47   23.00
 -10   1 -10   97.49    4.70
  10   1  10   89.49   10.90
  10   1  10   58.49   12.70
 -10  -1  10   86.79    6.70
  10  -1  10   89.79    8.40
 -10   1  10   99.49    6.20
 -10  -1 -10   88.79    3.90
  10  -1  10   99.19   16.30
  10   2  10   99.79   12.80
  10   2  10  124.69   15.60
 -10  -2  10  110.69    8.00
 -10   2 -10   99.79    5.50
  10  -2  10  112.89    8.50
 -10   2  10  106.69    6.90
 -10  -2 -10  102.19    4.50
 -10   2  10   97.39   11.10
 -10  -2 -10  110.89    4.90
  10  -2  10  105.79   16.20
  10   3  10   78.09   11.90
 -10  -3  10   69.29    7.70
 -10   3 -10   67.79    5.20
  10   3  10   56.79   10.80
  10  -3  10   58.69   14.00
  10  -3  10   72.99    6.90
 -10  -3 -10   61.39    4.10
 -10   3  10   77.89    6.90
 -10   3  10   73.19    9.70
 -10   4 -10  137.49    8.10
  10   4  10  145.89   15.30
 -10  -4  10  128.79   11.00
  10   4  10   94.89   13.80
  10  -4  10  115.29   19.80
 -10  -4 -10  134.19    7.10
 -10   4  10  143.19    9.10
 -10   4  10  118.49   13.10
  10  -4  10  151.88    7.20
  10   5  10    7.10    8.50
 -10  -5  10    4.90    5.50
  10   5  10   -1.80    8.20
 -10   5 -10    2.90    4.00
  10  -5  10   -6.10   13.20
 -10   5  10    4.30    4.40
 -10  -5 -10    1.20    4.30
 -10   5  10   10.90    6.80
 -10  -6  10   16.70    9.20
  10   6  10   28.60   12.60
 -10   6 -10   27.60    5.80
  10  -6  10   28.70   16.00
 -10   6  10   18.80    7.80
 -10  -6 -10   18.50    6.10
 -10   6  10   21.80    5.80
  10   7  10   -3.00   12.10
 -10  -7  10    5.30   10.10
 -10   7 -10  -10.10    5.70
 -10  -7 -10   15.90    7.90
 -10   7  10   -0.50    5.60
  10  -7  10    6.90   17.70
 -11   0 -10   41.70    3.10
 -11   0  10   40.00    5.00
 -11   1 -10  477.95   15.50
 -11  -1  10  490.05   18.20
  11   1  10  493.25   28.90
  11   1  10  467.05   16.80
  11   1  10  469.85   22.60
  11  -1  10  493.35   31.70
 -11  -1 -10  498.75   14.90
  11  -1  10  510.45   19.80
 -11   1  10  478.05   17.70
  11   2  10   12.80   10.60
  11   2  10   12.30    8.30
 -11   2 -10   11.10    2.50
 -11  -2  10   13.60    4.20
 -11  -2 -10    6.60    1.80
 -11   2  10   18.60    6.70
 -11   2  10   13.50    3.80
  11  -2  10   17.10   11.70
  11  -2  10    9.30    4.60
  11   3  10  303.57   23.90
  11   3  10  313.37   19.70
 -11  -3  10  313.27   15.10
 -11   3 -10  335.67   12.70
 -11   3  10  319.97   13.80
 -11   3  10  314.97   16.80
  11  -3  10  261.07   27.60
  11  -3  10  324.37   12.80
 -11  -3 -10  319.47   11.10
 -11  -4  10    1.10    4.70
  11   4  10    4.00    8.30
 -11   4 -10   -4.20    3.30
  11   4  10   -9.30    9.20
  11  -4  10   -8.70   13.80
 -11   4  10   -6.10    3.50
 -11   4  10    6.10    6.70
 -11  -4 -10    0.80    2.60
 -11  -5  10  259.47   16.00
  11   5  10  287.77   22.30
  11   5  10  289.87   20.10
 -11   5 -10  275.47   13.30
 -11   5  10  262.67   16.30
  11  -5  10  300.37   29.30
 -11   5  10  255.17   13.90
 -11  -5 -10  311.27   13.10
 -11  -6  10   11.10    7.10
  11   6  10    2.60   12.20
 -11   6 -10    9.50    5.20
 -11  -6 -10   -0.60    5.80
 -11   6  10    8.20    6.00
 -11   6  10    8.00    6.90
  11  -6  10    8.00   17.70
  11   7  10   18.80   14.20
 -11   7 -10   51.09    8.10
 -11  -7  10   34.50   10.60
  11  -7  10   10.40   19.50
 -11   7  10   38.20    8.00
 -11  -7 -10   18.70    8.00
 -12   0 -10   35.30    3.20
  12   0  10   47.20   14.60
 -12   0  10   36.70    5.00
 -12  -1  10   50.79    5.80
  12   1  10   69.69   15.40
 -12   1 -10   51.29    4.00
  12   1  10   56.79    9.20
 -12  -1 -10   59.79    3.50
  12  -1  10   28.20   12.70
  12  -1  10   61.49    7.60
 -12   1  10   56.49    6.40
 -12  -2  10    2.10    3.80
  12   2  10    6.90    7.70
 -12   2 -10    8.60    2.50
  12   2  10   -0.80    9.70
  12  -2  10    0.20   11.20
 -12   2  10    3.10    3.30
  12  -2  10   11.80    4.50
 -12   2  10    7.40    6.60
 -12  -2 -10    4.30    1.80
 -12   3 -10   32.30    4.30
 -12  -3  10   36.30    6.20
  12   3  10   29.40   12.30
  12   3  10   39.90   10.40
  12  -3  10   40.10   14.50
 -12   3  10   24.90    7.10
 -12  -3 -10   31.00    3.60
  12  -3  10   36.40    4.70
 -12   3  10   28.70    5.30
 -12   4 -10    4.30    3.80
  12   4  10   22.00   11.90
 -12  -4  10   10.00    5.60
  12   4  10    0.50    8.50
 -12   4  10   10.70    4.40
  12  -4  10   15.20   14.70
 -12   4  10    1.10    7.00
 -12  -4 -10    1.20    2.80
  12   5  10    4.60   11.70
  12   5  10   -3.90    9.80
 -12   5 -10    1.00    4.40
 -12  -5  10    4.70    7.10
 -12  -5 -10    1.90    3.80
  12  -5  10    2.30   14.50
 -12   5  10   -5.20    6.60
 -12   5  10    8.80    5.10
  12   6  10   10.30   11.80
 -12   6 -10    1.30    5.10
 -12  -6  10   -7.60    8.50
 -12   6  10    9.60    5.80
 -12  -6 -10   13.00    5.60
  12  -6  10  -17.40   16.80
  12   7  10   27.00   15.90
 -12   7 -10    9.30    6.70
 -12  -7  10    8.00   11.00
 -12  -7 -10   -3.80    7.40
  12  -7  10   31.90   21.00
 -12   7  10    3.90    6.80
  13   0  10   22.50   11.90
 -13   0 -10   26.80    2.90
 -13   0  10   25.20    4.50
  13   0  10   33.90    7.90
 -13   1 -10  110.49    5.80
  13   1  10  129.79   19.00
  13   1  10  106.89   12.90
 -13  -1  10  118.99    8.00
  13  -1  10   70.09   16.30
 -13  -1 -10  110.19    5.20
 -13   1  10  105.19    7.60
  13  -1  10   99.09   10.20
 -13   2 -10   13.20    3.10
  13   2  10   11.60    8.20
 -13  -2  10    9.40    4.10
  13   2  10   -8.70   11.80
 -13  -2 -10    8.90    2.00
  13  -2  10    9.90   12.90
 -13   2  10    8.60    4.10
 -13   2  10    2.70    7.50
  13  -2  10   15.40    4.60
 -13   3 -10   87.79    6.90
 -13  -3  10   94.39    8.70
  13   3  10   78.59   13.20
  13   3  10   93.49   16.30
 -13   3  10   65.69    9.50
 -13   3  10   72.29    7.10
  13  -3  10   82.19    6.20
  13  -3  10   86.99   18.30
 -13  -3 -10   75.69    5.10
 -13  -4  10   18.80    6.00
  13   4  10   16.60   11.70
  13   4  10   32.80   11.40
 -13   4 -10   15.80    4.40
 -13   4  10   22.50    5.10
  13  -4  10   21.20   15.60
 -13   4  10   20.30    8.20
 -13  -4 -10   14.80    3.70
 -13  -5  10   88.59   10.70
  13   5  10  109.19   17.50
  13   5  10   81.39   14.00
 -13   5 -10  108.59    9.40
 -13   5  10   90.09    9.50
 -13   5  10   85.69    9.90
  13  -5  10   93.29   20.50
 -13  -5 -10   72.09    8.00
 -13   6 -10    4.70    5.70
 -13  -6  10    1.70    8.40
  13   6  10   12.30   12.00
 -13   6  10   -2.80    6.00
  13  -6  10    8.60   19.70
 -13  -6 -10   -5.40    5.70
 -14   0  10   27.70    5.20
  14   0  10   25.70   13.60
 -14   0 -10   25.00    3.00
  14   0  10   27.60    8.30
 -14   1 -10   23.30    3.30
  14   1  10   33.40   14.40
  14   1  10   19.50    8.70
 -14  -1  10   16.80    4.60
  14  -1  10   20.70   13.20
 -14  -1 -10   19.90    2.60
 -14   1  10   13.10    4.30
  14  -1  10   20.90    6.30
  14   2  10    8.90    8.90
 -14  -2  10   18.00    4.90
  14   2  10   20.00   13.50
 -14   2 -10   20.90    3.80
 -14   2  10   14.80    8.90
 -14  -2 -10   12.20    2.30
 -14   2  10   11.90    3.80
  14  -2  10   -6.70   11.70
  14  -2  10   20.20    4.90
  14   3  10   15.80   13.10
  14   3  10   19.60    9.60
 -14  -3  10    8.30    4.70
 -14   3 -10   10.70    4.00
 -14   3  10   15.70    4.50
 -14   3  10   23.90    8.00
 -14  -3 -10   17.60    3.20
  14  -3  10    5.50   15.30
 -14   4 -10    3.30    4.40
 -14  -4  10    7.30    6.10
  14   4  10  -11.90   11.70
  14   4  10  -19.80   10.00
  14  -4  10   -4.30   15.10
 -14   4  10   -0.50    4.80
 -14  -4 -10   -7.30    3.30
 -14   4  10  -10.80    7.40
 -14   5 -10   50.99    7.10
  14   5  10   50.19   14.20
 -14  -5  10   44.80    9.10
  14   5  10   45.70   12.90
 -14   5  10   39.60    7.70
 -14  -5 -10   47.00    6.00
  14  -5  10   43.00   19.30
 -14  -6  10    1.40    9.40
 -14   6 -10    0.90    5.90
  14   6  10   16.60   14.70
 -14   6  10    1.50    6.40
  14  -6  10   35.50   21.80
 -14  -6 -10    6.70    5.70
 -15   0 -10  593.24   18.30
  15   0  10  469.35   24.10
 -15   0  10  594.54   21.40
  15   0  10  554.04   35.70
 -15   1 -10   65.39    5.70
 -15  -1  10   61.29    7.10
  15   1  10   58.59   10.90
  15   1  10   68.19   17.40
  15  -1  10   88.59   11.10
 -15   1  10   64.99    7.60
  15  -1  10   50.29   17.10
 -15  -1 -10   63.19    4.90
 -15  -2  10  513.65   20.20
  15   2  10  543.45   34.40
 -15   2 -10  471.85   17.30
  15   2  10  520.35   26.70
 -15  -2 -10  510.15   16.30
  15  -2  10  433.26   35.00
 -15   2  10  488.95   19.40
 -15   2  10  402.86   23.70
  15  -2  10  511.85   18.80
 -15   3 -10   44.80    5.60
  15   3  10   52.19   15.90
  15   3  10   64.19   13.50
 -15  -3  10   39.00    7.30
  15  -3  10   41.10   18.00
 -15   3  10   47.50    9.60
 -15  -3 -10   40.70    4.50
 -15   3  10   51.49    6.70
 -15   4 -10  212.38   12.10
  15   4  10  246.88   23.00
  15   4  10  211.98   26.70
 -15  -4  10  247.28   15.30
 -15   4  10  201.48   16.50
 -15  -4 -10  219.78   10.50
 -15   4  10  258.67   14.10
  15  -4  10  277.47   32.20
  15   5  10   24.70   14.50
  15   5  10   15.10   13.10
 -15   5 -10    7.80    5.50
 -15  -5  10   20.10    7.80
  15  -5  10   23.40   19.40
 -15   5  10   19.30    6.90
 -15  -5 -10   15.90    5.10
 -15  -6  10   90.39   13.20
  15   6  10   83.79   18.80
 -15   6 -10  119.39   12.70
 -15  -6 -10   81.49    8.70
  15  -6  10   74.69   24.80
 -15   6  10   72.19   10.50
 -16   0 -10    3.70    3.10
  16   0  10  -21.30   13.40
  16   0  10   18.80    7.80
 -16   0  10    1.70    4.20
 -16  -1  10   75.99    7.90
 -16   1 -10   63.29    6.10
  16   1  10   63.89   17.60
  16   1  10   78.69   12.00
 -16  -1 -10   67.99    5.60
  16  -1  10   87.39   11.10
 -16   1  10   76.99    8.30
  16  -1  10   53.29   17.70
  16   2  10    8.80   15.40
 -16   2 -10   16.70    4.10
 -16  -2  10    7.50    5.00
  16   2  10   14.00    9.90
  16  -2  10   16.40    5.40
  16  -2  10   24.50   16.50
 -16   2  10    8.60    4.80
 -16   2  10   19.40    9.70
 -16  -2 -10    7.90    3.30
  16   3  10   42.90   12.20
  16   3  10   24.10   16.20
 -16   3 -10   33.10    5.50
 -16  -3  10   20.00    6.60
 -16  -3 -10   17.70    4.00
 -16   3  10   33.10    6.50
 -16   3  10   35.30   10.20
  16  -3  10   22.40   19.50
  16   4  10   23.40   13.50
 -16   4 -10    6.80    5.10
  16   4  10    3.90   14.40
 -16  -4  10    4.10    6.80
 -16   4  10    9.20    6.20
  16  -4  10   -3.50   18.60
 -16  -4 -10    0.60    4.00
 -16   5 -10   27.60    6.60
 -16  -5  10    8.50    7.80
  16   5  10   33.00   15.50
 -16   5  10   16.30    6.90
  16  -5  10    9.60   21.50
 -16  -5 -10   18.30    5.40
  17   0  10    9.60    8.50
 -17   0  10    3.20    4.50
 -17   0 -10    3.40    3.20
  17   0  10   -8.60   14.50
 -17  -1  10  349.96   16.70
  17   1  10  297.97   21.70
 -17   1 -10  326.57   13.50
  17   1  10  341.67   32.60
 -17   1  10  328.77   16.10
  17  -1  10  365.26   18.50
  17  -1  10  312.07   33.70
 -17  -1 -10  333.97   12.70
 -17   2 -10   10.20    4.30
  17   2  10   -0.10    9.50
  17   2  10    5.90   15.10
 -17  -2  10    6.90    5.30
 -17   2  10    0.60    9.80
 -17  -2 -10    1.70    3.10
 -17   2  10   16.10    5.90
  17  -2  10  -22.50   15.70
 -17  -3  10  222.38   14.70
  17   3  10  227.28   25.00
  17   3  10  250.17   22.70
 -17   3 -10  222.68   11.80
 -17  -3 -10  203.48   10.10
 -17   3  10  208.78   18.70
 -17   3  10  212.08   13.60
  17  -3  10  191.98   27.70
  17   4  10   18.40   13.10
  17   4  10    4.10   16.10
 -17  -4  10   -0.40    7.30
 -17   4 -10   -0.30    4.90
  17  -4  10   -2.50   21.20
 -17  -4 -10   -3.60    4.40
 -17   4  10  -11.30    5.80
 -17   5 -10  129.99   11.70
 -17  -5  10  119.59   13.70
 -17  -5 -10  117.19   10.20
  18   0  10   74.19   12.10
 -18   0 -10   60.59    7.00
  18   0  10   57.59   21.50
 -18   0  10   62.09    7.90
 -18  -1  10   40.70    7.10
  18   1  10   26.70   18.70
 -18   1 -10   33.00    5.10
  18   1  10   48.50   11.60
 -18  -1 -10   23.00    4.20
  18  -1  10   50.59   20.00
  18  -1  10   36.30    8.90
 -18   1  10   31.40    6.90
 -18  -2  10  158.28   12.90
  18   2  10  173.78   25.20
  18   2  10  189.18   19.70
 -18   2 -10  167.68   10.20
 -18   2  10  161.38   12.50
  18  -2  10  165.58   27.90
 -18   2  10  173.08   20.30
 -18  -2 -10  162.98    9.10
 -18  -3  10    5.20    6.50
 -18   3 -10    6.50    4.70
  18   3  10   11.40   12.20
  18   3  10  -21.20   16.80
 -18  -3 -10   -9.00    3.70
 -18   3  10    2.30    5.70
  18  -3  10   18.00   21.10
 -18   4 -10   27.20    6.50
  18   4  10   31.30   17.60
  18   4  10   57.69   16.90
 -18  -4  10   20.50    8.20
 -18  -4 -10   20.20    5.60
 -18   4  10   19.70    7.10
  18  -4  10   52.59   23.60
 -19   0  10   58.19    8.60
  19   0  10   63.79   21.70
 -19   0 -10   44.70    5.40
  19   0  10   58.99   11.60
  19   1  10   85.89   13.70
 -19   1 -10   47.30    6.10
 -19  -1  10   57.19    8.50
  19   1  10   68.39   21.40
  19  -1  10   40.40   22.70
 -19  -1 -10   58.49    5.90
 -19   1  10   62.39    8.70
 -19  -2  10   63.79    8.90
  19   2  10   84.89   14.70
 -19   2 -10   49.90    6.50
  19   2  10   66.69   21.10
  19  -2  10   47.90   20.50
 -19  -2 -10   54.69    5.70
 -19   2  10   48.80    8.30
 -19   2  10   44.20   13.80
 -19   3 -10   40.90    6.40
  19   3  10   21.90   14.70
  19   3  10   53.19   20.20
 -19  -3  10   23.60    8.50
 -19  -3 -10   32.10    5.50
 -19   3  10   30.70    7.40
  19  -3  10   78.09   24.80
  20   0  10  131.69   14.90
  20   0  10   87.09   23.80
 -20   0 -10   97.59    9.10
 -20   0  10  145.49   12.80
  20   1  10   89.39   24.20
 -20  -1  10   44.60    8.80
  20   1  10   49.60   13.80
 -20   1 -10   47.80    6.10
 -20   1  10   31.00    7.50
 -20  -1 -10   43.00    5.70
  20  -1  10   32.50   21.00
 -20   2 -10   13.50    5.40
  20   2  10    6.90   15.10
 -20  -2  10    7.20    7.10
  20   2  10   30.40   20.60
 -20   2  10    5.40    6.50
 -20  -2 -10    8.50    4.80
  20  -2  10  -31.90   20.70
   0   0  11   -1.40    3.30
   0   0  11    1.70    0.90
   0   1  11   -2.40    3.20
   0  -1  11    0.70    1.30
   0   1  11   -1.00    0.70
   0  -1  11    1.10    1.20
   0  -1  11   -1.20    3.50
   0  -1 -11    0.70    1.10
   0  -2 -11   73.59    3.50
   0   2  11   70.09    3.50
   0   2  11   72.69    9.30
   0  -2  11   85.89    5.50
   0   3  11    1.60    1.50
   0   3  11    4.40    6.10
   0   3 -11   -2.30    1.30
   0   4  11  339.87   19.10
   0   4 -11  357.66   13.00
   0   4  11  344.77   12.20
   0   5  11   -5.10    7.10
   0   5  11    1.10    2.60
   0   5 -11    5.20    2.90
   0  -5  11   -5.40    7.70
   0  -6  11  110.29   14.40
   0   6  11  105.49    7.60
   0   6 -11  104.39    7.90
   0   6  11   97.69   13.60
   0   7  11    0.30    4.20
   0   7  11    8.80    9.80
   0   7 -11    7.10    4.40
   0  -7  11   -5.90   10.20
   0   8  11  182.18   12.30
   0   8 -11  190.68   12.10
   0   8  11  198.28   22.40
   1   0 -11   -2.40    1.60
  -1   0  11   -2.50    3.40
  -1   0  11   -0.10    0.90
   1   0  11    0.00    0.70
   1   0  11   -0.10    0.70
   1   0  11   -0.90    3.00
  -1  -1  11   69.99    8.20
   1   1  11   57.49    2.40
   1   1  11   57.99    7.10
   1  -1 -11   53.49    3.20
  -1  -1  11   51.69    3.30
  -1  -1  11   50.59    3.60
   1  -1  11   51.29    6.40
  -1   1  11   56.69    2.80
  -1   1  11   47.20    6.50
   1  -1  11   57.79    3.60
  -1  -1 -11   53.19    2.70
   1  -1  11   56.29    3.00
  -1  -2  11   43.80    4.30
   1  -2 -11   43.50    3.10
   1   2  11   44.70    8.00
   1   2  11   50.09    2.60
  -1   2 -11   45.80    2.90
  -1   2  11   62.99    8.50
  -1  -2 -11   41.00    2.50
  -1   2  11   41.70    2.90
   1   3  11   90.49   11.60
   1   3  11   88.49    4.30
  -1   3 -11   88.09    4.70
  -1   3  11   96.69   10.70
   1   3 -11   95.89    5.00
  -1   3  11   85.19    4.60
  -1  -3 -11   95.19    4.70
   1   4  11   33.50    8.60
  -1   4 -11   31.00    3.70
   1   4  11   29.60    3.30
  -1   4  11   28.40    3.50
   1   4 -11   28.90    3.80
  -1   4  11   30.20    8.70
  -1   5 -11    4.30    2.90
   1   5  11    2.40    2.50
   1   5  11   -7.90    7.50
   1   5 -11    7.40    3.00
  -1   5  11   -4.90    7.20
   1  -5  11   16.60    8.10
  -1   5  11    7.00    3.00
   1   6  11   25.30   10.00
  -1  -6  11   37.10   10.10
  -1   6 -11   20.20    4.60
   1   6  11   18.40    4.20
   1  -6  11   32.60   11.30
  -1   6  11   31.40    4.80
   1   6 -11   18.50    4.20
  -1   6  11   15.00    8.90
  -1  -7  11   -7.40   10.00
   1   7  11    9.70   10.10
  -1   7 -11    1.10    4.30
   1   7  11    1.60    4.20
  -1   7  11   -2.50    4.00
   1   7 -11    2.30    4.10
   1  -7  11    3.70   12.80
  -1   7  11    2.80    9.80
   1   8  11    8.70    5.30
  -1   8 -11    0.40    5.10
   1   8  11   -1.30   13.20
  -1   8  11   24.80   12.10
  -1   8  11    1.70    5.10
   1   8 -11   10.60    5.60
   2   0  11   -0.80    0.60
   2   0  11   -2.70    2.80
  -2   0  11   -2.00    1.00
  -2   0  11   -0.30    3.60
   2   0  11   -0.30    0.60
   2   0 -11   -1.20    1.90
   2   1  11   10.50    0.90
   2   1  11   17.60    5.10
  -2  -1  11   13.00    2.00
   2  -1 -11   12.90    2.10
  -2   1  11   14.20    4.80
   2  -1  11    9.90    1.80
  -2   1  11   10.20    1.50
   2  -1  11   13.00    1.50
  -2  -1 -11   13.80    1.30
   2  -1  11   10.00    3.90
  -2  -2  11  122.99    6.70
   2   2  11  111.19    4.20
  -2   2 -11  117.89    5.00
   2   2  11  136.79   12.20
  -2  -2 -11  119.09    4.20
   2  -2  11  110.89    9.10
  -2   2  11  116.49    9.50
  -2   2  11  118.49    5.20
  -2   3 -11   17.60    2.40
  -2  -3  11   22.60    4.40
   2   3  11   16.00    1.90
   2   3  11   28.30    8.00
  -2   3  11   18.00    2.50
  -2   3  11   25.00    7.70
  -2  -3 -11   16.30    2.10
   2   4  11  304.07   10.40
   2   4  11  268.97   17.70
  -2   4 -11  295.67   11.40
   2  -4  11  298.67   19.90
   2   4 -11  261.57   11.20
  -2   4  11  316.17   18.90
  -2   4  11  290.47   11.30
  -2   5 -11    8.70    3.40
   2   5  11    6.60    2.50
   2   5  11    9.60    8.40
   2   5 -11    4.80    2.80
  -2   5  11   16.40    7.50
  -2   5  11    8.80    3.20
   2  -5  11   15.10   10.40
  -2   6 -11   21.50    4.70
  -2  -6  11   38.10    9.80
   2   6  11   26.60    4.30
   2   6  11   43.00   11.00
   2  -6  11   31.70   11.80
   2   6 -11   27.40    4.60
  -2   6  11   28.10    9.80
  -2   6  11   17.90    4.50
  -2   7 -11  118.99    9.00
   2   7  11  107.69   15.30
   2   7  11  108.99    8.70
  -2  -7  11  118.59   13.10
  -2   7  11  117.89    9.50
   2   7 -11  120.39    9.60
  -2   7  11  110.69   14.60
   2  -7  11  101.59   16.60
   2   8  11   58.09   14.50
  -2   8 -11   40.80    7.40
   2   8  11   32.80    6.40
   2   8 -11   39.10    7.00
  -2   8  11   34.00    7.00
  -2   8  11   26.40   12.20
   3   0  11   -3.10    2.90
  -3   0  11   -4.60    4.00
  -3   0  11   -1.60    1.10
  -3   1 -11  131.99    4.60
   3   1  11  136.39   11.30
  -3  -1  11  123.89    6.10
  -3   1  11  129.99    5.40
  -3   1  11  137.09   10.20
   3  -1  11  130.99    8.80
   3  -1  11  123.49    4.70
   3   2  11    9.50    5.90
   3   2  11    1.10    0.70
  -3   2 -11    0.10    1.10
  -3  -2  11   -2.30    2.00
   3  -2  11   -1.90    3.50
  -3   2  11    1.10    1.30
  -3   2  11   -5.20    4.10
  -3  -2 -11    1.10    0.80
   3  -2  11    3.40    2.00
  -3  -3  11   60.69    6.20
   3   3  11   55.49    9.60
  -3   3 -11   64.59    3.90
   3   3  11   56.59    3.20
   3  -3  11   62.79    8.40
  -3   3  11   76.79   10.40
  -3  -3 -11   62.39    3.50
  -3   3  11   53.89    4.10
  -3   4 -11    8.40    2.50
   3   4  11   10.60    2.10
  -3  -4  11   11.00    4.60
   3   4  11    4.70    7.70
  -3   4  11   11.70    2.70
  -3   4  11   26.00    8.70
   3  -4  11   -6.80    7.90
  -3   5 -11    2.40    3.00
   3   5  11   -1.60    2.00
   3   5  11   -2.70    8.00
   3  -5  11   -7.20    9.30
  -3   5  11   -2.50    6.70
   3   5 -11    3.90    2.80
  -3   5  11   -1.80    2.90
  -3  -6  11    6.50    8.20
   3   6  11    7.60    3.20
   3   6  11    8.60    8.70
  -3   6 -11    0.10    3.90
   3   6 -11    0.70    3.20
  -3   6  11   -0.60    3.70
   3  -6  11   -6.80   11.00
  -3   6  11    7.80    8.20
   3   7  11    4.50    4.00
  -3   7 -11    6.20    4.30
  -3  -7  11   15.30    9.00
   3   7  11    8.40   10.20
   3   7 -11   -0.20    4.00
   3  -7  11   13.50   14.00
  -3   7  11    4.50    4.80
  -3   7  11   12.90   10.30
  -3   8 -11   -5.20    5.00
   3   8  11    4.10    4.90
   3   8  11    2.40   12.30
   3  -8  11  -10.60   15.20
  -3   8  11   13.90   11.70
   3   8 -11   -7.50    5.10
  -3   8  11    1.50    6.00
  -4   0  11   -0.80    4.40
  -4   0  11   -2.70    1.20
   4   0  11    1.80    3.70
  -4  -1  11   28.30    3.00
  -4   1 -11   25.40    1.60
   4   1  11   22.60    6.70
  -4   1  11   19.80    5.20
   4  -1  11   29.00    5.20
  -4   1  11   24.80    2.50
   4  -1  11   24.20    2.00
   4   2  11   -7.90    5.60
  -4  -2  11   -2.00    2.10
  -4   2 -11   -1.80    1.10
  -4  -2 -11    0.10    0.60
   4  -2  11    2.40    1.80
   4  -2  11    3.00    3.50
  -4   2  11    1.30    1.50
  -4   2  11   -0.20    4.20
  -4   3 -11   89.69    4.80
   4   3  11   57.99    9.50
   4   3  11   80.99    3.60
  -4  -3  11   81.99    7.00
   4  -3  11   86.09   13.20
   4  -3  11   89.39    8.60
  -4   3  11   91.29    5.40
  -4   3  11   93.49   11.10
  -4  -3 -11   82.69    3.90
  -4  -4  11    5.10    4.60
   4   4  11   -3.20    7.60
  -4   4 -11    4.40    2.50
   4   4  11    6.00    1.70
   4  -4  11   -6.50    8.70
  -4   4  11    5.10    2.90
  -4   4  11   13.60    7.90
   4   5  11  127.29    6.50
   4   5  11  131.29   15.30
  -4  -5  11  104.29   11.20
  -4   5 -11  124.59    7.80
  -4   5  11  111.89   12.90
  -4   5  11  130.39    8.20
   4  -5  11   99.49   14.90
  -4   6 -11  178.38    9.70
   4   6  11  145.19   16.10
   4   6  11  148.29    8.20
   4  -6  11  146.09   18.10
  -4   6  11  164.28   16.00
  -4   6  11  146.09    9.70
   4   7  11  263.07   23.20
  -4   7 -11  264.07   13.40
   4   7  11  265.87   12.30
  -4   7  11  242.98   13.50
   4  -7  11  261.87   28.60
  -4   7  11  206.58   19.20
   4   8  11   62.99    7.20
  -4   8 -11   68.09    9.00
   4   8  11   52.69   14.90
  -4   8  11   53.09    8.00
  -4   8  11   76.69   14.20
   4  -8  11   27.30   16.80
  -5   0  11    0.20    1.40
   5   0  11    1.30    4.50
  -5   1 -11  122.29    4.30
  -5  -1  11  118.59    6.10
   5   1  11  114.39   11.50
  -5   1  11  105.99    9.60
   5  -1  11  121.19    4.40
  -5   1  11  114.09    5.50
   5  -1  11  111.09    8.50
   5   2  11    4.60    6.40
  -5   2 -11    1.30    1.30
  -5  -2  11    3.40    2.60
  -5  -2 -11   -0.30    0.70
  -5  -2 -11    2.50    0.80
  -5   2  11    0.30    1.50
   5  -2  11    6.60    3.60
   5  -2  11    3.20    1.90
  -5   2  11   -2.70    4.40
  -5   3 -11    5.20    2.00
  -5  -3  11    2.30    3.60
   5   3  11    3.90    6.30
   5  -3  11    5.80    4.10
  -5  -3 -11    7.10    1.70
   5  -3  11   -1.80    8.10
  -5   3  11    7.60    2.40
  -5   3  11   14.50    5.70
   5   4  11    5.30    1.60
   5   4  11    5.70    8.30
  -5   4 -11    5.60    2.70
  -5  -4  11   14.50    4.80
   5  -4  11   -1.40    9.70
  -5   4  11    0.70    2.70
   5  -4  11    9.00    4.60
  -5   4  11   15.50    7.90
  -5  -5  11   68.69   10.30
  -5   5 -11   71.09    6.70
   5   5  11   68.29    4.90
   5   5  11   89.79   13.30
   5  -5  11   78.49   15.30
  -5   5  11   72.89    6.90
  -5   5  11   68.19   10.20
   5   6  11    7.40    3.20
  -5   6 -11    6.70    4.00
   5   6  11    4.10    9.50
  -5  -6  11   -1.20    7.20
  -5   6  11   15.80    8.90
   5  -6  11   24.70   13.70
  -5   6  11   10.40    4.30
  -5   7 -11    7.80    5.20
   5   7  11   16.10   11.50
  -5  -7  11   -5.10    8.90
   5   7  11    3.40    3.80
  -5   7  11    4.80    9.60
   5  -7  11    0.20   14.50
  -5   7  11   11.40    5.50
   5   8  11   11.30   13.50
  -5   8 -11   -4.50    5.90
   5   8  11   -2.20    4.60
  -5  -8  11    4.50   10.20
  -5   8  11   11.80   10.90
   5  -8  11   21.30   17.60
  -5   8  11    2.00    6.00
  -6   0  11   -2.10    1.50
   6   0  11   -0.10    4.00
  -6   1 -11   33.60    2.20
   6   1  11   26.90    7.30
  -6  -1  11   37.70    4.10
  -6   1  11   30.30    6.40
   6  -1  11   41.00    6.30
  -6   1  11   30.30    3.30
   6  -1  11   36.80    2.40
  -6   2 -11    3.60    1.60
   6   2  11   10.00    6.70
  -6  -2  11    3.70    2.60
  -6   2  11    9.40    2.30
   6  -2  11    7.30    3.70
   6  -2  11   12.00    9.70
  -6  -2 -11    6.60    0.90
  -6   2  11    7.40    5.10
  -6  -2 -11    8.70    1.00
   6   3  11   67.49   10.00
  -6  -3  11   59.59    7.00
  -6   3 -11   55.69    4.20
  -6   3  11   71.59    9.00
   6  -3  11   60.89    6.80
  -6   3  11   51.99    5.10
   6  -3  11   50.19   12.30
  -6  -3 -11   58.89    4.00
  -6  -3 -11   59.59    3.30
   6   4  11  147.79   16.00
  -6  -4  11  153.18   11.50
  -6   4 -11  153.68    8.10
  -6   4  11  143.09    8.20
  -6   4  11  167.48   14.90
   6  -4  11  157.28   10.70
   6  -4  11  112.69   16.70
   6   5  11   14.80    9.60
  -6   5 -11   -3.20    3.30
   6   5  11    1.30    2.00
  -6  -5  11   12.30    5.70
  -6   5  11    3.00    7.20
   6  -5  11   19.40   11.70
  -6   5  11   -2.40    3.50
   6  -5  11   -0.50    5.40
   6   6  11  324.37   12.50
  -6   6 -11  325.77   14.50
  -6  -6  11  297.77   19.50
   6   6  11  302.87   22.70
   6   6  11  347.27   18.00
   6  -6  11  281.37   28.80
  -6   6  11  313.27   20.20
   6  -6  11  333.77   17.70
  -6   6  11  313.57   14.80
  -6  -7  11    0.50    8.10
   6   7  11   16.90   11.70
  -6   7 -11   -2.80    4.50
   6   7  11   -3.00    3.70
   6  -7  11   15.90   15.70
  -6   7  11   -3.00    5.10
  -6   7  11   -1.40    9.50
   6   8  11  217.58   12.50
  -6  -8  11  233.38   22.30
   6   8  11  246.58   27.70
  -6   8 -11  223.18   14.80
  -6   8  11  239.68   21.00
   6  -8  11  200.68   24.40
  -6   8  11  221.78   14.90
  -7   0 -11    0.20    0.70
   7   0  11   -1.70    7.50
   7   0  11   -1.30    5.00
  -7   0  11   -0.40    1.70
   7   0  11   -1.00    0.90
   7   1  11   23.70    6.70
  -7   1 -11   34.20    2.40
  -7  -1  11   33.50    4.00
   7  -1  11   43.00   11.50
  -7   1  11   30.60    7.10
   7  -1  11   38.10    6.70
   7  -1  11   34.30    2.50
  -7   1  11   37.30    3.80
  -7   2 -11    5.20    1.60
   7   2  11   -5.20    5.70
  -7  -2  11    4.20    2.80
  -7  -2 -11    3.90    0.80
  -7  -2 -11    5.60    1.00
  -7   2  11    8.00    5.40
   7  -2  11  -10.50    8.90
  -7   2  11    8.30    2.60
   7  -2  11    4.30    3.90
  -7   3 -11    4.70    2.10
  -7  -3  11    7.50    3.70
   7   3  11   -3.00    7.20
   7  -3  11    8.30    4.20
  -7   3  11    6.20    3.00
  -7  -3 -11    8.80    1.90
  -7   3  11    9.00    5.50
  -7  -3 -11   12.90    1.80
   7  -3  11    8.20   10.40
  -7  -4  11    0.60    4.70
  -7   4 -11    0.90    2.50
   7   4  11   11.30    8.50
  -7  -4 -11    7.50    2.60
  -7   4  11   -4.00    2.90
   7  -4  11   35.70   12.90
   7  -4  11    7.40    4.00
  -7   4  11   11.30    7.40
  -7   5 -11   73.59    7.10
  -7  -5  11   85.29   10.30
   7   5  11   79.49   10.00
   7   5  11   74.09   12.30
  -7   5  11   75.09   10.90
   7  -5  11   58.49   15.50
   7  -5  11   91.29    9.20
  -7   5  11   66.49    7.50
  -7  -6  11   -5.80    7.30
   7   6  11    9.20    9.40
  -7   6 -11   -0.10    4.10
   7   6  11    2.40    3.10
   7   6  11   -4.50    8.10
   7  -6  11   -7.40    6.00
   7  -6  11   18.10   13.80
  -7   6  11    9.70    8.00
  -7   6  11    4.40    4.70
  -7  -7  11   23.00   10.70
   7   7  11    9.90   12.40
   7   7  11   13.90    4.40
  -7   7 -11   10.80    5.60
   7  -7  11    0.40   15.90
  -7   7  11   -2.70    5.50
  -7   7  11    2.00    9.30
   7   8  11   15.20   15.10
   7   8  11    8.80    5.20
  -7   8 -11    9.30    6.60
  -7  -8  11   10.40   13.40
  -7   8  11   -5.30    7.20
   7  -8  11   -5.20   18.30
  -7   8  11  -13.30   10.50
  -8   0  11    0.70    2.10
   8   0  11    1.40    1.20
   8   0  11   -3.30    5.00
  -8   0 -11    0.60    0.90
   8   0  11   -6.00    8.20
  -8   1 -11    3.30    1.20
  -8  -1  11    6.20    3.00
  -8   1  11    2.00    2.10
   8  -1  11   -9.00    8.00
   8  -1  11   -1.20    1.40
   8  -1  11   -3.60    4.40
  -8   1  11   11.70    5.90
   8   2  11   25.70    7.50
  -8   2 -11   27.50    2.80
  -8  -2  11   32.10    4.50
  -8  -2 -11   37.60    2.30
   8  -2  11   39.40    6.10
  -8   2  11   27.10    6.60
   8  -2  11   16.10   10.10
  -8   2  11   32.00    4.10
  -8  -2 -11   32.20    2.00
   8   3  11  375.56   21.90
  -8  -3  11  399.06   16.60
   8   3  11  369.56   22.10
  -8   3 -11  402.86   13.80
   8  -3  11  395.06   28.80
  -8  -3 -11  388.46   12.60
  -8   3  11  416.26   19.30
   8  -3  11  396.36   16.50
  -8   3  11  386.96   14.80
  -8  -3 -11  378.16   12.30
  -8  -4  11    9.60    5.50
  -8   4 -11   16.30    3.40
   8   4  11   11.20    8.70
   8   4  11   21.00    7.90
  -8   4  11    8.80    4.00
  -8  -4 -11   14.80    2.80
   8  -4  11   10.20   11.10
  -8   4  11   10.50    7.50
  -8   5 -11  168.88    9.70
   8   5  11  174.98   17.00
  -8  -5  11  167.28   13.80
   8   5  11  193.28   16.10
   8  -5  11  158.58   21.80
   8  -5  11  178.88   10.80
  -8   5  11  157.08   10.10
  -8  -5 -11  166.78   10.10
  -8   5  11  196.28   16.00
  -8   6 -11   -1.10    4.10
  -8  -6  11    4.40    7.40
   8   6  11   -4.70    8.50
   8   6  11   -3.60   10.80
  -8  -6 -11    4.50    5.80
  -8   6  11    6.90    4.60
   8  -6  11   -7.80   13.50
  -8   6  11   25.30    8.20
  -8   7 -11  248.98   14.40
  -8  -7  11  222.78   19.80
   8   7  11  304.47   26.00
  -8   7  11  231.88   14.10
   8  -7  11  198.48   24.60
  -8  -7 -11  249.88   17.40
  -8   7  11  221.18   18.70
   9   0  11   -0.90    1.60
  -9   0  11   -2.50    2.40
   9   0  11  -12.40    8.30
   9   0  11   -2.80    5.20
  -9   0 -11   -0.40    1.10
  -9  -1  11    0.60    2.30
   9   1  11   20.70    7.10
   9   1  11   11.50    9.50
  -9   1 -11   -1.10    1.30
   9  -1  11   -6.60    4.40
   9  -1  11   -0.20    8.70
  -9  -1 -11   -0.80    1.00
  -9   1  11    0.40    2.40
   9  -1  11   -4.90    1.80
  -9   1  11   -3.70    5.60
   9   2  11  134.99   12.60
  -9   2 -11   85.59    4.70
  -9  -2  11   78.09    6.70
   9  -2  11   91.09    9.20
  -9   2  11   76.59    6.20
  -9   2  11  112.69   11.20
   9  -2  11   74.39   14.30
   9   3  11   11.30    8.30
   9   3  11   -6.10    7.90
  -9   3 -11    0.20    2.30
  -9  -3  11    6.60    3.90
  -9   3  11   -7.50    5.20
   9  -3  11    8.40    4.80
  -9  -3 -11   -0.50    1.60
  -9  -3 -11    3.20    2.20
  -9   3  11    1.80    3.30
   9  -3  11   11.30   12.40
   9   4  11  135.29   16.10
   9   4  11  136.39   14.80
  -9   4 -11  128.79    7.80
  -9  -4  11  131.89   10.90
  -9   4  11  138.99    8.90
   9  -4  11  117.59   20.10
  -9  -4 -11  132.89    6.90
  -9   4  11  112.49   13.70
   9  -4  11  125.99    9.40
   9   5  11    1.50    8.20
  -9  -5  11   -7.20    5.90
  -9   5 -11   -0.90    3.40
   9   5  11  -11.60    8.20
   9  -5  11   -8.10    4.50
  -9  -5 -11    1.90    3.70
  -9   5  11    2.30    3.70
   9  -5  11   -0.70   14.20
  -9   5  11    1.90    7.90
  -9  -6  11  104.69   13.20
  -9   6 -11   88.29    9.10
   9   6  11   94.59   16.00
  -9   6  11  104.29   10.00
  -9   6  11  122.09   14.40
  -9  -6 -11   92.39   10.60
   9  -6  11   41.50   17.40
   9   7  11    3.30   13.10
  -9   7 -11    5.60    6.10
  -9  -7  11    1.50   10.60
  -9   7  11    6.50    9.50
  -9  -7 -11    9.50    7.70
   9  -7  11   -5.40   17.40
  -9   7  11    5.00    6.30
 -10   0  11    0.30    2.50
  10   0  11   -3.80    4.90
 -10   0 -11   -1.10    1.20
  10   0  11   -7.50    9.90
  10   0  11    1.40    2.00
 -10   1 -11   38.70    3.20
  10   1  11   17.00    7.70
 -10  -1  11   27.70    4.40
  10   1  11   31.20   11.60
  10  -1  11   37.90    6.30
 -10   1  11   32.50    8.50
 -10   1  11   37.50    4.70
  10  -1  11   32.00   13.10
 -10  -1 -11   28.00    2.40
 -10  -1 -11   35.50    2.40
 -10  -2  11   59.39    6.50
  10   2  11   83.49   14.10
  10   2  11   59.39   10.00
 -10   2 -11   73.69    4.50
  10  -2  11   61.79    8.20
 -10   2  11   60.39    6.00
  10  -2  11   64.89   16.30
 -10  -2 -11   63.29    3.30
 -10  -2 -11   83.09    3.80
 -10   2  11   62.89    9.50
  10   3  11   33.70    9.20
  10   3  11   30.00   12.00
 -10  -3  11   41.50    6.40
 -10   3  11   54.09    6.30
  10  -3  11   50.79    6.40
 -10   3  11   48.20    8.50
  10  -3  11   66.19   16.30
 -10  -3 -11   50.89    3.60
 -10   4 -11    9.30    3.40
  10   4  11   13.50    9.00
  10   4  11   -2.50    9.10
 -10  -4  11    8.90    5.30
  10  -4  11    3.90   13.70
  10  -4  11    8.90    4.30
 -10   4  11   10.30    4.20
 -10   4  11   -1.00    7.60
 -10  -4 -11    4.00    2.50
 -10   5 -11   55.59    6.40
 -10  -5  11   73.89    9.50
  10   5  11   52.59   13.30
  10   5  11   61.09   11.80
 -10   5  11   82.59   11.90
 -10  -5 -11   71.29    7.50
 -10   5  11   80.49    8.30
  10  -5  11   79.99   19.50
  10   6  11   42.20   13.70
 -10  -6  11   22.80    9.70
 -10   6 -11   30.60    5.60
 -10   6  11   26.30    9.00
  10  -6  11   16.90   17.10
 -10  -6 -11   23.90    6.60
 -10   6  11   27.50    6.70
 -10   7 -11   88.99    9.80
  10   7  11  111.09   18.00
 -10  -7  11  118.29   15.20
 -10   7  11   89.59   10.50
 -10  -7 -11   79.89   10.30
  10  -7  11   83.89   23.00
 -11   0  11    2.30    3.10
  11   0  11   12.60   11.70
  11   0  11   -6.50    2.60
 -11   0 -11    1.20    1.50
  11   0  11   -5.30    5.60
 -11   1 -11   -2.50    1.60
  11   1  11   16.40   12.00
 -11  -1  11   -1.40    3.20
  11   1  11   -2.60    6.00
 -11   1  11    1.00    3.20
  11  -1  11    7.10   11.90
  11  -1  11    0.50    4.80
 -11  -1 -11   -1.10    1.20
 -11   2 -11    1.90    2.00
  11   2  11   13.70   10.80
 -11  -2  11    2.80    3.60
  11   2  11    3.50    7.70
  11  -2  11   11.40   13.90
 -11  -2 -11    0.30    1.30
 -11   2  11    0.50    3.30
  11  -2  11    5.60    4.30
 -11  -2 -11    2.00    1.90
 -11   2  11    2.90    6.60
  11   3  11   22.80   10.80
 -11   3 -11    2.80    3.00
  11   3  11   10.60    8.50
 -11  -3  11    7.50    4.60
 -11  -3 -11    3.20    1.90
 -11   3  11    3.70    6.30
 -11   3  11    2.90    3.30
  11  -3  11    6.00    4.20
  11  -3  11   12.60   13.10
 -11   4 -11   44.90    5.40
  11   4  11   42.40   11.20
 -11  -4  11   40.60    7.10
  11   4  11   43.60   12.80
 -11  -4 -11   39.40    4.00
 -11   4  11   34.30    9.00
  11  -4  11   64.59   17.10
 -11   4  11   35.30    5.50
 -11  -5  11   12.70    6.50
 -11   5 -11    5.50    4.30
  11   5  11    5.30   10.50
  11   5  11   -3.00   11.10
 -11   5  11    2.90    4.60
 -11  -5 -11    6.40    4.10
 -11   5  11    8.10    8.50
  11  -5  11   12.90   14.30
 -11  -6  11   -5.90    7.70
  11   6  11    9.00   13.50
 -11   6 -11    8.70    5.20
 -11   6  11   22.80    9.10
 -11   6  11   15.50    6.10
 -11  -6 -11   15.60    5.80
  11  -6  11    8.30   17.20
 -11   7 -11   14.20    6.90
  11   7  11   30.90   14.80
 -11  -7  11   28.50   10.80
 -11  -7 -11   24.30    7.80
 -11   7  11   19.10    7.50
  11  -7  11    5.70   20.90
 -12   0 -11   -0.70    1.60
 -12   0  11   -0.50    2.80
  12   0  11    2.90   12.60
  12   0  11    0.10    6.30
  12   1  11   43.50   14.20
 -12   1 -11   52.99    3.90
  12   1  11   44.50    9.10
 -12  -1  11   62.99    6.80
  12  -1  11   30.30   13.60
  12  -1  11   64.89    8.20
 -12  -1 -11   47.20    3.20
 -12   1  11   58.09    6.40
  12   2  11   45.10   13.70
 -12  -2  11   31.70    5.70
  12   2  11   58.69   11.40
 -12   2 -11   41.80    4.30
  12  -2  11   45.40    6.30
  12  -2  11   41.10   14.50
 -12  -2 -11   43.80    3.20
 -12   2  11   48.80   10.10
 -12   2  11   32.80    5.20
  12   3  11   33.40   10.50
 -12   3 -11   28.80    4.10
 -12  -3  11   42.00    6.20
  12   3  11   68.49   13.60
 -12  -3 -11   38.60    3.70
  12  -3  11   57.59    7.40
 -12   3  11   41.40    8.50
  12  -3  11   19.30   14.00
 -12   3  11   33.30    5.40
  12   4  11   91.39   14.20
  12   4  11   59.79   15.00
 -12  -4  11   66.39    8.80
 -12   4 -11   77.99    7.60
 -12   4  11   96.89   12.00
 -12   4  11   70.49    8.20
  12  -4  11   66.69   19.30
 -12  -4 -11   74.49    5.60
 -12  -5  11   26.80    8.40
  12   5  11   11.80   11.20
  12   5  11   16.10   11.50
 -12   5 -11   15.00    5.10
 -12   5  11    9.00    5.60
 -12  -5 -11   11.50    4.20
 -12   5  11   -5.00    8.10
  12  -5  11   24.10   17.30
 -12   6 -11  117.79   10.90
 -12  -6  11  102.19   12.80
  12   6  11   74.89   16.60
  12  -6  11   67.19   22.00
 -12  -6 -11   91.59   10.20
 -12   6  11   96.09   11.40
 -12   7 -11   68.69    9.60
 -12   7  11   53.69    9.80
  13   0  11   -1.00    6.90
 -13   0  11   -3.60    3.60
 -13   0 -11   -2.20    1.60
  13   0  11  -28.30   11.50
 -13   1 -11   16.40    2.60
 -13  -1  11   15.60    4.40
  13   1  11   14.20    8.30
  13   1  11   16.70   13.50
  13  -1  11   28.20   14.80
 -13  -1 -11   14.90    2.20
 -13   1  11   16.80    4.40
  13  -1  11   24.60    6.90
 -13   2 -11    1.10    2.60
  13   2  11   10.40   13.80
 -13  -2  11   -3.80    3.60
  13   2  11   -0.60    8.50
  13  -2  11    1.90    4.80
 -13   2  11    9.60    4.10
  13  -2  11   12.80   12.80
 -13  -2 -11    6.00    1.80
 -13   2  11    3.30    7.70
  13   3  11   -4.00   13.20
 -13   3 -11    1.50    3.10
  13   3  11    0.20    9.00
 -13  -3  11    7.80    4.30
  13  -3  11   10.20   13.70
  13  -3  11    9.70    4.20
 -13  -3 -11    4.70    2.20
 -13   3  11  -10.40    7.20
 -13   3  11    6.30    4.20
 -13   4 -11    2.40    4.00
  13   4  11   11.70   12.50
 -13  -4  11   -3.80    5.20
  13   4  11   -1.10    9.60
 -13   4  11    6.80    4.90
  13  -4  11    2.90   15.20
 -13  -4 -11    2.40    2.80
 -13   4  11   -5.90    8.20
 -13   5 -11   10.70    5.30
  13   5  11   -5.20   12.90
 -13  -5  11   -0.50    7.30
  13   5  11  -13.80   11.70
 -13   5  11  -12.10    8.10
 -13  -5 -11    4.00    4.00
 -13   5  11   -0.30    5.30
  13  -5  11   18.00   19.80
 -13  -6  11   18.70    9.50
  13   6  11   27.90   14.80
 -13   6 -11   14.50    6.80
 -13  -6 -11    9.90    5.80
 -13   6  11   10.60    6.80
  13  -6  11   -3.20   19.60
  14   0  11   -4.50    7.10
  14   0  11    4.90   13.60
 -14   0  11    3.50    3.80
 -14   0 -11   -1.40    1.90
  14   1  11    7.20   13.20
 -14  -1  11   14.80    4.80
  14   1  11   22.90    9.20
 -14   1 -11   21.60    3.20
  14  -1  11   19.40   13.50
 -14  -1 -11   15.80    2.40
  14  -1  11   20.70    6.60
 -14   1  11   10.10    4.00
  14   2  11    2.10   13.10
  14   2  11    3.60    8.50
 -14  -2  11    8.90    4.30
 -14   2 -11   -0.30    3.00
 -14   2  11    1.80    3.70
 -14  -2 -11    4.60    2.00
 -14   2  11   12.40    8.50
  14  -2  11   11.20    5.20
  14  -2  11  -10.30   14.30
  14   3  11   28.10   11.20
 -14   3 -11   46.20    5.40
 -14  -3  11   41.50    6.70
  14   3  11   38.80   15.40
 -14   3  11   35.50    6.50
 -14   3  11   41.50    9.60
  14  -3  11   51.39   16.40
 -14  -3 -11   39.00    4.40
  14   4  11   53.79   15.30
 -14  -4  11   36.30    7.40
  14   4  11   36.60   13.30
 -14   4  11   52.99    7.80
 -14  -4 -11   53.59    6.00
 -14   4  11   54.29   10.70
  14  -4  11   84.99   20.90
  14   5  11   57.29   15.60
 -14  -5  11   76.99   10.70
  14   5  11   63.49   16.60
 -14   5 -11   67.19    7.90
 -14  -5 -11   64.19    7.40
  14  -5  11   64.79   22.50
 -14   5  11   54.09    7.90
 -14   6 -11    6.90    6.30
  14   6  11    7.00   15.40
 -14  -6  11   19.10   10.50
  14  -6  11   -8.80   23.10
 -14   6  11    6.30    7.00
 -14  -6 -11    2.90    5.80
 -15   0 -11    3.10    2.40
  15   0  11   -8.00   13.30
 -15   0  11    6.20    4.10
  15   0  11   -6.60    7.20
  15   1  11   59.59   17.90
  15   1  11   56.59   11.40
 -15  -1  11   48.20    6.20
 -15   1 -11   59.79    5.40
 -15  -1 -11   53.19    4.30
  15  -1  11   70.19    9.30
  15  -1  11   37.60   17.00
 -15   1  11   59.79    7.10
  15   2  11   37.40   10.50
 -15  -2  11   14.40    5.40
 -15   2 -11   10.20    3.70
  15   2  11   32.50   15.40
  15  -2  11   15.10    5.50
 -15  -2 -11    6.20    2.50
 -15   2  11   16.20    5.00
  15  -2  11   19.40   16.40
 -15   2  11   17.00    9.70
 -15  -3  11   -8.10    5.00
 -15   3 -11    1.00    3.90
  15   3  11   -6.10   14.40
  15   3  11   -5.50   10.40
 -15   3  11    1.00    4.90
  15  -3  11  -28.10   15.80
 -15  -3 -11   -0.20    2.80
 -15   3  11   -3.40    8.50
  15   4  11   73.49   17.00
 -15  -4  11   63.59    9.00
 -15   4 -11   63.69    7.00
  15   4  11   68.19   15.60
 -15   4  11   58.69    7.90
  15  -4  11   41.40   19.10
 -15  -4 -11   66.39    6.90
 -15   4  11   45.50   11.40
 -15   5 -11   41.90    6.90
  15   5  11   63.59   16.30
  15   5  11   56.19   15.30
 -15  -5  11   36.00    8.90
 -15   5  11   32.70    7.50
  15  -5  11   37.10   23.70
 -15  -5 -11   51.09    6.00
 -16   0  11    0.70    4.30
  16   0  11   -2.00    8.10
 -16   0 -11    2.50    2.70
  16   0  11    3.10   13.70
 -16   1 -11   -0.80    3.20
  16   1  11  -17.70   15.50
 -16  -1  11   -1.10    4.60
  16   1  11    0.20    9.30
 -16  -1 -11   -1.60    2.40
 -16   1  11   -0.40    4.30
  16  -1  11  -22.70   13.10
  16  -1  11    0.60    7.00
 -16   2 -11   24.10    4.70
  16   2  11   24.70   11.60
  16   2  11   40.30   16.60
 -16  -2  11   35.20    7.00
 -16   2  11   29.00    5.90
 -16   2  11   12.00   11.00
  16  -2  11   38.50   19.80
  16  -2  11   41.00    6.40
 -16  -2 -11   29.40    3.60
 -16   3 -11    2.10    4.40
  16   3  11  -11.60   10.50
  16   3  11   17.40   15.80
 -16  -3  11    4.90    5.40
  16  -3  11    8.40   19.50
 -16  -3 -11   -2.20    3.30
 -16   3  11    0.00    5.10
 -16   4 -11    8.70    5.30
  16   4  11   40.10   13.50
 -16  -4  11   13.50    7.60
  16   4  11   48.80   17.90
 -16   4  11   15.30    6.60
  16  -4  11   23.70   20.20
 -16  -4 -11   17.80    4.30
  16   5  11   64.49   17.40
 -16  -5  11   46.50    9.60
 -16   5 -11   37.60    7.00
 -16  -5 -11   44.20    8.70
 -16   5  11   71.49    9.60
  16  -5  11   64.79   25.20
 -17   0 -11   -8.40    3.00
  17   0  11   10.90    9.00
  17   0  11   -0.50   16.20
 -17   0  11    3.10    4.70
  17   1  11   24.50   16.20
 -17  -1  11   10.40    5.60
 -17   1 -11    8.60    3.80
  17   1  11   22.90   10.40
  17  -1  11   11.70   19.20
 -17   1  11   11.20    5.60
 -17  -1 -11   14.40    3.60
  17  -1  11   12.80    8.50
 -17  -2  11   -6.40    5.30
  17   2  11    1.20   10.20
  17   2  11  -16.50   15.30
 -17   2 -11   -0.50    4.00
 -17   2  11   -5.40   10.50
 -17   2  11   -9.00    4.80
 -17  -2 -11   -1.80    3.30
  17  -2  11   -3.20   18.10
  17   3  11    8.80   12.60
 -17   3 -11   17.20    4.80
 -17  -3  11    6.20    6.40
  17   3  11  -14.50   16.80
 -17   3  11   -7.50    9.60
 -17   3  11    3.50    5.50
 -17  -3 -11    2.70    3.40
  17  -3  11    1.60   17.90
 -17   4 -11   -1.30    5.00
 -17  -4  11   -3.10    7.40
  17   4  11    8.90   13.30
  17   4  11    8.00   16.70
 -17   4  11   -0.70    6.30
  17  -4  11  -28.10   19.90
 -17  -4 -11   -6.30    4.90
 -18   0  11    4.60    4.80
 -18   0 -11   -5.20    3.50
  18   0  11   17.60    9.80
  18   0  11  -12.60   17.20
 -18  -1  11    0.00    5.20
  18   1  11   -6.00    9.90
  18   1  11   -9.60   17.00
 -18   1 -11   -7.50    3.80
  18  -1  11   25.20   18.80
 -18   1  11   -3.70    5.50
  18  -1  11   -0.80    8.50
 -18  -1 -11    2.20    3.40
  18   2  11   22.70   11.80
 -18   2 -11   -2.40    4.40
 -18  -2  11    5.70    6.50
  18   2  11   19.40   18.50
 -18   2  11    7.00    5.80
  18  -2  11   -7.60   18.70
 -18   2  11   17.10   12.40
 -18  -2 -11    2.40    3.50
  18   3  11    2.60   18.10
 -18  -3  11   26.00    7.20
  18   3  11   52.09   14.10
 -18   3 -11   28.20    5.40
 -18   3  11   46.80    8.00
  18  -3  11   -0.10   19.60
 -18  -3 -11   14.00    5.10
 -18  -4  11   -0.90    7.20
  18   4  11   -5.90   13.70
  18   4  11   -7.70   17.90
 -18   4 -11    1.40    5.50
 -18   4  11   -0.20    7.20
  18  -4  11   24.30   24.00
  19   0  11   -5.20   10.00
  19   0  11   11.90   20.10
 -19   0  11    1.30    6.00
 -19   0 -11    6.10    4.10
 -19  -1  11   11.40    6.30
  19   1  11    8.10   11.20
  19   1  11   -9.70   19.10
 -19   1 -11    5.10    4.70
 -19  -1 -11    1.10    4.00
 -19   1  11   16.10    6.30
  19  -1  11   16.90   19.90
  19   2  11   10.10   13.30
 -19   2 -11    6.90    4.60
 -19  -2  11    3.00    6.20
  19   2  11    2.10   19.70
  19  -2  11    1.60   20.40
 -19   2  11   13.10    6.40
 -19   2  11    8.00   13.00
 -19  -2 -11    5.50    6.40
 -19  -3  11    8.50    7.70
  19   3  11   -4.30   20.30
  19   3  11   25.20   14.90
 -19   3 -11    9.80    5.90
 -19   3  11   -0.50    7.00
  19  -3  11   39.60   24.10
 -20   0 -11    4.70    4.70
  20   0  11   -3.50   21.50
  20   0  11   -3.20   11.60
 -20   0  11  -12.00    6.30
 -20  -1  11    9.40    6.90
 -20   1 -11    4.90    5.00
  20   1  11   21.60   12.90
  20   1  11   14.80   21.80
  20  -1  11    4.90   21.40
 -20   1  11   -0.70    5.70
   0   0  12  167.68    5.70
   0   0  12  159.58    5.50
   0   0  12  140.19   10.50
   0  -1  12    0.30    1.30
   0  -1  12    5.20    4.60
   0   1  12    1.30    3.90
   0  -1 -12   -0.20    1.30
   0   1  12    1.00    0.90
   0  -1  12    1.10    1.30
   0  -2 -12   71.39    3.60
   0   2  12   91.19   10.90
   0  -2  12   85.79    5.60
   0   2  12   73.09    3.60
   0   3  12    7.10    7.60
   0   4 -12   10.40    2.70
   0   4  12    8.30    2.20
   0   4  12   10.80    8.70
   0   5  12   -1.50    2.60
   0   5  12   -6.90    7.70
   0   5 -12    3.40    3.00
   0   6  12   33.00    4.80
   0   6  12   30.30   10.80
   0   6 -12   25.90    4.80
   0  -6  12   44.90   13.10
   0   7  12   -6.60    9.90
   0  -7  12   -7.30   12.60
   0   7  12   -2.30    4.40
   0   7 -12    2.60    4.40
   0   8 -12   13.90    5.60
   0   8  12   -0.60   13.30
   0   8  12   11.40    5.70
   1   0  12  851.71   31.50
   1   0 -12  898.81   26.50
   1   0  12  875.71   24.80
  -1   0  12  899.21   25.50
  -1   0  12  859.91   32.30
   1   0  12  870.41   24.80
  -1  -1  12  184.78   12.80
   1  -1 -12  179.08    6.80
   1   1  12  181.68   11.80
  -1  -1  12  177.18    6.80
   1   1  12  181.48    5.80
  -1  -1  12  187.78    7.40
  -1  -1 -12  191.08    6.30
  -1   1  12  173.38   11.70
   1  -1  12  183.58    6.50
  -1   1  12  178.58    6.40
   1  -1  12  185.38    7.10
   1  -1  12  181.68   11.60
  -1  -2  12  187.78    8.80
   1   2  12  191.88   14.00
   1  -2 -12  186.48    7.10
   1   2  12  183.98    6.50
   1  -2  12  194.48   13.10
  -1   2  12  187.98    7.00
  -1  -2 -12  204.28    6.50
  -1   2  12  206.58   13.30
  -1   3 -12  718.63   22.30
   1   3  12  718.53   21.60
   1   3  12  717.43   30.00
  -1  -3  12  707.73   25.40
  -1  -3 -12  736.23   21.50
  -1   3  12  728.93   22.10
  -1   3  12  757.32   30.50
   1   4  12  324.77   11.20
  -1   4 -12  325.87   12.10
   1   4  12  327.07   20.00
  -1   4  12  314.97   11.60
   1   4 -12  265.37   11.70
  -1   4  12  337.47   20.20
   1   5  12   28.30    3.60
   1   5  12   37.60   10.50
  -1   5 -12   26.90    4.20
  -1   5  12   26.40    8.40
   1   5 -12   33.30    4.50
   1  -5  12   33.80   11.50
  -1   5  12   30.20    4.20
   1   6  12   62.49   12.00
   1   6  12   56.79    6.70
  -1   6 -12   69.89    7.10
  -1  -6  12   70.79   13.20
  -1   6  12   74.79    7.20
  -1   6  12   69.79   13.00
   1  -6  12   54.39   13.60
   1   6 -12   65.69    6.90
   1   7  12  118.09    9.20
   1   7  12  107.29   15.20
  -1   7 -12  126.99    9.40
  -1  -7  12  134.09   16.50
   1  -7  12   95.99   16.60
   1   7 -12  111.79    9.50
  -1   7  12  128.69   16.00
  -1   7  12  124.89    9.30
   1   8  12   19.70    5.60
   1   8  12   33.90   14.50
  -1   8 -12   31.90    7.00
  -1   8  12   29.70    7.00
  -1   8  12   43.80   14.90
   1   8 -12   30.50    6.80
   2   0  12   54.49    2.20
  -2   0  12   52.69    7.70
   2   0 -12   42.20    4.60
   2   0  12   54.79    7.30
   2   0  12   52.79    2.20
  -2   0  12   51.99    3.10
   2  -1 -12  653.23   20.00
  -2  -1  12  640.84   20.40
   2   1  12  623.14   25.50
   2   1  12  648.84   18.10
   2  -1  12  637.74   19.90
   2  -1  12  672.63   25.60
  -2   1  12  662.43   25.90
  -2   1  12  656.43   19.50
   2  -1  12  680.73   19.20
  -2   2 -12   32.70    2.50
   2   2  12   33.00    8.10
  -2  -2  12   29.50    3.70
   2   2  12   28.80    1.90
  -2  -2 -12   30.50    1.90
  -2   2  12   26.30    6.20
  -2   2  12   31.90    2.80
   2  -2  12   32.70    6.00
  -2  -3  12  234.08   11.50
  -2   3 -12  238.48    8.70
   2   3  12  170.38   15.40
   2   3  12  228.78    7.90
  -2  -3 -12  237.28    8.00
  -2   3  12  231.18   17.00
  -2   3  12  231.68    8.80
   2   4  12   -6.80    6.80
  -2   4 -12    1.40    2.20
   2   4  12    1.70    1.70
  -2   4  12    3.00    2.40
  -2   4  12    2.60    7.90
   2   5  12   52.59    4.70
  -2   5 -12   55.19    5.80
   2   5  12   40.00   10.30
  -2   5  12   52.19    5.70
   2   5 -12   54.29    5.60
   2  -5  12   33.50   11.60
  -2   5  12   41.10   10.30
   2   6  12   -3.60    8.90
  -2   6 -12   -1.00    3.50
  -2  -6  12   -1.60    9.50
   2   6  12    7.70    3.30
   2  -6  12   -9.70   10.80
  -2   6  12    4.90    3.50
   2   6 -12    1.40    3.70
  -2   6  12    3.70    8.90
   2   7  12   -8.00   10.60
  -2   7 -12    3.50    4.50
  -2  -7  12   -5.10   10.60
   2   7  12    0.40    4.00
   2   7 -12   -3.40    4.30
  -2   7  12   -2.60    4.20
  -2   7  12   11.20   10.20
   2  -7  12   -0.50   13.60
  -2   8 -12   24.30    6.20
   2   8  12   42.10   13.90
   2   8  12   17.50    5.50
   2   8 -12   18.90    6.50
  -2   8  12   17.70    6.30
  -2   8  12   21.00   13.30
  -3   0  12 1444.86   48.80
   3   0  12 1425.56   46.90
  -3   0  12 1454.95   41.40
  -3  -1  12    1.80    1.50
   3   1  12    6.60    6.10
   3  -1  12    0.50    1.40
   3  -1  12    1.10    1.00
  -3   1  12    0.60    4.50
  -3   1  12    0.70    1.10
   3  -1  12   -0.60    3.90
   3   2  12  129.09   13.40
   3   2  12  125.29    4.20
  -3  -2  12  115.49    6.90
  -3   2 -12  134.69    5.30
  -3   2  12  133.79    5.70
   3  -2  12  130.79   10.00
  -3  -2 -12  134.29    4.20
  -3   2  12  124.49   10.70
  -3  -3  12   99.99    8.00
   3   3  12  104.59    4.30
   3   3  12   89.19   11.40
  -3   3 -12   98.79    5.10
  -3   3  12  104.19    5.60
  -3  -3 -12  104.49    4.40
   3  -3  12  114.09   10.40
  -3   3  12  101.39   12.00
  -3   4 -12  499.95   17.30
  -3  -4  12  486.15   21.00
   3   4  12  498.95   15.90
   3   4  12  478.15   24.20
  -3   4  12  537.45   25.20
  -3   4  12  498.05   17.20
   3  -4  12  538.75   28.80
  -3   5 -12   -3.10    3.10
   3   5  12    1.10    2.20
   3   5  12   -3.00    7.50
  -3   5  12   -2.30    3.00
  -3   5  12  -14.70    6.90
   3  -5  12   -2.30   10.00
   3   6  12   63.89    6.10
  -3   6 -12   59.59    6.90
  -3  -6  12   73.69   12.40
   3   6  12   55.39   12.00
  -3   6  12   71.59    7.90
   3  -6  12   58.69   15.00
  -3   6  12   76.49   12.80
   3   7  12   35.80   13.20
   3   7  12   15.80    4.70
  -3   7 -12   17.50    5.40
  -3  -7  12   14.30   11.20
  -3   7  12   36.20   11.90
   3   7 -12   16.50    5.40
  -3   7  12   25.40    5.60
   3  -7  12   37.40   15.80
   3   8  12   26.00   14.50
  -3   8 -12   34.30    7.40
   3   8  12   31.40    6.00
  -3   8  12   35.20   12.80
   3   8 -12   23.90    7.00
  -3   8  12   31.50    7.10
   3  -8  12   19.90   17.10
  -4   0  12  201.38    7.90
  -4   0  12  215.08   14.20
   4   0  12  206.68   12.70
   4   1  12  639.94   26.00
  -4  -1  12  653.43   20.10
  -4   1 -12  623.24   17.90
   4  -1  12  593.84   23.60
  -4   1  12  597.34   25.70
   4  -1  12  620.74   18.00
  -4   1  12  616.04   19.20
   4   2  12  265.37   17.80
  -4  -2  12  266.97   11.10
  -4   2 -12  265.77    8.90
   4  -2  12  270.37   13.80
  -4   2  12  251.07   15.00
   4  -2  12  225.18    8.90
  -4   2  12  263.37    9.50
  -4   3 -12  342.77   11.90
   4   3  12  340.87   19.60
   4   3  12  331.67   10.50
  -4  -3  12  349.87   14.90
   4  -3  12  326.07   16.70
  -4  -3 -12  354.56   10.70
  -4   3  12  331.17   18.80
  -4   3  12  343.47   12.40
   4   4  12  119.29   14.40
  -4  -4  12  132.39   10.80
  -4   4 -12  134.19    7.10
   4   4  12  124.49    5.50
   4  -4  12  126.79   11.70
   4  -4  12  137.09   16.80
  -4   4  12  107.69   14.40
  -4   4  12  118.79    7.40
  -4   5 -12  157.98    8.80
   4   5  12  158.08    7.40
  -4  -5  12  149.79   13.30
   4   5  12  166.88   16.00
   4  -5  12  141.69   18.00
  -4   5  12  169.58   15.60
  -4   5  12  162.28    9.20
  -4  -6  12   37.30    9.30
   4   6  12   43.50   12.50
   4   6  12   48.10    5.60
  -4   6 -12   41.90    5.80
  -4   6  12   38.40   11.00
  -4   6  12   48.60    6.30
   4  -6  12   26.30   14.30
  -4   7 -12   16.90    5.00
   4   7  12   21.40    4.90
  -4  -7  12   -3.00    9.90
   4   7  12   33.40   13.40
  -4   7  12    8.90    5.50
  -4   7  12   21.00   10.40
   4  -7  12   22.60   15.60
   4   8  12    4.00    4.80
  -4   8 -12   -5.70    5.50
  -4  -8  12   15.70   11.90
   4   8  12  -11.00   13.30
  -4   8  12   -0.40    6.10
   4  -8  12  -22.00   16.60
  -4   8  12   19.00   12.20
   5   0  12  611.34   25.20
  -5   0  12  616.14   26.70
  -5   0  12  616.44   19.50
  -5  -1  12  163.68    7.50
  -5   1 -12  156.78    5.40
   5   1  12  171.18   13.50
  -5   1  12  161.58   12.30
   5  -1  12  161.28   10.50
   5  -1  12  161.28    5.50
  -5   1  12  160.88    6.90
   5   2  12  126.59   13.90
  -5   2 -12  120.29    5.10
  -5  -2  12  123.49    7.10
  -5   2  12  128.59    6.00
  -5   2  12  123.39   11.20
   5  -2  12   95.09    5.30
   5  -2  12  121.09    9.40
   5   3  12   48.40    9.90
  -5  -3  12   38.80    5.60
  -5   3 -12   51.29    3.90
  -5   3  12   50.39    4.50
   5  -3  12   73.89   13.00
  -5   3  12   61.89    9.30
   5  -3  12   52.69    7.10
  -5  -3 -12   58.89    3.10
  -5   4 -12  116.59    6.90
  -5  -4  12  124.79   10.70
   5   4  12  103.59   13.60
   5   4  12  102.79    4.90
  -5   4  12  104.19    6.80
  -5   4  12  147.19   14.70
   5  -4  12  122.49   10.80
   5  -4  12  102.79   16.20
  -5   5 -12   28.30    4.40
   5   5  12   16.60    9.40
   5   5  12   33.10    3.50
  -5  -5  12   40.00    7.60
  -5   5  12   13.70    8.80
  -5   5  12   28.50    5.00
   5  -5  12   35.20    8.50
   5  -5  12   42.00   13.90
   5   6  12   28.10   11.10
  -5   6 -12   27.60    5.00
  -5  -6  12   35.70    9.20
   5   6  12   30.20    4.20
  -5   6  12   36.40    6.00
   5  -6  12   18.30   14.10
  -5   6  12   37.10   10.60
   5   7  12   10.00   11.50
   5   7  12   11.30    4.30
  -5   7 -12   13.50    5.60
  -5  -7  12    7.70    9.10
  -5   7  12   31.10   11.20
   5  -7  12   -0.20   15.30
  -5   7  12   19.70    6.10
  -5   8 -12   -9.00    5.90
  -5  -8  12  -30.50   11.00
   5   8  12    0.20    4.80
   5   8  12   -5.30   13.70
   5  -8  12  -18.50   17.70
  -5   8  12    0.60   11.90
  -5   8  12    7.90    6.90
   6   0  12  150.68   12.50
  -6   0  12  152.68    7.10
  -6  -1  12    3.10    1.90
  -6   1 -12    0.90    0.90
   6   1  12    5.80    6.50
  -6   1  12    3.70    5.20
   6  -1  12    5.30    4.30
  -6   1  12    1.70    1.80
   6  -1  12    0.60    1.10
  -6  -2  12  311.97   13.00
  -6   2 -12  315.07   10.50
  -6   2  12  309.17   11.60
   6  -2  12  315.37   22.10
   6  -2  12  304.77   14.80
  -6   2  12  334.07   17.40
  -6   3 -12   -1.60    1.70
  -6  -3  12   -3.70    3.30
   6   3  12   -4.20    7.50
  -6  -3 -12   -1.20    1.30
   6  -3  12    3.10    4.00
  -6   3  12   -0.30    2.40
   6  -3  12    1.50    9.20
  -6  -3 -12   -0.50    1.60
  -6   3  12    5.50    5.80
  -6   4 -12  219.38    9.60
  -6  -4  12  221.18   13.00
   6   4  12  188.58   16.50
   6  -4  12  222.08   13.00
  -6   4  12  206.88   10.10
  -6   4  12  218.48   17.10
   6  -4  12  216.08   22.90
   6   5  12    9.80    8.80
  -6   5 -12   -2.10    3.30
  -6  -5  12   -5.40    5.40
   6   5  12    6.60    2.10
  -6   5  12    8.10    8.10
   6  -5  12   14.70    6.00
  -6   5  12    4.80    3.70
   6  -5  12   21.80   13.20
   6   6  12   94.49   14.50
  -6   6 -12   92.99    8.40
   6   6  12  109.69    6.90
  -6  -6  12   93.29   11.80
   6   6  12  119.09   12.10
  -6   6  12  100.69   13.30
   6  -6  12  124.09   14.50
   6  -6  12   83.49   18.00
  -6   6  12  104.19    9.30
   6   7  12    7.10   12.20
  -6  -7  12   -5.40    9.60
   6   7  12    8.20    4.20
  -6   7 -12   -0.80    4.70
  -6   7  12    5.60   10.40
   6  -7  12  -11.40   14.40
   6  -7  12   11.50   16.40
  -6   7  12    6.60    5.30
  -6   8 -12    7.00    5.90
   6   8  12   20.40    5.50
  -6  -8  12    1.20   13.00
   6   8  12   38.00   16.30
   6  -8  12  -23.10   18.00
  -6   8  12    4.20   11.40
  -6   8  12    4.50    6.80
   7   0  12  414.96   19.90
  -7   0  12  403.86   14.50
   7   1  12  593.64   26.00
  -7   1 -12  569.14   17.30
  -7  -1  12  600.04   20.10
  -7   1  12  595.54   19.40
  -7   1  12  582.74   26.00
   7  -1  12  600.84   17.30
   7  -1  12  584.84   30.90
   7  -1  12  597.04   24.10
  -7   2 -12  174.08    6.60
   7   2  12  156.48   13.40
  -7  -2  12  129.99    8.60
   7  -2  12  181.38   11.10
   7  -2  12  156.88   17.70
  -7   2  12  183.98   13.20
  -7   2  12  177.28    8.20
  -7  -3  12  282.47   13.70
  -7   3 -12  286.87   10.60
   7   3  12  261.77   19.30
   7  -3  12  317.17   14.30
  -7  -3 -12  290.97    9.20
   7  -3  12  305.77   24.40
  -7  -3 -12  282.17    9.50
  -7   3  12  279.17   11.70
  -7   3  12  262.47   16.40
  -7   4 -12  260.57   10.70
  -7  -4  12  236.28   14.00
   7   4  12  234.48   19.10
  -7   4  12  233.58   17.50
  -7  -4 -12  235.18    9.90
   7  -4  12  189.68   22.00
  -7   4  12  248.88   11.30
   7  -4  12  249.97   13.00
  -7  -5  12   27.30    7.30
  -7   5 -12   42.70    5.50
   7   5  12   44.30    9.80
   7   5  12   35.00   10.30
   7  -5  12   34.50    6.90
  -7   5  12   36.60    5.40
  -7  -5 -12   45.80    5.80
  -7   5  12   39.40   10.10
   7  -5  12   75.49   16.90
  -7  -6  12    8.70    7.20
   7   6  12   14.20   10.60
   7   6  12    4.20    8.60
  -7   6 -12   15.50    4.80
   7  -6  12    3.80   14.50
   7  -6  12   10.00    7.10
  -7   6  12   -1.30    9.00
  -7   6  12    9.10    4.70
  -7   7 -12    2.80    5.80
   7   7  12    6.20    4.20
  -7  -7  12    0.90    9.00
   7   7  12   -2.60   12.40
   7  -7  12   -8.60   16.90
  -7   7  12    7.10    6.00
  -7   7  12   19.00   10.60
   8   0  12  469.95   27.70
   8   0  12  521.75   22.80
  -8   0  12  512.95   17.70
  -8   0 -12  519.25   14.50
   8   0  12  505.65   14.80
   8   1  12  257.27   21.10
   8   1  12  264.57   16.70
  -8   1 -12  272.27    8.90
  -8   1  12  257.37   17.20
  -8   1  12  276.37   11.10
   8  -1  12  276.17   15.10
   8  -1  12  280.77    9.00
   8  -1  12  278.67   22.80
   8   2  12  548.45   28.90
  -8   2 -12  512.35   16.30
   8   2  12  477.25   23.70
  -8  -2  12  504.65   18.90
  -8   2  12  510.25   23.50
   8  -2  12  517.95   21.50
  -8  -2 -12  534.45   14.60
   8  -2  12  532.65   31.50
  -8   2  12  532.45   18.00
  -8  -2 -12  512.15   14.60
  -8  -3  12  119.99    9.50
   8   3  12  120.69   15.20
  -8   3 -12  128.29    6.40
   8   3  12  114.39   15.50
   8  -3  12  140.59   19.80
  -8  -3 -12  125.49    5.00
   8  -3  12  123.19    9.80
  -8  -3 -12  122.99    5.00
  -8   3  12  117.49    7.70
  -8   3  12  129.49   13.10
   8   4  12  213.18   18.90
   8   4  12  196.38   17.70
  -8  -4  12  196.48   13.10
  -8   4 -12  245.28   10.10
  -8  -4 -12  198.18    8.90
  -8   4  12  196.08   10.60
   8  -4  12  233.88   12.00
   8  -4  12  277.17   26.00
  -8   4  12  230.78   17.20
  -8   5 -12   26.70    4.70
  -8  -5  12   24.00    7.00
   8   5  12   29.90   11.10
   8   5  12   26.90    9.80
   8  -5  12   29.30   14.90
   8  -5  12   37.50    6.20
  -8  -5 -12   31.80    5.20
  -8   5  12   22.10    4.90
  -8   5  12   30.70    9.20
  -8  -6  12   46.10   10.10
   8   6  12   31.60   12.90
  -8   6 -12   27.50    5.50
   8   6  12   10.40    9.60
   8  -6  12   19.00   16.20
  -8   6  12   53.59   10.70
  -8  -6 -12   36.40    6.70
  -8   6  12   34.00    6.50
  -8  -7  12   20.50   10.60
  -8   7 -12   10.70    5.60
   8   7  12   21.70   13.50
  -8   7  12   23.30   10.50
   8  -7  12    7.30   16.80
  -8   7  12    3.00    6.00
  -8  -7 -12    1.90    8.20
   9   0  12  399.46   12.10
  -9   0 -12  395.26   11.70
   9   0  12  367.86   25.70
  -9   0  12  371.56   14.60
   9   0  12  410.66   19.30
   9   1  12  462.55   26.80
  -9   1 -12  463.65   13.90
  -9  -1  12  434.96   16.60
   9   1  12  456.45   21.90
   9  -1  12  470.15   20.50
  -9  -1 -12  465.85   12.80
  -9   1  12  417.66   15.90
  -9  -1 -12  450.35   12.70
   9  -1  12  391.96   28.70
   9  -1  12  463.85   14.00
  -9   1  12  433.86   23.00
   9   2  12  133.29   15.40
  -9   2 -12  126.59    6.00
   9   2  12  129.89   14.00
  -9  -2  12  128.79    8.50
  -9  -2 -12  133.69    4.50
  -9   2  12  150.88   13.90
   9  -2  12  139.09   10.70
  -9  -2 -12  138.09    4.70
  -9   2  12  128.09    7.80
   9  -2  12  117.89   19.00
   9   3  12  274.67   22.80
  -9  -3  12  307.47   14.50
  -9   3 -12  278.87   11.10
   9   3  12  294.37   20.70
  -9  -3 -12  300.47    9.60
  -9  -3 -12  296.27    9.60
   9  -3  12  301.67   14.80
   9  -3  12  256.27   25.20
  -9   3  12  279.07   12.50
  -9   3  12  298.17   18.10
   9   4  12  235.78   19.20
  -9   4 -12  194.78    9.40
  -9  -4  12  200.08   12.60
   9   4  12  187.58   19.00
   9  -4  12  203.78   12.00
  -9  -4 -12  208.38    8.50
  -9   4  12  199.08   10.80
  -9   4  12  191.28   16.70
   9  -4  12  190.78   23.60
   9   5  12  128.89   15.20
  -9  -5  12  103.59   12.10
  -9   5 -12  121.19    8.90
   9   5  12  120.79   16.00
  -9  -5 -12  122.39    8.50
  -9   5  12  130.99   15.00
   9  -5  12  107.29   10.10
   9  -5  12  118.29   21.40
  -9   5  12  112.79    9.10
   9   6  12   26.80   12.10
  -9  -6  12   24.60    8.70
  -9   6 -12   26.00    5.60
   9   6  12   26.40   14.10
  -9   6  12   25.10    5.90
  -9   6  12   26.60    9.30
  -9  -6 -12   18.50    6.00
   9  -6  12   25.80   18.10
  -9   7 -12   26.80    6.50
  -9  -7  12   57.19   12.30
   9   7  12   33.40   15.20
  -9  -7 -12   35.30    8.70
  -9   7  12   40.90   11.70
  -9   7  12   43.60    8.10
   9  -7  12   47.60   19.90
 -10   0 -12 1380.86   36.70
  10   0  12 1275.67   43.90
  10   0  12 1328.17   37.10
  10   0  12 1164.48   52.29
 -10   0  12 1302.97   39.90
 -10   1 -12   72.19    3.90
  10   1  12   86.59   11.40
 -10  -1  12   61.49    6.20
  10   1  12   57.69   14.10
 -10  -1 -12   66.49    3.00
 -10   1  12   65.19    6.10
  10  -1  12   64.79    8.50
 -10   1  12   48.70   10.40
 -10  -1 -12   65.89    2.90
  10  -1  12   63.89    4.80
  10  -1  12   57.29   15.60
 -10  -2  12  744.63   26.30
  10   2  12  821.52   37.70
 -10   2 -12  786.32   23.50
  10   2  12  763.82   31.90
  10  -2  12  689.63   39.90
  10  -2  12  776.22   27.90
 -10   2  12  732.73   25.20
 -10   2  12  762.32   31.90
 -10  -2 -12  778.62   21.90
 -10  -2 -12  793.72   22.00
 -10  -3  12    0.70    4.10
 -10   3 -12    6.30    2.50
  10   3  12    9.70   10.30
  10   3  12    7.10    9.00
 -10  -3 -12    6.40    1.60
  10  -3  12    8.00   11.60
 -10  -3 -12    0.90    2.20
 -10   3  12   -0.40    6.70
 -10   3  12   -0.30    3.30
  10  -3  12   17.80    5.20
 -10   4 -12  219.18   10.40
 -10  -4  12  216.48   13.60
  10   4  12  202.88   19.00
  10   4  12  213.48   23.30
 -10   4  12  199.88   17.20
  10  -4  12  206.68   26.00
 -10  -4 -12  204.98    8.60
 -10   4  12  207.28   11.30
  10  -4  12  218.48   11.80
 -10   5 -12    7.90    4.30
  10   5  12   21.50   10.80
  10   5  12   12.20   10.20
 -10  -5  12   -3.60    6.70
 -10   5  12    5.90    4.80
  10  -5  12    9.80   14.80
 -10  -5 -12    6.50    3.80
 -10   5  12   -1.90    8.70
 -10   6 -12   10.80    5.60
  10   6  12   14.70   13.30
 -10  -6  12   17.10    9.30
 -10   6  12   13.00    6.00
 -10   6  12   19.40    9.00
  10  -6  12   27.40   18.10
 -10  -6 -12   19.80    6.00
  10   7  12   -1.80   13.30
 -10   7 -12   17.00    6.60
 -10  -7  12    3.10   10.40
 -10  -7 -12    0.90    7.10
  10  -7  12   -4.90   20.10
 -10   7  12    4.80    6.60
 -11   0 -12  229.98    7.80
  11   0  12  235.18   25.40
 -11   0  12  223.18   11.00
  11   0  12  228.18   16.20
  11   0  12  214.38    8.60
  11   1  12  401.16   21.00
  11   1  12  408.96   29.20
 -11  -1  12  366.36   15.60
 -11   1 -12  421.46   13.00
 -11  -1 -12  396.06   11.90
  11  -1  12  418.86   31.10
 -11   1  12  362.66   22.50
 -11  -1 -12  399.26   12.00
  11  -1  12  405.66   18.80
 -11   1  12  380.36   15.40
  11   2  12  197.48   17.30
 -11  -2  12  194.58   11.30
  11   2  12  169.58   19.70
 -11   2 -12  204.48    8.00
 -11   2  12  202.58   10.30
 -11  -2 -12  195.28    7.00
  11  -2  12  194.98   11.60
  11  -2  12  199.78   26.00
 -11  -2 -12  200.18    6.70
 -11   2  12  162.68   15.10
 -11   3 -12  374.86   13.80
  11   3  12  333.87   26.50
  11   3  12  360.76   23.10
 -11  -3  12  386.56   16.70
 -11   3  12  349.87   20.00
  11  -3  12  359.36   31.20
  11  -3  12  383.66   15.60
 -11  -3 -12  365.66   11.90
 -11   3  12  364.36   15.30
  11   4  12  169.58   19.00
  11   4  12  110.19   16.20
 -11   4 -12  149.39    9.10
 -11  -4  12  151.98   11.50
  11  -4  12  187.28    9.20
 -11   4  12  151.38   10.10
 -11   4  12  175.38   16.50
  11  -4  12  110.59   20.00
 -11  -4 -12  153.88    7.10
  11   5  12  176.98   18.80
  11   5  12  170.68   21.30
 -11  -5  12  181.18   14.60
 -11   5 -12  157.28   10.40
 -11   5  12  151.38   16.10
 -11  -5 -12  181.28    9.30
 -11   5  12  160.68   11.40
  11  -5  12  156.38   24.40
 -11   6 -12  118.59   11.10
 -11  -6  12  175.78   15.40
  11   6  12  190.88   23.80
  11  -6  12  133.39   24.20
 -11   6  12  150.88   12.30
 -11  -6 -12  135.29   11.20
 -11   6  12  193.58   16.10
 -11  -7  12   55.69   12.40
  11   7  12   79.69   18.80
 -11   7 -12   75.29    9.70
 -11   7  12   94.09   10.80
 -11  -7 -12   88.29    9.80
  11  -7  12   88.39   25.30
 -12   0  12   56.29    6.40
 -12   0 -12   57.39    3.70
  12   0  12   57.59    6.10
  12   0  12   63.49    9.70
  12   0  12   78.69   17.50
  12   1  12   13.10    8.30
 -12  -1  12   10.20    3.90
 -12   1 -12   12.30    2.10
  12   1  12   16.60   13.30
 -12   1  12    6.90    8.50
 -12  -1 -12   11.00    1.80
 -12   1  12    9.10    3.80
  12  -1  12    9.10   13.40
 -12  -1 -12   11.40    2.00
  12  -1  12   12.90    6.60
 -12   2 -12   10.70    2.60
 -12  -2  12    4.30    3.90
  12   2  12    9.00    8.80
  12   2  12   14.70   13.00
  12  -2  12   27.80    5.70
 -12   2  12   15.80    4.40
 -12  -2 -12   11.20    1.80
  12  -2  12   13.10   14.90
 -12   2  12    1.40    7.40
 -12   3 -12   -2.00    2.80
  12   3  12  -11.10   11.60
 -12  -3  12    8.00    4.50
  12   3  12   -2.10    8.40
  12  -3  12    7.90   14.20
 -12   3  12    6.70    7.60
 -12  -3 -12    0.80    1.90
 -12   3  12    4.00    3.60
 -12   4 -12    2.70    3.70
  12   4  12   -4.90   12.00
  12   4  12   -0.40   10.50
 -12  -4  12   -0.70    5.50
 -12   4  12    0.00    8.60
 -12   4  12   12.00    4.70
  12  -4  12   -1.00   14.60
 -12  -4 -12    5.10    2.50
  12   5  12  -19.80   13.20
 -12   5 -12    5.30    4.70
  12   5  12   10.70   12.30
 -12  -5  12   -0.30    6.70
 -12   5  12   -7.60    9.00
 -12   5  12    2.50    5.50
  12  -5  12  -26.80   14.70
 -12  -5 -12   -0.80    4.10
 -12  -6  12   -1.00    7.90
  12   6  12    8.90   14.00
 -12   6 -12   -5.60    5.30
  12  -6  12  -20.20   18.30
 -12   6  12   15.90    6.60
 -12  -6 -12    1.70    5.40
  13   0  12  180.58   15.60
  13   0  12  184.68   23.10
 -13   0 -12  185.98    7.20
 -13   0  12  177.38   10.10
 -13   1 -12  105.09    5.60
  13   1  12  117.39   14.20
 -13  -1  12   97.19    8.00
  13   1  12   82.39   18.30
 -13  -1 -12  103.99    4.90
  13  -1  12  122.99   20.30
 -13   1  12   97.89    8.20
  13  -1  12  113.09   12.30
 -13   2 -12  109.19    6.60
 -13  -2  12  105.09    9.00
  13   2  12  138.79   20.40
 -13  -2 -12  120.89    5.20
  13  -2  12  102.99   21.30
 -13   2  12  116.49   15.60
  13  -2  12  135.09   11.00
 -13   2  12  122.29    8.90
 -13   3 -12  141.59    7.90
  13   3  12  134.19   17.40
  13   3  12  151.18   21.00
 -13  -3  12  133.99   11.00
 -13   3  12  129.59   14.10
 -13  -3 -12  130.59    6.00
 -13   3  12  134.49    9.80
  13  -3  12  145.79   10.20
  13  -3  12  120.79   23.00
  13   4  12   76.69   14.70
 -13   4 -12  117.29    8.60
 -13  -4  12  104.09   10.70
  13   4  12   85.99   18.00
 -13   4  12   89.79    9.20
  13  -4  12   86.99   20.70
 -13  -4 -12   82.99    6.00
 -13   4  12   57.49   11.30
 -13   5 -12   42.60    6.50
 -13  -5  12   34.60    8.70
  13   5  12   51.19   14.50
  13   5  12   28.50   13.70
 -13  -5 -12   43.80    5.20
  13  -5  12   26.70   19.60
 -13   5  12   42.80   11.10
 -13   5  12   29.90    6.80
 -13  -6  12    8.90    9.20
 -13   6 -12   -6.70    6.10
  13   6  12    6.90   13.10
 -13  -6 -12    8.00    5.60
 -13   6  12   -1.90    6.60
  13  -6  12   -8.30   20.60
  14   0  12  201.18   25.30
 -14   0  12  212.18   11.60
 -14   0 -12  210.18    8.10
  14   0  12  183.68   16.40
 -14   1 -12  184.98    7.90
 -14  -1  12  164.08   10.70
  14   1  12  178.68   17.60
  14   1  12  142.69   21.40
 -14   1  12  144.39    9.60
  14  -1  12  162.48   23.80
 -14  -1 -12  168.68    6.80
  14  -1  12  181.48   14.80
  14   2  12  128.59   15.60
 -14   2 -12  130.09    7.60
  14   2  12  132.99   20.50
 -14  -2  12  125.69   10.20
  14  -2  12  134.69   11.30
 -14  -2 -12  119.09    5.50
  14  -2  12   97.39   19.90
 -14   2  12  113.29    8.70
 -14   2  12  113.89   14.40
 -14   3 -12  157.68    9.10
  14   3  12  159.98   22.00
 -14  -3  12  166.68   12.20
  14   3  12  151.18   19.30
 -14   3  12  151.68   15.30
 -14   3  12  148.39   10.90
 -14  -3 -12  163.18    7.00
  14  -3  12  162.28   25.50
  14   4  12   76.49   15.30
  14   4  12   70.59   16.80
 -14  -4  12   48.30    8.50
 -14   4 -12   40.40    5.90
 -14  -4 -12   47.50    5.40
 -14   4  12   51.09    7.70
 -14   4  12   42.90   10.40
  14  -4  12   98.19   23.90
  14   5  12   46.10   16.50
 -14  -5  12   65.79   10.60
 -14   5 -12   58.29    7.30
  14   5  12   47.00   16.10
 -14  -5 -12   53.79    5.60
  14  -5  12   21.30   21.60
 -14   5  12   49.30    8.40
 -14   6 -12   18.70    6.70
 -14  -6  12   11.40    9.90
  14   6  12   14.70   16.20
  14  -6  12  -11.10   23.20
 -14   6  12    6.80    6.80
  15   0  12  127.49   15.40
 -15   0  12  104.59    9.10
 -15   0 -12  104.49    5.90
  15   0  12  104.69   21.30
 -15  -1  12   13.40    5.20
  15   1  12   17.70    9.80
 -15   1 -12   10.10    3.00
  15   1  12    0.70   15.40
 -15   1  12    5.40    4.20
  15  -1  12   33.70   16.20
  15  -1  12   20.20    8.60
 -15  -1 -12    5.40    2.30
  15   2  12  179.28   18.80
 -15   2 -12  165.08    8.60
  15   2  12  142.19   22.20
 -15  -2  12  166.48   11.50
  15  -2  12  168.88   12.10
 -15   2  12  146.59   10.60
  15  -2  12  169.98   25.80
 -15   2  12  158.48   18.40
 -15  -2 -12  146.99    6.70
 -15   3 -12    0.80    3.90
  15   3  12   27.40   15.90
 -15  -3  12   -0.30    5.50
  15   3  12    0.70   10.50
  15  -3  12   30.20   18.60
 -15   3  12   -3.70    5.50
 -15   3  12    6.40    9.10
 -15  -3 -12   -2.10    2.50
  15   4  12   49.00   17.30
  15   4  12   58.99   15.50
 -15   4 -12   49.99    6.40
 -15  -4  12   46.50    8.20
 -15   4  12   25.10   10.70
  15  -4  12   22.00   19.80
 -15   4  12   41.80    7.10
 -15  -4 -12   45.30    4.90
  15   5  12  -21.30   15.70
 -15   5 -12    7.90    5.90
  15   5  12   17.60   13.60
 -15  -5  12   13.30    8.40
 -15   5  12    0.50    6.50
  15  -5  12  -27.60   21.80
 -16   0  12  142.29   10.30
  16   0  12  127.49   23.80
 -16   0 -12  158.98    7.60
  16   0  12  166.68   17.80
  16   1  12   16.10   17.00
  16   1  12   10.20   10.10
 -16  -1  12   13.40    5.10
 -16   1 -12   14.00    3.70
  16  -1  12   20.70   17.20
 -16   1  12   10.70    5.10
  16  -1  12   25.30    9.10
 -16  -1 -12    6.70    2.90
 -16   2 -12  144.19    8.40
  16   2  12  144.49   19.20
 -16  -2  12  136.39   11.60
  16   2  12   97.89   19.80
 -16  -2 -12  124.09    6.60
 -16   2  12  123.09   10.20
 -16   2  12  119.99   15.60
  16  -2  12  107.79   23.60
  16  -2  12  165.88   16.80
 -16   3 -12   38.80    5.80
  16   3  12   45.60   13.20
  16   3  12   12.60   16.90
 -16  -3  12   44.40    8.20
 -16   3  12   30.10   11.20
  16  -3  12   39.40   21.50
 -16  -3 -12   32.80    3.90
 -16   3  12   27.20    6.10
 -16   4 -12   59.89    7.00
  16   4  12   67.89   19.20
 -16  -4  12   58.99    9.20
  16   4  12   90.49   17.20
  16  -4  12   52.89   22.30
 -16   4  12   61.69    8.60
  16   5  12   26.50   16.60
 -16   5 -12   47.20    7.60
 -16  -5  12   45.30   10.20
 -16   5  12   39.80    8.30
  16  -5  12   74.69   25.90
 -17   0  12   -1.60    5.00
  17   0  12   12.10   16.80
 -17   0 -12    5.10    3.60
  17   0  12   13.50    9.70
  17   1  12  172.78   18.90
 -17   1 -12  154.08    8.50
 -17  -1  12  148.69   12.10
  17   1  12  189.98   26.10
 -17  -1 -12  152.08    7.80
 -17   1  12  152.08   11.70
  17  -1  12  163.88   15.70
  17  -1  12  117.79   23.30
 -17  -2  12   11.70    6.00
 -17   2 -12   11.40    4.30
  17   2  12    3.00   17.40
  17   2  12   25.70   11.70
 -17   2  12    8.60    5.70
  17  -2  12   12.40   19.70
 -17   2  12  -14.80   11.10
 -17  -2 -12   10.90    3.30
  17   3  12   20.30   18.10
 -17  -3  12   51.49    8.70
  17   3  12   78.99   16.90
 -17   3 -12   55.49    6.50
 -17   3  12   58.29   12.50
  17  -3  12   29.30   18.90
 -17   3  12   57.19    8.60
 -17  -4  12   13.80    8.10
 -17   4 -12   11.30    5.60
  17   4  12  -20.20   14.10
  17   4  12    6.00   18.40
  17  -4  12  -16.00   22.00
 -17   4  12    5.20    6.10
 -18   0  12  107.09   11.30
 -18   0 -12  105.19    7.70
  18   0  12  142.49   18.10
  18   0  12  131.69   25.80
  18   1  12   -3.00   19.50
 -18  -1  12    9.20    6.40
  18   1  12   11.80   11.20
 -18   1 -12   14.30    4.20
 -18   1  12    5.20    5.80
  18  -1  12  -27.20   16.90
 -18  -1 -12    7.50    3.80
  18  -1  12   30.40   10.20
 -18   2 -12   88.79    8.50
 -18  -2  12   83.19    9.50
  18   2  12   51.49   21.20
  18   2  12   69.09   16.10
  18  -2  12   42.90   22.50
 -18   2  12   95.39   16.00
 -18   2  12   95.49   11.20
 -18   3 -12    3.80    5.10
 -18  -3  12    4.50    6.50
  18   3  12   -5.80   19.00
  18   3  12    3.70   12.50
 -18   3  12    7.50    6.70
  18  -3  12  -12.20   22.00
  19   0  12   23.70   21.50
 -19   0 -12   19.40    5.00
 -19   0  12   26.20    7.10
  19   0  12   30.50   12.00
  19   1  12  115.49   26.20
 -19   1 -12  133.69    9.30
  19   1  12  185.88   21.40
 -19  -1  12  128.19   11.90
  19  -1  12   99.29   25.30
 -19   1  12  134.69   11.90
 -19  -2  12   34.90    8.20
  19   2  12   37.10   15.60
  19   2  12   41.70   22.60
 -19   2 -12   51.89    6.50
 -19   2  12   67.39   14.90
  19  -2  12   20.00   22.90
 -19   2  12   16.90    7.50
  20   0  12  -12.20   22.70
   0   0  13    2.20    1.00
   0   0  13    1.30    1.00
   0   0  13   -5.20    3.70
   0  -1  13    2.20    4.60
   0   1  13   -1.50    4.60
   0   1  13   -1.50    0.90
   0  -1 -13   -0.10    1.50
   0  -1  13    1.70    1.60
   0  -1  13    2.90    1.50
   0  -2  13   -1.80    5.50
   0  -2  13    1.40    2.10
   0  -2 -13    4.40    1.50
   0   2  13    4.70    1.30
   0   2  13    3.60    6.60
   0   3  13   -8.60    7.20
   0   3  13   -0.30    1.50
   0   4  13  192.78   17.00
   0   4  13  212.08    8.10
   0   4 -13  162.88    8.30
   0   5 -13   -5.50    2.80
   0   5  13    5.50    8.50
   0   5  13    4.30    2.90
   0   6 -13  154.38    9.30
   0   6  13  135.39    8.80
   0  -6  13  141.79   17.60
   0   6  13  136.39   17.20
   0  -7  13  -11.30   12.70
   0   7  13   -0.60   11.40
   0   7  13    1.70    4.50
   0   7 -13   -1.60    4.60
   0   8 -13  128.99   11.60
   0   8  13  134.79   19.20
   0   8  13  142.09   11.10
  -1   0  13    0.50    1.00
   1   0  13   -2.20    4.30
   1   0  13    0.30    0.80
  -1   0  13   -2.80    4.50
   1   0 -13    1.20    2.40
   1   0  13    0.20    0.90
   1   1  13  138.29    4.70
  -1  -1  13  142.49   11.50
   1  -1 -13  141.89    6.00
  -1  -1  13  139.99    6.20
   1   1  13  150.78   11.20
  -1  -1 -13  142.59    5.30
   1  -1  13  140.49    5.80
   1  -1  13  124.59   10.80
  -1   1  13  132.19    5.30
  -1   1  13  142.89   11.60
   1  -1  13  144.39    5.60
   1  -2 -13   57.09    3.90
   1   2  13   64.39   10.20
  -1  -2  13   56.69    4.90
   1   2  13   59.49    3.00
  -1   2  13   60.09    8.80
   1  -2  13   51.79    8.50
  -1  -2 -13   56.39    3.00
   1  -2  13   58.39    4.90
  -1   2  13   58.69    3.40
   1   3  13  170.78   16.00
  -1  -3  13  155.18    9.50
   1   3  13  158.08    6.20
  -1   3 -13  158.58    6.80
  -1   3  13  160.08   14.60
  -1  -3 -13  160.48    6.40
  -1   3  13  156.98    6.60
   1   4  13   72.39    4.50
  -1   4 -13   83.69    5.60
   1   4  13   93.29   13.90
  -1   4  13   84.59   13.40
  -1   4  13   75.39    5.20
   1   5  13  531.85   27.40
  -1   5 -13  510.55   18.60
   1   5  13  522.85   17.60
   1   5 -13  528.15   18.80
  -1   5  13  498.85   26.00
   1  -5  13  501.45   29.40
  -1   5  13  557.04   18.50
   1   6  13   29.50   10.10
  -1  -6  13   45.50   12.70
  -1   6 -13   47.70    5.70
   1   6  13   43.50    5.50
  -1   6  13   42.70    5.50
   1  -6  13   19.30   12.60
  -1   6  13   53.89   12.30
   1   6 -13   46.70    5.80
   1   7  13  386.26   16.10
   1   7  13  381.66   26.30
  -1  -7  13  310.17   28.20
  -1   7 -13  415.36   17.30
   1  -7  13  386.76   30.80
  -1   7  13  390.16   16.50
   1   7 -13  384.36   16.90
  -1   7  13  397.16   26.00
   1   8  13   23.10   14.10
  -1   8 -13   19.00    6.60
   1   8  13   18.70    6.00
  -1   8  13    8.70   13.30
   1   8 -13   22.00    5.80
  -1   8  13    9.10    6.40
   2   0 -13   -0.10    2.40
   2   0  13   -0.80    0.70
   2   0  13   -4.70    3.90
  -2   0  13    1.40    1.40
  -2   0  13    0.70    4.70
   2   0  13    1.30    0.80
   2  -1 -13    2.90    2.30
   2   1  13   -3.10    5.00
   2   1  13    1.30    0.60
  -2  -1  13    0.00    1.50
   2   1  13    1.20    0.50
  -2  -1  13   -5.80    5.50
   2  -1  13    3.10    1.30
  -2   1  13   -4.20    4.20
   2  -1  13    2.80    4.90
  -2   1  13    4.30    1.30
   2  -1  13   -0.10    1.40
   2   2  13   22.50    1.80
  -2  -2  13   19.80    3.20
   2   2  13   28.60    8.90
  -2   2  13   24.50    2.70
  -2   2  13   23.40    6.70
  -2  -2 -13   22.50    1.90
   2  -2  13   26.30    6.60
  -2   3 -13  102.89    5.20
  -2  -3  13   98.69    7.70
   2   3  13  114.19   13.90
   2   3  13  104.89    4.50
  -2   3  13  109.79    5.40
  -2   3  13   81.29   12.30
  -2  -3 -13  109.09    4.70
   2  -3  13  105.49   11.30
  -2   4 -13    8.00    2.70
   2   4  13   13.10    2.20
  -2  -4  13    8.20    4.90
   2   4  13    6.90    8.80
  -2   4  13   18.90    9.70
  -2   4  13   12.10    2.80
   2   5  13   31.00    3.70
   2   5  13   24.70   10.00
  -2   5 -13   36.20    4.60
  -2   5  13   25.00   10.30
  -2   5  13   36.10    4.70
   2  -5  13   30.40   11.80
   2   6  13   -0.10    3.30
  -2   6 -13    6.00    3.70
  -2  -6  13   17.00   11.90
   2   6  13    4.80    9.40
   2  -6  13    9.10   13.30
   2   6 -13    3.70    3.30
  -2   6  13   11.20   10.10
  -2   6  13    6.50    4.00
   2   7  13  136.99    9.70
  -2   7 -13  136.19   10.40
  -2  -7  13  165.48   19.20
   2   7  13  156.58   18.90
  -2   7  13  146.49   19.60
  -2   7  13  158.98   10.60
   2  -7  13  139.59   20.10
   2   7 -13  154.38   10.80
   2   8  13   10.30   14.00
  -2   8 -13   18.20    6.60
   2   8  13   31.50    6.30
  -2   8  13   41.60   14.80
  -2   8  13   19.00    6.80
   2   8 -13   22.50    6.60
   3   0  13    2.30    4.60
  -3   0  13   -1.80    4.80
  -3   0  13   -0.10    1.30
   3   1  13   -0.70    5.90
  -3  -1  13    3.30    1.70
   3  -1  13    2.50    4.60
   3  -1  13    3.80    1.20
   3  -1  13    3.80    1.60
  -3   1  13    5.50    5.00
  -3   1  13    3.20    1.40
   3   2  13  135.89   13.40
   3   2  13  106.39    3.50
  -3  -2  13  106.89    6.60
  -3   2 -13  108.39    4.70
   3  -2  13   93.19   10.00
  -3   2  13  103.89    5.20
  -3   2  13  125.89   11.90
  -3  -2 -13  111.99    3.70
  -3   3 -13  185.88    7.40
  -3  -3  13  190.18   10.70
   3   3  13  170.48   15.40
   3   3  13  171.98    6.40
  -3   3  13  173.78    7.70
   3  -3  13  212.18   14.00
  -3   3  13  168.88   15.60
  -3  -3 -13  191.18    6.50
   3   4  13  185.78   16.00
   3   4  13  185.68    7.30
  -3  -4  13  174.68   12.10
  -3   4 -13  194.48    8.70
  -3   4  13  179.38   17.20
   3  -4  13  181.18   20.00
  -3   4  13  191.78    8.90
   3   5  13    1.60    8.30
  -3   5 -13    0.90    3.00
  -3  -5  13   10.70    6.50
   3   5  13   -0.70    2.20
  -3   5  13    5.10    3.50
  -3   5  13   -0.70    8.40
   3  -5  13    0.00   11.20
   3   6  13  134.19   18.00
  -3   6 -13  131.29    9.20
  -3  -6  13  134.69   13.60
   3   6  13  145.49    8.10
  -3   6  13  136.59    9.70
  -3   6  13  139.19   17.00
   3  -6  13  127.09   19.70
   3   7  13   -2.60    4.00
  -3   7 -13   -4.30    4.30
  -3  -7  13   10.00   12.70
   3   7  13   -9.40   12.00
  -3   7  13    6.30    4.60
   3  -7  13  -19.90   14.60
  -3   7  13    9.10   10.50
  -3   8 -13   60.19    8.20
   3   8  13   79.39   18.00
   3   8  13   79.29    8.10
   3  -8  13   41.50   19.40
  -3   8  13   78.59   15.40
  -3   8  13   63.09    8.50
  -4   0  13   -0.30    1.50
  -4   0  13   -1.90    5.50
   4   0  13   -1.30    4.60
  -4  -1  13   16.40    2.50
   4   1  13   19.90    7.90
   4  -1  13   12.70    1.50
   4  -1  13   15.30    2.20
   4  -1  13    5.40    5.20
  -4   1  13   14.20    2.00
  -4   1  13   22.30    7.00
   4   2  13   -1.40    6.80
  -4  -2  13    5.60    2.70
  -4   2 -13    0.90    1.20
   4  -2  13    0.60    4.80
   4  -2  13    1.10    1.80
  -4   2  13    2.80    1.70
  -4   2  13   -3.20    5.30
   4   3  13    4.20    7.30
  -4   3 -13    3.00    1.60
   4   3  13    1.20    1.00
  -4  -3  13    2.30    3.50
  -4   3  13    1.10    6.90
  -4   3  13    0.40    2.20
  -4  -3 -13    2.00    1.30
   4  -3  13   -1.80    5.20
   4   4  13    3.00    7.60
  -4   4 -13    5.40    2.70
  -4  -4  13   12.10    5.30
   4   4  13    6.60    1.70
   4  -4  13   16.30    6.60
  -4   4  13    8.10    8.70
  -4   4  13    8.40    3.10
   4  -4  13   19.00   11.20
   4   5  13    3.30    2.20
  -4   5 -13    0.30    3.20
   4   5  13    0.70    7.70
  -4  -5  13    6.20    6.30
  -4   5  13    0.90    3.40
   4  -5  13   -2.50   11.70
  -4   5  13   11.10    9.00
   4   6  13    3.80    3.20
  -4  -6  13    5.50    7.50
  -4   6 -13    0.10    3.60
   4   6  13    3.90   10.30
  -4   6  13    0.00    4.10
  -4   6  13   25.30   10.30
   4  -6  13   -5.60   13.40
   4   7  13    5.70   12.30
  -4   7 -13   10.00    4.90
   4   7  13    3.70    4.40
  -4  -7  13    0.80    9.50
  -4   7  13   12.30    5.50
   4  -7  13   25.80   16.90
  -4   7  13    9.80   10.40
   4   8  13   -2.20    4.80
  -4   8 -13    3.20    6.00
   4   8  13    7.60   13.70
  -4  -8  13    7.40   12.50
   4  -8  13    1.90   18.30
  -4   8  13   18.70   13.20
  -4   8  13   -3.40    6.30
  -5   0  13   -2.90    6.10
  -5   0  13   -0.50    1.50
   5   0  13    5.00    5.70
   5   1  13    5.30    7.50
  -5   1 -13    0.10    0.70
  -5  -1  13    0.90    2.10
  -5   1  13    4.20    6.50
   5  -1  13    1.50    1.00
   5  -1  13    0.40    4.40
  -5   1  13   -0.10    1.60
   5   2  13    4.10    7.10
  -5  -2  13    2.00    2.70
  -5   2 -13    0.30    1.30
   5  -2  13    0.60    1.80
   5  -2  13   -4.00    4.20
  -5   2  13   -2.90    5.50
  -5   2  13    3.70    2.00
  -5   3 -13  384.86   13.20
   5   3  13  357.06   22.00
  -5  -3  13  395.16   16.40
   5  -3  13  408.16   18.70
   5  -3  13  399.26   27.10
  -5  -3 -13  377.76   12.60
  -5   3  13  396.46   20.80
  -5   3  13  392.96   14.10
  -5  -3 -13  401.96   11.70
   5   4  13   -3.70    7.80
  -5   4 -13    2.50    2.80
  -5  -4  13    0.20    4.40
   5   4  13    4.00    1.60
  -5   4  13    1.00    2.80
   5  -4  13    4.80    6.40
   5  -4  13   12.30   11.10
  -5   4  13   -9.70    7.80
   5   5  13   92.49    5.30
  -5   5 -13   91.69    7.30
  -5  -5  13   85.89   10.20
   5   5  13   85.69   13.30
   5  -5  13  110.39   13.20
  -5   5  13   95.99   13.40
  -5   5  13   95.59    8.10
   5  -5  13   78.59   16.20
   5   6  13    8.00    3.10
  -5   6 -13    7.90    4.00
  -5  -6  13   11.00    8.20
   5   6  13    8.70    9.90
   5  -6  13   22.00   10.30
  -5   6  13   10.20    4.80
  -5   6  13   -4.80    9.70
   5  -6  13  -10.50   13.60
  -5   7 -13  107.29   10.40
   5   7  13   98.39    8.30
   5   7  13  153.78   20.80
  -5  -7  13  104.89   13.90
   5  -7  13   87.39   20.70
  -5   7  13  134.69   18.10
  -5   7  13  106.09   11.00
  -5   8 -13    5.80    6.10
   5   8  13   21.30   15.40
   5   8  13   11.40    5.60
  -5  -8  13    1.00   11.60
   5  -8  13  -19.60   17.40
  -5   8  13   14.30    6.80
  -5   8  13   10.80   12.60
  -6   0  13   -0.50    1.80
   6   0  13    4.30    6.30
  -6   0  13   -1.20    6.60
  -6  -1  13  132.29    7.00
   6   1  13  120.29   14.30
  -6   1 -13  119.59    4.40
   6  -1  13  124.39   11.20
  -6   1  13  119.99   13.00
   6  -1  13  126.69    4.60
  -6   1  13  130.89    6.40
   6   2  13   41.20    9.20
  -6   2 -13   52.19    3.30
  -6  -2  13   51.29    5.80
   6  -2  13   51.59    7.00
   6  -2  13   39.00   11.60
  -6   2  13   53.39    4.50
  -6   2  13   57.89    9.80
  -6  -3  13    7.70    4.00
   6   3  13    1.60    8.00
  -6   3 -13    0.70    1.80
  -6  -3 -13   -0.40    1.30
   6  -3  13   -3.10   11.10
  -6   3  13    2.50    2.60
   6  -3  13    0.50    4.50
  -6  -3 -13    0.50    1.60
  -6   3  13   -4.30    6.40
  -6   4 -13  124.89    7.20
   6   4  13  114.69   15.10
  -6  -4  13  124.09   10.70
   6  -4  13  128.99   19.20
  -6   4  13  130.89    8.20
   6  -4  13  129.89   11.60
  -6   4  13  115.19   15.00
  -6  -5  13   42.60    7.90
   6   5  13   61.09    4.40
  -6   5 -13   55.19    6.00
   6   5  13   42.30   11.00
   6  -5  13   54.09    9.20
  -6   5  13   55.39   11.50
   6  -5  13   43.00   15.50
  -6   5  13   58.69    6.60
  -6  -6  13   44.40    9.10
   6   6  13   33.60    4.40
   6   6  13   54.89   13.20
  -6   6 -13   33.20    5.40
  -6   6  13   33.60    5.80
   6  -6  13   49.20   10.20
   6  -6  13   30.70   16.20
  -6   6  13   40.90   10.60
  -6   7 -13   16.90    6.10
   6   7  13   10.70   12.00
  -6  -7  13   16.10   10.00
   6   7  13   13.30    4.50
  -6   7  13    4.40   11.00
   6  -7  13   30.60   18.00
  -6   7  13   16.80    6.00
   7   0  13    5.80    6.50
  -7   0  13    0.80    2.20
  -7  -1  13    4.30    2.90
   7   1  13    7.00    7.80
   7  -1  13    3.70    6.00
  -7   1  13   -0.90    6.50
  -7   1  13    1.10    2.30
   7  -1  13    9.40   10.10
   7   2  13    3.40    7.30
  -7  -2  13   -0.70    3.00
  -7   2 -13   -0.40    1.50
  -7   2  13   -2.00    2.40
  -7   2  13    0.70    6.50
   7  -2  13   -3.10    4.50
   7  -2  13    3.10    9.60
  -7   3 -13  230.88    9.00
  -7  -3  13  220.18   12.10
   7   3  13  230.78   18.70
  -7  -3 -13  239.48    7.30
  -7   3  13  169.78   14.90
   7  -3  13  200.18   24.40
  -7   3  13  229.58   10.30
   7  -3  13  231.28   13.00
  -7  -3 -13  236.48    7.50
  -7   4 -13   10.40    3.20
  -7  -4  13    3.90    5.20
   7   4  13   19.60    9.90
   7  -4  13   11.60   13.40
  -7   4  13   12.90    3.90
  -7  -4 -13   17.40    3.00
  -7   4  13   13.00    8.80
   7  -4  13   15.80    5.50
   7   5  13   69.79   13.50
  -7  -5  13   53.09    8.50
  -7   5 -13   59.49    6.80
   7  -5  13   51.99    8.10
  -7  -5 -13   40.20    5.40
  -7   5  13   52.89   11.80
  -7   5  13   46.40    6.10
   7  -5  13   40.20   15.50
  -7   6 -13   52.59    6.30
  -7  -6  13   59.79   11.20
   7   6  13   71.39   15.20
   7   6  13   64.29   11.10
  -7   6  13   75.79   11.70
   7  -6  13   69.99    9.80
  -7   6  13   62.39    7.90
   7  -6  13   66.39   18.30
  -7   7 -13   43.50    6.90
   7   7  13   71.89   16.10
  -7  -7  13   52.29   12.90
  -7   7  13   48.60    8.10
  -7   7  13   55.49   12.50
   7  -7  13   44.50   19.70
   8   0  13   16.00    7.50
   8   0  13    6.80   10.20
  -8   0  13   -1.50    2.20
   8   1  13    3.20    7.30
  -8  -1  13    6.30    3.00
  -8   1 -13    3.30    1.20
   8   1  13   -0.60    9.60
   8  -1  13   -0.20    1.50
   8  -1  13   -3.30   10.50
  -8   1  13   -2.90    2.50
   8  -1  13    2.10    6.40
  -8   1  13    3.40    6.90
  -8   2 -13   -1.60    1.50
   8   2  13   -2.10    7.30
  -8  -2  13    1.80    3.20
  -8   2  13    0.80    2.40
   8  -2  13    8.20   11.20
  -8   2  13    2.60    6.60
   8  -2  13    3.30    5.80
  -8  -3  13  218.68   12.10
  -8   3 -13  202.08    8.60
   8   3  13  201.78   18.10
  -8  -3 -13  215.18    6.90
   8  -3  13  222.38   12.90
  -8  -3 -13  211.98    6.90
  -8   3  13  195.78   15.30
  -8   3  13  204.28   10.10
   8  -3  13  214.78   23.90
  -8   4 -13   89.39    6.40
  -8  -4  13   80.19    9.00
   8   4  13   74.39   13.40
   8   4  13   81.69   13.40
   8  -4  13   84.49    9.00
  -8   4  13   76.69   11.70
  -8  -4 -13   84.39    5.30
   8  -4  13   91.59   18.50
  -8   4  13   64.69    7.00
   8   5  13  108.59   14.60
  -8   5 -13   98.39    8.00
   8   5  13   97.69   15.40
  -8  -5  13  103.59   12.30
  -8  -5 -13  110.19    7.60
  -8   5  13  102.19   13.90
   8  -5  13   84.79   17.90
   8  -5  13  104.19   10.50
  -8   5  13  103.79    8.60
   8   6  13   18.20   10.80
  -8   6 -13   -2.90    4.40
  -8  -6  13   -1.60    7.50
   8   6  13   14.90   12.50
  -8  -6 -13    8.60    5.50
  -8   6  13   11.10    9.40
   8  -6  13   -1.30   16.00
  -8   6  13    3.40    5.00
  -8  -7  13  184.08   19.70
   8   7  13  186.18   22.90
  -8   7 -13  196.48   12.90
  -8  -7 -13  190.78   16.10
  -8   7  13  216.18   20.00
   8  -7  13  137.79   23.80
  -8   7  13  175.08   13.40
   9   0  13   -3.60    6.80
   9   0  13   -3.20   10.90
  -9   0  13    1.20    2.70
  -9   0 -13    1.10    0.80
   9   0  13   -0.20    1.40
   9   1  13   10.30   10.70
  -9   1 -13    4.10    1.40
   9   1  13    7.70    7.20
  -9  -1  13    4.40    2.90
  -9   1  13    5.90    2.90
  -9   1  13    9.60    7.70
   9  -1  13    0.60    1.80
   9  -1  13    4.10    6.10
   9  -1  13   -7.40   12.00
   9   2  13  181.88   20.70
  -9  -2  13  211.48   11.30
  -9   2 -13  216.78    8.10
   9   2  13  221.18   18.00
  -9   2  13  239.98   16.60
   9  -2  13  225.98   24.90
  -9   2  13  214.28   10.20
   9  -2  13  200.38   13.50
   9   3  13   98.69   14.20
  -9   3 -13   89.99    5.50
   9   3  13   83.09   12.90
  -9  -3  13   78.29    8.60
   9  -3  13   85.09   17.80
  -9   3  13   87.89    7.20
  -9  -3 -13   91.69    3.80
  -9   3  13   79.89   10.60
  -9  -3 -13   90.69    4.00
   9  -3  13   71.79    8.90
   9   4  13  566.74   30.80
   9   4  13  542.95   29.20
  -9  -4  13  585.64   23.30
  -9   4 -13  554.64   19.10
   9  -4  13  557.34   21.90
  -9  -4 -13  561.94   17.60
   9  -4  13  571.24   36.80
  -9   4  13  545.05   26.40
  -9   4  13  517.05   20.10
  -9  -5  13   16.00    6.70
   9   5  13   14.90   11.30
  -9   5 -13   11.00    4.40
   9   5  13    8.50   10.80
  -9   5  13    4.70    4.50
   9  -5  13   -6.30    5.60
   9  -5  13    8.90   15.00
  -9  -5 -13    6.50    3.70
  -9   5  13   -9.10    9.20
  -9   6 -13  589.44   22.00
  -9  -6  13  578.14   27.50
   9   6  13  622.14   36.20
   9   6  13  592.94   32.80
  -9  -6 -13  578.84   22.30
   9  -6  13  605.34   42.80
  -9   6  13  583.44   27.70
  -9   6  13  519.45   22.40
   9   7  13   16.30   13.00
  -9   7 -13    6.80    5.80
  -9  -7  13   29.20   11.60
  -9  -7 -13    7.00    7.60
  -9   7  13    7.10    6.50
   9  -7  13  -18.30   22.20
  -9   7  13    2.00   10.70
 -10   0 -13    0.60    1.10
 -10   0  13    3.60    2.80
  10   0  13   -2.30    6.90
  10   0  13    2.90   11.70
  10   0  13    2.90    1.90
 -10   1 -13    4.10    1.60
  10   1  13    3.80   11.30
 -10  -1  13   -1.30    3.10
  10   1  13   -0.10    7.10
  10  -1  13    3.70    2.30
 -10   1  13    0.10    7.60
  10  -1  13   -6.90   12.40
 -10   1  13    5.90    3.50
  10  -1  13    9.20    6.00
 -10  -2  13   40.00    5.70
  10   2  13   59.99   11.70
 -10   2 -13   46.90    3.80
  10   2  13   72.59   14.20
  10  -2  13   43.50    7.80
 -10  -2 -13   49.50    2.30
 -10   2  13   50.29    9.50
  10  -2  13   59.59   15.20
 -10   2  13   31.90    4.80
 -10  -2 -13   45.50    2.10
  10   3  13   26.30   11.00
 -10   3 -13    9.50    2.80
  10   3  13    9.50    8.70
 -10  -3  13   10.80    4.60
 -10   3  13    4.20    3.60
 -10  -3 -13    9.20    1.60
 -10   3  13    1.60    6.90
  10  -3  13   -5.60    5.10
  10  -3  13   17.60   13.70
  10   4  13    6.00   11.80
  10   4  13   31.10   11.30
 -10   4 -13   13.60    3.60
 -10  -4  13   22.50    6.10
 -10  -4 -13   12.10    2.50
 -10   4  13    5.40    4.20
 -10   4  13   10.80    9.10
  10  -4  13    8.80    5.60
  10  -4  13   38.80   15.60
 -10  -5  13   -0.10    6.90
  10   5  13   -6.40    9.90
  10   5  13    1.10   12.70
 -10   5 -13   -1.70    4.30
 -10   5  13    1.20    9.50
 -10   5  13   -2.30    4.70
 -10  -5 -13    0.10    3.50
  10  -5  13   -8.00   15.50
 -10   6 -13  136.79   10.80
  10   6  13  188.78   23.10
 -10  -6  13  144.09   16.00
 -10   6  13  147.59   11.90
  10  -6  13  135.99   24.00
 -10  -6 -13  139.99   11.10
 -10   6  13  157.48   17.20
 -10   7 -13    0.60    6.30
 -10  -7  13    8.00   10.30
  10   7  13   -1.60   15.30
 -10   7  13   11.80    7.00
 -10  -7 -13   10.30    7.50
  10  -7  13   37.00   22.20
  11   0  13   -4.20   11.10
  11   0  13    4.30    6.60
 -11   0  13   -0.60    3.10
  11   0  13    6.10    2.40
 -11   0 -13    1.30    1.40
  11   1  13   19.10    9.20
 -11  -1  13   25.50    4.80
 -11   1 -13   32.60    3.30
  11   1  13   17.90   13.20
 -11  -1 -13   32.90    2.20
  11  -1  13   24.30    3.70
 -11   1  13   45.10   10.50
  11  -1  13   21.80   14.90
 -11   1  13   36.50    5.00
  11  -1  13   32.60    7.40
 -11  -1 -13   34.90    2.20
  11   2  13    8.70    9.00
 -11   2 -13   11.00    2.30
  11   2  13    0.30   12.00
 -11  -2  13    4.70    4.10
 -11   2  13    0.10    3.30
  11  -2  13   21.10   15.30
 -11   2  13    2.70    7.50
 -11  -2 -13    9.30    1.60
  11  -2  13   22.50    6.10
 -11  -2 -13    6.80    1.30
 -11  -3  13   48.10    6.70
 -11   3 -13   56.69    5.40
  11  -3  13   58.89   17.50
 -11   3  13   51.89    9.80
  11  -3  13   60.29    7.30
 -11   3  13   54.89    6.30
 -11  -4  13    0.70    5.00
 -11   4 -13    1.50    3.60
  11   4  13   -4.20   12.50
  11   4  13    2.20   11.10
  11  -4  13   -4.10    5.10
 -11   4  13   -2.80    4.20
 -11   4  13    2.60    9.00
 -11  -4 -13   -1.00    2.20
  11  -4  13   19.80   14.90
 -11   5 -13  147.49   10.10
  11   5  13  187.28   22.50
  11   5  13  183.48   19.90
 -11  -5  13  151.88   13.60
 -11  -5 -13  155.28    8.50
  11  -5  13  122.39   23.90
 -11   5  13  143.79   10.90
 -11   5  13  120.49   14.70
  11   6  13   14.20   13.80
 -11  -6  13   -1.50    7.70
 -11   6 -13   -5.20    5.30
 -11  -6 -13    8.40    5.20
 -11   6  13   22.40   10.00
  11  -6  13   19.40   19.90
 -11   6  13    1.80    6.30
  12   0  13  -19.70   12.00
 -12   0  13    6.00    3.90
  12   0  13   18.90    7.40
 -12   0 -13    0.00    1.60
 -12  -1  13   26.80    5.20
  12   1  13   19.20    9.30
 -12   1 -13   35.40    3.40
  12   1  13   42.70   15.80
  12  -1  13   31.90    8.10
 -12  -1 -13   34.90    2.70
 -12   1  13   40.90   10.70
  12  -1  13   10.70   13.00
 -12   1  13   36.30    5.40
  12   2  13   29.40   14.60
 -12  -2  13   11.10    4.60
  12   2  13    7.60    8.90
 -12   2 -13   18.70    2.70
  12  -2  13   17.80    6.00
  12  -2  13   20.40   15.00
 -12   2  13   18.20    8.90
 -12  -2 -13   10.90    1.70
 -12   2  13    6.90    4.10
 -12  -3  13   55.09    7.40
 -12   3 -13   70.79    6.40
  12   3  13   82.89   17.20
  12   3  13   68.49   13.60
 -12   3  13   62.39   10.70
  12  -3  13   48.80   16.80
 -12   3  13   35.30    5.70
 -12  -3 -13   57.39    3.70
  12  -3  13   84.49    8.70
  12   4  13   43.50   15.50
 -12  -4  13   38.20    7.40
 -12   4 -13   30.70    5.20
  12   4  13   26.00   12.80
  12  -4  13   31.40   17.00
 -12   4  13   27.70    5.60
 -12   4  13   30.00   10.30
 -12  -4 -13   30.60    3.30
  12   5  13  -15.90   14.40
 -12  -5  13    0.20    6.30
  12   5  13   15.10   11.80
 -12   5 -13    3.70    4.50
 -12   5  13   -8.30   10.00
  12  -5  13   17.10   19.60
 -12   5  13    3.90    5.30
 -12  -5 -13    3.60    3.50
  12   6  13   82.99   17.60
 -12  -6  13   71.29   11.90
 -12   6 -13   94.39   10.30
 -12   6  13  102.69   16.10
  12  -6  13   60.49   24.10
 -12   6  13   66.09    8.90
  13   0  13   -9.40    7.50
 -13   0  13    3.80    3.60
  13   0  13    3.30   15.10
 -13   0 -13   -0.80    1.90
  13   1  13   37.70   10.70
  13   1  13   22.40   14.30
 -13   1 -13   30.90    3.20
 -13  -1  13   23.60    4.80
 -13   1  13   25.10    4.80
 -13  -1 -13   31.00    2.90
  13  -1  13   19.90   15.90
 -13   1  13   37.40   10.90
  13  -1  13   26.70    8.70
  13   2  13   89.79   17.90
 -13  -2  13   98.39    8.90
 -13   2 -13   85.29    5.70
  13   2  13  131.89   17.30
 -13  -2 -13   86.19    4.20
 -13   2  13   81.59    8.30
  13  -2  13   82.79   11.00
  13  -2  13  118.69   21.60
 -13   2  13   91.89   13.80
  13   3  13   23.50   11.10
  13   3  13   35.80   16.00
 -13   3 -13   13.90    3.60
 -13  -3  13   13.70    5.60
 -13   3  13   11.10    4.80
  13  -3  13   25.30   18.10
 -13   3  13   14.10    9.40
  13  -3  13   22.70    6.00
 -13  -3 -13   10.60    2.20
  13   4  13  124.49   20.40
 -13  -4  13   76.99    9.70
 -13   4 -13   85.69    7.80
  13   4  13  110.39   17.60
  13  -4  13   91.09   22.40
 -13  -4 -13   92.59    5.60
 -13   4  13   82.89   13.10
 -13   4  13  103.99    9.80
  13   5  13  120.79   19.10
  13   5  13   95.29   17.30
 -13  -5  13   96.69   11.40
 -13   5 -13  115.89   10.00
 -13   5  13   96.29   11.00
 -13   5  13   99.29   13.90
  13  -5  13   87.09   21.90
  13   6  13   62.69   17.50
 -13   6 -13   71.89    8.90
 -13  -6  13   55.89   11.90
 -13   6  13   80.29    9.60
  13  -6  13   58.39   25.10
  14   0  13   -4.60    8.80
 -14   0  13   -5.30    3.80
  14   0  13   -6.70   14.70
 -14   0 -13    1.30    2.00
  14   1  13   13.60   15.00
  14   1  13   10.70    9.80
 -14  -1  13   10.20    4.30
 -14   1 -13    4.50    2.40
 -14   1  13   13.90   11.30
  14  -1  13    1.10    8.40
  14  -1  13   15.70   15.90
 -14  -1 -13    8.40    2.20
 -14   1  13    4.70    4.30
 -14  -2  13    7.20    4.90
 -14   2 -13    1.80    3.00
  14   2  13   12.20    9.60
  14   2  13   -6.50   14.60
 -14  -2 -13    1.90    1.90
  14  -2  13   13.60    6.90
 -14   2  13   11.10    9.90
  14  -2  13   -5.30   14.80
 -14   2  13    0.20    4.20
 -14  -3  13   62.29    8.50
 -14   3 -13   66.19    6.50
  14   3  13   51.59   18.70
  14   3  13   47.80   13.30
 -14  -3 -13   52.89    4.10
 -14   3  13   75.49   12.20
  14  -3  13   14.70   19.70
 -14   3  13   61.29    7.70
 -14   4 -13   16.80    5.10
  14   4  13  -22.30   16.00
  14   4  13   25.00   14.00
 -14  -4  13   10.30    6.30
 -14   4  13    9.20    5.70
  14  -4  13    7.70   18.20
 -14   4  13  -15.90    9.90
  14   5  13   -6.50   16.10
  14   5  13   26.60   16.10
 -14   5 -13   25.30    6.10
 -14  -5  13   12.60    7.60
 -14   5  13   -4.70    6.10
  14  -5  13   11.90   22.50
 -14   5  13  -22.20   10.80
 -15   0  13   -1.60    3.90
  15   0  13    5.10    9.40
 -15   0 -13    4.70    2.30
  15   0  13   16.40   17.00
  15   1  13   -2.20    9.50
 -15  -1  13   -5.30    4.40
  15   1  13   -6.40   16.40
 -15   1 -13   -2.00    2.60
  15  -1  13   10.10    8.50
  15  -1  13   -8.90   15.10
 -15  -1 -13    0.10    2.10
 -15   1  13    1.10   11.40
 -15   1  13    0.20    4.10
  15   2  13   93.69   19.40
 -15   2 -13   93.49    6.90
 -15  -2  13   83.69    9.90
  15   2  13   89.99   14.80
 -15   2  13   81.39    8.50
 -15  -2 -13   79.19    4.70
  15  -2  13  101.69   12.40
 -15   2  13   97.79   14.20
  15  -2  13   86.29   22.40
 -15   3 -13   93.69    7.80
 -15  -3  13   88.29   10.20
  15   3  13   85.99   15.50
  15   3  13   57.19   19.10
 -15   3  13   84.29    9.30
 -15   3  13   56.49   12.50
  15  -3  13   58.69   21.70
  15   4  13  130.39   21.50
  15   4  13  150.48   20.20
 -15  -4  13  132.89   13.90
 -15   4 -13  125.89   10.10
  15  -4  13   93.79   23.30
 -15   4  13  126.19   15.40
 -15   4  13  127.49   10.90
  15   5  13   22.40   15.30
  15   5  13  -12.60   17.30
 -15   5 -13   19.20    6.40
 -15  -5  13   16.70    9.10
 -15   5  13   20.80    8.00
  15  -5  13   31.00   24.40
 -16   0  13    0.10    5.20
  16   0  13    9.00   17.70
 -16   0 -13    3.60    2.80
  16   0  13    3.00   10.30
  16   1  13   16.70   10.90
 -16  -1  13   10.70    5.30
  16   1  13  -12.80   17.30
 -16   1 -13    6.30    3.40
  16  -1  13  -16.80   19.20
 -16  -1 -13    3.50    2.50
 -16   1  13    4.10    4.60
  16  -1  13    3.70    8.50
 -16   1  13   31.10   13.00
  16   2  13   38.30   18.40
 -16  -2  13    5.20    6.10
 -16   2 -13   11.50    3.80
  16   2  13   -3.70   10.30
  16  -2  13   25.70   20.10
 -16   2  13    4.90   11.80
 -16   2  13    6.40    5.00
 -16   3 -13    2.20    4.00
  16   3  13    5.00   14.30
  16   3  13   13.30   17.70
 -16  -3  13    5.10    6.60
 -16   3  13    7.50    5.50
 -16   3  13    5.90   10.80
  16  -3  13   10.80   20.80
  16   4  13  -21.60   16.60
 -16   4 -13    4.70    4.90
  16   4  13   12.50   14.60
 -16  -4  13    0.20    7.10
  16  -4  13   11.20   22.40
 -16   4  13   -1.40    6.20
 -16   4  13   -6.60   16.10
  17   0  13   -5.70   16.90
 -17   0 -13    1.10    3.10
 -17   0  13    3.30    4.90
  17   0  13    0.60   10.30
 -17  -1  13    1.10    5.30
 -17   1 -13   -4.50    3.60
  17   1  13  -18.50   17.70
  17   1  13   11.10   11.40
  17  -1  13  -14.70   17.00
  17  -1  13   14.00    9.00
 -17   1  13   -3.80   12.80
 -17   1  13    4.60    4.90
  17   2  13   10.50   18.40
 -17  -2  13   10.00    6.10
  17   2  13   20.40   13.10
 -17   2 -13   20.10    4.50
 -17   2  13   20.40   12.70
  17  -2  13   17.90   21.20
 -17   2  13    9.70    6.00
 -17   3 -13   64.69    7.10
 -17  -3  13   91.39   10.60
  17   3  13  111.79   17.70
  17   3  13   51.59   20.50
  17  -3  13   67.19   24.10
 -17   3  13   62.99    9.00
 -17   3  13   61.39   13.50
  17   4  13   35.80   16.50
  17   4  13   28.70   20.20
 -17   4 -13   18.40    5.70
 -17  -4  13   18.30    9.20
  17  -4  13   19.10   22.90
 -17   4  13   24.00    7.50
  18   0  13  -25.80   19.90
  18   0  13    8.20   11.50
 -18   0  13   -2.50    5.50
 -18   1 -13    8.50    4.10
  18   1  13   26.00   12.60
  18   1  13  -24.70   18.20
 -18  -1  13    7.00    6.60
  18  -1  13   -5.60   19.50
 -18   1  13   11.90    6.00
 -18   1  13   36.30   14.70
 -18  -2  13    1.20    6.40
  18   2  13   -3.40   13.00
  18   2  13   -2.10   20.10
 -18   2 -13   13.40    4.50
 -18   2  13    5.30   13.10
  18  -2  13  -30.10   19.20
 -18   2  13    3.70    6.20
 -18  -3  13   14.30    7.80
  18   3  13  -25.10   19.80
 -18   3 -13   12.70    5.00
  18   3  13   -3.00   14.10
 -18   3  13   18.40    7.80
  18  -3  13   11.40   23.60
  19   0  13   -7.70   11.40
  19   0  13  -38.60   21.20
 -19   0  13    0.10    6.40
  19   1  13   33.10   22.70
  19   1  13  -11.80   11.80
 -19  -1  13    7.80    7.40
 -19   1  13    2.90    6.10
  19  -1  13  -19.10   20.80
 -19   1  13    7.70   14.60
 -19  -2  13  -21.20    7.50
  19   2  13   29.10   23.10
  19   2  13   -0.40   14.30
 -19   2 -13    7.50    4.90
  19  -2  13   -5.70   21.70
 -19   2  13   10.10   14.60
 -19   2  13   -9.70    6.90
   0   0  14 2890.51   80.09
   0   0  14 2904.11   80.29
   0   0  14 2916.01   89.09
   0   1  14    2.50    5.70
   0  -1  14   -1.20    1.80
   0   1  14   -0.40    1.00
   0  -1  14   -3.10    5.60
   0  -1  14   -0.60    1.40
   0  -1 -14    1.50    1.70
   0  -2  14  912.01   36.40
   0  -2  14  931.91   29.30
   0  -2 -14  922.81   27.10
   0   2  14  955.50   36.70
   0   2  14  950.40   27.00
   0   3  14   -0.90    8.40
   0  -3  14    2.50    3.20
   0   3  14   -1.50    1.50
   0   4  14  585.84   18.50
   0   4 -14  590.64   19.30
   0   4  14  532.95   28.40
   0   5 -14    3.40    3.00
   0   5  14    0.60    3.00
   0   5  14   -0.90    7.80
   0   6 -14   69.89    7.10
   0  -6  14   93.39   16.40
   0   6  14   54.19   12.60
   0   6  14   70.39    7.20
   0   7 -14    3.20    4.80
   0   7  14   11.30   11.70
   0   7  14    2.60    4.40
   0  -7  14   16.00   15.80
   0   8  14   11.10   15.50
   0   8  14   17.60    6.30
   0   8 -14   21.10    6.60
  -1   0  14  102.99   11.10
   1   0  14  102.89   10.60
   1   0  14  109.49    4.10
   1   0  14  102.89    4.10
  -1   0  14  110.29    4.70
  -1  -1  14  368.66   20.50
   1   1  14  353.36   10.80
   1  -1 -14  352.36   12.20
   1   1  14  366.56   18.90
  -1  -1  14  366.66   12.40
  -1  -1 -14  361.36   11.40
   1  -1  14  375.36   19.10
   1  -1  14  360.16   12.00
  -1   1  14  362.56   11.50
   1  -1  14  354.56   11.60
  -1   1  14  370.66   19.50
   1  -2 -14    1.20    2.00
  -1  -2  14    2.10    2.20
   1   2  14   -0.30    1.10
   1   2  14   -0.30    6.30
  -1   2  14    2.60    1.40
  -1  -2 -14   -0.20    1.40
   1  -2  14    0.10    2.10
  -1   2  14   -6.90    5.00
   1  -2  14   -0.80    6.20
   1   3  14  102.09   13.40
   1   3  14  111.39    5.00
  -1  -3  14  112.39    8.10
  -1   3  14  111.79   15.20
  -1  -3 -14  101.99    5.20
  -1   3  14  110.49    5.30
   1   4  14   18.90    2.60
   1   4  14   29.40   10.10
  -1  -4  14   14.30    5.30
  -1   4 -14   13.90    3.10
  -1   4  14   21.60   10.50
  -1   4  14   18.90    3.10
   1   5  14    5.90    9.30
   1   5  14    5.70    2.70
  -1   5 -14    7.50    3.40
   1  -5  14    1.60   11.40
  -1   5  14   -2.80    9.20
  -1   5  14    3.60    3.00
   1   5 -14    5.40    3.10
   1   6  14    9.20    3.80
  -1   6 -14    3.40    3.40
   1   6  14   10.40   10.00
  -1  -6  14   -0.60   12.20
   1   6 -14    3.60    3.80
  -1   6  14    6.70    4.00
   1  -6  14   -1.60   14.30
  -1   6  14    6.50   10.20
  -1  -7  14   -5.00   14.10
   1   7  14   10.30   11.70
   1   7  14   11.80    5.00
  -1   7 -14   23.10    6.20
  -1   7  14   24.10   12.60
   1  -7  14   13.60   15.90
  -1   7  14   10.90    5.00
   1   7 -14    7.70    5.10
   1   8  14   -1.50    5.80
   1   8  14   -9.30   13.60
  -1   8 -14   10.60    5.90
   1   8 -14    6.20    5.80
  -1   8  14   20.10   14.70
  -1   8  14    3.10    6.60
  -2   0  14  273.87   17.20
   2   0  14  288.07    8.60
   2   0  14  297.97    8.60
  -2   0  14  283.27    9.80
   2   0  14  278.07   16.50
  -2  -1  14 2435.86   69.39
   2   1  14 2402.66   76.49
  -2  -1  14 2577.24   79.19
  -2   1  14 2439.16   68.49
   2  -1  14 2385.56   68.49
  -2   1  14 2452.65   77.09
   2  -1  14 2502.45   68.09
   2  -1  14 2434.56   76.29
   2   2  14   46.80    2.40
   2   2  14   44.80    9.70
  -2  -2  14   50.09    4.90
  -2  -2 -14   45.80    2.60
  -2   2  14   54.99    3.50
   2  -2  14   45.40    4.70
  -2   2  14   37.80    8.10
   2  -2  14   53.59    9.10
   2   3  14 1339.87   38.10
  -2   3 -14 1361.06   39.30
   2   3  14 1337.67   49.30
  -2  -3  14 1362.46   42.60
  -2  -3 -14 1386.26   38.10
  -2   3  14 1367.96   39.30
   2  -3  14 1295.57   47.50
  -2   3  14 1309.47   49.00
   2   4  14   59.29   11.50
  -2   4 -14   63.79    5.40
  -2  -4  14   69.19    8.10
   2   4  14   67.49    4.20
  -2   4  14   60.99    5.20
  -2   4  14   69.79   12.70
  -2  -5  14  223.78   15.70
   2   5  14  234.98   20.20
  -2   5 -14  259.37   11.20
   2   5  14  237.78    9.80
   2  -5  14  259.27   25.70
  -2   5  14  225.28   19.10
  -2   5  14  249.58   10.80
   2   6  14    8.90    3.80
   2   6  14   27.50   10.90
  -2   6 -14   13.80    4.50
  -2   6  14    7.90   10.20
   2  -6  14   -1.40   14.30
  -2   6  14   15.70    4.60
   2   7  14   82.79   17.10
   2   7  14   79.79    8.30
  -2  -7  14   85.09   16.40
  -2   7 -14   82.29    9.30
  -2   7  14   83.19    9.00
  -2   7  14   89.39   16.00
   2  -7  14   79.59   19.00
  -2   8 -14    3.80    5.90
   2   8  14    5.80   14.30
   2   8  14    1.70    5.20
  -2   8  14    5.40    6.50
  -2   8  14   15.80   14.20
  -3   0  14   16.70    6.80
   3   0  14   19.90    6.20
  -3   0  14   19.80    2.30
  -3  -1  14   -5.10    5.70
  -3  -1  14    5.00    1.90
   3   1  14    4.80    7.20
  -3   1  14    1.40    1.30
   3  -1  14    2.30    1.40
   3  -1  14    5.50    1.30
   3  -1  14   -2.70    4.80
  -3   1  14    5.50    5.60
   3   2  14  112.39   14.40
  -3  -2  14   89.89    6.30
  -3   2 -14  100.79    4.50
  -3   2  14   99.09    5.00
   3  -2  14   93.19   10.50
  -3   2  14   83.59   10.80
   3   3  14   79.89   12.60
  -3  -3  14   85.69    7.80
   3   3  14   86.39    3.80
  -3   3 -14   93.19    4.90
  -3   3  14   97.19   13.00
  -3  -3 -14   88.49    3.90
  -3   3  14   89.69    5.40
   3  -3  14   88.59   12.10
  -3  -4  14   38.80    6.40
  -3   4 -14   44.60    4.70
   3   4  14   43.90   11.60
   3   4  14   37.90    3.30
  -3   4  14   47.20    5.20
   3  -4  14   43.10    9.90
  -3   4  14   39.90   11.70
  -3   5 -14   67.99    6.30
   3   5  14   73.89   13.20
   3   5  14   64.59    4.80
  -3  -5  14   41.60    8.40
  -3   5  14   58.49   11.90
  -3   5  14   62.99    6.50
   3  -5  14   62.59   14.80
   3   6  14    8.50    3.60
   3   6  14    3.90   10.70
  -3   6 -14    9.10    4.40
  -3  -6  14   10.50    7.90
  -3   6  14   13.90   10.40
   3  -6  14   24.20   15.10
  -3   6  14   12.00    4.50
  -3  -7  14   33.80   10.80
  -3  -7  14   46.70   15.70
   3   7  14   41.80    6.00
  -3   7 -14   65.09    7.80
   3   7  14   66.19   15.40
  -3   7  14   56.59    7.50
  -3   7  14   62.69   13.80
   3  -7  14   40.10   18.10
   3   8  14    0.80   14.60
  -3   8 -14   32.20    7.10
  -3  -8  14   19.70   13.60
   3   8  14   25.60    6.40
  -3   8  14   38.70   15.30
   3  -8  14   20.70   26.60
  -3   8  14   23.00    7.30
  -4   0  14  315.07   11.60
  -4   0  14  367.06   19.80
   4   0  14  331.67   18.10
   4   1  14  702.93   29.60
  -4  -1  14  666.63   21.70
  -4   1  14  679.03   21.00
   4  -1  14  667.43   20.20
   4  -1  14  660.83   27.00
  -4   1  14  706.03   29.20
   4  -1  14  676.63   19.60
  -4  -2  14  133.79    7.60
   4   2  14  125.59   14.10
  -4   2 -14  143.89    5.50
  -4   2  14  127.09    6.20
  -4   2  14  137.29   12.80
   4  -2  14  134.89   11.40
  -4  -3  14  570.04   21.30
   4   3  14  559.74   16.40
   4   3  14  571.94   28.50
  -4   3 -14  552.64   17.90
  -4   3  14  559.34   26.70
   4  -3  14  586.34   25.30
  -4   3  14  572.24   18.70
  -4  -3 -14  576.34   16.50
   4   4  14   71.29   11.80
  -4  -4  14   75.39    9.10
  -4   4 -14   77.29    5.70
   4   4  14   79.99    4.20
  -4   4  14   69.79    6.10
   4  -4  14   94.39   11.90
  -4   4  14   89.49   13.70
   4  -4  14   89.59   15.60
  -4   5 -14  108.29    7.60
  -4  -5  14   90.39   10.80
   4   5  14  110.59    5.80
   4   5  14   89.39   14.10
  -4   5  14  101.79   14.00
  -4   5  14  103.49    8.10
   4  -5  14  111.19   18.10
   4  -5  14   84.09   12.90
  -4  -6  14    9.40    8.40
   4   6  14    4.10   10.90
   4   6  14    7.20    3.30
  -4   6 -14    3.90    3.70
  -4   6  14    3.50    4.50
   4  -6  14  -13.90   14.80
  -4   6  14    3.60    9.50
   4   7  14   53.69   14.30
   4   7  14   40.10    5.50
  -4   7 -14   33.30    6.40
  -4  -7  14   34.30    9.70
  -4   7  14   41.60    6.90
   4  -7  14   18.20   17.90
  -4   7  14   32.40   12.30
  -5   0  14  155.48   14.40
   5   0  14  120.89   12.50
  -5   0  14  143.49    6.80
   5   1  14  108.39   14.10
  -5  -1  14  138.89    6.90
   5  -1  14  117.79    5.30
   5  -1  14  140.79   11.30
   5  -1  14  128.39    4.60
  -5   1  14  131.29    6.30
   5   2  14    4.00    8.50
  -5  -2  14    1.90    2.90
  -5   2 -14    7.30    1.50
  -5   2  14   15.60    7.00
  -5   2  14    7.70    2.40
   5  -2  14    2.80    5.40
   5  -2  14    2.00    2.00
  -5  -3  14   -5.20    3.50
   5   3  14   13.40    9.10
  -5   3 -14   -1.00    1.60
  -5   3  14    1.40    2.60
  -5   3  14    0.60    7.10
  -5  -3 -14    2.70    1.60
   5  -3  14   -2.20    5.30
  -5  -3 -14   -2.00    1.10
   5  -3  14    1.90   10.70
   5   4  14   12.80    1.80
  -5  -4  14    6.70    5.50
  -5   4 -14   10.40    2.90
   5   4  14    1.80    8.90
  -5   4  14   13.30    3.30
   5  -4  14    4.20    6.60
  -5  -4 -14    8.20    2.70
  -5   4  14    5.50    9.00
   5  -4  14    7.00   12.00
  -5   5 -14   32.40    4.50
  -5  -5  14   38.70    8.50
   5   5  14   29.00   11.20
   5   5  14   33.10    3.60
  -5   5  14   25.30    4.70
   5  -5  14   26.10    9.60
   5  -5  14   19.10   13.90
  -5   5  14   33.60   10.90
   5   6  14   -4.10    3.10
  -5   6 -14    1.90    3.80
  -5  -6  14    1.20    7.50
   5   6  14    0.50    9.70
   5  -6  14   -2.20    9.50
  -5   6  14   24.20   10.20
  -5   6  14    3.20    4.50
   5  -6  14   -8.30   14.20
  -5  -7  14    2.70    9.70
   5   7  14   -4.00    3.80
  -5   7 -14    1.60    5.40
   5   7  14   10.70   13.50
  -5   7  14   10.50    5.70
   5  -7  14    3.80   12.90
  -5   7  14   22.90   12.10
   5  -7  14   13.90   17.50
   6   0  14  722.73   30.30
  -6   0  14  677.23   30.70
  -6   0  14  735.33   22.80
  -6   1 -14    2.20    1.00
  -6  -1  14    0.10    2.40
   6   1  14    7.70    7.90
   6  -1  14    2.90    1.20
  -6   1  14    6.70    6.80
  -6   1  14    4.50    2.10
   6  -1  14    6.90    5.40
  -6  -2  14  363.96   14.30
   6   2  14  326.57   21.60
  -6   2 -14  336.27   11.20
   6  -2  14  342.97   17.10
  -6   2  14  349.17   19.40
  -6   2  14  348.07   12.80
   6   3  14   -6.10    7.20
  -6   3 -14   -0.40    1.70
  -6  -3  14    0.50    4.00
   6  -3  14   -5.00    5.30
  -6  -3 -14   -0.30    1.00
  -6  -3 -14    0.90    1.20
  -6   3  14    0.80    2.70
   6  -3  14   -1.80   11.40
  -6   3  14   -0.50    6.60
   6   4  14  366.36   22.90
  -6   4 -14  387.06   13.80
  -6  -4  14  368.76   17.90
  -6   4  14  389.16   23.20
   6  -4  14  365.46   29.70
   6  -4  14  352.66   18.50
  -6   4  14  362.46   14.70
  -6  -4 -14  373.26   13.30
  -6   5 -14    1.80    3.50
   6   5  14    7.10   10.20
  -6  -5  14   -3.40    6.20
  -6   5  14    5.20    4.10
   6  -5  14   16.10   14.60
  -6   5  14   -7.00    9.30
   6  -5  14    1.50    7.60
  -6   6 -14   82.59    8.30
   6   6  14   96.89   16.30
  -6  -6  14   82.89   11.90
   6   6  14   80.39    6.60
   6  -6  14  108.99   21.00
  -6   6  14   89.29    9.20
  -6   6  14  100.49   13.90
   6  -6  14  140.99   18.20
  -6   7 -14    9.30    5.50
   6   7  14    4.90    4.20
   6   7  14    6.10   13.40
  -6  -7  14    5.40   10.00
   6  -7  14    1.80   18.30
  -6   7  14    7.20   11.30
  -6   7  14    5.10    6.40
  -7   0  14   57.69    5.20
  -7   0  14   29.00    9.70
   7   0  14   48.50    9.90
   7   1  14   21.40    8.50
  -7   1 -14   18.60    1.60
  -7  -1  14   12.50    3.30
  -7   1  14   18.50    7.50
   7  -1  14   20.00    1.80
  -7   1  14   16.70    3.30
   7  -1  14   17.70    7.40
  -7  -2  14    2.30    3.10
  -7   2 -14    1.70    1.50
   7   2  14   -8.00    8.00
   7  -2  14    9.30   12.40
   7  -2  14    5.20    5.60
  -7   2  14    1.00    6.70
  -7   2  14    3.20    2.70
  -7  -3  14   13.20    4.60
  -7   3 -14   23.50    2.90
   7   3  14   18.40    9.60
  -7  -3 -14   16.00    1.60
   7  -3  14   29.20    6.70
   7  -3  14   19.90   12.60
  -7   3  14   15.80    3.90
  -7  -3 -14   18.70    1.60
  -7   3  14    8.70    7.80
   7   4  14   16.30    9.90
  -7  -4  14   -3.40    5.10
  -7   4 -14    0.30    2.70
   7  -4  14    3.30   13.00
  -7   4  14   20.40   10.00
  -7   4  14    5.90    3.70
   7  -4  14    4.80    6.10
  -7  -4 -14    9.10    2.50
  -7   5 -14   45.40    5.30
  -7  -5  14   35.50    7.80
   7   5  14   33.30   12.60
  -7   5  14   42.20   11.80
   7  -5  14   38.10    8.20
  -7  -5 -14   43.50    5.10
  -7   5  14   36.00    5.80
   7  -5  14   19.70   15.50
   7   6  14   57.59   12.50
   7   6  14   55.09   14.10
  -7   6 -14   64.49    7.60
  -7  -6  14   82.79   12.70
  -7   6  14   77.39   12.50
   7  -6  14   61.79   18.60
   7  -6  14   65.29   10.60
  -7   6  14   74.89    8.40
  -7   7 -14   -4.40    5.50
   7   7  14   15.60   14.40
  -7  -7  14    2.90   10.50
  -7   7  14   23.10   11.60
   7  -7  14    5.60   19.70
  -7   7  14   -3.20    5.90
   8   0  14   22.80   11.40
  -8   0  14   15.00    3.10
   8   0  14   14.00    8.10
  -8  -1  14  153.78    8.50
  -8   1 -14  156.88    5.50
   8   1  14  161.38   15.20
   8  -1  14  129.79   18.10
  -8   1  14  149.09    8.00
  -8   1  14  168.78   15.80
   8  -1  14  183.48   14.20
   8  -1  14  160.08    5.70
  -8   2 -14    3.60    1.70
   8   2  14    2.80    7.30
  -8  -2  14    7.70    3.60
   8  -2  14  -12.00   10.90
   8  -2  14    1.70    6.40
  -8   2  14    4.10    2.80
  -8   2  14   -1.70    6.70
   8   3  14  111.39   15.10
  -8  -3  14  108.69    9.40
  -8   3 -14  130.79    6.40
  -8   3  14  113.89   13.70
   8  -3  14  133.79   11.70
  -8   3  14  122.89    8.00
   8  -3  14  126.29   20.70
   8   4  14    9.80   10.80
  -8  -4  14   10.40    5.60
   8   4  14    3.40    8.80
  -8   4 -14    0.50    2.90
   8  -4  14   -0.90    5.50
  -8   4  14   -1.50    9.30
  -8   4  14    7.40    3.80
  -8  -4 -14    0.10    2.20
   8  -4  14   -7.80   13.20
   8   5  14   61.89   14.30
   8   5  14   70.39   14.10
  -8   5 -14   58.69    6.90
  -8  -5  14   50.19    9.10
  -8  -5 -14   53.09    6.10
   8  -5  14   52.19    8.30
  -8   5  14   49.99   12.80
   8  -5  14   24.50   16.00
  -8   5  14   54.19    6.60
   8   6  14   -5.40   12.10
   8   6  14   12.60   11.70
  -8   6 -14   12.70    4.80
  -8  -6  14   -3.00    8.10
  -8   6  14   20.00   10.20
  -8   6  14   -2.20    5.40
   8  -6  14   -2.20   17.10
  -8  -6 -14   -4.10    5.70
  -8  -7  14   39.60   12.70
   8   7  14   46.00   16.50
  -8   7 -14   55.09    7.90
  -8   7  14   47.90    8.60
   8  -7  14   35.60   21.60
  -8   7  14   42.50   12.20
  -8  -7 -14   37.80    8.80
  -9   0  14  575.94   20.00
   9   0  14  559.64   32.30
   9   1  14   29.70   12.60
  -9   1 -14   48.50    2.90
   9   1  14   47.40   10.10
  -9  -1  14   40.90    5.00
   9  -1  14   56.19    9.60
  -9   1  14   56.79   11.50
   9  -1  14   45.80    3.40
   9  -1  14   46.00   15.20
  -9   1  14   54.99    5.70
  -9   2 -14  234.18    8.30
  -9  -2  14  208.18   11.50
   9   2  14  221.48   23.20
   9   2  14  239.98   18.70
  -9   2  14  226.98   10.60
  -9   2  14  191.68   16.60
   9  -2  14  208.48   25.80
   9  -2  14  218.18   14.90
   9   3  14   12.70    9.90
   9   3  14   -0.80   10.50
  -9   3 -14   19.70    3.20
  -9  -3  14   18.60    5.20
   9  -3  14   29.60   14.60
  -9   3  14   32.60    9.00
  -9  -3 -14   19.00    1.90
   9  -3  14    4.20    6.40
  -9   3  14   19.70    4.20
  -9  -3 -14   17.00    1.40
   9   4  14  140.19   16.70
   9   4  14  151.28   18.50
  -9   4 -14  125.19    7.50
  -9  -4  14  123.79   10.50
  -9   4  14  104.89    8.70
   9  -4  14   87.19   10.90
  -9  -4 -14  119.49    5.60
   9  -4  14  151.08   23.00
  -9   4  14  125.19   15.80
  -9  -5  14   -3.10    6.00
   9   5  14  -10.90    9.50
   9   5  14   15.10   11.90
  -9   5 -14   -1.50    4.00
  -9   5  14  -12.20    9.80
  -9   5  14    6.50    4.70
   9  -5  14   33.30   17.50
  -9  -5 -14   -4.50    3.30
   9  -5  14   -6.80    6.00
  -9  -6  14    6.60    7.90
   9   6  14  -11.70   14.80
   9   6  14   15.70   13.30
  -9   6 -14   22.50    5.60
  -9  -6 -14   14.40    5.80
  -9   6  14    9.20    6.10
   9  -6  14   11.60   19.50
  -9   6  14   28.10   11.00
  -9   7 -14   37.40    7.10
  -9  -7  14   20.40   12.30
   9   7  14   32.90   17.00
  -9   7  14   56.09   12.90
  -9  -7 -14   18.00   10.20
   9  -7  14   56.09   23.90
  -9   7  14   35.70    8.00
 -10   0 -14  776.22   21.00
  10   0  14  676.23   39.30
 -10   0  14  745.13   25.30
  10   0  14  783.12   30.90
 -10   1 -14 1357.96   37.10
  10   1  14 1251.37   53.89
 -10  -1  14 1331.97   40.80
  10   1  14 1325.37   47.20
  10  -1  14 1357.96   37.30
  10  -1  14 1208.38   55.39
  10  -1  14 1312.07   45.30
 -10   1  14 1289.77   48.90
 -10   1  14 1282.77   40.20
 -10   2 -14  451.85   14.20
 -10  -2  14  406.66   17.30
  10   2  14  422.66   24.70
  10   2  14  479.45   30.40
  10  -2  14  414.36   32.80
 -10   2  14  426.86   16.60
  10  -2  14  439.66   20.60
 -10   2  14  439.46   24.10
 -10  -3  14  700.73   25.70
 -10   3 -14  702.83   22.00
  10   3  14  694.03   36.50
  10   3  14  703.93   32.30
 -10   3  14  704.23   30.50
 -10  -3 -14  691.13   19.50
 -10   3  14  656.73   23.70
  10  -3  14  689.33   26.50
  10  -3  14  646.44   40.50
  10   4  14  282.07   22.70
 -10  -4  14  303.07   16.10
 -10   4 -14  264.37   11.70
  10   4  14  278.57   25.90
 -10   4  14  254.67   13.00
 -10  -4 -14  292.47    9.60
 -10   4  14  245.18   20.40
  10  -4  14  250.57   14.80
  10  -4  14  286.17   31.10
  10   5  14  172.18   21.80
  10   5  14  156.38   18.40
 -10  -5  14  155.38   13.70
 -10   5 -14  150.58    9.90
 -10  -5 -14  145.49    7.90
 -10   5  14  137.39   10.80
 -10   5  14  142.29   16.10
  10  -5  14  116.49   23.60
 -10  -6  14   49.80   10.30
  10   6  14   22.10   12.80
 -10   6 -14   27.00    6.30
  10  -6  14   37.50   23.20
 -10  -6 -14   24.00    6.00
 -10   6  14   51.99   12.00
 -10   6  14   31.40    6.80
 -11   0 -14   -0.60    1.20
  11   0  14    3.40   12.70
  11   0  14    0.80    2.30
 -11   0  14    0.90    3.60
  11   0  14    6.10    7.10
 -11  -1  14   32.90    5.10
 -11   1 -14   38.70    3.20
  11   1  14   47.60   10.90
  11   1  14   25.00   13.70
 -11   1  14   32.50    5.00
 -11   1  14   41.70   10.90
  11  -1  14   57.89    9.90
  11  -1  14   43.40   16.50
 -11  -2  14   12.50    4.30
  11   2  14   11.80    8.60
  11   2  14   15.50   13.00
  11  -2  14   51.79   16.90
 -11   2  14    1.40    3.70
 -11   2  14   10.80    8.80
  11   3  14   -2.50   13.30
 -11   3 -14    2.40    2.90
  11   3  14    0.00    9.60
 -11  -3  14   -4.40    4.20
  11  -3  14   -3.60    5.50
 -11  -3 -14    0.80    1.30
 -11   3  14   15.90    9.10
  11  -3  14    4.40   15.90
 -11   3  14    0.90    3.80
 -11  -4  14   15.10    6.60
 -11   4 -14   15.80    4.20
  11   4  14   14.60   12.00
  11   4  14   -3.90   14.60
 -11  -4 -14   13.00    2.50
 -11   4  14   14.60    5.00
 -11   4  14    4.30   10.20
  11  -4  14   33.70   15.70
  11  -4  14   17.30    6.10
  11   5  14   13.10   12.70
  11   5  14   -8.30   14.00
 -11  -5  14   20.00    7.40
 -11   5 -14    9.70    4.80
 -11  -5 -14    7.30    3.60
  11  -5  14  -14.30   18.20
 -11   5  14   15.70    5.70
 -11   5  14   -0.40   10.90
 -11  -6  14   -6.60    8.80
 -11   6 -14    2.70    5.40
  11   6  14  -12.70   13.50
  11  -6  14    8.40   20.50
 -11   6  14    3.90   10.30
 -11   6  14    2.20    6.10
 -12   0  14 2058.49   61.09
  12   0  14 1980.00   77.79
  12   0  14 2018.50   66.39
 -12   0 -14 2075.69   56.69
  12   1  14   35.50   16.50
  12   1  14   41.70   10.00
 -12  -1  14   28.80    5.00
  12  -1  14   44.60   16.40
  12  -1  14   41.00    8.90
 -12   1  14   32.70   11.50
 -12   1  14   30.20    5.40
 -12  -1 -14   33.70    2.20
  12   2  14 1401.66   51.79
 -12  -2  14 1338.67   44.20
  12   2  14 1351.36   59.39
 -12   2 -14 1447.86   40.70
  12  -2  14 1421.46   46.00
 -12  -2 -14 1394.56   38.50
 -12   2  14 1321.27   50.99
 -12   2  14 1423.36   43.50
  12  -2  14 1400.16   62.19
 -12  -3  14    4.60    5.40
 -12   3 -14   19.70    3.80
  12   3  14   23.20   15.10
 -12   3  14    3.60    4.20
  12  -3  14   32.00   17.30
 -12   3  14   17.90    9.70
  12  -3  14   22.10    5.80
  12   4  14  690.13   38.30
 -12  -4  14  616.84   25.80
 -12   4 -14  625.14   21.70
  12   4  14  634.54   34.00
  12  -4  14  576.14   43.30
 -12   4  14  612.64   30.50
 -12   4  14  596.64   23.30
 -12   5 -14    0.00    4.50
  12   5  14   10.60   16.00
 -12  -5  14   -4.10    6.60
  12   5  14   11.50   12.30
 -12   5  14    7.70    5.60
  12  -5  14  -24.00   17.00
 -12   5  14  -10.20   10.60
  12   6  14  116.59   20.20
 -12   6 -14  106.59    9.90
 -12  -6  14  114.49   14.20
  12  -6  14   91.09   27.00
 -12   6  14   89.59   13.70
 -12   6  14   97.39   11.10
  13   0  14   19.20    8.90
 -13   0  14    4.90    3.80
  13   0  14   43.60   16.40
  13   1  14   45.30   17.00
 -13  -1  14   32.00    5.50
  13   1  14   23.40   10.70
 -13   1  14   35.60   11.70
 -13   1  14   26.60    5.20
  13  -1  14   41.40   17.10
 -13  -1 -14   34.20    2.70
 -13   2 -14   -1.30    2.50
  13   2  14   -9.40   15.10
  13   2  14   19.40   10.20
 -13  -2  14    2.70    4.30
 -13   2  14   -0.40    3.90
 -13   2  14    0.70    9.60
  13  -2  14    9.60    6.90
 -13  -2 -14   -1.00    2.40
  13  -2  14  -10.40   16.00
  13   3  14   31.80   16.50
 -13   3 -14    9.90    3.50
 -13  -3  14    2.50    4.90
  13   3  14   13.20   11.00
  13  -3  14   10.80    5.90
 -13   3  14    9.00   10.10
  13  -3  14   13.40   17.60
 -13   3  14    2.80    4.40
 -13  -4  14   18.40    6.40
 -13   4 -14   16.00    4.80
  13   4  14   38.30   14.30
  13   4  14   21.00   16.50
  13  -4  14    9.30   17.60
 -13   4  14   29.40    6.70
 -13   4  14   14.20   11.00
  13   5  14   -4.40   14.30
  13   5  14    3.40   17.20
 -13   5 -14   17.40    5.30
 -13  -5  14   16.80    7.50
  13  -5  14  -10.10   21.40
 -13   5  14   22.20    6.80
 -13   5  14   -9.40   11.20
 -14   0  14   -0.50    4.20
  14   0  14   13.40   10.00
  14   0  14   21.60   16.00
 -14   1 -14  418.66   13.90
 -14  -1  14  385.46   17.80
  14   1  14  470.35   36.00
  14   1  14  426.86   25.40
  14  -1  14  441.86   22.90
 -14  -1 -14  430.16   13.00
  14  -1  14  412.56   35.90
 -14   1  14  405.26   17.40
 -14   1  14  380.26   26.70
 -14  -2  14   -1.00    4.30
  14   2  14    0.90    9.50
 -14   2 -14   -2.40    2.80
  14   2  14    3.90   15.60
 -14   2  14   -4.40   10.40
  14  -2  14  -15.30   14.80
 -14   2  14    4.90    4.80
  14  -2  14    9.70    7.50
 -14   3 -14  212.38   10.50
 -14  -3  14  200.28   14.10
  14   3  14  216.18   22.10
  14   3  14  163.98   23.80
  14  -3  14  177.78   27.40
 -14   3  14  195.98   12.70
 -14   3  14  246.88   20.30
 -14  -4  14    6.70    6.90
  14   4  14    5.60   13.20
  14   4  14   -7.00   17.90
 -14   4 -14   -6.40    4.30
 -14   4  14  -11.80   10.10
  14  -4  14  -13.20   20.20
 -14   4  14    5.10    5.90
 -14  -5  14   67.79   10.80
  14   5  14   47.30   18.00
 -14   5 -14   94.49   10.00
  14   5  14   80.19   17.50
 -14   5  14   70.39    9.70
  14  -5  14  121.79   27.70
 -14   5  14   49.20   13.60
  15   0  14   59.09   12.00
  15   0  14   18.70   18.60
 -15   0  14   22.70    5.90
 -15   0 -14   34.00    3.20
 -15   1 -14    2.10    2.60
  15   1  14    5.40   10.90
 -15  -1  14    4.20    5.10
  15   1  14    6.40   16.00
  15  -1  14   -7.70    8.30
 -15   1  14   -2.80    4.40
  15  -1  14   -7.70   17.50
 -15   1  14  -18.40   11.10
 -15  -2  14    5.70    5.40
 -15   2 -14    6.90    3.40
  15   2  14    3.10   11.40
  15   2  14    3.90   17.00
 -15   2  14   -1.20    5.60
  15  -2  14   -8.60   17.60
 -15   2  14   -5.50   10.80
  15  -2  14   -3.80    7.70
  15   3  14   14.60   12.90
 -15  -3  14   12.10    6.60
  15   3  14   29.00   17.60
 -15   3 -14   16.80    4.50
 -15   3  14    5.60   10.30
  15  -3  14    3.90   18.80
 -15   3  14   -1.20    5.00
  15   4  14  -13.20   13.00
  15   4  14   42.20   19.00
 -15  -4  14   -4.20    6.30
 -15   4 -14    9.90    4.80
 -15   4  14    0.70    5.60
 -15   4  14  -18.30   11.00
  15  -4  14  -27.80   19.70
 -15   5 -14    7.30    6.20
  15   5  14   -1.20   19.20
  15   5  14   28.40   17.50
 -15  -5  14    6.20    8.90
  15  -5  14    5.80   23.10
 -15   5  14   10.90    7.60
 -16   0  14   55.89    7.70
  16   0  14   54.49   12.90
  16   0  14   56.29   22.30
  16   1  14   76.49   21.30
  16   1  14   70.39   13.50
 -16  -1  14   42.90    7.40
 -16   1 -14   47.10    4.40
 -16   1  14   43.50    7.10
  16  -1  14   45.30   11.10
 -16   1  14   49.99   15.20
  16  -1  14   31.80   20.30
 -16   2 -14   44.90    5.00
  16   2  14   66.19   20.40
 -16  -2  14   43.60    8.20
  16   2  14   38.60   13.00
  16  -2  14   39.70   23.80
 -16   2  14   42.80   14.40
 -16   2  14   50.19    7.90
 -16  -3  14   45.50    8.30
  16   3  14   39.80   15.60
  16   3  14   45.50   19.90
 -16   3 -14   40.20    5.20
 -16   3  14   20.90   12.60
 -16   3  14   39.60    7.40
  16  -3  14   77.39   23.80
 -16  -4  14   33.00    9.10
  16   4  14   35.90   20.20
 -16   4 -14   26.20    6.00
  16   4  14   31.30   16.80
 -16   4  14   39.30    8.20
 -16   4  14   17.60   13.10
  16  -4  14   14.30   22.60
 -17   0  14   -5.40    5.10
  17   0  14    9.20   17.80
  17   0  14    4.20   11.10
 -17  -1  14   12.10    6.00
  17   1  14  -14.80   20.20
  17   1  14   36.40   13.00
 -17   1 -14   17.50    6.20
  17  -1  14   36.30   11.30
  17  -1  14  -22.50   19.10
 -17   1  14   31.60   15.30
 -17   1  14    9.00    6.10
 -17   2 -14    5.80    4.20
  17   2  14  -33.40   19.00
 -17  -2  14   -2.10    6.10
  17   2  14    9.90   12.80
 -17   2  14    2.30    6.20
  17  -2  14    1.50   21.20
 -17   2  14   -0.90   12.80
 -17   3 -14    3.00    4.70
  17   3  14   31.10   20.30
  17   3  14    6.00   14.50
 -17  -3  14   -1.00    6.50
 -17   3  14  -12.10   11.70
 -17   3  14    9.90    6.20
  17  -3  14  -24.90   22.70
  18   0  14  280.77   23.10
 -18   0  14  265.77   15.80
  18   0  14  238.38   34.00
  18   1  14   67.89   23.40
  18   1  14   88.29   15.90
 -18  -1  14   96.69   10.70
 -18   1  14   71.79   17.80
 -18   1  14   75.29    9.60
  18  -1  14   51.99   25.00
  18   2  14  266.87   28.30
 -18  -2  14  321.37   17.70
  18   2  14  330.97   39.90
 -18   2  14  298.97   16.40
  18  -2  14  273.67   36.10
 -18   2  14  279.57   26.60
  19   0  14   15.90   12.50
 -19   0  14    2.40    5.80
  19   0  14  -50.99   20.80
  19   1  14  -28.60   22.60
  19  -1  14  -33.60   23.20
   0   0  15   20.20    6.80
   0   0  15    4.00    1.20
   0   0  15    3.30    1.40
   0  -1 -15    4.10    2.10
   0  -1  15    0.30    1.60
   0   1  15   -8.50    4.90
   0   1  15   -0.80    1.10
   0  -1  15   -0.40    1.80
   0  -1  15    2.30    6.10
   0   2  15   63.29   11.10
   0  -2  15   53.89    4.90
   0   2  15   59.69    3.30
   0  -2 -15   56.59    3.90
   0  -2  15   51.29   10.50
   0   3  15   14.00   10.50
   0   3  15    2.20    1.70
   0  -3  15   -6.90    3.20
   0   4  15   35.80    3.90
   0  -4  15   26.20    6.20
   0   4  15   36.60   11.00
   0   5  15    2.90    3.10
   0   5  15   -2.30    9.10
   0   5 -15    5.80    3.40
   0   6  15   16.10   11.30
   0   6 -15   30.40    5.10
   0  -6  15   51.89   15.10
   0   6  15   23.80    4.60
   0   7 -15   -2.20    4.80
   0  -7  15    2.90   16.70
   0   7  15    3.60   13.40
   0   7  15   -0.70    4.70
   1   0  15   -0.80    5.80
  -1   0  15    0.80    1.60
  -1   0  15    7.10    6.80
  -1   0  15    1.50    1.20
   1   0  15    0.50    1.00
   1   0  15   -1.20    1.20
   1   1  15   30.50    8.00
   1   1  15   31.30    2.10
  -1  -1  15   31.10    3.20
  -1  -1  15   41.60    8.90
   1  -1 -15   26.30    3.40
  -1   1  15   27.10    7.50
   1  -1  15   35.80    8.50
   1  -1  15   33.00    3.00
  -1   1  15   33.00    2.70
   1  -1  15   31.90    3.30
  -1  -2  15   77.39   11.60
   1   2  15   61.99   11.20
  -1  -2  15   73.59    5.50
   1   2  15   79.29    3.60
  -1   2  15   77.89   11.20
   1  -2  15   81.59    5.50
  -1   2  15   89.49    4.40
  -1  -2 -15   77.99    4.00
   1  -2  15   66.99   11.10
  -1  -3  15  740.43   25.70
   1   3  15  752.52   33.50
   1   3  15  727.63   21.90
  -1   3  15  744.73   22.50
  -1  -3 -15  717.73   21.80
   1  -3  15  741.93   25.80
   1  -3  15  750.82   32.40
  -1   3  15  730.73   33.70
  -1   4 -15  181.98    8.60
  -1  -4  15  176.38   12.20
   1   4  15  186.88   18.80
   1   4  15  181.48    7.50
  -1   4  15  192.58   18.80
  -1   4  15  179.98    8.20
   1   5  15  247.28    9.80
   1   5  15  200.28   19.40
  -1  -5  15  226.38   15.80
  -1   5 -15  230.78   10.70
  -1   5  15  243.08   20.30
  -1   5  15  203.58   10.20
  -1   6 -15   97.19    8.50
  -1  -6  15  145.59   19.60
   1   6  15  144.49   19.50
   1   6  15  121.09    8.30
  -1   6  15  120.59    8.90
  -1   6  15  147.09   18.30
   1  -6  15  139.09   19.80
   1   7  15  367.06   28.60
  -1  -7  15  354.46   33.10
   1   7  15  345.97   15.30
  -1   7 -15  351.56   16.40
   1  -7  15  362.86   33.70
  -1   7  15  343.07   15.70
   1   7 -15  376.46   16.60
  -1   7  15  355.56   27.70
  -2   0  15    0.30    1.30
   2   0  15    0.10    0.80
   2   0  15    1.40    1.00
   2   0  15    2.80    5.80
  -2   0  15    2.70    6.60
  -2  -1  15    4.70    1.80
   2   1  15   10.30    6.00
  -2  -1  15   -8.80    6.20
  -2   1  15    1.40    1.30
   2  -1  15    3.10    1.50
   2  -1  15   -1.50    1.40
   2  -1  15    0.80    5.80
  -2   1  15    7.90    6.00
  -2  -2  15   67.99    5.40
   2   2  15   61.89   11.70
   2   2  15   66.19    2.80
  -2  -2 -15   64.79    3.20
   2  -2  15   70.29    5.20
   2  -2  15   65.79   10.50
  -2   2  15   76.79   11.00
  -2   2  15   64.29    4.00
   2   3  15    5.20    1.50
  -2   3 -15    3.10    1.80
   2   3  15   13.90    9.80
  -2  -3  15    5.50    4.20
  -2   3  15    3.60    2.00
  -2   3  15   -0.60    8.90
   2  -3  15   15.60    7.60
  -2  -3 -15    6.70    1.80
   2   4  15   47.40   12.10
   2   4  15   48.00    3.80
  -2  -4  15   51.09    7.50
  -2   4 -15   51.19    4.90
   2  -4  15   43.20   10.50
  -2   4  15   51.49   11.60
  -2   4  15   48.00    4.90
  -2   5 -15   27.70    4.50
  -2  -5  15   25.40    7.40
   2   5  15   26.30   10.70
   2   5  15   33.50    3.90
  -2   5  15   29.50    4.30
   2  -5  15   34.10   14.40
  -2   5  15   33.00   10.70
  -2  -6  15   31.00    9.00
   2   6  15   56.19    6.60
  -2   6 -15   45.40    5.90
   2   6  15   62.89   13.70
  -2   6  15   52.19    6.10
   2  -6  15   50.29   17.10
  -2   6  15   64.29   13.40
  -2  -7  15  -35.00   15.90
  -2   7 -15    9.40    5.40
   2   7  15   -7.50   12.00
   2   7  15   -3.50    4.20
  -2  -7  15   22.40   10.30
  -2   7  15    7.70    5.10
  -2   7  15    0.10   11.90
   2  -7  15    6.40   16.90
  -3   0  15   -4.40    6.00
   3   0  15   -0.70    5.50
  -3   0  15   -2.70    1.40
   3   1  15   -2.30    7.00
  -3  -1  15   -1.00    1.80
  -3  -1  15    7.60    7.00
  -3   1  15   -1.00    1.50
  -3   1  15   10.80    6.30
   3  -1  15   -1.20    1.40
   3  -1  15    0.80    1.40
   3  -1  15    2.60    5.70
   3   2  15   51.09   10.80
  -3  -2  15   46.60    4.90
  -3   2  15   41.80    9.00
   3  -2  15   38.50    8.60
  -3   2  15   46.90    3.70
   3  -2  15   39.70    4.40
  -3   3 -15   11.80    2.10
  -3  -3  15   11.40    4.20
   3   3  15   11.80    1.50
   3   3  15   20.10   10.00
  -3   3  15    8.30    2.60
   3  -3  15   17.60    7.30
  -3  -3 -15    8.40    1.60
  -3   3  15   18.00    9.70
   3   4  15  248.58    8.70
   3   4  15  230.98   19.60
  -3  -4  15  250.47   14.20
  -3   4  15  227.98   18.70
  -3   4  15  243.88   10.50
   3  -4  15  234.98   18.10
   3   5  15   -8.30    8.40
   3   5  15    3.80    2.40
  -3  -5  15   -5.80    6.10
  -3   5 -15   -0.90    3.20
   3  -5  15  -11.80   12.10
  -3   5  15   -3.90    9.10
  -3   5  15    1.60    3.70
   3  -5  15    6.00   10.00
   3   6  15  159.78    8.80
   3   6  15  166.78   18.70
  -3   6 -15  172.48    9.90
  -3  -6  15  161.78   16.10
   3  -6  15  176.28   23.40
  -3   6  15  181.98   19.60
  -3   6  15  179.88   10.50
  -3  -7  15   33.30   15.90
   3   7  15    9.50    4.70
   3   7  15   -0.20   13.20
  -3   7 -15    8.40    5.00
  -3  -7  15  -21.60    8.90
   3  -7  15    4.20   17.70
  -3   7  15    7.20    5.10
  -3   7  15   -4.40   11.70
  -4   0  15   -9.60    6.70
   4   0  15    5.60    6.20
  -4   0  15   -1.40    1.60
   4   1  15   28.40    9.00
  -4  -1  15   26.80    3.60
  -4  -1  15   23.60    9.80
  -4   1  15   27.50    3.10
  -4   1  15   17.80    6.90
   4  -1  15   29.70    8.20
   4  -1  15   29.60    2.60
   4  -1  15   29.60    2.30
  -4  -2  15    9.00    3.10
  -4   2 -15    7.10    1.60
   4   2  15   19.60    9.80
  -4   2  15    8.40    7.50
  -4   2  15   10.30    2.40
   4  -2  15    5.20    6.70
   4   3  15   36.00    2.10
  -4   3 -15   37.10    3.40
   4   3  15   42.40   11.70
  -4  -3  15   46.40    5.90
  -4  -3 -15   30.50    2.30
  -4   3  15   38.30   10.20
   4  -3  15   35.70    8.70
  -4   3  15   36.40    4.20
  -4  -4  15   67.19    8.30
  -4   4 -15   55.69    5.10
   4   4  15   54.19   11.30
   4   4  15   63.19    3.70
  -4   4  15   54.39   12.70
   4  -4  15   49.90   10.50
  -4   4  15   62.29    5.80
   4  -4  15   36.20   14.20
   4   5  15   12.10    2.50
  -4   5 -15   14.80    3.80
  -4  -5  15   12.90    7.20
   4   5  15   23.30   11.40
   4  -5  15    8.60    9.50
   4  -5  15   32.00   15.30
  -4   5  15   15.70    4.40
  -4   5  15    7.20   10.60
   4   6  15   81.29   15.10
  -4   6 -15  103.49    8.20
  -4  -6  15   85.09   11.90
   4   6  15  100.59    7.10
  -4   6  15  111.69    9.30
   4  -6  15  133.09   22.10
   4  -6  15  106.29   15.40
  -4   6  15  118.19   15.20
  -4  -7  15   11.50   11.00
  -4   7 -15   12.80    5.30
   4   7  15    9.30   12.50
   4   7  15   16.80    4.70
  -4   7  15    8.20    5.60
   4  -7  15    6.00   17.60
  -4   7  15   12.30   12.30
  -5   0  15    2.00    6.80
   5   0  15   -1.40    7.40
  -5   0  15    0.20    2.00
  -5  -1  15    8.80    2.50
   5   1  15   14.80    9.00
  -5   1  15   12.60    8.00
   5  -1  15   10.20    1.80
  -5   1  15   14.00    2.50
   5  -1  15   10.90    1.40
   5  -1  15   15.70    7.10
  -5   2 -15   39.80    3.00
   5   2  15   42.90   11.00
  -5  -2  15   37.70    4.70
  -5   2  15   29.40    9.40
  -5   2  15   45.40    4.30
   5  -2  15   36.90    8.20
   5   3  15   58.59   11.40
  -5  -3  15   78.09    7.90
  -5   3 -15   70.69    4.30
   5  -3  15   64.19   10.20
  -5   3  15   60.39    5.60
  -5   3  15   69.39   11.30
  -5  -3 -15   62.59    2.50
  -5  -4  15   -3.30    5.00
   5   4  15   -5.50    8.50
  -5   4 -15    2.50    2.50
   5   4  15   -1.30    1.40
  -5   4  15    5.30    9.70
   5  -4  15   -0.90   11.30
  -5   4  15   -1.20    2.90
   5  -4  15    1.50    7.90
   5   5  15  172.58    7.20
  -5   5 -15  169.18    9.40
   5   5  15  174.88   19.80
  -5  -5  15  156.68   13.80
   5  -5  15  181.48   17.60
  -5   5  15  196.38   10.50
   5  -5  15  148.19   20.90
  -5   5  15  165.58   18.80
  -5  -6  15   20.30    8.50
   5   6  15   19.40    3.70
   5   6  15   39.40   14.10
  -5   6 -15   15.50    4.70
   5  -6  15    6.30   16.70
   5  -6  15   41.90   11.80
  -5   6  15    9.40    4.90
  -5   6  15   22.30   10.70
   5   7  15  270.57   12.60
  -5   7 -15  283.47   15.10
  -5  -7  15  320.17   23.00
   5   7  15  306.67   27.50
  -5   7  15  277.67   15.40
   5  -7  15  292.57   35.60
   5  -7  15  263.17   25.10
  -5   7  15  313.37   24.20
  -6   0  15    8.00    7.80
  -6   0  15    0.80    2.20
   6   0  15    9.30    8.20
   6   1  15   26.70    9.90
  -6  -1  15   25.10    4.00
  -6   1  15   22.20    9.10
   6  -1  15   27.00    8.40
  -6   1  15   20.90    3.30
   6  -1  15   20.20    2.20
   6  -1  15   18.10    1.90
   6   2  15   42.30   11.40
  -6  -2  15   42.40    5.10
  -6   2 -15   48.60    3.20
  -6   2  15   56.49   11.00
   6  -2  15   37.80    7.90
  -6   2  15   44.00    4.90
  -6  -3  15    9.00    4.50
  -6   3 -15    8.30    2.10
   6   3  15    8.80    9.00
  -6   3  15    6.30    8.40
  -6   3  15    8.50    3.10
   6  -3  15    0.50   11.30
   6  -3  15   10.40    6.80
   6   4  15  100.59   14.90
  -6   4 -15   68.69    5.90
  -6  -4  15   77.69    9.00
  -6  -4 -15  100.99    5.60
   6  -4  15   90.19   17.70
  -6   4  15   86.69   14.20
  -6   4  15  102.59    7.60
   6  -4  15   83.29   11.30
  -6   5 -15   -1.30    3.40
  -6  -5  15    1.80    6.60
   6   5  15    7.90    9.90
  -6   5  15    8.50   10.70
  -6   5  15   -3.30    3.90
   6  -5  15   21.10    8.90
   6  -5  15   22.40   15.40
   6   6  15   12.60    3.70
  -6   6 -15    3.50    4.40
  -6  -6  15   10.30    9.80
   6   6  15   33.90   12.70
   6  -6  15   10.20   16.30
  -6   6  15    6.70   10.50
   6  -6  15   10.90   10.10
  -6   6  15    7.20    5.00
  -6   7 -15   -0.40    5.20
   6   7  15    4.20    4.20
  -6  -7  15    4.70   10.30
   6   7  15    2.70   14.20
   6  -7  15    7.30   19.30
  -6   7  15   37.00   13.00
  -6   7  15    9.90    6.40
   7   0  15   -4.10    7.30
  -7   0  15    1.00    2.50
  -7   0  15    0.00    8.70
   7   1  15   36.90   10.80
  -7   1 -15   35.80    2.00
  -7  -1  15   42.50    5.00
   7  -1  15   27.80    2.30
  -7   1  15   42.80    4.70
   7  -1  15   39.40    9.80
  -7   1  15   19.80    9.00
  -7   2 -15   62.19    3.70
   7   2  15   51.69   11.30
  -7  -2  15   61.59    6.80
   7  -2  15   77.19   10.10
   7  -2  15   80.19   16.30
  -7   2  15   62.99    5.40
  -7   2  15   64.79   11.00
   7   3  15    8.60    8.70
  -7   3 -15    2.90    1.90
  -7  -3  15    2.60    3.80
  -7   3  15    3.20    7.80
   7  -3  15    4.10    6.20
  -7   3  15   -0.10    3.10
   7  -3  15   26.00   14.20
  -7   4 -15   48.50    5.10
  -7  -4  15   46.20    7.80
   7   4  15   36.40   11.70
  -7   4  15   44.50   12.20
  -7   4  15   39.80    5.50
   7  -4  15   38.20   16.20
  -7  -4 -15   44.20    4.10
   7  -4  15   55.09    8.90
   7   5  15   47.10   12.50
  -7  -5  15   52.39    8.90
  -7   5 -15   46.50    5.60
  -7   5  15   57.79   13.60
  -7   5  15   47.20    6.30
   7  -5  15   49.00   16.80
  -7  -5 -15   55.59    6.50
   7  -5  15   56.79    9.90
  -7  -6  15  161.98   16.40
  -7   6 -15  117.49    9.40
   7   6  15  102.79   17.40
   7   6  15  131.89   18.30
  -7   6  15  117.29   10.50
   7  -6  15  125.69   14.60
  -7  -6 -15  124.29   12.00
  -7   6  15  130.59   16.00
   7  -6  15   94.09   21.60
  -7  -7  15   96.59   14.40
   7   7  15   89.49   18.80
  -7   7 -15   98.39   10.90
  -7   7  15   94.79    9.90
   7  -7  15   78.49   23.90
  -7   7  15  107.69   16.50
  -8   0  15    1.60    2.60
   8   0  15    6.00    8.10
  -8   0  15    3.80    9.60
   8   1  15   21.70    9.90
  -8   1 -15   18.10    1.80
  -8  -1  15   16.30    3.60
   8  -1  15   20.10   12.20
  -8   1  15   16.20    3.70
   8  -1  15   22.10    1.90
  -8   1  15   15.40    9.50
   8  -1  15   20.30    8.20
  -8   2 -15    2.10    1.60
  -8  -2  15   -1.20    3.50
   8   2  15    1.90    8.70
  -8   2  15   -0.50    3.00
   8  -2  15    0.30    7.10
   8  -2  15    3.50   13.10
  -8   2  15   -6.30    7.90
  -8   3 -15    4.90    2.30
   8   3  15    5.80    8.60
  -8  -3  15    3.20    4.30
  -8   3  15    9.00    8.60
  -8   3  15    2.10    3.60
   8  -3  15    2.80    6.30
   8  -3  15   -4.60   12.20
  -8   4 -15    5.30    2.90
  -8  -4  15    6.50    5.50
   8   4  15   11.40   10.10
   8  -4  15    1.60    6.50
  -8   4  15    7.50    4.30
  -8   4  15  -10.80   10.10
  -8  -4 -15    6.10    2.00
   8  -4  15    6.20   13.90
   8   5  15   63.09   14.00
  -8  -5  15   59.39    9.90
   8   5  15   66.89   14.60
  -8   5 -15   44.80    5.60
  -8   5  15   44.30    6.30
  -8  -5 -15   52.09    6.00
   8  -5  15   28.50   17.00
   8  -5  15   54.19    9.20
  -8   5  15   38.30   12.80
  -8  -6  15   -5.20    8.40
   8   6  15    5.40   14.20
   8   6  15   12.70   12.70
  -8   6 -15   13.80    5.10
  -8   6  15   20.80   11.60
   8  -6  15   21.20   18.10
  -8  -6 -15   12.70    6.30
  -8   6  15   15.50    6.10
   8   7  15   39.60   15.80
  -8   7 -15   33.00    6.70
  -8  -7  15   30.90   11.70
  -8   7  15   47.50   13.70
   8  -7  15   30.70   23.70
  -8   7  15   30.00    7.90
   9   0  15    9.00    7.90
  -9   0  15    2.50    3.00
  -9   0  15  -20.50    7.70
   9   0  15  -16.00   11.60
  -9  -1  15  136.49    8.60
  -9   1 -15  129.99    4.80
   9   1  15  138.79   15.50
   9   1  15  133.39   19.10
  -9   1  15  127.29   16.50
  -9   1  15  136.89    8.10
   9  -1  15  133.79    5.20
   9  -1  15  162.88   15.00
   9  -1  15  109.29   18.50
   9   2  15   67.49   11.90
  -9  -2  15   70.39    7.10
  -9   2 -15   72.29    4.30
   9   2  15   98.19   17.40
  -9   2  15   80.39   12.60
  -9   2  15   80.29    6.60
   9  -2  15   77.49   10.80
   9  -2  15   60.19   16.50
   9   3  15   -8.00   11.60
  -9  -3  15    0.50    4.30
  -9   3 -15   -1.60    2.20
   9   3  15    1.70    9.40
  -9   3  15  -18.40    7.80
   9  -3  15   -3.30   14.30
   9  -3  15    1.80    6.60
  -9   3  15    1.30    3.50
  -9   4 -15  123.49    7.60
  -9  -4  15  127.69   11.70
   9   4  15  126.59   17.70
   9   4  15  117.49   15.60
   9  -4  15  123.89   22.70
  -9  -4 -15  116.89    5.10
   9  -4  15   98.79   12.60
  -9   4  15  127.69    9.30
  -9   4  15  122.29   15.60
  -9   5 -15  146.59    9.20
  -9  -5  15  119.69   14.10
   9   5  15  134.39   17.90
   9   5  15  132.09   19.00
  -9   5  15  144.99   10.30
  -9  -5 -15  134.19    7.40
  -9   5  15  130.89   16.60
   9  -5  15  111.69   12.90
   9  -5  15  121.99   22.50
  -9  -6  15  107.09   13.60
   9   6  15   99.99   19.00
  -9   6 -15  106.39    9.80
   9   6  15  121.59   20.70
  -9   6  15  109.99   15.00
   9  -6  15   60.49   25.60
  -9   6  15  131.19   12.10
  10   0  15    2.50   12.90
  10   0  15    1.90    7.80
 -10   0  15   -3.90    3.10
  10   1  15    7.40   12.20
 -10  -1  15    4.00    3.80
 -10   1 -15    0.00    1.30
  10   1  15   -1.20    8.10
 -10   1  15    1.40    3.40
  10  -1  15   -3.70    7.10
 -10   1  15    7.80    9.10
  10  -1  15   -2.30   13.40
  10   2  15   26.40   13.10
 -10  -2  15   13.00    4.50
  10   2  15   29.40   10.20
 -10   2 -15   25.90    2.70
 -10   2  15   21.00    4.50
  10  -2  15   28.50    8.60
  10  -2  15   16.40   14.70
 -10   2  15   17.70   10.20
 -10   3 -15   25.80    3.60
  10   3  15   38.30   13.70
 -10  -3  15   32.50    6.30
  10   3  15   31.40   11.00
  10  -3  15   33.20   15.70
  10  -3  15   22.80    7.60
 -10   3  15   33.40    5.20
 -10   3  15   34.20   10.50
  10   4  15  -13.20    9.40
  10   4  15   15.90   14.00
 -10   4 -15    9.00    3.60
 -10  -4  15   11.70    6.00
  10  -4  15   -7.50    6.80
 -10   4  15    6.60    4.20
  10  -4  15  -11.40   14.60
 -10   4  15   -2.70   10.50
 -10   5 -15    9.00    4.50
  10   5  15  -21.70   13.90
 -10  -5  15   27.30    8.30
  10   5  15   -0.70   12.10
 -10   5  15   10.90    5.50
 -10   5  15    4.60   12.10
  10  -5  15    3.60   17.00
 -10  -6  15   60.89   12.00
 -10   6 -15   56.89    7.10
  10   6  15   73.59   17.50
  10  -6  15   37.00   21.50
 -10   6  15   53.49    7.90
 -10   6  15   72.39   13.40
  11   0  15   -2.20    7.40
 -11   0  15   -0.20    3.60
  11   0  15    2.50   14.60
  11   1  15   -4.50    8.40
 -11  -1  15   -1.00    3.80
  11   1  15  -18.70   12.70
 -11   1 -15   -1.70    1.50
  11  -1  15    8.10   13.10
  11  -1  15   -2.90    7.00
 -11   1  15    3.40    9.40
 -11   1  15    1.70    3.60
 -11  -2  15   71.89    8.50
  11   2  15   87.69   18.90
  11   2  15   89.69   13.90
 -11   2 -15   92.19    4.90
 -11   2  15   66.39    7.30
  11  -2  15   82.19   18.30
 -11   2  15   70.79   13.20
  11  -2  15   85.69   11.10
 -11   3 -15  529.75   18.00
  11   3  15  557.84   36.20
  11   3  15  578.54   29.70
 -11  -3  15  491.05   21.40
 -11   3  15  521.55   20.20
 -11   3  15  548.75   28.00
  11  -3  15  509.95   38.50
  11  -3  15  558.44   23.80
 -11   4 -15  243.78   11.70
  11   4  15  299.57   29.40
  11   4  15  269.17   22.40
 -11  -4  15  274.37   16.10
  11  -4  15  276.77   33.90
 -11   4  15  227.78   21.20
  11  -4  15  239.28   14.90
 -11   4  15  261.67   13.20
  11   5  15  244.58   25.50
 -11  -5  15  259.07   17.80
  11   5  15  248.58   30.20
 -11   5 -15  251.57   12.70
 -11   5  15  187.28   21.20
  11  -5  15  230.58   31.20
 -11   5  15  251.67   14.60
  11   6  15   70.79   19.60
 -11   6 -15   84.69    9.70
 -11  -6  15  108.69   14.20
 -11   6  15  105.49   12.00
  11  -6  15   73.99   24.90
 -11   6  15  107.19   14.50
 -12   0  15   -2.90    3.20
  12   0  15    1.40   14.80
  12   0  15   -0.90    8.40
 -12   0 -15    2.20    1.30
  12   1  15   12.60    9.90
 -12   1 -15   10.00    2.10
 -12  -1  15   20.00    5.00
  12   1  15   12.20   14.10
 -12   1  15   11.20    4.40
 -12   1  15   20.10   11.20
  12  -1  15   -9.50   15.60
  12  -1  15    8.70    7.80
  12   2  15   17.70   11.10
 -12   2 -15   12.50    2.40
 -12  -2  15    6.50    4.20
  12   2  15   -5.80   14.10
 -12   2  15   19.20   10.50
 -12   2  15    6.20    3.90
  12  -2  15   17.50   15.00
  12  -2  15   12.90    7.70
  12   3  15   -2.10   16.20
 -12   3 -15   10.00    3.40
  12   3  15    5.40   11.30
 -12  -3  15   14.90    5.90
 -12   3  15    7.50   10.40
 -12   3  15    5.70    4.50
  12  -3  15   15.30   17.70
  12  -3  15   21.90    7.10
 -12   4 -15   39.10    5.20
  12   4  15   36.20   13.40
 -12  -4  15   27.80    7.50
  12   4  15   51.59   17.60
 -12   4  15   28.80   11.70
  12  -4  15   25.00   19.80
 -12   4  15   39.40    6.80
 -12   5 -15   11.00    5.00
 -12  -5  15    9.30    8.70
  12   5  15   21.40   14.10
  12   5  15    1.00   16.10
  12  -5  15   -6.50   21.00
 -12   5  15    8.70    6.40
 -12   5  15  -11.90   11.90
 -12   6 -15   15.10    6.20
 -12  -6  15   -6.40    9.90
  12   6  15   27.20   17.70
  12  -6  15   -2.70   22.10
 -12   6  15   27.80   11.90
 -12   6  15   18.70    7.20
 -13   0 -15    1.00    1.60
  13   0  15    9.30    9.40
 -13   0  15    2.50    4.00
  13   0  15  -21.10   14.30
 -13  -1  15    8.20    4.50
  13   1  15    9.80   14.40
 -13   1 -15   12.80    2.50
  13   1  15   15.40   10.60
  13  -1  15   36.50   16.80
 -13   1  15   21.20   11.00
  13  -1  15   20.90    9.40
 -13   1  15    8.40    4.50
  13   2  15  138.59   17.60
 -13   2 -15  151.38    7.20
  13   2  15  162.98   24.80
 -13  -2  15  142.19   10.90
 -13   2  15  152.28   18.10
 -13   2  15  144.39   10.40
  13  -2  15  154.48   24.40
  13  -2  15  150.78   15.70
 -13  -3  15   66.79    8.40
  13   3  15   87.09   16.20
  13   3  15   58.29   19.30
 -13   3 -15   62.59    6.50
 -13   3  15   83.99    9.00
 -13   3  15   77.59   13.60
  13  -3  15   61.29   20.30
  13   4  15  314.17   34.00
 -13  -4  15  201.68   14.40
 -13   4 -15  218.18   11.10
  13   4  15  221.48   24.20
 -13   4  15  209.48   21.10
  13  -4  15  235.48   31.80
 -13   4  15  216.18   13.30
 -13  -5  15   55.39    9.50
  13   5  15   64.29   16.00
 -13   5 -15   46.40    6.60
  13   5  15   19.00   19.10
 -13   5  15   50.59    8.20
  13  -5  15   68.49   24.60
 -13   5  15   43.40   14.40
  14   0  15    5.60   10.00
  14   0  15  -10.80   15.40
 -14   0  15    3.90    4.40
 -14  -1  15    6.60    4.50
 -14   1 -15    7.90    2.30
  14   1  15   -9.90   16.10
  14   1  15   14.50   10.80
 -14   1  15    6.20    4.30
  14  -1  15   28.30   10.60
 -14   1  15   10.80   11.30
  14  -1  15    8.80   17.50
 -14  -2  15    2.80    5.00
 -14   2 -15    4.90    3.10
  14   2  15    9.00   11.20
  14   2  15    5.90   17.70
  14  -2  15   10.60   18.60
  14  -2  15    8.50    9.60
 -14   2  15    0.40    4.50
 -14   2  15  -10.60   11.40
 -14  -3  15    6.50    5.90
  14   3  15   30.80   18.40
  14   3  15  -10.20   11.40
 -14   3 -15    0.20    3.60
  14  -3  15    2.50   17.70
 -14   3  15   -0.60    4.80
 -14   3  15   -0.40   10.50
  14   4  15   -3.50   13.10
 -14  -4  15  -12.00    6.80
  14   4  15   19.20   19.40
 -14   4 -15    0.50    4.80
 -14   4  15   -2.70    5.60
  14  -4  15   11.60   21.40
 -14   4  15   -8.30   11.90
 -14   5 -15   16.90    5.70
  14   5  15    4.20   19.60
  14   5  15   24.00   16.60
 -14  -5  15   21.00    9.20
  14  -5  15   68.99   24.90
 -14   5  15  -18.10   12.70
 -14   5  15   20.50    7.40
 -15   0  15    1.80    5.10
  15   0  15   -3.60   17.50
  15   0  15    7.40   10.40
 -15  -1  15    7.40    5.30
 -15   1 -15    4.20    2.50
  15   1  15    8.10   11.20
  15   1  15   -0.70   17.80
 -15   1  15   11.80   12.50
 -15   1  15    0.00    5.20
  15  -1  15  -20.00   17.30
  15  -1  15   -1.00   10.20
 -15   2 -15    6.90    3.60
  15   2  15   14.50   19.70
  15   2  15    4.80   11.80
 -15  -2  15    4.60    5.80
  15  -2  15   44.70   20.50
 -15   2  15   10.10    5.40
  15  -2  15   18.00    9.90
 -15   2  15    0.70   12.50
  15   3  15   66.09   16.20
 -15   3 -15   64.49    7.30
 -15  -3  15   39.80    8.00
  15   3  15   63.89   22.10
 -15   3  15   52.59   13.70
  15  -3  15   43.60   21.90
 -15   3  15   48.60    7.40
 -15  -4  15   22.90    7.90
  15   4  15   43.60   16.90
 -15   4 -15   29.60    5.90
  15   4  15   14.50   19.90
  15  -4  15    5.00   22.00
 -15   4  15   16.40   12.80
 -15   4  15   18.60    7.00
  16   0  15   14.20   19.10
 -16   0  15   -5.50    4.80
  16   0  15    5.20   11.40
  16   1  15   16.50   12.10
  16   1  15  -16.50   21.10
 -16  -1  15    5.40    5.50
  16  -1  15   28.10   11.40
 -16   1  15   -1.90    5.00
 -16   1  15    9.10   13.60
  16  -1  15   11.30   19.90
 -16  -2  15   12.10    6.30
  16   2  15   13.10   12.10
 -16   2 -15    7.80    3.80
  16   2  15   11.50   20.20
 -16   2  15   -6.60   12.60
  16  -2  15  -15.70   19.70
 -16   2  15   -5.70    4.90
 -16  -3  15    4.40    6.40
  16   3  15  -24.00   19.80
  16   3  15  -12.80   13.20
 -16   3 -15   -3.00    4.40
 -16   3  15    1.40    6.20
  16  -3  15   10.00   22.10
 -16   3  15   -7.30   12.10
 -16   4 -15   61.59    7.10
  16   4  15   62.39   18.90
  16   4  15   66.19   21.60
 -16  -4  15   68.69   10.60
 -16   4  15   56.69    8.90
 -16   4  15   36.30   14.20
  16  -4  15   55.49   27.50
  17   0  15   20.20   12.60
 -17   0  15  -10.50    5.70
  17   0  15  -50.99   20.60
  17   1  15  -16.80   20.20
 -17  -1  15   -0.80    5.70
  17   1  15   31.60   13.40
 -17   1  15   -3.60    5.50
  17  -1  15   -1.00   10.80
 -17   1  15  -21.60   13.00
  17  -1  15   25.70   22.70
  17   2  15    7.80   14.70
  17   2  15   33.70   22.00
 -17  -2  15   10.30    6.80
 -17   2  15  -15.60   13.80
  17  -2  15  -18.20   20.70
 -17   2  15    8.00    6.00
  17   3  15    8.10   16.20
 -17  -3  15   14.80    7.60
  17   3  15   15.00   23.10
 -17   3 -15   10.90    5.80
 -17   3  15   11.90    6.90
 -17   3  15   -7.10   13.00
  17  -3  15   17.20   23.00
 -18   0  15   -4.90    6.00
  18   0  15  -15.30   21.50
  18   0  15    7.20   12.20
 -18  -1  15   15.00    6.70
  18   1  15    9.70   23.50
  18   1  15   24.70   14.20
 -18   1  15   35.30   16.70
  18  -1  15    0.20   21.20
 -18   1  15    4.50    5.90
  18   2  15   32.20   15.70
 -18  -2  15    4.80    6.60
  18   2  15  -12.40   22.20
  18  -2  15   20.80   23.40
 -18   2  15   15.30    7.30
 -18   2  15  -26.60   14.20
   0   0  16 1368.26   37.20
   0   0  16 1238.38   46.50
   0   0  16 1304.67   37.10
   0   1  16    9.30    6.70
   0  -1 -16    0.70    2.30
   0  -1  16   -1.70    1.60
   0   1  16    1.90    1.20
   0  -1  16    1.20    6.40
   0  -2  16  323.67   12.50
   0   2  16  331.97   10.70
   0  -2  16  329.87   21.00
   0   2  16  315.17   21.70
   0  -2 -16  336.37   11.10
   0   3  16    2.70    9.80
   0   3  16    4.60    1.80
   0  -3  16   14.80    8.80
   0  -3  16    3.60    3.70
   0  -4  16  492.35   21.00
   0   4  16  479.95   28.40
   0   4  16  500.55   16.20
   0   5  16   -4.70    8.50
   0   5  16    3.20    3.20
   0   6  16   48.50   14.20
   0   6 -16   36.40    5.20
   0  -6  16   30.30   15.70
   0   6  16   28.90    5.00
   0  -7  16  -17.40   18.70
   0   7  16   24.90   14.90
   0   7 -16   -5.40    4.50
   0   7  16    2.70    4.80
  -1   0  16  157.88    6.30
   1   0  16  161.98    5.70
   1   0  16  163.68    5.80
   1   0  16  156.18   13.60
  -1   0  16  156.98   14.00
  -1  -1  16  480.15   25.30
   1   1  16  500.15   14.10
   1   1  16  457.95   23.20
  -1  -1  16  470.95   15.70
   1   1  16  508.95   14.20
   1  -1 -16  466.45   16.20
  -1   1  16  496.55   15.00
   1  -1  16  478.85   24.10
   1  -1  16  504.45   15.40
   1  -1  16  484.35   15.20
  -1   1  16  449.66   23.50
  -1  -2  16  149.69    7.70
   1   2  16  157.18   16.60
  -1  -2  16  150.68   16.50
   1   2  16  149.39    5.40
  -1   2  16  149.09    6.20
  -1  -2 -16  148.49    5.90
  -1   2  16  130.39   14.40
   1  -2  16  143.59   14.50
   1  -2  16  151.98    7.60
   1   3  16  188.38   19.40
   1   3  16  175.78    6.60
  -1  -3  16  169.88   10.50
  -1   3  16  168.88    7.10
  -1  -3 -16  162.18    6.80
   1  -3  16  165.28   16.60
   1  -3  16  186.98   10.20
  -1   3  16  159.48   17.60
  -1  -4  16   41.50    6.90
   1   4  16   49.70   12.70
   1   4  16   38.80    3.70
  -1   4  16   24.30   11.90
  -1   4  16   38.30    4.10
  -1   5 -16  163.48    9.40
   1   5  16  190.88    8.60
   1   5  16  210.18   19.70
  -1  -5  16  180.68   14.40
  -1   5  16  196.48   19.50
   1   6  16    3.30    3.90
  -1  -6  16   28.20   14.90
  -1   6 -16    4.20    4.00
   1   6  16   10.20   12.10
  -1  -6  16   18.70    8.70
   1  -6  16   14.10   15.20
  -1   6  16   14.50   11.30
  -1   7 -16    7.00    5.40
   1   7  16    7.00    5.10
   1   7  16    6.20   12.70
  -1  -7  16   -5.30   16.60
  -1   7  16    7.10    5.00
  -1   7  16  -17.40   12.80
   1  -7  16  -19.10   18.20
  -2   0  16   11.90    1.90
   2   0  16   11.70    1.30
   2   0  16   10.10    6.20
  -2   0  16   23.20    8.90
   2   0  16   14.60    1.40
  -2  -1  16  532.75   26.80
  -2  -1  16  551.84   17.50
   2   1  16  499.65   25.00
   2  -1  16  540.75   16.50
  -2   1  16  504.45   25.80
   2  -1  16  541.45   16.20
  -2   1  16  554.34   16.70
   2  -1  16  517.35   24.80
  -2  -2  16   -2.90    7.70
   2   2  16    1.70    0.90
  -2  -2  16   -4.10    2.40
   2   2  16    7.50   10.20
  -2  -2 -16    0.40    1.50
   2  -2  16    7.50    6.60
  -2   2  16    0.90    1.70
   2  -2  16   -2.90    2.30
  -2   2  16    7.50    7.80
   2   3  16  344.17   24.10
  -2  -3  16  377.76   15.80
   2   3  16  351.96   11.20
   2  -3  16  364.16   21.70
   2  -3  16  350.86   15.30
  -2   3  16  356.56   12.50
  -2   3  16  387.86   24.80
  -2  -3 -16  356.96   11.30
  -2   4 -16   83.09    5.90
   2   4  16   95.99    4.80
  -2  -4  16   93.99   10.20
   2   4  16   86.99   13.80
  -2   4  16   84.39    6.10
  -2   4  16   99.19   15.30
   2  -4  16   83.89   14.20
   2   5  16   14.90    2.90
   2   5  16    4.60    9.10
  -2   5 -16    7.30    3.50
  -2  -5  16   13.80    7.30
   2  -5  16   20.20   14.20
  -2   5  16   12.90    3.70
  -2   5  16   12.20   11.10
   2   6  16   49.20   14.20
   2   6  16   47.00    5.40
  -2  -6  16   42.20    9.80
  -2   6 -16   47.40    5.90
  -2   6  16   43.80   13.20
   2  -6  16   51.29   18.00
  -2   6  16   57.49    6.30
  -2  -7  16    0.90   16.70
   2   7  16   27.80    5.30
  -2  -7  16   18.50   10.50
  -2   7 -16   12.40    5.50
   2   7  16   38.50   16.00
   2  -7  16   11.80   18.30
  -2   7  16   14.60    5.50
  -2   7  16   17.50   14.70
  -3   0  16  578.64   17.60
  -3   0  16  550.94   27.20
   3   0  16  512.95   24.60
  -3  -1  16  258.47   19.20
   3   1  16  295.67   20.40
  -3  -1  16  293.57   11.00
   3  -1  16  284.67    9.20
  -3   1  16  300.97   10.20
   3  -1  16  283.47    9.40
  -3   1  16  271.87   18.80
   3  -1  16  268.17   17.50
   3   2  16  643.84   31.50
  -3  -2  16  659.03   22.70
  -3   2  16  706.13   21.20
   3  -2  16  676.73   22.10
  -3   2  16  695.13   30.60
   3  -2  16  699.23   29.60
   3   3  16  232.88    7.40
  -3  -3  16  231.68   12.00
  -3   3 -16  230.98    9.00
   3   3  16  216.48   21.00
  -3   3  16  235.88   19.90
   3  -3  16  229.38   17.60
  -3   3  16  246.68    9.70
  -3  -3 -16  237.58    7.60
   3   4  16  309.27   23.00
   3   4  16  345.77   11.20
  -3   4 -16  320.97   12.50
  -3  -4  16  334.57   16.60
  -3   4  16  327.67   22.20
   3  -4  16  350.96   22.50
  -3   4  16  356.66   13.30
  -3   5 -16    6.00    3.60
  -3  -5  16   -4.80    6.00
   3   5  16    4.10    2.50
   3   5  16    3.40    9.90
  -3   5  16   -0.60    3.90
  -3   5  16    2.70   10.60
   3  -5  16    3.30   10.50
   3  -5  16    9.00   14.10
   3   6  16  159.78    8.70
  -3   6 -16  157.58   10.00
   3   6  16  157.28   20.00
  -3  -6  16  156.58   16.20
  -3   6  16  167.58   10.90
  -3   6  16  176.28   19.40
   3  -6  16  159.68   23.70
   3   7  16    9.70   14.20
  -3   7 -16    6.00    5.30
  -3  -7  16   15.40   17.10
  -3  -7  16   16.80   10.70
   3   7  16    8.50    4.70
  -3   7  16    0.50    5.40
  -3   7  16   10.30   13.50
   3  -7  16   -5.30   17.80
  -4   0  16 1232.18   36.10
  -4   0  16 1227.38   46.80
   4   0  16 1205.18   44.00
  -4  -1  16  476.35   16.60
   4   1  16  489.35   26.50
  -4  -1  16  453.85   26.70
   4  -1  16  464.75   23.10
   4  -1  16  486.65   14.50
   4  -1  16  498.75   14.20
  -4   1  16  474.35   24.60
  -4   1  16  480.05   15.70
  -4  -2  16  357.66   14.30
   4   2  16  375.86   23.90
   4  -2  16  344.17   19.40
   4  -2  16  358.26   13.30
  -4   2  16  321.07   20.50
  -4   2  16  349.77   12.50
   4   3  16  491.75   27.20
  -4  -3  16  498.35   19.80
  -4   3 -16  533.45   16.70
  -4   3  16  540.85   27.50
   4  -3  16  482.05   24.80
  -4   3  16  543.45   17.70
  -4  -3 -16  523.25   14.80
   4   4  16  241.68    8.10
  -4   4 -16  238.28   10.10
  -4  -4  16  249.28   14.40
   4   4  16  263.37   19.90
  -4   4  16  206.78   20.60
   4  -4  16  205.18   25.60
   4  -4  16  222.68   18.00
  -4   4  16  242.08   10.80
   4   5  16  104.89   16.10
  -4  -5  16   94.39   11.10
   4   5  16   82.49    5.10
  -4   5 -16   87.49    7.00
  -4   5  16   81.19   14.90
   4  -5  16   88.69   14.50
  -4   5  16   86.69    8.10
   4  -5  16  108.09   19.40
   4   6  16    3.90   11.70
  -4  -6  16    0.60    8.40
  -4   6 -16   13.30    4.50
   4   6  16    3.50    3.40
   4  -6  16   25.20   17.50
  -4   6  16   13.80   11.10
   4  -6  16   16.00   12.60
  -4   6  16   10.50    5.00
   4   7  16   72.39   17.50
  -4   7 -16  122.29   10.20
   4   7  16   80.29    8.30
  -4  -7  16  110.59   15.10
   4  -7  16   99.79   17.80
  -4   7  16   95.79   10.20
   4  -7  16   71.99   22.10
  -4   7  16   97.29   16.60
  -5   0  16   27.70    3.20
  -5   0  16   15.00    9.30
   5   0  16   19.80    8.50
   5   1  16  120.29   15.20
  -5  -1  16  104.09   15.10
  -5  -1  16  114.39    6.90
   5  -1  16  120.29    4.20
   5  -1  16  107.29    4.40
  -5   1  16  106.19    5.90
   5  -1  16  106.39   12.10
  -5   1  16  106.89   13.60
   5   2  16    9.70    9.60
  -5  -2  16    2.70    3.30
   5  -2  16    0.90    2.80
   5  -2  16   15.10    7.10
  -5   2  16    2.70    2.30
  -5   2  16    1.00    8.00
   5   3  16    8.20    9.20
  -5   3 -16    5.70    1.90
  -5  -3  16    8.10    4.10
   5  -3  16   -0.30    6.80
  -5   3  16   12.50    9.20
  -5   3  16    4.30    2.90
  -5  -4  16   -4.30    4.80
   5   4  16   11.10    9.80
  -5   4 -16    6.20    2.70
  -5   4  16   -3.70    9.50
   5  -4  16   -1.40   11.40
  -5   4  16    3.60    3.40
   5  -4  16   -8.90    7.40
   5   5  16   24.70   12.00
  -5   5 -16    1.30    3.50
   5   5  16    2.30    2.00
  -5  -5  16    5.30    6.40
   5  -5  16    7.10   14.60
  -5   5  16    5.20   11.30
  -5   5  16   -2.30    3.90
   5  -5  16    6.00    9.70
  -5   6 -16    2.20    4.20
   5   6  16   -1.40    3.20
  -5  -6  16   10.20    9.70
   5   6  16    4.10   11.80
  -5   6  16    2.60    4.60
  -5   6  16   -8.60   11.00
   5  -6  16   -4.90   11.40
   5  -6  16    7.90   17.50
   5   7  16   20.40    4.60
  -5   7 -16   18.10    5.80
  -5  -7  16   42.30   12.70
   5   7  16   10.20   14.80
   5  -7  16   32.50   14.60
  -5   7  16   18.10    6.70
   5  -7  16   -8.90   19.00
  -5   7  16   33.70   14.40
  -6   0  16  201.58    9.00
  -6   0  16  198.78   18.40
   6   0  16  174.78   16.90
  -6  -1  16    5.70    3.00
   6   1  16   11.50    9.70
  -6   1  16    3.50    2.50
   6  -1  16    5.70    1.40
   6  -1  16   10.70    7.10
   6  -1  16    3.90    1.10
  -6   1  16   -6.80    7.60
  -6  -2  16   11.80    3.60
   6   2  16   13.10   10.00
  -6   2 -16    8.00    1.70
  -6   2  16    7.90    8.30
  -6   2  16    8.30    2.90
   6  -2  16    9.50    6.70
   6  -2  16    4.90    2.30
  -6   3 -16   10.70    2.20
   6   3  16   10.50    9.80
  -6  -3  16   10.30    4.60
  -6   3  16   12.50    8.30
   6  -3  16   10.80   13.00
   6  -3  16   10.60    7.20
  -6   3  16   17.00    3.60
  -6  -4  16   17.90    6.40
  -6   4 -16   20.70    3.50
   6   4  16   13.90   10.70
  -6   4  16   17.90    4.30
   6  -4  16   14.70    8.50
  -6   4  16   17.10   11.60
   6  -4  16   18.50   14.40
  -6  -4 -16   19.80    2.60
  -6  -5  16   -7.60    6.00
   6   5  16    6.10   11.60
  -6   5 -16   -0.10    3.50
   6  -5  16   15.20   15.40
  -6   5  16   -2.70   10.50
  -6   5  16    9.80    4.50
   6  -5  16    6.20    8.90
  -6  -6  16   12.20    9.10
   6   6  16    7.60   12.40
  -6   6 -16    9.20    4.60
  -6   6  16    0.50   11.40
   6  -6  16    7.90   17.00
   6  -6  16  -13.80   10.40
  -6   6  16   11.40    5.60
  -6   7 -16    9.50    5.60
   6   7  16  -21.30   14.00
  -6  -7  16  -18.20    9.70
  -6   7  16   24.00   14.20
   6  -7  16   10.40   21.40
  -6   7  16    8.60    6.50
   7   0  16   31.70    9.60
  -7   0  16   44.10   11.70
  -7   0  16   41.50    4.90
  -7  -1  16   80.49    6.30
   7   1  16   75.49   13.30
  -7   1  16   66.09    5.60
  -7   1  16   61.09   12.20
   7  -1  16   71.89   11.40
   7  -1  16   74.89    2.90
   7  -1  16   65.89    3.30
  -7  -2  16   33.60    5.20
   7   2  16   26.90    9.80
  -7   2 -16   28.90    2.70
   7  -2  16   21.30    8.10
  -7   2  16   24.70    3.90
   7  -2  16   20.80    3.00
  -7   2  16   34.40   10.10
   7  -2  16   31.10   14.10
  -7   3 -16   98.89    5.30
   7   3  16  105.99   14.20
  -7  -3  16   98.39    9.10
   7  -3  16   97.09   11.30
   7  -3  16   85.59   19.60
  -7   3  16   84.79   12.90
  -7   3  16  104.59    7.40
  -7  -4  16    5.00    5.60
  -7   4 -16   10.80    3.10
   7   4  16    7.40    9.20
  -7   4  16    6.50    4.10
   7  -4  16   25.30    8.40
   7  -4  16   -0.90   13.20
  -7  -4 -16    9.90    1.90
  -7   4  16    2.70   11.20
  -7   5 -16   26.10    4.70
   7   5  16   51.89   13.70
  -7  -5  16   26.60    7.90
  -7  -5 -16   27.90    4.00
   7  -5  16   31.60   17.80
  -7   5  16   18.40   12.20
  -7   5  16   23.30    5.60
   7  -5  16   10.70    9.20
  -7   6 -16   11.00    4.70
  -7  -6  16    0.20    8.60
   7   6  16    7.80   13.30
  -7   6  16    5.70   10.70
  -7   6  16    1.10    5.10
   7  -6  16  -20.60    9.00
   7  -6  16  -19.00   16.90
   7   7  16  -13.50   15.40
  -7   7 -16   14.40    6.00
  -7  -7  16   13.30   11.40
   7  -7  16   18.60   22.70
  -7   7  16   19.60    7.40
  -7   7  16   19.20   13.90
   8   0  16  116.69   14.40
  -8   0  16  105.59   16.00
  -8   0  16  118.89    7.70
   8   1  16   84.19   12.70
  -8  -1  16   80.89    7.00
   8  -1  16   71.19   15.30
  -8   1  16   87.59    6.50
   8  -1  16   87.39    3.30
   8  -1  16   79.29    3.90
   8  -1  16   75.99   11.30
  -8   1  16  100.09   14.50
   8   2  16    5.80    9.20
  -8  -2  16    3.30    3.90
  -8   2 -16    3.20    1.60
  -8   2  16   10.00    9.40
   8  -2  16    0.70    7.80
   8  -2  16    2.00   13.80
  -8   2  16    7.30    3.30
  -8   3 -16  142.19    6.70
   8   3  16  125.29   16.00
  -8  -3  16  135.69    9.70
  -8   3  16  138.29    8.80
   8  -3  16  144.79   15.00
   8  -3  16  140.29   21.10
  -8   3  16  131.79   15.40
  -8  -4  16   -0.80    5.70
   8   4  16   -3.00    9.40
  -8   4 -16    0.40    2.90
   8  -4  16    9.30   15.40
  -8   4  16  -14.90   10.60
   8  -4  16    6.10    8.20
  -8   4  16    0.60    4.10
  -8   5 -16  115.79    8.40
  -8  -5  16  118.89   13.20
   8   5  16  104.69   17.40
   8   5  16  147.39   19.70
   8  -5  16  118.09   15.70
  -8   5  16  132.69    9.80
   8  -5  16  108.69   22.80
  -8   5  16   81.09   15.60
   8   6  16   14.80   14.30
   8   6  16    0.50   12.20
  -8   6 -16    0.90    4.60
  -8  -6  16   17.40    9.70
   8  -6  16    8.60   20.40
  -8   6  16    6.20    5.70
   9   0  16  199.48   24.50
   9   0  16  152.98   16.40
  -9   0  16  128.89   16.90
  -9   0  16  151.38    8.90
   9   1  16  100.79   13.40
  -9   1 -16  116.19    4.00
  -9  -1  16  125.69    8.20
   9   1  16  108.79   17.90
  -9   1  16   94.79   13.90
   9  -1  16  114.59   20.00
   9  -1  16  111.39   13.80
   9  -1  16  116.19    4.50
  -9   1  16  117.69    7.70
  -9   2 -16  162.08    6.30
   9   2  16  140.59   20.10
   9   2  16  155.48   16.70
  -9  -2  16  171.88   10.30
  -9   2  16  155.08    8.90
   9  -2  16  109.59   14.30
  -9   2  16  168.48   17.40
   9  -2  16  130.69   20.20
  -9   3 -16   55.49    4.60
   9   3  16   54.09   15.90
   9   3  16   52.79   13.20
  -9  -3  16   60.59    7.50
   9  -3  16   43.60   10.20
   9  -3  16   43.70   16.70
  -9   3  16   48.30    5.90
  -9   3  16   55.69   11.90
   9   4  16  127.49   17.00
   9   4  16   97.69   18.30
  -9   4 -16  119.39    7.20
  -9  -4  16  119.69   11.90
  -9   4  16  103.79    8.70
  -9   4  16  113.59   16.30
   9  -4  16  132.09   23.40
   9  -4  16   99.59   12.40
   9   5  16   51.99   15.40
   9   5  16   41.70   14.10
  -9  -5  16   38.70    8.60
  -9   5 -16   48.80    5.80
   9  -5  16   48.60   19.90
  -9   5  16   35.80    6.40
   9  -5  16   36.10    9.30
  -9   5  16   22.20   12.70
  -9   6 -16   75.99    8.80
  -9  -6  16   85.49   12.90
   9   6  16   79.09   18.30
  -9   6  16   78.59    9.40
  -9   6  16   70.29   14.10
   9  -6  16   75.09   23.10
 -10   0  16   13.60    4.00
 -10   0  16   19.10    9.90
  10   0  16   29.80   13.20
  10   0  16   14.00    8.60
  10   1  16  469.45   32.30
  10   1  16  443.76   24.40
 -10  -1  16  442.86   17.60
 -10   1 -16  459.65   13.10
 -10   1  16  455.95   17.10
  10  -1  16  467.75   34.90
  10  -1  16  420.16   23.20
 -10   1  16  412.76   26.40
 -10  -2  16   29.20    5.80
  10   2  16   13.00   13.30
  10   2  16   27.80   10.70
 -10   2 -16   35.30    3.30
 -10   2  16   23.10    4.90
  10  -2  16   32.50   17.50
 -10   2  16   15.90   10.40
  10  -2  16   18.00    9.10
 -10  -3  16  370.96   16.90
  10   3  16  352.16   23.70
  10   3  16  371.76   30.30
 -10   3 -16  369.56   13.00
 -10   3  16  367.26   15.40
 -10   3  16  344.07   23.20
  10  -3  16  333.57   20.10
  10  -3  16  344.27   33.40
  10   4  16  103.09   18.50
 -10   4 -16   96.99    7.30
  10   4  16  101.49   17.30
 -10  -4  16  108.09   11.80
 -10   4  16  102.59   16.20
  10  -4  16   94.69   11.80
 -10   4  16  119.29    9.40
  10  -4  16   85.69   22.10
  10   5  16   94.99   18.90
 -10  -5  16   81.69   11.00
 -10   5 -16   86.39    8.50
  10   5  16   90.09   18.80
  10  -5  16   71.79   24.40
 -10   5  16   72.69   15.30
 -10   5  16   86.19    9.80
  10   6  16   43.10   17.20
 -10  -6  16   20.30   10.20
 -10   6 -16   39.50    6.50
 -10   6  16   37.20    7.90
  10  -6  16   59.19   25.70
 -10   6  16   16.00   12.70
 -11   0  16  146.79   18.90
 -11   0  16  143.79    9.50
  11   0  16  149.99   16.00
  11   0  16  131.89   21.70
 -11   1 -16  498.95   14.60
  11   1  16  469.55   26.70
  11   1  16  498.25   35.80
 -11  -1  16  483.65   19.20
  11  -1  16  435.76   35.50
 -11   1  16  508.65   28.70
 -11   1  16  497.35   18.80
  11  -1  16  522.65   25.00
 -11   2 -16  126.29    5.70
 -11  -2  16  106.19    9.40
  11   2  16  121.29   20.10
  11   2  16  112.19   15.90
 -11   2  16  107.19    8.00
 -11   2  16  131.49   16.10
  11  -2  16   89.09   12.20
  11  -2  16  113.89   22.90
 -11   3 -16  298.37   11.30
  11   3  16  257.67   30.40
  11   3  16  282.47   23.80
 -11  -3  16  306.67   15.70
 -11   3  16  299.87   22.20
 -11   3  16  276.67   13.60
  11  -3  16  244.28   30.50
  11  -3  16  308.37   18.90
  11   4  16   32.20   14.30
  11   4  16   61.29   17.20
 -11   4 -16   38.80    5.10
 -11  -4  16   37.20    7.90
 -11   4  16   44.30   13.60
  11  -4  16   28.90    8.70
  11  -4  16   51.99   21.10
 -11   4  16   45.20    6.70
  11   5  16  153.18   22.20
 -11   5 -16  166.68   11.00
 -11  -5  16  187.68   15.90
  11   5  16  198.08   23.30
  11  -5  16  160.78   27.90
 -11   5  16  199.98   13.20
 -11   5  16  150.38   18.60
 -11   6 -16    8.50    5.50
 -11  -6  16   -5.90    9.50
  11   6  16  -10.00   14.80
  11  -6  16    5.80   23.90
 -11   6  16    1.10    6.60
 -11   6  16    4.00   12.30
  12   0  16  840.62   35.50
  12   0  16  821.92   47.00
 -12   0  16  874.71   29.10
  12   1  16   77.29   19.90
 -12  -1  16   72.49    8.20
  12   1  16   73.99   13.80
 -12   1 -16   73.49    3.90
 -12   1  16   68.99   14.80
  12  -1  16   61.09   18.80
 -12   1  16   72.59    7.60
  12  -1  16   78.89   11.80
 -12   2 -16  691.23   20.90
  12   2  16  657.83   42.40
  12   2  16  723.53   33.60
 -12  -2  16  654.33   24.90
  12  -2  16  704.83   28.70
 -12   2  16  618.54   32.60
  12  -2  16  642.64   44.40
 -12   2  16  682.13   24.10
 -12  -3  16   -1.70    5.40
  12   3  16  -21.20   15.40
 -12   3 -16    7.50    3.30
  12   3  16    8.80   12.20
 -12   3  16    6.00    4.60
  12  -3  16  -14.90   17.90
 -12   3  16    7.20   10.60
  12  -3  16    4.90    7.60
 -12  -4  16  298.37   17.50
 -12   4 -16  310.77   13.20
  12   4  16  291.77   34.10
  12   4  16  310.57   26.90
  12  -4  16  305.37   35.90
 -12   4  16  289.07   24.70
 -12   4  16  296.57   15.10
 -12  -5  16    2.90    8.20
  12   5  16    3.20   14.10
 -12   5 -16   -3.00    4.80
  12   5  16   -2.00   17.60
  12  -5  16  -12.60   20.40
 -12   5  16    1.40    6.40
 -12   5  16  -16.40   12.40
  13   0  16   74.59   20.80
 -13   0  16   65.99    7.60
  13   0  16   92.69   13.80
  13   1  16  205.98   20.10
 -13  -1  16  224.28   12.70
 -13   1 -16  255.37    9.20
  13   1  16  189.08   26.40
  13  -1  16  314.47   33.80
 -13   1  16  196.48   11.90
 -13   1  16  180.18   21.90
 -13  -2  16   47.70    7.10
  13   2  16   47.20   13.50
 -13   2 -16   42.20    4.30
  13   2  16   36.60   18.30
 -13   2  16   43.30    6.60
 -13   2  16   50.19   13.20
  13  -2  16   53.49   10.20
  13  -2  16   34.10   21.00
  13   3  16   94.49   16.20
 -13   3 -16  102.09    7.40
  13   3  16  103.39   23.00
 -13  -3  16  110.99   11.40
 -13   3  16  108.89   15.70
  13  -3  16   90.49   25.10
 -13   3  16  106.69    9.90
  13  -3  16  127.29   13.20
 -13  -4  16   37.40    7.90
 -13   4 -16   33.80    5.30
  13   4  16   38.30   19.20
  13   4  16   58.29   16.30
 -13   4  16   30.40    6.80
 -13   4  16   41.40   13.40
  13  -4  16   17.60   19.50
 -13   5 -16   62.09    7.30
 -13  -5  16   83.69   11.50
  13   5  16   51.49   20.80
  13   5  16   96.59   19.50
 -13   5  16   73.79    9.40
 -13   5  16   58.29   15.60
  13  -5  16   41.60   24.50
  14   0  16   24.60   11.20
 -14   0  16    5.30    4.90
  14   0  16    1.00   16.90
 -14  -1  16  282.87   14.80
  14   1  16  257.27   30.60
  14   1  16  272.97   23.20
  14  -1  16  287.37   36.90
 -14   1  16  266.47   13.70
  14  -1  16  297.47   21.20
 -14   1  16  285.47   25.00
 -14   2 -16   16.10    3.20
  14   2  16   19.10   11.80
  14   2  16    7.80   17.20
 -14  -2  16   11.10    5.60
  14  -2  16   37.30    9.20
  14  -2  16   22.60   18.40
 -14   2  16   10.00    5.30
 -14   2  16   18.00   12.50
 -14   3 -16   74.09    6.70
  14   3  16   78.49   17.40
  14   3  16   77.89   21.80
 -14  -3  16   58.49    8.90
  14  -3  16   28.10   21.20
 -14   3  16   63.09    8.20
 -14   3  16   74.79   14.20
  14   4  16  -13.10   19.20
  14   4  16   29.00   15.30
 -14   4 -16   15.80    4.80
 -14  -4  16   16.60    7.90
 -14   4  16    0.70    5.70
  14  -4  16  -30.60   21.40
 -14   4  16   -8.60   12.00
  15   0  16   63.19   14.10
 -15   0  16   46.30    7.30
  15   0  16   63.59   22.30
  15   1  16   24.70   20.50
 -15  -1  16    0.80    5.10
  15   1  16   15.40   12.40
  15  -1  16    9.60   11.30
 -15   1  16   -6.20    4.90
 -15   1  16    0.50   12.70
  15  -1  16   49.80   20.60
  15   2  16   56.59   20.30
  15   2  16   52.39   15.20
 -15  -2  16   36.80    7.60
 -15   2  16   46.80   14.10
 -15   2  16   35.70    6.80
  15  -2  16   51.29   11.00
  15  -2  16   45.10   23.90
  15   3  16    2.20   13.50
  15   3  16   -6.00   19.80
 -15  -3  16    3.40    7.00
 -15   3 -16    9.80    4.20
  15  -3  16   20.90   20.60
 -15   3  16  -12.10   11.50
 -15   3  16   11.10    6.20
  15   4  16   68.29   17.80
  15   4  16   56.29   22.60
 -15  -4  16   50.19   10.00
 -15   4 -16   51.69    6.20
 -15   4  16   45.50    8.60
 -15   4  16   33.50   14.30
  15  -4  16   62.79   26.80
  16   0  16  198.68   30.00
 -16   0  16  182.08   13.00
  16   0  16  221.98   23.00
 -16  -1  16    3.90    5.60
  16   1  16  -20.80   19.40
  16   1  16    5.90   12.50
  16  -1  16    0.30   11.00
  16  -1  16   21.80   21.50
 -16   1  16   13.30   14.10
 -16   1  16    4.60    5.90
 -16  -2  16  131.99   13.20
  16   2  16  145.39   20.70
  16   2  16  118.29   28.50
 -16   2  16  164.38   12.70
  16  -2  16  150.08   28.50
 -16   2  16  145.99   19.60
  16   3  16   12.70   22.50
  16   3  16   -2.60   14.80
 -16  -3  16    4.70    6.90
 -16   3  16    1.00    6.00
 -16   3  16    3.40   13.00
  16  -3  16  -17.00   21.70
  17   0  16   82.39   25.00
 -17   0  16  104.99   10.80
  17   0  16  120.39   16.30
  17   1  16   74.19   25.10
  17   1  16   49.40   15.00
 -17  -1  16   47.90    8.20
  17  -1  16   77.89   14.00
 -17   1  16   33.60   16.60
  17  -1  16   77.69   26.50
 -17   1  16   48.10    7.60
  17   2  16   99.49   18.70
 -17  -2  16  107.49   11.30
  17   2  16   86.29   26.40
 -17   2  16   96.19   17.80
  17  -2  16   60.99   26.80
 -17   2  16   99.29   10.60
  18   0  16   79.29   28.30
  18   0  16  167.68   19.40
 -18   0  16  109.79   11.70
   0   0  17    5.10    7.40
   0   0  17    3.90    1.40
   0   0  17    2.80    1.80
   0  -1  17   -3.50    7.70
   0  -1  17    0.60    1.80
   0   1  17    0.10    1.30
   0  -1 -17    5.70    2.80
   0   1  17    2.50    7.30
   0  -2  17  131.39    7.00
   0  -2  17  141.59   15.40
   0  -2 -17  111.69    6.10
   0   2  17  124.89   16.80
   0   2  17  121.49    5.10
   0   3  17    0.30    1.80
   0  -3  17    1.40    4.00
   0   3  17   -2.10    9.30
   0  -3  17   -6.10    8.70
   0   4  17  365.06   12.70
   0   4  17  360.26   25.70
   0  -4  17  364.36   17.50
   0   5  17    3.70    3.30
   0   5  17   -3.30    9.90
   0  -5  17    1.30    6.50
   0  -6  17  585.44   40.30
   0   6  17  620.74   21.70
   0   6  17  650.93   34.50
   0   7  17   -1.00   14.30
   0   7  17    4.10    5.00
   0  -7  17   23.10   19.90
  -1   0  17    0.80    1.60
   1   0  17   -0.70    6.70
   1   0  17    2.20    1.40
  -1   0  17  -10.70    7.00
   1   0  17   -0.80    1.10
   1   1  17   79.49   12.50
   1   1  17   55.99    2.80
   1   1  17   57.59    2.90
  -1  -1  17   51.49   11.10
  -1  -1  17   60.79    4.20
  -1   1  17   69.19   12.10
   1  -1  17   75.19   11.80
   1  -1  17   62.49    3.90
  -1   1  17   64.49    3.70
   1  -1  17   66.29    4.50
  -1  -2  17   21.20    9.90
   1   2  17   24.40    2.40
  -1  -2  17   16.50    3.30
   1   2  17   28.40   11.30
   1  -2  17   21.70    3.10
  -1  -2 -17   25.60    2.70
   1  -2  17   27.60    9.30
  -1   2  17   28.00    2.70
  -1   2  17   17.80    9.70
  -1  -3  17   22.40    5.00
   1   3  17   26.90    2.80
  -1  -3  17   21.60   10.20
   1   3  17   29.50   11.70
   1  -3  17   25.40    4.80
   1  -3  17   21.40   10.40
  -1   3  17   17.20   11.50
  -1   3  17   17.50    2.50
  -1  -3 -17   13.70    2.70
   1   4  17   63.89   13.90
   1   4  17   67.59    4.50
  -1  -4  17   63.99    8.10
  -1   4  17   75.39   15.20
  -1   4  17   61.99    5.20
   1  -4  17   77.69   14.30
   1  -4  17   58.59    8.20
   1   5  17   24.80    3.60
  -1  -5  17   10.50    7.50
   1   5  17   26.10   11.60
  -1   5  17   14.60   10.50
  -1   5  17   10.70    3.90
   1   6  17   42.90   15.70
  -1  -6  17   25.60    9.50
  -1   6 -17   32.50    5.60
   1   6  17   30.10    5.00
  -1   6  17   28.70   12.40
  -1   6  17   36.80    5.40
   1  -6  17   36.60   17.30
  -1  -7  17   33.30   11.80
  -1  -7  17   31.40   19.50
   1   7  17   32.40    6.00
   1   7  17   30.20   15.00
  -1   7 -17   40.00    6.70
   1  -7  17   41.00   20.30
  -1   7  17   31.50    6.10
  -1   7  17   40.50   15.40
   2   0  17    7.80    7.40
  -2   0  17    2.40    7.60
  -2   0  17    0.40    1.60
   2   0  17    1.90    1.10
   2   0  17    0.60    0.90
  -2  -1  17   20.60   10.00
   2   1  17   29.50    9.70
  -2  -1  17   15.50    2.60
   2  -1  17   18.70    2.20
  -2   1  17   15.60    9.30
  -2   1  17   20.00    2.40
   2  -1  17   24.90    2.60
   2  -1  17   17.60    8.30
  -2  -2  17    2.20    9.40
  -2  -2  17   12.60    3.00
   2   2  17   12.10   10.10
   2   2  17    6.90    1.00
   2  -2  17    7.40    7.90
  -2   2  17    8.40    8.10
  -2  -2 -17    8.80    1.70
   2  -2  17    6.20    2.50
  -2   2  17    6.30    1.90
   2   3  17  199.68    6.80
   2   3  17  163.58   19.50
  -2  -3  17  184.58   10.60
   2  -3  17  193.38   17.80
  -2  -3 -17  187.68    7.00
  -2   3  17  195.58    8.10
  -2   3  17  186.28   20.30
   2  -3  17  208.28   11.00
   2   4  17    3.10    2.00
   2   4  17    9.20   10.90
  -2  -4  17    3.80    5.30
  -2   4  17    5.10    2.90
   2  -4  17    2.30    9.40
  -2   4  17   -8.30   10.10
  -2   5 -17  219.58   10.70
  -2  -5  17  221.38   15.20
   2   5  17  218.98    9.30
   2   5  17  247.48   22.30
   2  -5  17  224.58   22.20
  -2   5  17  225.28   10.90
  -2   5  17  259.57   22.20
   2  -5  17  189.88   24.00
   2   6  17   64.69   15.80
  -2   6 -17   55.09    6.70
   2   6  17   40.80    5.00
  -2  -6  17   51.19    9.80
   2  -6  17   75.49   19.20
  -2   6  17   42.90   13.60
  -2   6  17   54.29    6.50
  -2   7 -17  213.18   13.30
  -2  -7  17  215.98   25.40
   2   7  17  230.98   12.10
   2   7  17  244.18   27.90
  -2  -7  17  231.28   20.90
  -2   7  17  219.48   12.90
   2  -7  17  209.68   28.60
  -2   7  17  255.97   25.90
  -3   0  17    1.70    7.70
  -3   0  17    0.90    1.70
   3   0  17   -6.80    6.30
  -3  -1  17   37.00    4.20
  -3  -1  17   31.90   10.00
   3   1  17   52.99   12.00
  -3   1  17   30.80   10.40
   3  -1  17   41.10    3.00
   3  -1  17   32.80    2.90
  -3   1  17   40.00    3.40
   3  -1  17   39.00    9.80
  -3  -2  17    1.60    2.90
   3   2  17    5.20    9.70
  -3  -2  17   -5.40    9.00
   3  -2  17    5.10    2.60
  -3   2  17   -2.30    7.70
  -3   2  17    2.10    1.90
   3  -2  17    5.00    7.10
  -3  -3  17   56.69    6.60
   3   3  17   57.79   13.90
   3   3  17   63.69    2.80
   3  -3  17   51.89   11.10
  -3  -3 -17   60.19    3.20
   3  -3  17   74.49    7.70
  -3   3  17   64.29    5.20
  -3   3  17   54.39   13.10
  -3  -4  17   49.20    8.10
  -3   4 -17   59.69    5.30
   3   4  17   53.59    3.70
   3   4  17   55.09   12.50
   3  -4  17   68.29   12.90
  -3   4  17   55.19   13.10
  -3   4  17   60.19    6.10
   3   5  17    0.10    2.30
   3   5  17    3.20   10.20
  -3   5 -17   -4.60    3.20
  -3  -5  17    3.40    6.50
  -3   5  17   -2.70   11.00
   3  -5  17  -10.00   10.40
  -3   5  17   -2.20    3.80
   3  -5  17   29.40   15.40
  -3  -6  17   18.00    8.70
   3   6  17   23.60   13.30
  -3   6 -17   22.80    5.40
   3   6  17   26.60    4.20
   3  -6  17   21.70   13.40
  -3   6  17    5.00   10.70
   3  -6  17   41.50   18.70
  -3   6  17   25.40    5.50
  -3  -7  17    0.90   11.50
   3   7  17   -7.80   14.50
   3   7  17   -4.20    4.30
  -3  -7  17   10.50   18.20
  -3   7 -17  -15.50    5.10
  -3   7  17    8.30   13.70
   3  -7  17   21.90   20.50
   3  -7  17  -24.70   14.30
  -3   7  17    3.70    5.60
  -4   0  17    2.10    7.90
  -4   0  17    1.70    1.90
   4   0  17   -6.20    6.70
  -4  -1  17    3.40    2.40
   4   1  17    7.40    9.70
  -4  -1  17   12.00    9.60
  -4   1  17    8.80    2.30
   4  -1  17    6.60    1.30
   4  -1  17    9.90    1.50
   4  -1  17    2.80    6.80
  -4   1  17    3.80    8.10
  -4  -2  17    2.80    3.10
   4   2  17    6.10   10.20
  -4   2  17    3.80    7.90
  -4   2  17    5.50    2.40
   4  -2  17    3.90    7.00
   4  -2  17    5.80    2.50
   4   3  17   20.40   11.70
  -4  -3  17   13.90    4.60
   4  -3  17   31.20    9.20
  -4   3  17   30.30    4.10
  -4   3  17   30.50   11.20
   4   4  17    4.90    1.50
   4   4  17   -1.90    9.40
  -4  -4  17    9.70    5.60
  -4   4 -17    5.80    2.70
   4  -4  17    2.40   14.40
  -4   4  17    4.70   10.20
  -4   4  17    3.00    3.30
   4  -4  17   15.10    9.80
  -4  -5  17   26.30    8.30
   4   5  17   15.80   10.70
   4   5  17   46.40    4.00
  -4   5 -17   37.40    5.20
   4  -5  17   25.80   12.00
  -4   5  17   47.30   13.30
   4  -5  17   40.70   17.20
  -4   5  17   38.90    5.80
  -4   6 -17   -2.30    4.20
   4   6  17    8.50   11.60
  -4  -6  17    3.60    9.20
   4   6  17   14.20    3.80
  -4   6  17    6.60    4.90
   4  -6  17   12.20   19.10
   4  -6  17   11.90   12.30
  -4   6  17    3.50   11.50
  -4  -7  17    3.20   10.20
   4   7  17    6.60   14.60
  -4   7 -17   -0.70    5.40
  -4   7  17   13.70    6.20
   4  -7  17   17.30   15.50
  -4   7  17    0.00   13.90
   4  -7  17  -28.50   19.80
  -5   0  17   -1.20    2.10
   5   0  17   11.20    9.00
  -5   0  17   -5.60    8.10
  -5  -1  17   49.60    5.50
  -5  -1  17   54.69   11.70
   5   1  17   57.39   12.60
   5  -1  17   41.40    9.30
   5  -1  17   51.39    2.60
  -5   1  17   51.89   11.60
   5  -1  17   48.50    2.50
  -5   1  17   46.20    4.30
  -5  -2  17   58.49    6.20
   5   2  17   37.90   12.40
   5  -2  17   55.69    9.40
   5  -2  17   51.79    5.20
  -5   2  17   40.90   10.40
  -5   2  17   49.00    5.10
  -5  -3  17   30.40    5.30
   5   3  17   38.30   11.20
  -5   3 -17   37.70    3.60
   5  -3  17   55.29   10.30
  -5   3  17   32.40    4.30
  -5   3  17   39.40   11.00
   5   4  17    7.80    9.70
  -5   4 -17    5.00    2.80
  -5  -4  17    8.40    5.20
  -5   4  17    8.20    4.00
  -5   4  17   -2.80   11.10
   5  -4  17   18.70   14.70
   5  -4  17   12.30    9.10
  -5  -4 -17    5.00    2.60
  -5   5 -17    5.70    3.70
   5   5  17    8.00    2.20
   5   5  17   15.40   11.80
  -5  -5  17   -4.30    6.70
  -5   5  17   -2.90   11.50
   5  -5  17   17.80   16.70
   5  -5  17   14.70   11.30
  -5   5  17   -0.50    4.30
   5   6  17   28.50   14.10
  -5   6 -17   31.70    5.80
  -5  -6  17   34.30    9.80
   5  -6  17   30.30   13.10
   5  -6  17   64.39   21.30
  -5   6  17   39.40    6.30
  -5   6  17   25.70   13.20
   5   7  17   52.29   17.50
  -5   7 -17   59.39    7.70
  -5  -7  17   79.99   14.40
   5  -7  17   40.20   22.60
   5  -7  17   57.89   17.30
  -5   7  17   80.39   18.20
  -5   7  17   70.79    9.60
  -6   0  17   -8.20    7.80
  -6   0  17    2.50    2.60
   6   0  17    7.80    9.90
  -6  -1  17   -2.20    9.80
   6   1  17   12.10   10.20
  -6  -1  17    2.50    2.90
   6  -1  17   10.00    7.80
  -6   1  17   -0.80    8.90
  -6   1  17    2.60    2.70
   6   2  17   58.89   13.20
  -6  -2  17   59.09    6.60
  -6   2  17   48.20    5.30
  -6   2  17   47.70   11.00
   6  -2  17   39.50    9.00
  -6  -3  17    5.60    4.30
  -6   3 -17    3.10    2.00
   6   3  17    1.70    8.60
  -6   3  17   -0.10    9.00
   6  -3  17    0.20    6.90
  -6   3  17    8.40    3.30
   6  -3  17    9.00   14.90
  -6  -4  17  127.69   11.10
  -6   4 -17  120.89    7.00
   6   4  17  143.89   19.60
   6  -4  17  111.39   13.50
  -6   4  17  132.19    8.80
   6  -4  17  113.99   20.40
  -6   4  17  102.49   16.30
  -6   5 -17   -0.80    3.50
   6   5  17  -11.70   12.00
  -6  -5  17   -2.50    6.60
  -6   5  17    4.30    4.40
   6  -5  17   -1.20   16.60
  -6   5  17    5.00   11.70
   6  -5  17  -16.30    9.10
  -6  -6  17   86.89   11.90
  -6   6 -17   86.89    8.30
   6   6  17   94.39   18.50
   6  -6  17   90.59   14.80
  -6   6  17   88.29   15.30
   6  -6  17   86.29   22.20
  -6   6  17   93.49    9.90
  -6  -7  17    9.70   11.40
  -6   7 -17    7.90    5.50
  -6   7  17   12.30    6.80
  -7   0  17   -2.80    2.70
  -7   0  17    7.00    8.50
   7   0  17    5.30    9.50
  -7  -1  17   -0.10    3.10
   7   1  17   12.80   10.00
  -7   1  17    0.30    2.50
  -7   1  17  -13.10    9.20
   7  -1  17    0.10    8.70
   7   2  17    5.40   10.80
  -7  -2  17    1.20    3.80
  -7   2 -17    1.00    1.40
   7  -2  17    3.40   12.20
  -7   2  17    2.80    3.10
  -7   2  17    4.00    8.90
   7  -2  17   -3.00    7.00
  -7   3 -17   21.70    2.70
  -7  -3  17   26.70    6.00
   7   3  17   14.40   10.00
  -7   3  17   17.00   10.00
   7  -3  17   25.40    8.50
   7  -3  17   20.70   13.70
  -7   3  17   23.40    4.50
  -7  -4  17    1.00    4.70
   7   4  17    1.50   10.10
  -7   4 -17   -3.20    2.70
  -7   4  17    7.00    4.10
   7  -4  17    2.20    8.30
  -7   4  17    6.30   11.90
   7  -4  17   -1.30   14.20
  -7   5 -17    8.70    4.10
   7   5  17   23.90   13.00
  -7  -5  17    9.20    7.30
  -7   5  17    5.80    4.90
   7  -5  17   12.90    9.60
   7  -5  17   16.70   19.60
  -7   5  17    0.00   11.70
  -7   6 -17    7.60    4.80
  -7  -6  17   30.50   10.50
   7   6  17    6.90   14.00
  -7   6  17    9.40    6.00
  -7   6  17    2.70   11.80
   7  -6  17  -13.70   20.10
   7  -6  17   -5.90   10.70
  -8   0  17    5.60    3.20
  -8   0  17   -3.70    9.30
   8   0  17  -16.50    8.20
   8   1  17    9.70   10.00
  -8  -1  17    1.60    3.30
  -8   1  17    5.00    3.20
   8  -1  17    4.50    9.20
  -8   1  17   -4.00    9.30
   8  -1  17    9.90   14.40
  -8   2 -17   23.60    2.70
  -8  -2  17   24.70    5.20
   8   2  17   11.10   10.30
   8  -2  17    4.10    8.10
   8  -2  17   36.10   15.80
  -8   2  17   23.90    4.40
  -8   2  17   28.30   10.50
   8   3  17   39.60   11.40
  -8  -3  17   42.30    6.50
  -8   3 -17   53.59    4.40
  -8   3  17   52.09    6.00
  -8   3  17   51.09   11.80
   8  -3  17   52.59   10.50
   8  -3  17   44.80   17.10
  -8   4 -17   61.99    5.60
  -8  -4  17   51.29    8.20
   8   4  17   56.19   13.40
  -8   4  17   47.50   14.10
   8  -4  17   65.49   10.70
  -8   4  17   63.19    7.20
   8  -4  17   67.59   19.10
  -8   5 -17  103.79    8.40
  -8  -5  17  136.19   14.40
   8   5  17  113.49   17.30
  -8   5  17  122.99   10.00
   8  -5  17  155.68   26.70
   8  -5  17  111.19   12.70
  -8   5  17  120.59   17.30
  -8  -6  17    8.10    9.60
   8   6  17   25.50   16.10
  -8   6 -17   15.70    5.10
   8   6  17   -4.80   13.50
   8  -6  17   10.40   22.10
  -8   6  17    9.80   13.30
  -8   6  17   17.70    7.30
  -9   0  17   -0.40    3.50
   9   0  17   13.70   14.90
  -9   0  17    2.50    9.50
   9   0  17   -3.00    9.20
  -9  -1  17   16.70    4.30
   9   1  17   38.40   14.80
   9   1  17   19.10   10.50
   9  -1  17   24.30    9.50
  -9   1  17   16.70    9.90
  -9   1  17   18.00    4.20
   9  -1  17   20.00   16.00
  -9   2 -17    0.30    1.60
  -9  -2  17   -4.90    3.90
   9   2  17    8.50    8.50
   9   2  17  -26.40   12.10
  -9   2  17   -0.10    8.90
  -9   2  17    0.70    3.50
   9  -2  17    7.50    8.80
   9  -2  17    4.10   14.70
  -9  -3  17    1.90    4.70
   9   3  17  -16.20   12.90
  -9   3 -17    5.40    2.30
   9   3  17    2.50   10.70
  -9   3  17  -11.70    9.90
   9  -3  17   -4.10    8.60
   9  -3  17   -2.30   14.70
  -9   3  17    0.30    3.90
  -9   4 -17   -1.10    3.00
   9   4  17  -24.50   13.50
   9   4  17    9.20   11.00
  -9  -4  17   -0.90    6.20
   9  -4  17    6.20   17.90
   9  -4  17    0.70    9.20
  -9   4  17    1.50    4.40
  -9   4  17    2.30   11.70
  -9   5 -17    5.50    4.20
  -9  -5  17    5.30    7.50
   9   5  17   13.40   13.00
   9   5  17   35.10   14.90
  -9   5  17    0.00    5.20
   9  -5  17   23.00   20.60
  -9   5  17  -17.90   11.50
   9  -5  17    0.10    9.70
  -9  -6  17   -2.20    8.70
  -9   6 -17   -4.90    4.90
   9   6  17   20.50   15.60
  -9   6  17    4.40   13.40
  -9   6  17  -12.00    5.80
   9  -6  17   15.20   23.10
  10   0  17   23.60   15.10
 -10   0  17    6.10   10.60
 -10   0  17    0.70    3.70
  10   0  17    5.60    9.40
  10   1  17   10.90   10.00
 -10  -1  17    0.20    4.10
  10   1  17    6.20   13.10
 -10   1  17   -4.90    3.20
  10  -1  17   -7.70   14.60
 -10   1  17    2.30    9.40
  10  -1  17    0.60    9.50
  10   2  17    8.20   14.30
 -10  -2  17   -0.40    4.20
 -10   2 -17    3.10    1.90
  10   2  17   10.90    9.70
 -10   2  17    5.00    9.60
  10  -2  17   -4.90    8.20
  10  -2  17  -16.90   14.90
 -10   2  17    5.80    4.10
  10   3  17   26.90   11.20
 -10  -3  17   16.70    5.70
 -10   3 -17   14.30    3.00
  10   3  17   20.30   15.10
 -10   3  17   20.10    5.10
  10  -3  17    8.40   15.50
  10  -3  17    5.60    9.00
 -10   3  17   12.40   10.90
 -10  -4  17    3.10    5.70
  10   4  17   12.60   15.40
 -10   4 -17    4.70    3.30
  10   4  17   10.80   12.90
 -10   4  17   -4.70   11.40
  10  -4  17   -1.30   20.60
 -10   4  17   -2.70    4.30
  10  -4  17  -16.40    9.60
 -10  -5  17   64.89   10.20
  10   5  17   91.09   17.80
  10   5  17   78.09   19.00
 -10   5 -17   61.89    6.70
  10  -5  17   92.89   24.10
 -10   5  17   43.70   14.10
 -10   5  17   51.89    8.00
 -10   6 -17   40.10    6.50
  10   6  17   31.00   18.00
 -10  -6  17   32.50   11.10
  10  -6  17   16.70   24.40
 -10   6  17   39.20   14.70
 -10   6  17   42.20    8.00
 -11   0  17    4.50    3.60
 -11   0  17  -24.20    9.90
  11   0  17    5.30    9.20
  11   0  17  -14.80   14.80
 -11  -1  17   -2.00    4.10
  11   1  17    4.00    9.10
  11   1  17    5.80   14.80
  11  -1  17   -7.20    8.70
 -11   1  17   10.90   10.40
 -11   1  17    0.60    3.80
  11  -1  17  -15.20   13.90
 -11   2 -17    5.80    2.10
 -11  -2  17    1.60    4.70
  11   2  17   -9.60   13.70
  11   2  17   -3.10   10.60
  11  -2  17   22.00   17.60
  11  -2  17   -3.40    8.80
 -11   2  17    0.90    3.60
 -11   2  17   -3.80   10.60
 -11  -3  17   20.70    6.10
  11   3  17   26.20   13.00
  11   3  17   26.60   17.10
 -11   3 -17   21.50    3.40
  11  -3  17    6.40   18.50
 -11   3  17   19.90   11.70
  11  -3  17    3.30    9.20
 -11   3  17   19.90    5.20
  11   4  17   80.19   17.30
 -11  -4  17   68.69   10.00
 -11   4 -17   80.89    7.30
  11   4  17   69.39   18.90
 -11   4  17   57.79   15.00
  11  -4  17   66.69   11.70
  11  -4  17   50.89   20.30
 -11   4  17   81.59    9.00
  11   5  17   17.60   14.30
 -11  -5  17    9.90    8.30
 -11   5 -17    6.40    4.80
  11   5  17    5.10   17.80
 -11   5  17  -33.70   12.30
 -11   5  17    8.00    5.90
  11  -5  17   12.10   19.90
  12   0  17    5.70   15.70
 -12   0  17    4.00    4.30
  12   0  17   -5.00    9.10
 -12   0  17  -11.30   11.10
  12   1  17    1.80   16.40
  12   1  17    8.50    9.60
 -12  -1  17    3.30    4.10
 -12   1  17   -5.10   11.40
  12  -1  17   -0.70   17.00
 -12   1  17    0.50    3.90
  12  -1  17    2.30    9.20
  12   2  17   24.90   17.70
 -12  -2  17    3.40    4.90
 -12   2 -17   18.20    2.50
  12   2  17   26.80   11.10
  12  -2  17   19.10   19.00
 -12   2  17   20.80    4.90
 -12   2  17   11.20   11.80
  12  -2  17   29.50    9.80
 -12  -3  17   17.70    6.70
 -12   3 -17   17.20    3.50
  12   3  17   25.10   17.80
  12   3  17   17.80   12.50
  12  -3  17   31.60    9.70
  12  -3  17   13.20   18.90
 -12   3  17   10.90    4.90
 -12   3  17    4.20   11.10
 -12   4 -17   65.29    7.30
 -12  -4  17   46.40    8.60
  12   4  17   47.20   16.90
  12   4  17   32.10   19.10
  12  -4  17   22.60   21.00
 -12   4  17   43.10   14.20
 -12   4  17   48.10    7.80
  12   5  17   19.40   18.60
  12   5  17   17.70   15.60
 -12  -5  17   18.90    8.60
 -12   5 -17    2.80    4.70
 -12   5  17   10.00    6.70
  12  -5  17   14.50   23.50
 -12   5  17  -27.80   12.70
  13   0  17  -13.50    9.60
 -13   0  17    4.20    4.60
 -13   0  17   -0.50   11.30
  13   0  17   12.60   16.90
  13   1  17   -8.20   17.40
  13   1  17   21.30   11.50
 -13  -1  17    8.20    4.70
  13  -1  17   40.30   10.80
 -13   1  17   26.60   13.40
  13  -1  17    8.60   19.90
 -13   1  17   13.00    4.80
  13   2  17    3.90   17.60
 -13  -2  17   19.70    6.30
  13   2  17   32.90   13.20
  13  -2  17   14.10   20.80
 -13   2  17   15.00    5.40
 -13   2  17   33.00   13.20
  13  -2  17   53.99   11.10
 -13   3 -17   -8.60    3.50
 -13  -3  17   -2.50    5.60
  13   3  17   28.10   19.30
  13   3  17   -4.40   12.90
 -13   3  17   -9.60   11.00
  13  -3  17  -17.30   21.10
 -13   3  17   12.90    6.00
  13  -3  17    5.70    8.90
  13   4  17   -3.80   18.00
 -13  -4  17   -5.60    7.20
 -13   4 -17    6.50    4.40
  13   4  17   16.90   15.60
 -13   4  17    7.10    6.10
 -13   4  17   -2.80   12.30
  13  -4  17    6.80   21.30
 -13   5 -17   18.20    5.60
 -13   5  17    9.60    7.40
 -14   0  17   -4.50    4.40
  14   0  17   25.00   11.50
 -14   0  17  -10.30   13.60
  14   0  17    2.50   19.30
  14   1  17   12.80   18.30
 -14  -1  17   14.40    5.70
  14   1  17   21.20   12.40
 -14   1  17   13.90    5.40
  14  -1  17   10.80   10.90
  14  -1  17   22.30   19.40
 -14   1  17   12.80   12.80
  14   2  17    9.80   18.70
  14   2  17   21.60   13.60
 -14  -2  17    7.20    5.20
  14  -2  17    7.10   19.80
  14  -2  17    7.00    9.90
 -14   2  17   -2.50   12.50
 -14   2  17    8.40    5.40
  14   3  17  117.39   19.50
  14   3  17   79.19   23.20
 -14  -3  17   87.79   10.40
  14  -3  17   67.89   24.20
 -14   3  17   93.79   10.80
 -14   3  17   87.59   15.90
  14   4  17   17.00   16.60
 -14   4 -17    9.00    4.70
  14   4  17   23.20   21.60
 -14  -4  17    1.00    7.60
  14  -4  17   19.10   25.20
 -14   4  17   -4.80   13.30
 -14   4  17   11.70    7.10
 -15   0  17    5.80    5.30
 -15   0  17   -0.20   14.20
  15   0  17   -7.10   18.60
  15   0  17   -3.40   11.40
  15   1  17   20.00   13.50
 -15  -1  17    7.20    6.30
  15   1  17   47.40   23.40
 -15   1  17   15.70    6.30
  15  -1  17  -25.30   18.60
 -15   1  17   11.60   14.50
  15  -1  17   50.49   13.30
  15   2  17   24.50   15.00
 -15  -2  17   17.70    7.20
  15   2  17   -5.80   22.10
  15  -2  17  -28.10   21.10
 -15   2  17   15.10    6.40
 -15   2  17    6.50   13.10
  15  -2  17   17.80   11.40
 -15  -3  17   70.79   10.10
  15   3  17   90.59   24.70
  15   3  17   80.49   17.90
 -15   3  17   68.19   15.00
 -15   3  17   60.19    8.90
  15  -3  17   32.80   22.10
  16   0  17   -6.40   12.10
 -16   0  17    7.80    6.20
 -16   0  17  -10.60   14.90
  16   0  17   15.20   21.00
  16   1  17   17.10   13.50
 -16  -1  17   13.30    7.00
  16   1  17   15.30   22.70
 -16   1  17    4.80   15.60
  16  -1  17   37.30   13.10
 -16   1  17   13.90    6.10
  16  -1  17   14.90   23.10
 -16  -2  17    9.90    7.10
  16   2  17   14.70   15.40
  16   2  17   21.60   22.60
 -16   2  17    7.00    6.20
 -16   2  17   -4.50   14.20
  16  -2  17   13.30   20.90
  16   3  17   88.59   20.00
 -16  -3  17   62.49   10.10
  16   3  17   37.90   25.80
 -16   3  17   36.20   15.20
  16  -3  17   11.00   25.10
 -16   3  17   42.60    8.30
 -17   0  17   26.10   17.90
  17   0  17   24.30   13.60
 -17   0  17   11.30    6.90
  17   0  17   25.10   26.10
  17   1  17    3.10   15.40
 -17  -1  17    1.60    6.70
  17   1  17   36.60   25.60
 -17   1  17   22.20   18.10
  17  -1  17   23.20   25.50
 -17   1  17   16.90    6.80
  17  -1  17   23.80   13.10
   0   0  18  130.79    5.80
   0   0  18  112.19   15.40
   0   0  18  138.99    5.40
   0  -1  18    8.90    9.40
   0   1  18    2.00    1.40
   0   1  18    0.10    7.30
   0  -1  18   -0.40    1.80
   0  -2  18   95.79   14.90
   0   2  18  101.49    4.50
   0   2  18   95.59   14.10
   0  -2  18   95.79    6.40
   0  -2 -18   76.49    6.00
   0   3  18    3.50    1.90
   0  -3  18   -0.40    4.10
   0   3  18   14.60   11.00
   0  -3  18   -1.90    9.80
   0   4  18    4.20    2.30
   0  -4  18  -10.60    5.20
   0  -4  18   -4.60   10.40
   0   4  18    5.50   11.50
   0   5  18   -1.40    3.30
   0   5  18   10.40   10.40
   0  -5  18   -6.30    6.90
   0  -6  18   37.30   10.10
   0   6  18   39.00   13.90
   0  -6  18   35.50   18.60
   0   6  18   36.70    5.70
   0   7  18  -11.10   14.30
   0  -7  18    3.90   21.60
   0   7  18   11.10    5.50
   0  -7  18   10.10   12.00
   1   0  18  741.93   21.60
   1   0  18  757.12   21.50
   1   0  18  722.53   32.80
  -1   0  18  763.72   33.80
  -1   0  18  732.23   22.30
  -1  -1  18  281.27   10.50
   1   1  18  295.27    8.90
   1   1  18  281.57   20.20
  -1  -1  18  284.57   20.40
   1   1  18  286.27    8.90
  -1   1  18  262.17   19.40
   1  -1  18  293.17   10.10
  -1   1  18  292.07    9.80
   1  -1  18  297.07   20.90
  -1  -2  18  355.06   13.80
   1   2  18  387.16   24.30
   1   2  18  362.96   11.10
  -1  -2  18  349.27   24.20
  -1   2  18  356.36   22.50
   1  -2  18  358.06   13.30
  -1   2  18  373.06   12.00
  -1  -2 -18  353.46   11.90
   1  -2  18  358.86   23.50
   1   3  18  253.07    8.60
  -1  -3  18  207.38   11.90
   1   3  18  232.28   22.10
  -1  -3  18  262.57   22.00
  -1   3  18  267.87    9.40
   1  -3  18  255.97   21.40
  -1   3  18  274.47   23.50
   1  -3  18  243.78   12.40
  -1  -4  18  209.88   13.30
   1   4  18  184.88   21.70
   1   4  18  209.78    8.10
   1  -4  18  230.88   14.10
   1  -4  18  196.68   20.50
  -1   4  18  201.48   21.70
  -1   4  18  207.48    9.10
  -1  -5  18    6.40    6.70
   1   5  18    7.20    3.10
   1   5  18   10.90   11.80
  -1   5  18    9.70    3.80
   1  -5  18    2.70    6.90
   1  -5  18   12.70   12.30
  -1   5  18   10.00   11.70
  -1  -6  18   12.30    9.20
   1   6  18   33.00    4.90
   1   6  18   19.80   12.20
  -1   6  18   17.90   14.00
  -1   6  18   20.60    4.90
   1  -6  18   28.00   18.00
  -1  -7  18   50.49   12.90
   1   7  18   43.60    6.50
   1   7  18   56.39   16.60
  -1  -7  18   80.09   21.40
  -1   7  18   37.70    6.80
   1  -7  18   35.60   22.20
  -1   7  18   74.49   17.50
  -2   0  18    0.80    1.70
   2   0  18    5.90    8.50
   2   0  18    3.20    1.30
  -2   0  18    2.90    8.60
   2   0  18    0.30    1.00
   2   1  18   -3.80    7.60
  -2  -1  18    3.30    7.70
  -2  -1  18    1.90    2.00
   2  -1  18    5.20    2.20
  -2   1  18   -1.70    7.60
   2  -1  18   -4.40    8.40
   2  -1  18    0.70    1.60
  -2   1  18    1.50    1.60
   2   2  18  174.28   18.90
  -2  -2  18  171.78    8.80
  -2  -2  18  177.38   19.20
  -2   2  18  169.18    7.10
   2  -2  18  162.08   17.20
  -2   2  18  144.19   17.00
   2  -2  18  185.88    8.20
  -2  -3  18    6.50   10.60
  -2  -3  18   -1.90    3.90
   2   3  18   -4.00    9.40
   2  -3  18   10.70    9.70
  -2   3  18   -0.10    2.10
   2  -3  18   -2.80    3.70
  -2   3  18   -0.60   10.80
   2   4  18   21.10    2.40
  -2  -4  18   15.40    5.80
   2   4  18    2.20   11.10
   2  -4  18   11.40   10.40
   2  -4  18   13.00    6.30
  -2   4  18   19.30   11.30
  -2   4  18    6.90    3.20
  -2  -5  18   19.30    7.90
   2   5  18   39.20   12.00
   2   5  18   25.20    3.50
   2  -5  18    2.10   12.20
  -2   5  18   22.80    4.60
  -2   5  18   46.80   14.60
  -2   6 -18   12.20    4.90
   2   6  18   -0.20   11.10
  -2  -6  18  -10.00    8.30
   2   6  18    6.00    3.70
  -2   6  18   26.00   14.30
   2  -6  18   37.80   14.30
   2  -6  18   25.20   17.50
  -2   6  18   15.70    5.10
  -2   7 -18    4.50    5.60
  -2  -7  18  -18.60   18.50
   2   7  18   -4.20   14.90
  -2  -7  18   -9.80   11.70
   2  -7  18   19.10   16.70
  -2   7  18    6.60   14.80
  -2   7  18   11.80    5.60
   2  -7  18  -15.10   20.90
  -3   0  18  334.57   11.50
   3   0  18  310.57   20.10
  -3   0  18  301.67   21.30
  -3  -1  18   71.99    5.50
   3   1  18   95.39   13.90
  -3  -1  18   94.49   15.10
   3  -1  18  109.49   14.60
  -3   1  18  103.79   14.70
   3  -1  18   89.59    4.10
   3  -1  18   82.49    4.10
  -3   1  18   89.99    4.90
  -3  -2  18   93.09   14.70
  -3  -2  18  110.79    7.50
   3   2  18  101.09   15.30
   3  -2  18   97.99    6.10
   3  -2  18  125.19   15.90
  -3   2  18  106.59    5.80
  -3   2  18  109.59   14.50
  -3  -3  18   43.50    6.10
   3   3  18   44.40   13.40
   3  -3  18   37.30   10.80
   3  -3  18   46.90    5.50
  -3   3  18   32.50   12.80
  -3   3  18   33.30    3.90
   3   4  18  222.98   22.10
   3   4  18  218.98    7.70
  -3  -4  18  220.08   14.10
   3  -4  18  197.18   20.40
  -3   4  18  243.28   10.40
  -3   4  18  205.08   21.20
  -3   5 -18   61.19    6.70
  -3  -5  18   70.19    9.80
   3   5  18   64.19    4.70
   3   5  18   81.19   15.90
  -3   5  18   63.19    6.40
   3  -5  18   39.30   17.00
   3  -5  18   41.20   13.40
  -3   5  18   51.49   14.50
   3   6  18   62.79   15.80
   3   6  18   83.19    8.40
  -3  -6  18   75.59   12.20
  -3   6 -18   69.59    8.10
  -3   6  18   59.59    7.20
  -3   6  18   59.79   15.10
   3  -6  18  111.79   22.00
   3  -6  18   63.79   15.90
  -3  -7  18    6.10   19.50
   3   7  18   13.10   15.30
  -3   7 -18    1.50    5.40
  -3  -7  18    3.50   11.00
  -3   7  18    6.20    5.90
  -3   7  18   19.20   16.10
   3  -7  18   25.50   15.40
   3  -7  18   -1.50   20.60
  -4   0  18    4.50    2.20
   4   0  18    6.20    8.80
  -4   0  18    8.80    9.60
  -4  -1  18  138.59   17.50
  -4  -1  18  125.29    7.40
   4   1  18  107.89   15.50
   4  -1  18  137.19    4.90
  -4   1  18  123.69   16.70
  -4   1  18  128.09    6.50
   4  -1  18  130.99    4.80
   4  -1  18  124.29   15.30
   4   2  18    3.60    8.90
  -4  -2  18    8.00    3.30
  -4  -2  18   14.50    9.80
  -4   2  18    5.20    2.50
  -4   2  18   -5.70    8.00
   4  -2  18    1.10    8.10
   4  -2  18    1.20    2.50
  -4  -3  18   -1.70    4.20
   4   3  18   11.30   11.20
   4  -3  18    6.80    4.40
  -4   3  18    7.40   10.30
  -4   3  18    4.30    3.20
   4  -3  18    9.60    8.60
  -4  -4  18   -5.10    5.10
   4   4  18   -5.70    8.70
  -4   4 -18    6.70    2.70
  -4   4  18    1.10    3.50
  -4   4  18   -4.90   11.70
   4  -4  18  -18.70    9.20
   4   5  18   -7.80   11.90
  -4   5 -18    2.10    3.40
  -4  -5  18    0.10    6.80
  -4   5  18    3.30    4.40
   4  -5  18  -17.80   10.80
  -4   5  18  -11.30   11.20
   4  -5  18  -19.10   15.10
   4   6  18    1.00   13.40
  -4  -6  18    1.00    9.30
  -4   6 -18   10.30    4.20
  -4   6  18   10.10   12.50
   4  -6  18   15.00   20.10
  -4   6  18    4.10    5.30
   4  -6  18    1.30   13.70
   5   0  18  908.81   39.00
  -5   0  18  896.31   40.20
  -5   0  18 1004.30   29.40
  -5  -1  18  227.68   21.20
  -5  -1  18  219.18   10.00
   5   1  18  244.58   21.20
  -5   1  18  206.38   19.40
  -5   1  18  229.38    9.60
   5  -1  18  232.28   18.10
   5   2  18  635.94   32.90
  -5  -2  18  652.53   22.80
  -5   2  18  666.63   21.50
  -5   2  18  690.43   32.40
   5  -2  18  662.83   21.00
   5  -2  18  632.74   29.60
  -5  -3  18  225.38   12.80
   5   3  18  246.18   22.30
   5  -3  18  269.97   19.50
  -5   3  18  268.77   21.40
  -5   3  18  244.88   10.80
  -5   4 -18  430.56   15.30
  -5  -4  18  433.56   19.70
   5   4  18  414.36   27.30
   5  -4  18  427.26   33.70
  -5   4  18  437.96   28.20
   5  -4  18  445.86   24.90
  -5   4  18  448.56   16.80
   5   5  18  215.38   23.90
  -5  -5  18  206.88   15.50
  -5   5 -18  198.18   10.30
  -5   5  18  203.48   11.60
   5  -5  18  216.98   21.60
   5  -5  18  191.88   25.00
  -5   5  18  188.88   21.90
  -5   6 -18  145.49   10.20
  -5  -6  18  153.08   16.10
   5   6  18  144.79   21.50
  -5   6  18  158.68   11.70
   5  -6  18  143.99   18.90
  -5   6  18  203.08   22.20
   5  -6  18  174.68   27.40
  -6   0  18   28.80    4.00
   6   0  18   34.50   11.30
  -6   0  18   22.30   11.30
   6   1  18   -2.20    9.00
  -6  -1  18   11.20   10.20
  -6  -1  18    1.30    3.10
   6  -1  18    2.30    9.20
  -6   1  18    8.20    9.50
  -6   1  18    5.80    2.80
   6   2  18    2.70   10.90
  -6  -2  18   13.70    4.50
   6  -2  18   18.60    3.10
  -6   2  18   15.10    3.40
   6  -2  18    9.10    8.20
  -6   2  18    6.50    9.70
  -6  -3  18   19.10    5.40
   6   3  18   20.20    9.60
  -6   3 -18   22.80    2.80
  -6   3  18   11.00    9.90
   6  -3  18   28.30   10.20
  -6   3  18   15.30    4.00
   6  -3  18  -11.30   14.20
   6   4  18  145.89   18.10
  -6   4 -18  155.68    7.80
  -6  -4  18  158.48   11.90
   6  -4  18  144.09   17.20
   6  -4  18  126.09   21.40
  -6   4  18  131.49    9.40
  -6   4  18  144.09   18.90
   6   5  18    8.20   11.50
  -6   5 -18   -1.70    3.80
  -6  -5  18    5.80    6.90
   6  -5  18  -11.20   17.60
  -6   5  18    1.30    4.70
   6  -5  18    6.90   10.20
  -6   5  18  -10.00   12.50
   6   6  18  102.69   18.20
  -6   6 -18  115.49    9.30
  -6  -6  18   95.39   13.20
  -6   6  18  101.99   18.10
   6  -6  18  117.99   16.30
   6  -6  18  122.69   27.10
  -6   6  18   93.09   10.80
   7   0  18  298.27   21.30
  -7   0  18  296.57   23.80
  -7   0  18  313.87   12.70
  -7  -1  18   39.40   13.00
   7   1  18   28.60   11.80
  -7  -1  18   33.30    4.70
   7  -1  18   28.20   10.80
  -7   1  18   36.30   11.10
  -7   1  18   29.40    4.10
   7   2  18  136.09   17.80
  -7  -2  18  137.39    9.50
   7  -2  18  139.79    7.50
  -7   2  18  146.39   17.70
  -7   2  18  142.99    8.40
   7  -2  18  122.19   19.40
   7  -2  18  117.59   15.90
   7   3  18   38.10   12.00
  -7   3 -18   48.70    4.00
  -7  -3  18   41.50    6.50
  -7   3  18   46.90   12.60
   7  -3  18   49.20   11.10
  -7   3  18   42.40    5.50
   7  -3  18   36.60   17.50
  -7   4 -18  134.99    7.50
   7   4  18  157.68   19.20
  -7  -4  18  138.99   12.20
   7  -4  18  127.49   17.20
  -7   4  18  126.29   18.30
   7  -4  18  164.48   25.20
  -7   4  18  147.29    9.90
  -7  -5  18   36.00    8.90
  -7   5 -18   26.80    4.80
   7   5  18   42.80   14.20
  -7   5  18   35.80    6.20
   7  -5  18   38.10   11.70
   7  -5  18   13.90   20.50
  -7   5  18    8.40   13.70
  -7  -6  18   27.30    9.80
  -7   6 -18   37.00    6.00
   7   6  18   11.40   15.20
  -7   6  18   29.10   14.20
   7  -6  18   44.60   14.80
  -7   6  18   33.30    7.30
   7  -6  18   17.40   22.10
  -8   0  18   22.20   11.10
   8   0  18   15.30   10.60
  -8   0  18   13.30    3.90
  -8  -1  18   -6.00    9.70
   8   1  18   -9.90    9.50
  -8  -1  18   -2.20    3.30
   8  -1  18    2.90   12.90
  -8   1  18    2.10    3.10
  -8   1  18    7.30   10.20
   8  -1  18   -8.10    8.80
   8   2  18    9.40   10.00
  -8  -2  18    8.90    4.40
  -8   2  18   12.00    3.60
   8  -2  18    1.10   14.90
   8  -2  18    6.50    9.50
  -8   2  18    0.60    9.80
  -8  -3  18   -0.10    4.80
   8   3  18    3.00   10.30
  -8   3 -18   -1.60    2.10
  -8   3  18    0.40    9.70
   8  -3  18    1.90    8.80
  -8   3  18   -1.40    4.00
   8  -3  18  -14.00   14.60
  -8   4 -18    1.40    3.00
  -8  -4  18    6.90    5.50
   8   4  18   11.20   12.70
  -8   4  18   -5.10   11.90
   8  -4  18   -8.60    8.70
   8  -4  18  -21.10   15.80
  -8   4  18   -1.90    4.50
  -8   5 -18    2.20    4.10
   8   5  18    2.90   13.10
  -8  -5  18    7.40    8.00
  -8   5  18   -3.60   13.60
  -8   5  18    1.40    4.90
   8  -5  18   21.20   21.50
   8  -5  18  -23.50    9.30
  -8   6 -18    8.70    5.10
  -8  -6  18  -11.00    9.20
   8   6  18   -0.20   14.20
   8   6  18  -20.50   16.70
  -8   6  18    2.40    6.50
  -8   6  18   -7.30   13.10
   8  -6  18   26.30   23.00
  -9   0  18  436.76   16.30
   9   0  18  390.76   24.60
   9   0  18  384.16   31.80
  -9   0  18  391.06   27.20
   9   1  18   53.49   12.60
   9   1  18   73.89   17.20
  -9  -1  18   69.79    7.60
   9  -1  18   58.99   17.20
   9  -1  18   61.09   12.70
  -9   1  18   70.79   13.20
  -9   1  18   56.39    6.60
  -9  -2  18  227.68   12.50
  -9   2 -18  234.38    7.80
   9   2  18  247.48   20.80
   9  -2  18  196.38   25.50
   9  -2  18  184.68   19.10
  -9   2  18  240.08   21.00
  -9   2  18  219.98   11.20
  -9   3 -18   33.80    3.40
  -9  -3  18   36.80    6.90
   9   3  18   25.90   12.00
  -9   3  18   54.49   13.20
   9  -3  18   11.00   10.60
   9  -3  18   16.50   16.50
  -9   3  18   27.30    5.30
   9   4  18  165.88   20.90
   9   4  18  179.28   24.10
  -9  -4  18  193.88   13.90
  -9   4 -18  178.18    8.80
   9  -4  18  150.38   16.10
   9  -4  18  179.68   28.80
  -9   4  18  167.68   20.00
  -9   4  18  191.98   11.30
  -9  -5  18   14.00    7.70
   9   5  18    5.10   14.30
   9   5  18  -14.50   15.40
  -9   5 -18    1.10    4.10
   9  -5  18    2.30    9.90
  -9   5  18    5.10    5.10
  -9   5  18   -8.80   12.50
   9  -5  18    9.60   21.40
  -9   6 -18   61.79    7.20
   9   6  18   48.70   18.40
  -9  -6  18   65.09   11.50
  -9   6  18   61.29    9.10
   9  -6  18   43.70   26.40
  -9   6  18   65.49   16.20
  10   0  18   35.00   11.10
  10   0  18    8.00   13.20
 -10   0  18   23.40   12.20
 -10   0  18   27.00    5.00
 -10  -1  18   26.30    5.10
  10   1  18   45.80   17.00
  10   1  18   32.60   10.80
  10  -1  18   30.80   11.00
  10  -1  18   36.80   15.20
 -10   1  18   26.50    4.90
 -10   1  18   33.70   12.00
  10   2  18   75.39   14.60
  10   2  18   67.39   18.10
 -10  -2  18   76.79    8.10
 -10   2 -18   71.69    3.90
 -10   2  18   56.19    6.50
  10  -2  18   59.29   12.10
 -10   2  18   75.09   13.60
  10  -2  18   57.19   18.40
 -10  -3  18   12.00    6.00
  10   3  18   31.30   16.20
  10   3  18   32.90   12.60
 -10   3 -18   27.00    3.30
 -10   3  18   23.40   12.10
 -10   3  18   14.10    5.20
  10  -3  18   13.90   10.80
  10  -3  18   32.50   19.90
 -10  -4  18   -2.90    6.10
  10   4  18  -20.30   15.10
  10   4  18   -2.40   11.40
 -10   4  18    2.50   13.00
 -10   4  18   11.90    5.10
  10  -4  18  -23.40    9.20
  10  -4  18    8.30   19.30
 -10   5 -18   39.80    5.80
 -10  -5  18   55.19   10.20
  10   5  18   35.00   16.70
  10   5  18   18.00   18.50
 -10   5  18   23.60   15.00
 -10   5  18   44.70    7.40
  10  -5  18   14.70   22.30
 -11   0  18   76.59   15.80
 -11   0  18   69.19    7.10
  11   0  18   62.49   19.70
  11   0  18  127.29   16.70
 -11  -1  18  402.86   17.40
  11   1  18  407.46   25.00
  11   1  18  402.86   34.10
 -11   1  18  392.66   27.90
  11  -1  18  430.86   36.90
  11  -1  18  416.76   24.70
 -11   1  18  419.46   16.80
 -11  -2  18   36.20    6.60
  11   2  18   42.90   17.40
  11   2  18   58.19   14.10
  11  -2  18   53.39   12.20
  11  -2  18   34.60   18.50
 -11   2  18   42.60   12.90
 -11   2  18   46.00    6.40
 -11  -3  18  300.57   16.10
 -11   3 -18  303.87   11.00
  11   3  18  342.17   33.90
  11   3  18  325.87   26.60
  11  -3  18  224.68   29.60
  11  -3  18  216.28   20.00
 -11   3  18  292.37   14.40
 -11   3  18  257.27   24.50
  11   4  18   13.30   14.00
 -11  -4  18    2.70    6.10
  11   4  18    1.70   16.60
 -11   4 -18    7.00    3.80
  11  -4  18    2.20    9.60
 -11   4  18   -4.70   12.80
 -11   4  18   12.90    5.70
  11  -4  18    4.50   20.30
 -11   5 -18   85.99    8.70
  11   5  18   78.69   18.10
  11   5  18   94.79   23.00
 -11  -5  18   86.39   11.10
  11  -5  18   95.59   26.60
 -11   5  18   62.79   16.90
 -11   5  18   76.09    9.30
  12   0  18   43.90   20.10
  12   0  18   57.09   12.60
 -12   0  18   34.50    5.80
 -12   0  18   22.00   14.20
  12   1  18   17.00   10.90
 -12  -1  18    6.80    4.80
  12   1  18   10.90   17.30
  12  -1  18   33.20   19.60
 -12   1  18   13.30    4.60
  12  -1  18   31.10   10.50
 -12   1  18   16.00   12.00
  12   2  18   73.29   21.50
  12   2  18   87.89   15.30
 -12  -2  18   69.89    8.00
  12  -2  18   70.59   12.70
 -12   2  18   69.39   15.10
 -12   2  18   63.29    7.30
  12  -2  18   61.19   20.50
  12   3  18    7.80   13.70
 -12  -3  18   14.10    6.60
 -12   3 -18    3.00    2.90
  12   3  18   20.40   19.30
 -12   3  18   -1.30   11.80
 -12   3  18   16.70    5.30
  12  -3  18    7.70    9.30
  12  -3  18   24.40   22.00
 -12  -4  18   43.60    8.90
 -12   4 -18   31.30    5.00
  12   4  18   54.39   19.90
  12   4  18   48.00   17.20
  12  -4  18   47.10   23.30
 -12   4  18   33.10    7.30
 -12   4  18   37.80   15.40
 -12  -5  18   -1.70    9.00
  12   5  18   42.00   19.90
  12   5  18   -9.60   15.60
 -12   5 -18    3.20    4.70
  12  -5  18  -34.20   22.20
 -12   5  18   16.50    7.30
 -12   5  18   -2.20   14.70
 -13   0  18   89.99   18.00
  13   0  18   98.29   23.70
  13   0  18  102.59   15.60
 -13   0  18   89.49    9.20
 -13  -1  18  310.07   15.50
  13   1  18  300.07   33.90
  13   1  18  361.36   24.90
  13  -1  18  300.37   37.90
  13  -1  18  331.37   22.80
 -13   1  18  298.07   14.90
 -13   1  18  332.97   27.60
  13   2  18   62.09   14.80
  13   2  18  110.99   23.70
 -13  -2  18   84.69    9.50
  13  -2  18   82.19   26.20
  13  -2  18  102.59   13.40
 -13   2  18   83.79    8.60
 -13   2  18   58.69   14.90
  13   3  18  195.08   28.90
  13   3  18  263.47   26.20
 -13  -3  18  223.48   14.20
  13  -3  18  216.38   32.30
  13  -3  18  207.68   17.30
 -13   3  18  200.38   13.40
 -13   3  18  198.28   22.80
  13   4  18   89.79   19.00
 -13   4 -18   50.19    6.40
  13   4  18   78.19   22.80
 -13  -4  18   85.99   11.30
 -13   4  18   70.79    8.80
 -13   4  18   64.29   16.10
  13  -4  18   38.20   22.80
  14   0  18   44.00   20.20
 -14   0  18    8.30   14.70
  14   0  18   23.20   11.40
  14   1  18   -8.60   11.90
 -14  -1  18   -5.90    5.30
  14   1  18    4.40   19.20
  14  -1  18    3.40   20.10
 -14   1  18   -3.30   12.20
 -14   1  18   -9.60    5.00
  14  -1  18   10.10   11.10
  14   2  18   17.50   20.70
  14   2  18   17.70   15.80
 -14  -2  18    5.90    5.90
 -14   2  18   -4.80   13.50
 -14   2  18    7.20    5.50
  14  -2  18   -0.80   10.90
  14  -2  18   23.20   21.70
  14   3  18   -2.00   15.10
  14   3  18   18.70   21.10
 -14  -3  18    5.20    6.80
 -14   3  18    0.30    5.90
  14  -3  18   24.80   20.20
 -14   3  18    6.80   13.30
 -14  -4  18   15.20    8.70
  14   4  18   15.60   20.70
  14   4  18   13.40   16.40
  14  -4  18   18.70   25.50
  15   0  18    0.50   21.10
  15   0  18   36.80   14.10
 -15   0  18   24.50    6.60
 -15   0  18   33.20   16.70
 -15  -1  18    4.00    6.30
  15   1  18   26.00   14.10
  15   1  18    9.70   20.80
  15  -1  18   15.40   13.00
 -15   1  18    9.20    5.90
  15  -1  18   12.30   22.50
 -15   1  18   -6.20   14.80
  15   2  18   66.19   24.10
  15   2  18   50.79   15.90
 -15  -2  18   35.70    8.20
  15  -2  18   71.39   14.30
 -15   2  18   43.90    8.00
 -15   2  18   14.90   14.80
  15  -2  18   57.59   24.50
  15   3  18   11.20   16.20
  15   3  18   15.90   23.60
 -15  -3  18    4.60    7.20
  15  -3  18  -18.80   21.40
 -15   3  18    6.90    6.70
 -15   3  18    9.10   14.30
 -16   0  18    9.50   16.60
 -16   0  18   10.70    6.40
  16   0  18    3.20   13.80
  16   0  18   14.70   22.80
  16   1  18   55.19   24.80
 -16  -1  18    4.80    6.30
  16   1  18   18.20   15.20
 -16   1  18    2.90   16.80
  16  -1  18  -12.20   23.20
  16  -1  18   19.60   14.10
 -16   1  18    5.30    6.40
  16   2  18   -4.30   23.80
  16   2  18    7.70   15.30
 -16  -2  18    0.90    6.90
 -16   2  18   -4.10    6.30
 -16   2  18  -22.90   15.60
  16  -2  18   13.00   22.90
   0   0  19    1.20    1.60
   0   0  19    1.30    2.30
   0   0  19    3.40    8.30
   0   1  19    7.70    8.40
   0   1  19   -0.90    1.40
   0  -1  19    8.00    8.70
   0   1  19   -1.70    1.70
   0  -1  19    3.50    1.80
   0   2  19   58.39   13.50
   0  -2  19   33.90   10.70
   0  -2  19   44.60    5.00
   0   2  19   46.50    3.30
   0   3  19   -0.80   11.10
   0  -3  19    0.50    9.70
   0   3  19   -0.40    2.00
   0  -3  19    4.10    4.00
   0   4  19  273.57   23.70
   0  -4  19  277.07   24.50
   0  -4  19  283.47   15.20
   0   4  19  286.77   10.50
   0  -5  19   14.70   13.20
   0  -5  19   -6.90    6.90
   0   5  19   22.40   12.00
   0   6  19  113.49   18.60
   0  -6  19  116.19   23.80
   0   6  19  119.89    9.20
   0  -6  19  146.89   16.50
  -1   0  19    8.90    9.70
   1   0  19   -0.10    1.30
   1   0  19    1.90    8.30
   1   0  19    1.60    1.80
  -1   0  19   -0.50    1.60
  -1  -1  19   36.30    3.80
  -1  -1  19   29.20   10.20
   1   1  19   36.80    2.50
   1   1  19   39.70   11.10
  -1   1  19   33.20    3.20
   1  -1  19   36.60   10.70
  -1   1  19   17.80    9.70
   1  -1  19   31.40    3.50
  -1  -2  19   13.70   10.20
   1   2  19   -0.20    9.70
  -1  -2  19    0.60    2.80
   1   2  19    1.70    1.30
  -1   2  19    2.40    1.80
   1  -2  19    7.40    9.50
   1  -2  19   -2.20    2.40
  -1   2  19   -1.40    8.80
  -1  -2 -19    0.10    2.80
  -1  -3  19   16.80    4.60
   1   3  19   29.00    2.80
   1   3  19   16.40   10.70
  -1  -3  19   28.90   12.00
  -1   3  19   25.60    3.00
  -1   3  19   33.30   13.30
   1  -3  19    9.80   10.40
   1  -3  19   20.10    5.20
   1   4  19   -1.90   11.70
   1   4  19    1.30    2.10
  -1  -4  19   -5.10    5.40
  -1  -4  19   18.70   11.80
   1  -4  19   28.30   11.50
  -1   4  19    2.30    2.80
   1  -4  19   -3.90    5.70
  -1   4  19    1.90   12.30
  -1  -5  19   50.79    9.20
   1   5  19   56.99    5.60
   1   5  19   50.59   14.50
   1  -5  19   48.70   14.30
   1  -5  19   46.60    9.50
  -1   5  19   54.29   15.20
  -1   5  19   62.49    6.50
  -1  -6  19   13.70    9.00
   1   6  19   22.30   15.70
   1   6  19   11.40    4.20
  -1   6  19   11.90    4.80
   1  -6  19   -0.60    9.20
  -1   6  19    2.80   12.50
   1  -6  19   13.30   18.10
   1  -6  19   14.90   15.40
   2   0  19   10.00    7.70
   2   0  19    0.90    1.30
   2   0  19    0.00    1.10
  -2   0  19   -0.70    1.70
  -2   0  19   -1.80    7.60
  -2  -1  19   -2.90    9.30
   2   1  19    1.80    8.30
  -2  -1  19   -0.90    2.20
  -2   1  19   -4.40    7.60
   2  -1  19    5.20    2.70
   2  -1  19   -1.10    1.60
   2  -1  19    3.50    8.40
  -2   1  19    2.60    1.80
   2   2  19   -7.40    9.80
  -2  -2  19   -3.70    3.20
  -2  -2  19   -6.80    8.90
   2  -2  19    1.50    8.90
  -2   2  19   -5.10    9.40
  -2   2  19   -4.80    1.80
   2  -2  19   -3.60    2.30
   2   3  19   42.40    2.50
  -2  -3  19   42.10   12.80
  -2  -3  19   36.30    6.00
   2   3  19   40.40   13.00
   2  -3  19   22.20   11.50
   2  -3  19   39.40    5.60
  -2   3  19   31.80   13.20
  -2   3  19   43.20    4.50
   2   4  19   56.59   14.90
  -2  -4  19   48.20    7.50
   2   4  19   48.50    3.90
   2  -4  19   58.99    8.10
  -2   4  19   41.00   14.20
  -2   4  19   62.69    6.20
   2  -4  19   41.00   12.70
   2   5  19   19.80    3.10
  -2  -5  19    1.80    6.90
   2   5  19   16.10   13.50
  -2   5  19   19.40   13.80
  -2   5  19   27.60    4.80
   2  -5  19   16.70   13.00
   2  -5  19    4.80    7.90
  -2  -6  19    2.30    9.70
   2   6  19   29.40   15.40
  -2   6  19   19.80   13.90
   2  -6  19    9.70   18.70
  -2   6  19    9.20    5.40
   2  -6  19    8.90   15.20
  -3   0  19   -2.30    2.00
  -3   0  19   -1.10    8.70
   3   0  19   -7.60    7.70
   3   1  19   54.89   13.00
  -3  -1  19   59.49    5.10
  -3  -1  19   38.70   10.90
   3  -1  19   45.20    4.80
   3  -1  19   53.59    3.20
  -3   1  19   39.50   11.90
   3  -1  19   43.00   10.50
  -3   1  19   44.50    4.10
  -3  -2  19   24.90    4.40
   3   2  19   18.10   11.90
  -3  -2  19   15.60   10.30
  -3   2  19   27.20    3.30
  -3   2  19   35.30   11.10
   3  -2  19   25.70    3.20
   3  -2  19   28.00   10.00
   3   3  19  140.79   18.90
  -3  -3  19  136.99    9.80
  -3  -3  19  154.48   20.80
   3  -3  19  139.69    9.30
   3  -3  19  139.39   17.80
  -3   3  19  144.89   18.30
  -3   3  19  149.79    7.50
  -3  -4  19   41.80    7.10
   3   4  19   15.90   12.30
  -3   4  19    7.00   12.50
  -3   4  19   26.00    4.40
   3  -4  19   45.70   13.40
   3  -4  19   34.60    7.60
  -3  -5  19  150.58   13.60
   3   5  19  119.89   18.20
   3  -5  19  120.89   22.40
   3  -5  19  133.79   18.50
  -3   5  19  138.49    9.50
  -3   5  19  129.29   18.50
  -3   6 -19   79.99    8.80
  -3  -6  19   44.80   11.20
   3   6  19   68.09   18.50
  -3   6  19   67.89    7.50
  -3   6  19   69.49   16.30
   3  -6  19   89.59   17.60
   3  -6  19  115.09   24.20
  -4   0  19    0.40    2.30
  -4   0  19   -6.60    9.00
   4   0  19   -4.40    8.70
  -4  -1  19   -2.20    9.40
   4   1  19   11.30   10.90
  -4  -1  19   10.80    3.30
  -4   1  19    0.70    9.80
  -4   1  19   11.30    2.70
   4  -1  19    2.80    8.30
   4   2  19    1.90   10.70
  -4  -2  19    4.00    9.30
  -4  -2  19   -0.40    3.10
   4  -2  19    2.10    2.50
  -4   2  19   -1.60    2.40
  -4   2  19   -3.50    8.30
   4  -2  19    5.60    8.50
   4   3  19   27.60   12.00
  -4  -3  19   31.30    5.80
   4  -3  19   54.19   11.50
  -4   3  19   40.60    4.70
  -4   3  19   36.10   12.40
   4  -3  19   24.60    5.10
   4   4  19   14.70   10.70
  -4  -4  19    5.50    5.90
  -4   4  19   -7.60   11.90
   4  -4  19    4.30    6.00
   4  -4  19    2.20   10.40
  -4   4  19   11.50    4.00
  -4  -5  19   42.80    9.10
  -4   5 -19   37.20    5.10
   4   5  19   34.60   13.40
  -4   5  19   34.00    5.70
  -4   5  19   30.00   15.20
   4  -5  19   43.90   20.90
   4  -5  19   53.69   14.60
  -4  -6  19   19.40   10.30
   4   6  19   36.00   16.00
  -4   6 -19    8.00    5.00
  -4   6  19   20.30   14.00
   4  -6  19   23.30   21.90
   4  -6  19   30.60   14.30
  -4   6  19   18.90    6.00
  -5   0  19    2.20    2.80
  -5   0  19   -4.80    8.70
   5   0  19    7.80    9.40
  -5  -1  19    0.90    2.70
   5   1  19    2.70   10.30
  -5  -1  19    5.20   10.20
  -5   1  19    7.50    3.10
  -5   1  19   15.80    9.30
   5  -1  19    0.50    8.30
  -5  -2  19   23.30    4.60
   5   2  19   -6.00   10.20
  -5  -2  19   17.90   12.20
   5  -2  19   11.80    2.90
   5  -2  19    6.50    9.20
  -5   2  19    7.70    3.00
  -5   2  19    3.90    9.50
  -5  -3  19   99.09    9.10
   5   3  19   61.89   14.60
  -5   3  19  107.59   15.40
   5  -3  19   83.59    8.50
   5  -3  19  101.29   14.10
  -5   3  19   93.49    7.00
  -5   4 -19    1.10    3.00
  -5  -4  19   -2.70    5.10
   5   4  19   -0.40   11.60
  -5   4  19   -2.20    3.90
   5  -4  19   -2.30   13.80
   5  -4  19    2.10   10.60
  -5   4  19  -13.50   12.00
   5   5  19  154.38   20.60
  -5   5 -19  147.59    9.20
  -5  -5  19  155.78   14.30
  -5   5  19  160.98   20.80
   5  -5  19  175.08   25.20
   5  -5  19  173.38   21.20
  -5   5  19  160.58   10.50
   5   6  19    7.20   13.90
  -5   6 -19   14.00    4.90
  -5  -6  19    7.00    9.10
  -5   6  19    7.10   14.00
   5  -6  19   18.40   23.00
  -5   6  19   15.90    5.90
   5  -6  19   -8.50   13.50
  -6   0  19   -6.00    9.10
   6   0  19    2.20   10.10
  -6   0  19   -2.20    2.60
   6   1  19   -5.00   10.50
  -6  -1  19   -8.40    9.40
  -6  -1  19    2.60    3.30
  -6   1  19   11.10    9.60
  -6   1  19    7.50    3.10
   6  -1  19   -1.50    9.00
   6   2  19   64.09   14.90
  -6  -2  19   69.49    7.50
   6  -2  19   64.99   12.40
  -6   2  19   63.29    6.10
   6  -2  19   57.59    5.00
  -6   2  19   57.49   12.00
   6   3  19   60.59   14.00
  -6  -3  19   65.09    7.80
   6  -3  19   68.49   20.10
   6  -3  19   69.29    7.00
   6  -3  19   67.79   12.30
  -6   3  19   62.09   12.60
  -6   3  19   62.09    6.80
  -6   4 -19  176.98    8.30
  -6  -4  19  163.58   12.90
   6   4  19  175.48   21.90
   6  -4  19  172.88   26.10
   6  -4  19  167.58   18.80
  -6   4  19  160.08   20.40
  -6   4  19  150.98   10.10
   6   5  19   41.00   15.60
  -6  -5  19   32.50    8.60
  -6   5 -19   32.00    5.20
   6  -5  19   24.00   11.60
  -6   5  19   16.60   13.80
  -6   5  19   31.40    6.00
   6  -5  19   20.60   21.00
  -6   6 -19  286.97   13.90
   6   6  19  268.87   29.70
  -6  -6  19  299.27   20.40
  -6   6  19  281.87   26.70
   6  -6  19  236.08   24.40
  -6   6  19  266.77   15.10
   6  -6  19  255.77   34.70
  -7   0  19   -4.00    9.70
  -7   0  19    2.70    3.30
   7   0  19    1.60   10.10
  -7  -1  19   23.30   11.70
   7   1  19   19.70   10.80
  -7  -1  19   12.70    4.10
   7  -1  19   -4.70    9.50
  -7   1  19    3.50    9.90
  -7   1  19   15.60    3.80
   7   2  19   38.70   13.00
  -7  -2  19   37.50    5.50
   7  -2  19   30.40   10.60
  -7   2  19   31.50    4.70
  -7   2  19   24.90   10.30
   7  -2  19   39.50    4.50
  -7   3 -19   28.10    3.00
  -7  -3  19   20.60    5.60
   7   3  19   16.30   11.20
  -7   3  19   20.10   11.50
   7  -3  19   31.50   17.70
   7  -3  19   35.10   10.50
  -7   3  19   15.60    4.40
  -7  -4  19   69.59    8.90
  -7   4 -19   72.29    6.00
   7   4  19   50.89   15.10
   7  -4  19   44.80   19.80
  -7   4  19   69.09    7.90
  -7   4  19   77.39   17.60
   7  -4  19   62.79   12.00
  -7   5 -19   24.00    4.70
  -7  -5  19   39.40    9.20
   7   5  19   17.80   14.20
  -7   5  19    3.80   14.20
   7  -5  19    8.50   11.50
  -7   5  19   20.50    5.60
   7  -5  19   28.30   21.30
  -7  -6  19  -12.20    9.00
  -7   6 -19   12.40    5.40
   7   6  19   18.00   15.40
  -7   6  19   11.30   15.00
  -7   6  19    7.90    6.70
   7  -6  19   -4.40   22.30
  -8   0  19   -6.60    3.20
  -8   0  19   -7.20   10.20
   8   0  19    0.40   10.30
   8   1  19   10.00   11.00
  -8  -1  19    9.70    4.20
  -8  -1  19   -6.40   10.00
  -8   1  19    5.40    3.60
   8  -1  19    0.30    9.70
  -8   1  19   -0.50    9.50
   8   2  19   15.20   11.20
  -8  -2  19   -2.40    4.40
   8  -2  19  -12.40   14.80
  -8   2  19   14.50   10.50
  -8   2  19    2.20    3.60
   8  -2  19    6.20   10.00
   8  -2  19   -1.20    3.00
   8   3  19  109.89   15.80
  -8  -3  19   99.99   10.20
  -8   3 -19  111.49    5.70
  -8   3  19   99.59    8.60
   8  -3  19  110.99   22.70
   8  -3  19   85.09   14.00
  -8   3  19   83.89   14.70
  -8  -4  19   33.00    7.50
  -8   4 -19   35.80    4.10
   8   4  19    3.90   11.20
   8  -4  19   41.60   11.70
   8  -4  19   20.10   20.40
  -8   4  19   23.80    5.70
  -8   4  19   15.10   13.90
   8   5  19   70.39   17.40
  -8   5 -19   71.29    7.80
  -8  -5  19   57.99    9.80
   8  -5  19   83.09   23.10
  -8   5  19   49.30   16.20
  -8   5  19   66.79    7.80
   8  -5  19   49.70   13.10
  -9   0  19    9.50   10.80
   9   0  19  -27.30   12.80
   9   0  19   11.50   11.00
  -9   0  19   -4.70    3.50
  -9  -1  19   38.80   13.70
  -9  -1  19   59.59    6.60
   9   1  19   73.79   13.60
  -9   1  19   59.59    6.80
  -9   1  19   65.29   14.70
   9  -1  19   41.80   18.10
   9  -1  19   50.59   12.70
   9   2  19   50.99   12.60
  -9  -2  19   71.99    7.90
   9  -2  19   67.19   19.30
  -9   2  19   43.80    5.80
   9  -2  19   47.20   12.30
  -9   2  19   35.40   13.00
  -9   3 -19   -0.90    2.40
  -9  -3  19   -3.70    5.20
   9   3  19  -10.80   11.50
   9  -3  19   19.30   19.10
  -9   3  19    7.70   10.80
   9  -3  19    0.90   11.10
  -9   3  19   -1.40    4.20
  -9  -4  19   84.39   10.50
   9   4  19  107.79   19.10
  -9   4 -19   81.79    6.50
   9   4  19   64.79   19.60
   9  -4  19   54.89   13.50
  -9   4  19   89.99   17.00
   9  -4  19   77.69   21.90
  -9   4  19   92.59    9.30
  -9  -5  19   24.00    8.70
   9   5  19   13.40   13.20
   9   5  19    4.60   17.40
  -9   5 -19    8.40    4.50
   9  -5  19   12.40   17.90
  -9   5  19   16.30    6.50
  -9   5  19  -17.80   13.50
   9  -5  19  -11.80   22.20
  10   0  19  -10.70   14.10
  10   0  19    0.50   10.40
 -10   0  19   -6.10   11.20
 -10   0  19   -7.20    3.80
 -10  -1  19   12.40    4.60
  10   1  19   13.40   10.90
 -10  -1  19   19.30   12.90
  10   1  19    2.30   16.10
 -10   1  19    6.50    4.10
  10  -1  19   42.40   17.70
 -10   1  19   11.00   12.10
  10  -1  19   -2.80    9.90
 -10  -2  19    4.80    4.70
  10   2  19   24.60   18.10
  10   2  19    4.50   10.70
  10  -2  19   -8.40   10.00
 -10   2  19   14.20   11.40
  10  -2  19   13.40   18.00
 -10   2  19   -4.10    3.80
 -10   3 -19   17.10    2.70
 -10  -3  19    5.00    5.70
  10   3  19   39.40   17.70
  10   3  19   27.80   14.20
 -10   3  19    4.70   11.10
 -10   3  19    9.10    5.10
  10  -3  19    3.50   17.50
  10  -3  19    2.40   10.90
 -10  -4  19  -10.70    6.50
  10   4  19   20.90   17.50
  10   4  19   -6.10   14.40
 -10   4 -19    4.50    3.60
 -10   4  19    0.70   14.40
  10  -4  19  -23.90   10.90
 -10   4  19   -0.20    4.80
  10  -4  19  -15.30   21.10
  10   5  19  -13.00   13.60
 -10  -5  19   15.80    9.40
  10   5  19   24.00   18.70
 -10   5 -19   33.80    5.60
 -10   5  19   -1.30   15.00
  10  -5  19   46.90   26.40
 -10   5  19   25.40    6.70
 -11   0  19   -0.10    4.10
  11   0  19    3.00   10.40
 -11   0  19   13.40   13.40
  11   0  19  -26.20   16.50
 -11  -1  19   55.59    7.10
  11   1  19   61.39   13.70
  11   1  19   85.99   20.90
 -11   1  19   43.70    6.00
  11  -1  19   73.49   13.60
 -11   1  19   72.09   15.60
  11  -1  19   50.29   18.50
 -11  -2  19    5.00    5.10
  11   2  19   10.90   16.70
  11   2  19  -10.50   10.60
  11  -2  19   11.30   18.30
 -11   2  19   11.90    5.00
  11  -2  19   -0.80   10.50
 -11   2  19   10.20   12.90
  11   3  19   21.30   13.40
  11   3  19   14.50   17.80
 -11  -3  19   21.50    6.50
 -11   3  19   18.00    5.60
  11  -3  19    9.10   11.40
 -11   3  19   18.60   12.30
  11  -3  19   29.00   21.70
  11   4  19   10.60   15.00
 -11  -4  19    3.40    6.70
 -11   4 -19    2.50    3.60
  11   4  19   -6.20   19.10
 -11   4  19    0.70    5.80
 -11   4  19  -12.70   13.80
  11  -4  19    4.30   22.80
  11  -4  19  -29.40   15.80
  11   5  19   66.49   21.40
  11   5  19  102.59   21.10
 -11  -5  19  113.89   12.80
 -11   5 -19   88.69    8.50
 -11   5  19   88.99    9.90
  11  -5  19  134.49   31.00
 -11   5  19   61.09   18.20
 -12   0  19   20.20   14.40
  12   0  19  -22.20   18.50
  12   0  19    2.80   10.20
 -12   0  19   -2.30    4.40
  12   1  19   23.60   12.90
  12   1  19    8.40   20.60
 -12  -1  19   20.50    5.80
 -12   1  19   22.20   13.30
  12  -1  19   17.90   19.20
  12  -1  19   32.20   11.40
 -12   1  19   12.30    5.10
 -12  -2  19    0.00    6.00
  12   2  19  -19.50   17.20
  12   2  19   10.60   12.70
 -12   2  19   14.70   12.70
 -12   2  19    9.40    5.30
  12  -2  19   28.30   21.80
  12  -2  19   16.20   10.90
  12   3  19   20.40   20.70
  12   3  19   14.40   14.20
 -12  -3  19    8.70    6.40
 -12   3  19   29.70   14.40
  12  -3  19   21.00   11.10
  12  -3  19   30.90   20.70
 -12   3  19    4.00    6.00
  12   4  19   49.70   22.20
 -12  -4  19   18.20    8.30
  12   4  19   38.60   15.40
 -12   4  19   31.10    7.60
 -12   4  19   12.60   14.70
  12  -4  19   70.79   26.10
 -13   0  19    8.70   16.40
 -13   0  19    4.20    5.30
  13   0  19    0.60   11.00
  13   0  19   -2.60   18.60
  13   1  19   17.60   13.00
  13   1  19    7.70   18.60
 -13  -1  19   -2.20    5.10
 -13   1  19    2.00   14.10
  13  -1  19    9.00   11.40
  13  -1  19  -35.30   16.80
 -13   1  19    6.80    5.50
 -13  -2  19  -10.50    5.30
  13   2  19   -7.70   19.60
  13   2  19   16.80   13.60
  13  -2  19   14.30   10.40
 -13   2  19   -3.90    5.10
  13  -2  19   -2.70   20.40
 -13   2  19   -5.60   12.10
  13   3  19    3.30   14.30
 -13  -3  19    0.40    6.90
  13   3  19  -19.10   21.00
  13  -3  19   -0.40   22.20
 -13   3  19    7.30    6.00
 -13   3  19   16.50   13.70
  13   4  19   63.39   22.10
  13   4  19   23.60   15.50
 -13  -4  19   36.40    9.10
  13  -4  19   66.79   28.00
 -13   4  19   17.80    7.20
 -13   4  19   25.30   16.40
 -14   0  19   -4.20    5.10
 -14   0  19  -13.50   15.20
  14   0  19   -0.60   12.00
  14   0  19   -7.60   21.70
  14   1  19    7.90   12.80
 -14  -1  19   -5.20    5.70
  14   1  19   13.60   21.60
 -14   1  19   18.60   15.60
  14  -1  19   -0.40   20.10
  14  -1  19    9.80   12.20
 -14   1  19   -3.60    5.10
  14   2  19  -25.80   13.70
 -14  -2  19   11.20    6.70
  14   2  19    4.20   21.50
 -14   2  19   28.00   15.80
  14  -2  19   37.30   22.80
 -14   2  19    9.10    5.80
  14  -2  19  -11.10   10.80
  14   3  19   88.59   25.40
  14   3  19  112.19   21.80
 -14  -3  19   86.09   10.40
  14  -3  19   86.79   29.70
 -14   3  19   91.39   18.70
 -14   3  19  108.49   12.00
  15   0  19  -22.60   23.00
 -15   0  19   -1.80    5.50
 -15   0  19  -15.00   16.40
  15   0  19   28.90   14.10
 -15  -1  19    1.30    5.90
  15   1  19    9.30   16.20
  15   1  19  -11.40   22.30
 -15   1  19    6.60    6.10
  15  -1  19    3.80   22.70
  15  -1  19   29.70   12.90
 -15   1  19   39.80   16.70
  15   2  19   -0.40   15.40
 -15  -2  19   -1.50    6.00
  15   2  19  -29.20   22.00
 -15   2  19  -17.60   15.00
  15  -2  19  -15.50   21.50
 -15   2  19   -7.50    6.20
 -16   0  19   -8.40    5.90
  16   0  19  -28.40   23.80
 -16   0  19    2.10   17.60
  16   0  19   23.60   15.10
  16   1  19  -36.20   23.10
  16   1  19   20.00   16.50
  16  -1  19  -10.50   23.80
  16  -1  19   32.40   14.60
   0   0  20  414.86   12.70
   0   0  20  363.66   23.70
   0   1  20   -0.90    1.60
   0  -1  20   -0.20    2.00
   0   1  20    5.70    9.60
   0  -1  20    3.10    9.10
   0  -2  20  325.37   24.40
   0   2  20  288.47   22.70
   0   2  20  301.47   10.00
   0  -2  20  305.67   12.10
   0   3  20  -20.10   10.60
   0  -3  20   -0.10    4.10
   0  -3  20   -1.20   11.10
   0   3  20   -1.60    2.10
   0  -4  20  199.68   23.50
   0   4  20  216.28    8.70
   0  -4  20  224.78   14.00
   0   4  20  221.58   24.60
   0  -5  20    0.90   13.70
   0   5  20   11.50   12.70
   0  -5  20   21.50    7.90
   0   5  20    2.60    3.50
   0  -6  20   74.39   12.30
   0   6  20   58.99   17.40
   0  -6  20   74.39   22.10
   0  -6  20   51.59   18.60
  -1   0  20   46.80   11.80
   1   0  20   52.79   11.40
  -1   0  20   63.19    4.00
   1   0  20   57.69    3.30
   1   1  20    8.10    9.80
  -1  -1  20   10.10    2.50
   1   1  20    9.60    1.50
  -1  -1  20   17.30    9.80
  -1   1  20   11.60    8.70
   1  -1  20    9.80    9.50
  -1   1  20    9.40    2.00
   1  -1  20    9.70    2.10
   1   2  20    3.30   11.00
  -1  -2  20   16.60   10.40
  -1  -2  20   -6.50    2.80
  -1   2  20   -1.10    1.90
   1  -2  20    8.10   10.30
  -1   2  20    3.00    9.70
   1  -2  20   -5.60    2.60
   1   3  20   14.50    1.90
  -1  -3  20   16.60   12.00
  -1  -3  20    7.90    4.30
   1   3  20   15.80   11.20
   1  -3  20   18.10   11.20
  -1   3  20   12.10    2.60
  -1   3  20   14.60   12.30
   1  -3  20   11.20    4.80
   1   4  20   17.50    2.70
   1   4  20   13.90   13.30
  -1  -4  20   11.10   12.00
  -1  -4  20   17.10    6.20
   1  -4  20   10.50   11.50
  -1   4  20   16.90    3.40
   1  -4  20   11.00    6.30
  -1   4  20    7.70   12.40
   1   5  20   14.10   13.50
  -1  -5  20    6.80    7.30
  -1  -5  20   -2.30   13.40
   1  -5  20   -4.00   12.40
   1  -5  20   10.80    7.60
  -1   5  20    4.00    3.60
  -1   5  20   -2.20   12.40
   1   6  20   13.40   15.20
  -1  -6  20    5.80    9.90
   1  -6  20  -21.40   18.90
  -1   6  20   10.10   13.80
   1  -6  20   -1.60   15.40
   1  -6  20    3.10    9.80
  -1   6  20    4.80    4.60
  -2   0  20   14.60    2.50
  -2   0  20    2.10   10.50
   2   0  20   20.50   10.30
   2   0  20   13.20    1.30
  -2  -1  20   94.89    5.90
  -2  -1  20  110.19   16.50
   2   1  20   98.39   15.30
   2  -1  20   99.49   14.20
  -2   1  20   74.19   14.20
  -2   1  20   94.79    5.00
   2  -1  20   91.99    4.60
  -2  -2  20   -0.10    3.50
   2   2  20   -6.90   10.80
  -2  -2  20    6.60   10.40
   2  -2  20  -16.40    8.90
  -2   2  20    2.30    9.40
  -2   2  20   -1.40    2.00
   2  -2  20   -1.60    2.50
  -2  -3  20   58.49    6.80
  -2  -3  20   59.29   14.60
   2   3  20   63.39   14.90
  -2   3  20   56.39    5.10
   2  -3  20   50.29   13.60
   2  -3  20   58.99    6.50
  -2   3  20   57.39   14.10
  -2  -4  20   -9.40   11.90
  -2  -4  20   -1.10    5.60
   2   4  20   -0.10   11.10
   2  -4  20    6.80   11.80
  -2   4  20   10.60   13.90
   2  -4  20    8.70    6.50
  -2   4  20   10.90    3.80
  -2  -5  20   48.30    9.50
   2   5  20   54.19   15.20
   2  -5  20   49.20    9.50
   2  -5  20   61.49   16.40
  -2   5  20   49.60   15.80
  -2   5  20   60.09    6.20
  -2  -6  20   15.50    9.70
   2   6  20  -12.40   14.30
  -2   6  20   11.50   15.00
  -2   6  20   -2.70    5.00
   2  -6  20   16.50   20.50
   2  -6  20   -3.50   10.10
   2  -6  20    5.50   15.50
   3   0  20  711.63   34.00
  -3   0  20  767.92   36.10
  -3   0  20  760.72   23.30
   3   1  20    0.00    9.30
  -3  -1  20    4.80    9.90
  -3  -1  20    3.00    2.70
  -3   1  20    5.20    9.80
  -3   1  20    2.30    2.20
   3  -1  20    0.40    1.50
   3  -1  20   13.80    9.00
  -3  -2  20  148.29   20.20
   3   2  20  135.69   18.50
  -3  -2  20  155.48    8.80
  -3   2  20  162.48   18.30
   3  -2  20  122.19   16.20
   3  -2  20  134.39    6.90
  -3   2  20  156.98    7.30
  -3  -3  20   -5.50    4.30
   3   3  20    6.10   12.70
  -3  -3  20   21.30   12.70
  -3   3  20    2.40    2.90
   3  -3  20    0.60   10.10
   3  -3  20    2.00    3.90
  -3   3  20    4.50   12.70
  -3  -4  20  229.28   14.20
   3   4  20  217.98   23.60
  -3   4  20  258.67   24.80
   3  -4  20  230.18   23.50
   3  -4  20  198.38   14.50
  -3   4  20  242.68   10.90
   3   5  20    4.20   13.50
  -3  -5  20    8.80    6.90
  -3   5  20   15.80    5.10
   3  -5  20    8.50    8.60
   3  -5  20    5.80   18.00
   3  -5  20   23.70   13.90
  -3   5  20    1.20   14.80
  -3  -6  20   11.50    9.20
   3   6  20   45.20   16.70
   3  -6  20   36.00   10.80
  -3   6  20   26.70    6.10
  -3   6  20   32.30   15.80
   3  -6  20   29.90   23.20
   3  -6  20   40.20   16.60
  -4   0  20   33.30   12.30
  -4   0  20   33.50    4.10
   4   0  20   22.10   11.10
  -4  -1  20 1439.86   41.70
  -4  -1  20 1344.07   54.99
   4   1  20 1375.06   54.59
  -4   1  20 1401.96   53.79
   4  -1  20 1353.66   51.49
  -4   1  20 1387.16   40.80
   4  -1  20 1395.66   38.40
   4   2  20  100.39   16.50
  -4  -2  20   88.29   15.50
  -4  -2  20   90.39    7.60
   4  -2  20   91.99    5.60
   4  -2  20   98.69   14.20
  -4   2  20  100.89    6.50
  -4   2  20   83.59   13.40
   4   3  20  583.64   34.10
  -4  -3  20  516.85   35.20
  -4  -3  20  609.04   22.90
  -4   3  20  632.44   33.80
  -4   3  20  699.13   21.20
   4  -3  20  624.14   31.40
   4  -3  20  609.24   21.90
  -4  -4  20   -0.60    5.60
   4   4  20   29.00   13.60
  -4   4  20   10.60   14.40
   4  -4  20    9.80    6.60
  -4   4  20   11.20    4.20
   4  -4  20   -5.00   10.90
  -4  -5  20  197.98   14.90
   4   5  20  181.58   22.60
   4  -5  20  207.78   28.70
   4  -5  20  165.38   19.90
  -4   5  20  200.18   11.60
   4  -5  20  203.88   16.80
  -4   5  20  162.18   22.60
   4   6  20   15.80   16.70
  -4  -6  20   11.50   10.10
   4  -6  20   -1.30   22.20
   4  -6  20    1.00   14.70
  -4   6  20    9.40    5.90
  -4   6  20   23.70   15.50
  -5   0  20  174.88   18.60
  -5   0  20  139.39    7.90
   5   0  20  166.48   19.80
  -5  -1  20  554.04   19.40
   5   1  20  555.94   31.30
  -5  -1  20  565.44   31.70
  -5   1  20  591.94   19.00
   5  -1  20  507.75   27.90
  -5   1  20  551.34   30.40
  -5  -2  20   18.50    4.90
  -5  -2  20   27.50   12.60
   5   2  20   34.80   13.40
   5  -2  20   29.50    3.10
  -5   2  20   29.70    4.20
  -5   2  20   34.50   11.90
   5  -2  20   24.00   10.00
  -5  -3  20  366.86   16.40
   5   3  20  341.27   25.80
   5  -3  20  362.86   15.10
  -5   3  20  374.86   14.40
   5  -3  20  363.86   24.10
  -5   3  20  362.56   24.80
  -5  -4  20   22.80    6.60
   5   4  20   28.70   13.70
  -5   4  20   16.50   14.20
   5  -4  20   10.40   11.30
  -5   4  20   29.00    5.20
   5  -4  20   31.60   18.40
   5  -4  20   12.40    7.00
  -5   5 -20   30.20    5.20
  -5  -5  20   26.20    8.30
   5   5  20   56.79   17.10
  -5   5  20   36.60   17.80
  -5   5  20   32.50    6.30
   5  -5  20   45.30   20.50
   5  -5  20   15.50   13.40
  -5  -6  20  -14.40    9.20
  -5   6 -20    2.60    5.00
   5   6  20   -0.60   15.10
  -5   6  20    3.20   15.10
   5  -6  20    1.00   24.60
  -5   6  20   11.40    6.20
   5  -6  20    7.10   14.80
   6   0  20  650.83   33.90
  -6   0  20  685.93   22.50
  -6   0  20  669.13   35.50
  -6  -1  20   -2.20    3.50
  -6  -1  20    2.60   11.00
   6   1  20   -8.30   11.00
   6  -1  20   -4.40    9.00
  -6   1  20   -0.90    3.00
  -6   1  20   13.10   10.00
  -6  -2  20  723.03   25.20
   6   2  20  741.23   37.30
  -6  -2  20  707.23   39.00
  -6   2  20  735.63   23.90
   6  -2  20  736.33   22.00
  -6   2  20  716.73   35.80
   6  -2  20  716.93   33.30
  -6  -3  20    0.10    5.00
   6   3  20   20.30   11.80
  -6   3  20   -6.50   10.40
   6  -3  20   -0.90    4.30
  -6   3  20   -9.30    3.40
   6  -3  20  -13.90    8.90
   6   4  20  134.59   19.10
  -6  -4  20  104.49   11.70
   6  -4  20  117.89   23.30
  -6   4  20   95.19   18.30
   6  -4  20  124.79   16.30
  -6   4  20  117.49    9.30
   6   5  20   -6.10   13.80
  -6   5 -20   -0.80    4.10
  -6  -5  20    1.00    7.70
   6  -5  20    6.60   11.90
   6  -5  20    6.70   20.00
  -6   5  20    2.40    5.20
  -6   5  20  -10.70   15.90
  -6  -6  20   10.50   10.00
  -6   6 -20   36.60    6.30
  -6   6  20   30.20    6.70
   6  -6  20   27.00   24.80
  -7   0  20   23.20   11.00
   7   0  20    2.20   10.40
  -7   0  20   12.40    4.00
  -7  -1  20  178.58    9.80
   7   1  20  169.28   19.60
  -7  -1  20  190.78   22.10
  -7   1  20  171.08    9.40
   7  -1  20  166.28   20.10
  -7   1  20  159.78   20.90
  -7  -2  20  -13.50   10.50
   7   2  20   -4.00   10.90
  -7  -2  20    4.20    4.50
   7  -2  20   -3.10   10.20
  -7   2  20    2.30    3.80
  -7   2  20   -4.20    9.30
  -7  -3  20  181.78   11.90
   7   3  20  200.68   21.40
   7  -3  20  162.68   19.10
  -7   3  20  167.08   10.00
   7  -3  20  168.78   25.60
   7  -3  20  154.08   10.30
  -7   3  20  176.28   21.30
  -7  -4  20   28.20    7.60
  -7   4 -20   36.90    4.40
   7   4  20   37.80   13.80
  -7   4  20   31.80    5.80
   7  -4  20   17.90   19.30
  -7   4  20   23.20   15.40
   7  -4  20   21.30   11.80
  -7  -5  20   11.80    7.80
  -7   5 -20    1.40    4.10
   7   5  20    9.20   14.60
   7  -5  20    3.30   22.20
  -7   5  20   10.40    5.50
  -7   5  20    1.80   16.30
   7  -5  20  -10.30   11.90
  -8   0  20    7.50   12.10
  -8   0  20   15.40    4.50
   8   0  20   17.60   12.10
  -8  -1  20  400.76   16.50
   8   1  20  431.16   26.30
  -8  -1  20  410.46   29.40
   8  -1  20  384.66   26.10
  -8   1  20  372.46   27.20
  -8   1  20  424.36   16.10
   8   2  20   19.70   12.30
  -8  -2  20    9.50    4.60
  -8   2  20   -1.70    3.80
  -8   2  20   -6.90   10.40
   8  -2  20  -10.60   10.00
   8  -2  20    7.30   17.70
  -8  -3  20  278.27   14.50
   8   3  20  225.48   22.80
  -8   3  20  254.87   12.30
   8  -3  20  239.48   31.30
  -8   3  20  277.27   24.00
   8  -3  20  219.48   21.40
  -8   4 -20   17.40    3.70
  -8  -4  20    2.60    6.90
   8   4  20   31.90   15.00
   8  -4  20  -11.10   19.90
  -8   4  20   22.00    5.30
   8  -4  20    3.90   11.50
  -8   4  20    7.90   14.50
   8   5  20   78.89   19.10
  -8   5 -20   85.99    8.30
  -8  -5  20   79.59   11.10
  -8   5  20   87.49   19.70
   8  -5  20   88.69   14.60
   8  -5  20   93.39   26.70
  -8   5  20   74.49    8.40
  -9   0  20  107.99   18.40
   9   0  20   88.19   15.60
  -9   0  20   87.59    8.10
   9   0  20   98.99   21.60
  -9  -1  20   26.60   12.90
   9   1  20   49.40   14.10
  -9  -1  20   23.90    5.50
  -9   1  20   43.90   14.10
   9  -1  20   24.10   18.50
   9  -1  20   19.80   11.70
  -9   1  20   32.30    5.20
   9   2  20   43.10   12.90
  -9  -2  20   19.00    5.30
   9  -2  20   22.90   11.60
   9  -2  20   47.90   22.00
  -9   2  20   31.40    5.20
  -9   2  20   29.10   13.40
  -9  -3  20    4.60    5.80
   9   3  20    9.80   12.20
   9  -3  20   27.10   18.90
  -9   3  20    9.60    4.70
   9  -3  20   16.20   12.60
  -9   3  20   12.60   12.20
  -9  -4  20   87.39   10.30
  -9   4 -20   66.69    6.40
   9   4  20   89.69   18.20
   9   4  20   66.69   20.90
  -9   4  20   85.09   18.10
   9  -4  20   67.59   23.70
   9  -4  20   60.09   14.70
  -9   4  20   74.09    8.00
   9   5  20   21.30   18.00
  -9   5 -20   70.39    7.90
  -9  -5  20   48.70   10.30
   9   5  20   49.20   20.40
   9  -5  20   87.39   28.00
  -9   5  20   53.19    8.60
  -9   5  20   35.10   16.90
 -10   0  20  303.77   27.90
  10   0  20  318.07   24.70
  10   0  20  297.87   32.70
 -10   0  20  327.57   14.30
  10   1  20  126.59   17.20
 -10  -1  20  115.39    9.60
  10   1  20  110.29   22.00
 -10  -1  20  108.19   18.40
 -10   1  20  142.49   20.10
  10  -1  20  139.39   26.40
 -10   1  20  110.69    8.90
  10  -1  20  105.39   16.50
 -10  -2  20  136.49   10.70
  10   2  20  144.99   24.20
  10   2  20  170.08   19.10
  10  -2  20  119.19   25.20
 -10   2  20  149.88   20.30
  10  -2  20  124.69   16.40
 -10   2  20  152.18   10.00
 -10  -3  20   83.99    9.20
  10   3  20   96.59   17.50
  10   3  20   87.79   20.70
  10  -3  20   90.29   23.80
 -10   3  20   91.09   17.20
  10  -3  20   70.49   14.50
 -10   3  20   74.39    7.80
  10   4  20   94.69   21.70
  10   4  20   92.29   18.90
 -10  -4  20  112.29   12.10
  10  -4  20   88.09   26.00
  10  -4  20   52.99   14.60
 -10   4  20  100.89   20.20
 -10   4  20  105.59   10.90
 -11   0  20    1.80    4.20
  11   0  20    4.90   18.80
 -11   0  20   21.00   13.30
  11   0  20  -11.50   10.70
 -11  -1  20   21.80    5.50
  11   1  20   50.19   13.70
 -11  -1  20   63.09   17.20
  11   1  20   61.39   19.60
 -11   1  20   33.70   14.60
  11  -1  20   16.10   12.20
 -11   1  20   24.30    5.20
  11  -1  20   53.79   19.90
 -11  -2  20    9.20    5.30
  11   2  20    6.90   12.70
  11   2  20   18.80   18.90
 -11   2  20   14.70   13.00
  11  -2  20   -5.50   11.40
  11  -2  20   -7.60   19.60
 -11   2  20    6.00    4.90
 -11  -3  20   16.80    6.60
  11   3  20   -0.80   17.00
  11   3  20   13.70   14.30
 -11   3  20    6.90    5.70
  11  -3  20   -6.40   20.90
 -11   3  20  -12.10   12.40
  11  -3  20  -15.50   11.70
  11   4  20   11.50   15.80
  11   4  20  -15.00   18.90
 -11  -4  20    9.50    8.00
 -11   4  20  -16.10   15.70
 -11   4  20    9.00    6.30
  11  -4  20   15.00   23.20
 -12   0  20  224.58   12.70
  12   0  20  280.87   22.80
  12   0  20  189.78   28.30
 -12   0  20  206.98   24.80
  12   1  20   -3.10   19.40
 -12  -1  20    3.40    5.40
 -12  -1  20   31.80   16.70
  12   1  20   18.70   12.00
 -12   1  20   -8.80   13.90
  12  -1  20   30.00   12.00
 -12   1  20   -2.50    5.00
  12  -1  20  -22.10   17.50
 -12  -2  20  102.49   11.00
  12   2  20   97.99   25.20
  12   2  20  122.69   19.30
  12  -2  20  103.09   15.70
  12  -2  20   74.19   23.80
 -12   2  20  121.09   19.30
 -12   2  20   92.39   10.50
 -12  -3  20   -1.60    6.60
  12   3  20  -33.50   21.00
  12   3  20   20.20   14.60
 -12   3  20   -7.10    5.50
  12  -3  20   14.60   23.00
 -12   3  20  -10.20   13.50
  12  -3  20   16.80   11.60
  12   4  20   93.79   26.80
  12   4  20  149.99   22.60
 -12  -4  20  111.89   12.50
 -12   4  20   97.29   20.00
 -12   4  20  114.59   11.90
  12  -4  20   74.59   26.60
 -13   0  20   84.09    9.90
 -13   0  20  101.39   19.50
  13   0  20   73.29   21.80
  13   0  20  117.49   16.60
  13   1  20   68.49   26.20
  13   1  20   28.00   14.50
 -13  -1  20   53.69   18.20
 -13  -1  20   34.80    7.00
 -13   1  20   39.90    7.00
  13  -1  20   46.00   22.60
 -13   1  20   27.00   15.80
  13  -1  20   44.10   12.60
  13   2  20   67.29   15.80
  13   2  20   88.79   25.10
 -13  -2  20   55.09    8.30
 -13   2  20   42.80   17.30
  13  -2  20   53.29   24.60
  13  -2  20   58.29   13.00
 -13   2  20   33.20    6.60
  13   3  20   29.70   17.40
  13   3  20   29.00   22.40
 -13  -3  20   24.50    7.60
  13  -3  20   29.40   25.10
 -13   3  20   27.90    7.20
 -13   3  20   25.90   16.30
 -14   0  20   51.59   18.90
  14   0  20   47.30   15.30
 -14   0  20   40.10    7.30
  14   0  20   65.89   24.20
  14   1  20  162.98   21.10
  14   1  20  121.99   26.30
 -14  -1  20  134.09   24.40
 -14  -1  20  158.28   13.20
  14  -1  20  176.18   22.20
 -14   1  20  162.48   12.60
  14  -1  20  155.58   31.40
 -14   1  20  166.28   23.00
  14   2  20   16.50   16.30
 -14  -2  20   11.80    6.70
  14   2  20    8.00   24.00
  14  -2  20   25.70   23.70
 -14   2  20   20.50    7.20
 -14   2  20    8.70   15.80
  14  -2  20   21.40   12.40
  15   0  20  132.89   18.90
 -15   0  20  101.89   21.90
  15   0  20   81.89   26.00
 -15   0  20   99.89   10.20
 -15  -1  20   35.30    7.70
  15   1  20   44.60   16.90
 -15  -1  20    8.80   18.80
  15   1  20   38.50   25.30
 -15   1  20   33.60    7.90
  15  -1  20   70.59   15.20
 -15   1  20   40.20   17.80
  15  -1  20   62.49   26.30
   0   0  21    0.60    1.80
   0   0  21    7.20    8.50
   0  -1  21   -2.20    2.10
   0   1  21   -0.50    1.60
   0   1  21    4.10    8.90
   0  -1  21    4.10   10.40
   0   2  21    4.90    1.80
   0  -2  21    6.40   11.70
   0   2  21   -3.80   10.30
   0  -2  21    1.20    3.00
   0   3  21    1.30    2.20
   0  -3  21    4.70   10.80
   0   3  21  -12.60   11.10
   0  -3  21    1.60    4.20
   0   4  21   -3.90   14.10
   0  -4  21   -3.70   12.70
   0  -4  21  -10.90    5.70
   0  -5  21   -2.70    7.80
   0  -5  21   10.20   15.10
   0   5  21   45.50   16.40
   0  -6  21    4.20   10.20
   0  -6  21   19.50   17.70
   0   6  21   18.10   15.40
   0  -6  21   24.20   24.30
   1   0  21   -7.50    8.40
  -1   0  21   -1.60    1.80
   1   0  21   -1.10    1.50
  -1   0  21    0.60    8.90
   1   1  21   -0.60    1.30
  -1  -1  21   -1.60    2.20
   1   1  21   -2.10    9.10
  -1  -1  21   -6.20    9.30
   1  -1  21   -1.10    9.90
  -1   1  21   -1.20    1.90
   1  -1  21   -1.20    2.00
  -1   1  21   16.60   10.00
   1   2  21    3.80   11.70
  -1  -2  21    0.80   11.80
  -1  -2  21    5.20    3.50
   1  -2  21    5.10   10.70
   1  -2  21    8.50    3.00
  -1   2  21    9.30    2.20
  -1   2  21    4.00   11.10
  -1  -3  21   68.39   15.70
   1   3  21   78.99   16.40
  -1  -3  21   77.19    8.20
   1  -3  21   88.39   15.60
  -1   3  21   83.19    5.20
  -1   3  21   61.69   16.40
   1  -3  21   74.29    8.10
  -1  -4  21   27.50   13.70
   1   4  21   17.60   13.40
  -1  -4  21   29.30    6.80
  -1   4  21   24.30   14.70
   1  -4  21   25.70    6.90
  -1   4  21   24.40    3.90
   1  -4  21   31.80   13.70
  -1  -5  21   84.89   20.10
  -1  -5  21   64.49    9.80
   1   5  21   86.39   18.00
   1  -5  21   82.69   17.80
   1  -5  21   56.09    9.30
  -1   5  21   66.59    9.00
  -1   5  21   80.59   18.30
  -1  -6  21   27.30   18.90
  -1  -6  21   31.30   10.60
   1   6  21   63.99   19.50
   1  -6  21   66.29   24.60
  -1   6  21   54.99   17.30
   1  -6  21   44.80   12.20
   1  -6  21   13.20   16.50
  -2   0  21   -2.60    2.00
  -2   0  21  -12.70    8.30
   2   0  21   -3.20    8.50
   2   1  21  -12.50   10.30
  -2  -1  21    0.00   10.60
  -2  -1  21   -1.30    2.50
   2  -1  21    6.80    9.40
  -2   1  21    2.30   10.00
   2  -1  21    0.60    1.80
  -2   1  21    0.80    2.00
   2   2  21   34.00   13.40
  -2  -2  21   27.90   12.80
  -2  -2  21   36.60    5.00
  -2   2  21   43.00    4.20
   2  -2  21   27.00    3.60
   2  -2  21   38.90   11.70
  -2   2  21   32.70   12.20
  -2  -3  21   -7.20   11.70
   2   3  21    3.90   12.80
  -2  -3  21    6.10    4.80
  -2   3  21  -14.80   12.60
   2  -3  21   -0.70   11.70
   2  -3  21   -8.40    4.20
  -2   3  21   -0.30    2.80
  -2  -4  21   33.50   14.60
   2   4  21   29.50   16.10
  -2  -4  21   42.40    7.50
   2  -4  21   50.99    8.00
   2  -4  21   40.20   14.90
  -2   4  21   60.29    5.60
  -2   4  21   46.30   16.50
  -2  -5  21   26.80   17.00
  -2  -5  21   21.20    8.00
   2   5  21   25.80   13.90
  -2   5  21   14.10    4.80
   2  -5  21    8.50    8.00
   2  -5  21   27.80   15.30
  -2   5  21  -10.70   14.60
  -2  -6  21    2.30   10.00
   2   6  21   47.70   17.80
   2  -6  21   11.90   17.90
   2  -6  21   18.40   11.20
  -2   6  21   13.90   15.20
   2  -6  21   35.40   22.70
  -3   0  21   -3.80    2.20
   3   0  21   -0.30    9.20
  -3   0  21   13.00    9.30
  -3  -1  21  -11.00   10.80
  -3  -1  21    1.90    3.00
   3   1  21   -6.00   10.20
   3  -1  21   -4.60    1.50
  -3   1  21    2.80   10.10
   3  -1  21    3.50    9.70
  -3   1  21    0.10    2.40
  -3  -2  21   38.10    5.20
   3   2  21   27.00   13.70
  -3  -2  21   68.19   14.50
   3  -2  21   33.60   11.80
   3  -2  21   39.00    3.70
  -3   2  21   35.50   11.70
  -3   2  21   36.80    4.00
  -3  -3  21   57.79   15.00
   3   3  21   30.10   15.30
  -3  -3  21   37.20    6.10
  -3   3  21   48.00    4.80
  -3   3  21   30.00   13.60
   3  -3  21   33.50    5.20
   3  -3  21   44.80   13.40
  -3  -4  21   66.49    8.40
   3   4  21   97.69   19.10
  -3  -4  21   78.99   17.80
  -3   4  21   90.59   18.70
   3  -4  21   90.29   16.20
   3  -4  21   67.09    8.70
  -3   4  21   65.19    7.10
   3   5  21   55.59   16.80
  -3  -5  21   54.59    9.30
  -3   5  21   26.30   15.30
   3  -5  21   26.30   21.40
  -3   5  21   37.20    5.90
   3  -5  21   46.10   15.90
   3  -5  21   20.40    8.80
   3   6  21   90.19   20.60
  -3  -6  21   74.39   12.90
   3  -6  21  129.79   26.80
   3  -6  21   64.99   18.80
  -3   6  21  108.29   10.10
   3  -6  21   95.69   13.20
  -3   6  21   74.79   19.20
   4   0  21   -5.90    9.60
  -4   0  21   14.60   10.50
  -4   0  21    0.50    2.80
  -4  -1  21    4.60    3.20
   4   1  21   10.80   11.90
  -4  -1  21   -2.60   10.60
   4  -1  21   -1.70    8.20
  -4   1  21   -9.50    9.00
  -4   1  21    4.40    3.00
  -4  -2  21   -6.80    3.80
   4   2  21    5.00   11.90
  -4  -2  21   -0.30   11.00
   4  -2  21   -2.50   10.20
   4  -2  21   -0.20    2.50
  -4   2  21    5.50   10.40
  -4   2  21   -5.80    3.00
  -4  -3  21   16.10    5.30
   4   3  21   -3.50   12.00
  -4  -3  21   32.00   14.60
  -4   3  21    7.00   12.00
   4  -3  21    8.60    4.30
   4  -3  21   22.30   11.30
  -4   3  21   18.20    4.10
   4   4  21   25.80   14.10
  -4  -4  21   18.60    6.40
   4  -4  21   12.60   11.70
   4  -4  21   16.20    7.00
  -4   4  21   22.60    4.80
  -4   4  21   15.20   15.00
  -4  -5  21   25.60    8.00
   4   5  21   19.70   14.30
   4  -5  21   28.50   21.20
   4  -5  21   13.20    9.20
  -4   5  21   22.50    5.90
  -4   5  21   24.30   16.00
   4  -5  21    7.50   13.70
   5   0  21    1.30   10.70
  -5   0  21   -0.60    3.10
  -5   0  21    3.70    9.80
  -5  -1  21   56.49   14.20
  -5  -1  21   52.09    5.70
   5   1  21   52.89   14.20
  -5   1  21   48.80    5.70
  -5   1  21   72.19   14.90
   5  -1  21   50.39   13.00
  -5  -2  21   40.70   14.70
   5   2  21   55.89   15.50
  -5  -2  21   46.40    6.00
   5  -2  21   43.50    5.00
  -5   2  21   41.40    4.90
  -5   2  21   55.79   14.30
   5  -2  21   38.00   11.20
   5   3  21  237.48   25.70
  -5  -3  21  218.68   12.30
  -5  -3  21  194.48   26.50
   5  -3  21  193.28   10.60
  -5   3  21  202.28   21.40
   5  -3  21  204.28   21.00
  -5   3  21  190.48   10.30
   5   4  21   84.69   17.10
  -5  -4  21   82.39    9.50
  -5   4  21   78.49    8.30
   5  -4  21   60.49   21.50
  -5   4  21   92.49   19.10
   5  -4  21   83.79    9.20
   5  -4  21   81.39   14.50
   5   5  21  276.27   29.40
  -5  -5  21  264.87   18.40
   5  -5  21  247.58   18.30
  -5   5  21  229.48   28.10
   5  -5  21  265.47   31.90
  -5   5  21  278.17   13.90
   5  -5  21  276.67   25.40
  -6   0  21   11.30    9.70
   6   0  21    8.90   12.20
  -6  -1  21    9.90    4.30
  -6  -1  21   23.60   13.00
   6   1  21   11.30   13.00
  -6   1  21    6.40   11.70
  -6   1  21    6.50    3.60
   6  -1  21   -0.60   10.50
  -6  -2  21   10.90    4.70
  -6  -2  21   22.90   13.40
   6   2  21   -0.60   11.30
  -6   2  21    9.80    4.00
   6  -2  21    9.20   10.30
  -6   2  21    0.20   11.00
  -6  -3  21   28.70    6.00
   6   3  21   40.30   14.80
   6  -3  21   34.20   12.30
  -6   3  21   19.10   12.40
  -6   3  21   29.00    5.20
   6  -3  21   26.00    4.80
   6   4  21   12.80   12.70
  -6  -4  21   16.10    6.40
  -6   4  21   -8.70   16.40
   6  -4  21   -3.60   11.50
   6  -4  21   -6.40    6.70
   6  -4  21   -6.70   17.20
  -6   4  21    1.50    4.60
  -6  -5  21   -3.40    7.50
   6   5  21   10.30   15.50
   6  -5  21  -17.00   21.30
   6  -5  21   17.70   13.30
  -6   5  21  -21.70   14.90
  -6   5  21    4.00    5.50
  -7   0  21    0.00    3.40
   7   0  21   -9.00    9.80
  -7   0  21    3.40   11.00
  -7  -1  21   41.80    5.70
   7   1  21   48.80   14.90
  -7  -1  21   21.10   12.80
  -7   1  21   46.20    5.40
  -7   1  21   33.30   12.00
   7  -1  21   33.10   13.00
  -7  -2  21   68.39   16.70
  -7  -2  21   80.99    8.60
   7   2  21   92.49   16.90
   7  -2  21   84.89   15.30
  -7   2  21   57.39   14.30
  -7   2  21   74.89    7.40
   7   3  21  113.99   17.80
  -7  -3  21  144.69   10.80
   7  -3  21  109.59   23.10
  -7   3  21  130.39   18.60
  -7   3  21  120.69    9.10
   7  -3  21  136.29   16.50
  -7  -4  21  186.28   14.10
   7   4  21  243.88   25.80
   7  -4  21  154.48   28.00
   7  -4  21  184.48   13.90
   7  -4  21  177.68   21.60
  -7   4  21  204.58   25.60
  -7   4  21  176.88   11.50
  -7   5 -21  205.88   10.80
  -7  -5  21  186.38   16.90
   7   5  21  241.88   29.10
   7  -5  21  174.28   22.90
  -7   5  21  227.38   13.20
  -7   5  21  210.58   25.40
   7  -5  21  209.48   33.80
  -8   0  21    0.10    3.80
   8   0  21    1.10   12.00
  -8   0  21    0.30   11.20
   8   1  21    6.20   12.80
  -8  -1  21    7.10   13.30
  -8  -1  21    4.70    4.30
  -8   1  21   -5.10   11.70
  -8   1  21   -0.80    3.80
   8  -1  21  -10.00   11.00
   8   2  21    6.90   12.40
  -8  -2  21    5.40   13.30
  -8  -2  21   -0.40    4.40
   8  -2  21  -16.10   15.80
  -8   2  21    7.80    4.30
   8  -2  21   -6.30   11.80
  -8   2  21  -13.60   11.30
  -8  -3  21   52.89    8.10
   8   3  21   54.09   15.00
  -8   3  21   59.99    6.60
   8  -3  21   47.50   14.10
  -8   3  21   90.59   17.50
   8  -3  21   42.20   20.60
  -8  -4  21   64.59    9.30
   8   4  21   91.29   18.40
  -8   4  21   70.89    8.00
   8  -4  21   61.79   25.50
   8  -4  21   24.80   13.10
  -8   4  21   54.69   18.20
  -8  -5  21   -1.30    8.60
  -8   5 -21   20.70    4.80
   8   5  21   -6.90   16.00
  -8   5  21  -12.40   16.50
   8  -5  21  -15.50   12.80
   8  -5  21  -22.50   23.00
  -8   5  21   10.40    6.20
   9   0  21   12.70   12.30
  -9   0  21    2.80    4.00
   9   0  21    7.50   17.30
  -9   0  21    3.00   12.60
  -9  -1  21   -0.50    4.00
   9   1  21   -8.10   12.20
  -9  -1  21   20.70   15.30
  -9   1  21    1.80    4.10
   9  -1  21    8.60   17.30
   9  -1  21  -27.40   10.00
  -9   1  21    2.40   12.70
  -9  -2  21   33.40    6.40
  -9  -2  21   36.30   15.40
   9   2  21   44.90   14.80
  -9   2  21   40.80    5.70
   9  -2  21   38.50   13.80
  -9   2  21   64.99   16.00
   9  -2  21    3.80   16.80
   9   3  21    7.10   13.60
  -9  -3  21   -0.70    5.70
   9  -3  21   -0.10   19.40
  -9   3  21   -9.70   13.60
  -9   3  21    7.50    5.10
   9  -3  21   -7.10   12.30
  -9  -4  21  106.79   11.30
   9   4  21   97.59   19.40
   9  -4  21   77.89   15.80
  -9   4  21  147.69   22.40
   9  -4  21   88.29   27.10
  -9   4  21   97.59   10.60
  10   0  21    4.80   11.60
  10   0  21   -8.30   17.00
 -10   0  21   13.30   14.30
 -10   0  21   -3.60    3.70
 -10  -1  21    8.50    5.10
 -10  -1  21   -5.30   14.10
  10   1  21   -0.90   17.80
  10   1  21   14.90   11.40
  10  -1  21   21.60   18.50
 -10   1  21    3.30   14.50
 -10   1  21   12.30    4.90
  10  -1  21   -7.80   12.00
 -10  -2  21   13.70    5.60
  10   2  21    2.30   18.60
  10   2  21   28.50   13.20
 -10   2  21   41.70   16.30
  10  -2  21   29.50   12.70
 -10   2  21   25.60    5.70
  10  -2  21   23.40   19.90
  10   3  21   32.40   14.60
 -10  -3  21   17.10    6.40
  10   3  21   13.90   19.20
  10  -3  21   -7.20   12.50
 -10   3  21   -0.90    5.20
  10  -3  21  -12.40   21.00
 -10   3  21   17.40   14.40
 -10  -4  21   -0.20    7.40
  10   4  21   14.90   15.10
  10   4  21    9.40   19.90
 -10   4  21    1.40    6.60
  10  -4  21  -15.00   12.70
  10  -4  21  -31.60   22.00
 -10   4  21  -16.30   15.00
  11   0  21    8.90   11.90
  11   0  21   13.80   18.30
 -11   0  21   -1.90    4.60
 -11   0  21   -9.70   13.80
  11   1  21    5.70   18.70
 -11  -1  21    2.60    5.10
  11   1  21   30.00   13.10
 -11  -1  21  -13.50   15.80
 -11   1  21   -0.70    4.70
  11  -1  21    6.30   18.20
  11  -1  21  -12.10   11.40
 -11   1  21   -8.50   12.70
  11   2  21    4.70   13.50
  11   2  21   24.50   19.60
 -11  -2  21    6.30    6.20
  11  -2  21   43.60   21.70
  11  -2  21   -8.50   11.50
 -11   2  21    1.10   12.70
 -11   2  21    5.30    5.00
  11   3  21   59.79   21.50
 -11  -3  21   55.09    9.00
  11   3  21   46.60   17.80
  11  -3  21   34.80   13.70
  11  -3  21   70.89   23.70
 -11   3  21   54.79    8.20
 -11   3  21   60.69   17.60
 -11  -4  21   -0.90    8.00
  11   4  21    5.90   21.80
  11  -4  21    6.00   23.10
 -11   4  21  -10.10   16.20
  12   0  21   30.40   13.00
 -12   0  21    4.30   15.20
  12   0  21   46.80   21.60
 -12  -1  21   12.80   17.20
 -12  -1  21   24.50    6.40
  12   1  21   31.10   22.90
  12   1  21   36.30   15.40
  12  -1  21   29.80   20.50
 -12   1  21   22.90    6.60
 -12   1  21   25.60   16.10
  12  -1  21   -4.50   11.60
  12   2  21   -1.70   21.10
 -12  -2  21    0.30    6.10
  12   2  21   -4.50   14.30
 -12   2  21   -2.20    5.10
  12  -2  21   17.10   12.10
  12  -2  21   -5.00   19.40
 -12   2  21   -2.20   14.20
  12   3  21   29.50   16.20
  12   3  21  -17.80   21.90
 -12  -3  21   26.20    7.90
  12  -3  21   12.40   13.40
  12  -3  21   31.70   25.90
 -12   3  21   15.00    6.60
 -12   3  21   15.40   15.60
  13   0  21    5.20   21.10
  13   0  21    2.00   12.70
 -13   0  21    3.30   16.40
 -13   0  21   -1.70    5.40
 -13  -1  21    5.40   19.20
  13   1  21    7.20   23.70
 -13  -1  21    9.20    5.90
  13   1  21    8.90   14.50
  13  -1  21   10.70   12.30
 -13   1  21    8.20   16.50
 -13   1  21    5.30    5.70
  13  -1  21    9.10   22.80
  13   2  21   17.50   16.20
  13   2  21   39.30   25.60
 -13  -2  21   20.40    7.60
 -13   2  21   -9.00   15.80
  13  -2  21   51.99   28.00
  13  -2  21   -2.80   11.50
 -13   2  21   10.10    6.10
 -14   0  21    8.80    6.40
 -14   0  21  -20.40   18.00
  14   0  21    5.10   22.20
  14   0  21    3.10   14.50
  14   1  21    6.10   24.20
  14   1  21   21.80   15.20
 -14  -1  21   16.30   18.30
 -14   1  21   17.80   16.60
  14  -1  21   19.30   25.40
 -14   1  21    5.50    6.00
  14  -1  21   21.20   13.80
   0   0  22  140.39    6.00
   0   0  22  142.39   18.20
   0  -1  22   -6.80    2.10
   0   1  22    1.80    1.80
   0   1  22  -16.10   10.00
   0  -1  22   20.30   11.70
   0   2  22   60.59   16.40
   0  -2  22   96.49   16.70
   0  -2  22   76.99    6.30
   0  -3  22    6.30   12.80
   0  -3  22   -1.80    4.40
   0   3  22  -17.20   13.80
   0  -4  22   31.70    7.00
   0   4  22   12.70   15.00
   0  -4  22   36.20   16.00
   0  -5  22   -7.90    7.60
   0   5  22    8.30   14.80
   0  -5  22   17.20   16.10
   1   0  22    9.10   10.20
  -1   0  22   12.70   11.00
   1   1  22   17.40   11.50
  -1  -1  22    4.60   11.20
  -1  -1  22   13.30    3.00
   1  -1  22   -0.50    9.60
  -1   1  22    6.70    2.20
   1  -1  22   10.60    2.20
  -1   1  22   14.20   11.40
  -1  -2  22   23.90   12.40
  -1  -2  22   31.10    4.80
   1   2  22   29.10   13.70
  -1   2  22   13.20   11.50
  -1   2  22   28.30    2.90
   1  -2  22   23.80    3.80
   1  -2  22   38.70   13.00
  -1  -3  22    0.90    4.80
  -1  -3  22   13.40   13.40
   1   3  22    1.10   15.30
   1  -3  22    0.00    4.40
  -1   3  22   18.70   15.10
   1  -3  22    5.40   12.40
  -1   3  22    1.50    4.00
   1   4  22  -11.50   14.30
  -1  -4  22   -1.30    5.90
  -1  -4  22   10.70   14.50
   1  -4  22    9.60    6.10
   1  -4  22   16.10   13.40
  -1   4  22    5.20   13.20
   1   5  22   25.50   15.60
  -1  -5  22    3.50   15.30
  -1  -5  22   12.40    8.10
   1  -5  22   11.40   15.80
  -1   5  22   31.60   16.70
   1  -5  22   24.40    8.00
  -2   0  22   86.19    5.40
  -2   0  22   83.79   15.90
   2   0  22   99.69   16.20
   2   1  22  335.67   26.90
  -2  -1  22  341.77   27.10
  -2  -1  22  377.96   13.50
   2  -1  22  377.36   11.80
  -2   1  22  379.96   12.70
  -2   1  22  377.96   26.70
   2  -1  22  349.27   26.00
   2   2  22   79.99   17.60
  -2  -2  22   65.19    6.20
  -2  -2  22   53.59   14.90
   2  -2  22   65.79   14.40
  -2   2  22   77.69    5.20
  -2   2  22   89.69   15.70
   2  -2  22   60.79    5.30
  -2  -3  22  342.07   15.40
   2   3  22  328.47   30.00
  -2  -3  22  341.47   29.60
  -2   3  22  340.67   12.40
  -2   3  22  308.87   29.70
   2  -3  22  355.06   27.10
   2  -3  22  329.77   14.70
   2   4  22    1.50   14.60
  -2  -4  22    9.00   13.80
  -2  -4  22    0.10    5.90
   2  -4  22    3.30   13.20
  -2   4  22    8.60   14.30
   2  -4  22   -1.30    6.00
  -2   4  22   -0.60    3.90
  -2  -5  22  132.49   22.10
  -2  -5  22  163.78   15.10
   2   5  22  192.88   24.10
   2  -5  22  118.29   12.30
   2  -5  22  141.39   22.90
  -2   5  22  121.29   23.10
   3   0  22   15.90   10.30
  -3   0  22   26.30   12.90
  -3   0  22   31.70    3.70
  -3  -1  22    9.00   11.50
   3   1  22   10.10   12.80
  -3  -1  22   -0.90    3.20
   3  -1  22   -4.00    9.60
  -3   1  22   -0.60    2.60
  -3   1  22   -5.20   11.40
  -3  -2  22   22.50   12.00
   3   2  22   25.10   13.30
  -3  -2  22   37.30    5.40
   3  -2  22   56.09   13.50
  -3   2  22   36.80   13.30
  -3   2  22   29.80    3.90
   3  -2  22   36.00    3.50
   3   3  22   -7.30   13.70
  -3  -3  22   -7.20    4.60
  -3  -3  22  -16.10   12.80
   3  -3  22    6.90    4.20
   3  -3  22   -7.20   11.40
  -3   3  22   18.00   13.70
  -3   3  22    1.00    3.40
  -3  -4  22   -1.30    5.90
  -3  -4  22  -10.00   13.80
   3   4  22  -19.20   13.40
  -3   4  22   12.60   14.20
   3  -4  22   17.50   13.00
   3  -4  22    5.20    6.40
  -3   4  22    5.80    4.00
  -3  -5  22   29.50   18.00
   3   5  22   10.00   13.30
  -3  -5  22    3.00    7.60
   3  -5  22   -6.00    7.80
  -3   5  22    0.20    4.90
  -3   5  22  -12.10   15.10
   3  -5  22  -11.50   21.80
   3  -5  22   -6.50   15.60
  -4   0  22  296.47   11.80
  -4   0  22  297.67   23.90
   4   0  22  289.37   25.20
  -4  -1  22  494.45   17.60
   4   1  22  482.45   31.10
  -4  -1  22  445.66   30.30
   4  -1  22  500.95   29.10
  -4   1  22  458.05   29.10
  -4   1  22  532.95   17.30
  -4  -2  22  102.39   19.50
  -4  -2  22   82.19    8.20
   4   2  22   95.29   18.10
   4  -2  22  109.29   17.00
  -4   2  22   80.29   15.80
  -4   2  22  101.49    7.10
   4   3  22  345.27   28.80
  -4  -3  22  329.87   31.70
  -4  -3  22  349.17   16.20
   4  -3  22  359.56   26.50
  -4   3  22  306.47   27.30
  -4   3  22  374.86   14.20
   4  -3  22  368.86   14.50
  -4  -4  22  223.88   15.00
  -4  -4  22  217.88   26.80
   4   4  22  245.88   25.40
   4  -4  22  250.07   14.80
   4  -4  22  236.38   25.00
  -4   4  22  254.37   12.10
  -4   4  22  215.98   26.50
   4   5  22   83.49   18.80
  -4  -5  22   52.09   10.30
  -4   5  22   75.99    7.60
   4  -5  22   82.09   25.40
   4  -5  22   61.99   10.20
   4  -5  22   68.99   17.00
  -4   5  22   47.70   20.10
  -5   0  22   18.00   12.30
  -5   0  22   15.30    3.80
   5   0  22   16.70   12.30
  -5  -1  22   12.60    4.20
  -5  -1  22    7.80   11.60
   5   1  22    5.30   13.10
  -5   1  22    9.60    3.70
  -5   1  22   12.50   11.00
   5  -1  22   32.40   12.20
  -5  -2  22   90.89    8.40
  -5  -2  22   89.49   18.50
   5   2  22   71.69   16.90
   5  -2  22   57.19   13.10
  -5   2  22   68.79   15.50
  -5   2  22   70.89    6.60
  -5  -3  22   16.30   15.30
  -5  -3  22   10.90    5.30
   5   3  22   16.90   14.60
  -5   3  22   13.80    4.60
   5  -3  22   14.00   11.40
  -5   3  22    2.60   14.10
  -5  -4  22   13.70    6.70
   5   4  22   34.40   14.70
  -5  -4  22   42.10   16.90
  -5   4  22   19.40    5.20
  -5   4  22    1.30   16.20
   5  -4  22   28.20   20.20
   5  -4  22   13.60   12.70
   5  -4  22   18.80    6.90
  -5  -5  22   10.50    8.20
   5   5  22   38.40   16.80
   5  -5  22   -5.60   22.30
  -5   5  22   -2.10   17.10
  -5   5  22   16.90    6.10
   5  -5  22   20.10    9.20
   5  -5  22   35.00   15.00
  -6   0  22  993.30   31.30
   6   0  22  999.90   45.30
  -6   0  22  988.70   45.50
   6   1  22  -18.60   11.80
  -6  -1  22  -16.00   11.00
  -6  -1  22   -1.40    3.80
  -6   1  22    8.20   11.50
   6  -1  22   -3.90   10.70
  -6   1  22   -5.00    3.50
   6   2  22  471.45   32.50
  -6  -2  22  414.66   33.40
  -6  -2  22  459.05   18.20
   6  -2  22  433.06   27.60
  -6   2  22  447.26   16.90
  -6   2  22  482.05   30.80
  -6  -3  22   -7.10   15.00
   6   3  22   11.10   12.00
  -6  -3  22    6.20    5.50
  -6   3  22   20.00   14.10
   6  -3  22    4.10   11.50
  -6   3  22   17.20    4.80
  -6  -4  22  419.36   20.10
   6   4  22  405.76   32.20
   6  -4  22  435.36   29.20
  -6   4  22  374.76   33.10
   6  -4  22  471.65   43.70
  -6   4  22  444.76   17.70
  -6  -5  22   -4.80    7.70
   6   5  22   -5.70   16.20
  -6   5  22   -0.50    5.80
   6  -5  22   10.50   15.00
   6  -5  22   -1.50    9.40
   6  -5  22  -35.30   20.40
  -6   5  22  -15.00   17.10
  -7   0  22   72.09   16.10
  -7   0  22   36.60    5.30
   7   0  22   23.00   14.00
  -7  -1  22  -15.20   13.70
   7   1  22  -14.60   12.20
  -7  -1  22    6.90    4.30
   7  -1  22    1.20   12.40
  -7   1  22   -4.10   12.50
  -7   1  22    2.40    3.80
  -7  -2  22   50.59    6.70
  -7  -2  22   33.00   14.70
   7   2  22   34.50   14.30
  -7   2  22   47.60   15.00
  -7   2  22   49.30    6.00
   7  -2  22   24.80   13.00
  -7  -3  22   -7.30    5.40
  -7  -3  22   -0.70   15.80
   7   3  22   19.30   14.00
   7  -3  22   11.10   19.40
  -7   3  22   -9.00   12.80
  -7   3  22   -1.70    4.50
   7  -3  22    3.80   11.70
   7   4  22   36.90   15.80
  -7  -4  22   -1.60    7.10
   7  -4  22   -4.60   20.60
  -7   4  22   19.20   16.40
   7  -4  22    4.70   12.20
  -7   4  22    5.80    5.30
  -8   0  22   12.90   12.70
  -8   0  22   25.20    5.20
   8   0  22   30.30   14.00
   8   1  22  293.27   27.00
  -8  -1  22  328.47   14.30
  -8  -1  22  280.97   27.30
  -8   1  22  310.37   13.80
  -8   1  22  314.27   27.70
   8  -1  22  283.47   25.30
   8   2  22    9.00   13.90
  -8  -2  22    0.20    4.80
  -8  -2  22   21.30   14.40
   8  -2  22    7.90   12.90
  -8   2  22   12.10   13.60
   8  -2  22   -8.90   18.20
  -8   2  22    4.00    4.30
   8   3  22  165.68   21.70
  -8  -3  22  122.09   11.80
   8  -3  22  119.79   17.80
  -8   3  22  138.49   10.00
  -8   3  22  126.59   19.50
   8  -3  22  105.19   26.00
   8   4  22   70.49   17.50
  -8  -4  22   57.69    9.20
   8  -4  22   48.60   24.10
   8  -4  22   37.00   14.60
  -8   4  22   51.59    7.40
  -8   4  22   57.19   19.30
   9   0  22   51.89   21.00
  -9   0  22   14.40    4.80
  -9   0  22   26.60   14.50
   9   0  22   26.30   14.50
   9   1  22   43.70   15.80
  -9  -1  22   38.60    6.40
  -9  -1  22   18.80   14.20
   9  -1  22   28.00   13.30
  -9   1  22   24.00   13.30
   9  -1  22   33.10   22.00
  -9   1  22   32.40    5.30
  -9  -2  22    1.00   14.30
   9   2  22  -18.30   12.30
  -9  -2  22    5.70    5.20
   9  -2  22   -8.00   20.50
  -9   2  22  -23.30   14.00
  -9   2  22    2.80    4.70
   9  -2  22  -12.10   12.10
  -9  -3  22   31.30    7.70
   9   3  22   35.70   16.50
  -9   3  22   42.10    6.50
   9  -3  22   24.10   23.20
  -9   3  22   38.80   15.30
   9  -3  22   16.30   14.10
   9   4  22   -5.00   16.80
  -9  -4  22   -9.90    7.20
  -9   4  22    5.20    5.80
   9  -4  22  -24.00   12.80
   9  -4  22    1.20   21.50
  -9   4  22    6.90   18.40
 -10   0  22  240.78   28.40
 -10   0  22  285.77   13.60
  10   0  22  290.87   25.40
  10   0  22  223.18   30.40
 -10  -1  22  204.78   26.00
  10   1  22  192.68   28.70
 -10  -1  22  189.68   12.00
  10   1  22  191.48   22.50
 -10   1  22  206.68   11.90
  10  -1  22  246.48   31.50
 -10   1  22  192.08   26.30
  10  -1  22  171.48   20.30
  10   2  22  211.18   25.00
  10   2  22  214.98   29.80
 -10  -2  22  215.68   27.90
 -10  -2  22  224.28   13.60
 -10   2  22  269.07   27.50
 -10   2  22  223.48   12.70
  10  -2  22  215.08   30.10
  10  -2  22  223.58   23.60
 -10  -3  22  139.49   13.00
  10   3  22  177.68   23.00
  10   3  22  132.29   26.50
  10  -3  22   96.69   24.50
 -10   3  22  173.58   22.90
 -10   3  22  146.59   11.40
  10  -3  22  120.89   17.80
  11   0  22   15.50   19.00
  11   0  22   38.40   14.30
 -11   0  22   27.70    6.10
 -11   0  22   26.70   17.10
 -11  -1  22   42.90    7.30
 -11  -1  22   40.90   17.90
  11   1  22   88.39   23.10
  11   1  22   62.09   15.80
  11  -1  22   69.99   24.40
  11  -1  22   44.50   13.90
 -11   1  22   41.10   17.70
 -11   1  22   43.10    6.70
 -11  -2  22   30.70    7.40
  11   2  22   15.00   14.90
  11   2  22   42.10   22.90
 -11  -2  22   21.20   17.20
  11  -2  22   49.10   21.20
 -11   2  22   28.10    6.40
 -11   2  22   -4.10   15.30
  11  -2  22   12.00   13.60
 -11  -3  22   14.70    8.00
  11   3  22   52.79   24.20
  11   3  22   -8.70   15.50
 -11   3  22   12.00    6.20
  11  -3  22   13.20   25.20
 -11   3  22   -0.30   14.70
  11  -3  22   -7.80   12.90
  12   0  22  113.69   27.00
 -12   0  22  107.79   23.50
 -12   0  22  122.49   11.40
  12   0  22  116.39   18.70
 -12  -1  22   18.20    6.60
 -12  -1  22    5.40   15.70
  12   1  22   39.80   14.90
  12   1  22   16.00   23.90
 -12   1  22   22.10   18.00
 -12   1  22   22.10    6.80
  12  -1  22    2.60   20.30
  12  -1  22   24.40   13.30
 -12  -2  22  165.48   26.00
  12   2  22  131.19   28.50
  12   2  22  148.29   21.80
 -12  -2  22  112.59   12.80
 -12   2  22  125.99   11.40
  12  -2  22  127.99   18.20
 -12   2  22  111.69   20.60
  12  -2  22  113.69   29.70
 -13   0  22    0.20    6.10
 -13   0  22   -7.30   17.40
  13   0  22   -7.40   22.80
  13   0  22   13.80   14.50
 -13  -1  22   14.00   18.10
  13   1  22   35.50   17.10
 -13  -1  22   21.80    7.40
  13   1  22   -1.00   24.60
 -13   1  22   15.50    6.50
  13  -1  22   24.70   13.90
 -13   1  22   -2.70   16.50
  13  -1  22   42.70   24.70
   0   0  23    6.50   10.60
   0  -1  23    2.70    2.40
   0   1  23   -0.60   10.30
   0  -1  23   -1.00   11.20
   0  -2  23    7.80   13.00
   0   2  23   28.20   15.50
   0  -2  23   22.00    4.00
   0  -3  23   -3.90    4.70
   0  -3  23   11.10   14.60
   0   3  23  -11.00   12.70
   0   4  23   -1.40   16.00
   0  -4  23    9.90    6.50
   0  -4  23  -10.20   14.40
   0   5  23   -2.30   14.70
   0  -5  23    0.10    7.90
   0  -5  23   -9.50   16.70
  -1   0  23  -13.90   10.50
   1   0  23    9.30   11.60
  -1   0  23    0.10    2.20
  -1  -1  23   -6.10   12.10
   1   1  23   -0.40   12.30
  -1  -1  23    0.80    2.70
  -1   1  23    6.20    2.70
   1  -1  23   20.80   12.50
  -1   1  23   11.70   10.60
   1   2  23    7.50   14.30
  -1  -2  23   11.00    4.10
  -1  -2  23  -11.60   12.70
   1  -2  23    6.70    3.20
  -1   2  23    2.70   13.10
   1  -2  23    0.00   12.40
   1   3  23   17.20   15.60
  -1  -3  23   43.00   16.60
  -1  -3  23   33.80    5.90
  -1   3  23   23.80   16.20
   1  -3  23   32.70   15.20
   1  -3  23   21.00    5.00
  -1  -4  23    9.50   16.30
   1   4  23  -13.10   14.00
  -1  -4  23    1.40    6.20
   1  -4  23    9.60   14.70
   1  -4  23    5.40    6.30
  -1   4  23   -3.30   15.50
  -1  -5  23   72.49   19.00
  -1  -5  23   66.49   10.30
   1   5  23   67.29   18.10
  -1   5  23   80.69   19.50
   1  -5  23   68.49   18.60
   1  -5  23   51.99   10.00
  -2   0  23   -0.50   11.50
   2   0  23   -9.10   10.60
  -2   0  23   -1.80    2.50
  -2  -1  23   -2.40   11.90
  -2  -1  23    0.00    2.90
   2   1  23   -8.90   11.30
  -2   1  23    5.70    2.50
   2  -1  23    2.10   11.70
  -2   1  23   11.90   11.00
  -2  -2  23   51.49   15.80
  -2  -2  23   35.10    4.90
   2   2  23   11.80   14.40
  -2   2  23   31.30   15.20
  -2   2  23   40.50    4.60
   2  -2  23   36.00   14.60
   2  -2  23   34.40    4.00
  -2  -3  23   16.80   14.90
  -2  -3  23    9.30    5.20
   2   3  23   24.70   15.50
  -2   3  23    1.10   14.60
   2  -3  23   16.10   12.50
   2  -3  23   -1.20    4.90
  -2  -4  23   -4.90   15.30
   2   4  23   -3.30   15.70
  -2  -4  23  -10.80    6.10
   2  -4  23   -2.80    6.20
  -2   4  23    2.60   15.20
   2  -4  23   25.20   15.90
  -2  -5  23   44.40    9.20
  -2  -5  23   61.79   20.20
   2   5  23   69.39   18.90
   2  -5  23   52.19    9.70
  -2   5  23   34.00   19.50
   2  -5  23   45.30   18.40
  -3   0  23    2.60   10.80
   3   0  23   -5.40   10.90
  -3   0  23   -4.40    2.80
  -3  -1  23   18.30   12.80
   3   1  23   18.40   15.00
  -3   1  23    9.30   12.60
   3  -1  23   -4.70   11.50
  -3  -2  23   42.80   16.30
   3   2  23   41.00   17.10
  -3  -2  23   33.50    5.40
   3  -2  23   30.30   12.30
  -3   2  23   43.70   14.90
  -3   2  23   35.20    4.20
  -3  -3  23   -3.90    5.30
  -3  -3  23    5.60   14.50
   3   3  23   10.20   15.50
  -3   3  23    6.30   14.00
   3  -3  23   -1.30    4.10
   3  -3  23   -7.80   12.50
  -3   3  23   -3.20    3.80
  -3  -4  23  111.99   12.00
  -3  -4  23   82.89   20.50
   3   4  23   97.79   20.00
   3  -4  23  101.29   11.50
   3  -4  23   95.79   17.60
  -3   4  23  114.79   21.90
  -3  -5  23    3.90    8.80
  -3  -5  23   -1.40   18.40
   3   5  23   21.60   16.90
   3  -5  23   -4.70    8.00
   3  -5  23    8.20   16.40
   3  -5  23  -14.00   21.60
  -3   5  23    0.70   16.50
  -4   0  23   -4.10   11.80
   4   0  23   -7.40   12.40
  -4   0  23   -9.00    3.10
  -4  -1  23   -2.20    3.50
   4   1  23   17.20   15.00
  -4  -1  23   -6.40   13.70
  -4   1  23   -0.30    3.30
  -4   1  23   -3.70   12.40
   4  -1  23    9.70   11.30
  -4  -2  23   11.00    4.60
   4   2  23   -0.30   13.60
  -4  -2  23   -5.90   12.10
   4  -2  23   -2.30   11.00
  -4   2  23    4.90    3.60
  -4   2  23    5.50   11.80
  -4  -3  23    0.00    5.50
   4   3  23    2.30   13.60
  -4  -3  23    0.60   14.90
   4  -3  23    8.30   12.40
  -4   3  23  -10.00   13.40
  -4   3  23    1.00    3.90
   4   4  23   30.80   15.20
  -4  -4  23   20.10    7.20
  -4  -4  23   -2.50   15.90
   4  -4  23   21.30    6.70
  -4   4  23    8.90    5.00
  -4   4  23   12.40   17.50
   4  -4  23   19.10   14.50
   5   0  23  -12.50   12.20
  -5   0  23   -4.00    3.40
  -5   0  23   14.80   14.10
  -5  -1  23    2.10    4.00
  -5  -1  23   -2.80   12.70
   5   1  23   -9.30   12.70
  -5   1  23   -7.70   12.50
  -5   1  23   -1.60    3.40
   5  -1  23   13.90   11.90
  -5  -2  23   -3.90    4.60
   5   2  23   -3.30   13.20
  -5  -2  23  -10.60   13.00
  -5   2  23    7.20    4.20
  -5   2  23   -0.80   12.40
   5  -2  23    9.10   11.70
   5   3  23  104.19   20.80
  -5  -3  23   98.89    9.90
  -5  -3  23   84.89   20.30
  -5   3  23   99.39   19.00
   5  -3  23  125.09   17.50
  -5   3  23   98.89    8.60
  -5  -4  23   19.00    7.00
  -5  -4  23   21.90   17.60
   5   4  23   33.10   16.40
  -5   4  23    8.10   16.30
  -5   4  23   29.50    5.70
   5  -4  23   -9.90   20.60
   5  -4  23   41.50   14.50
  -6   0  23   -2.60   13.20
  -6   0  23    0.80    3.80
   6   0  23    5.90   12.70
  -6  -1  23    5.60   13.80
  -6  -1  23    3.00    4.20
   6   1  23  -17.80   13.90
  -6   1  23    9.90    4.30
  -6   1  23   15.50   13.30
   6  -1  23    8.20   12.60
   6   2  23    0.50   12.90
  -6  -2  23   11.90    5.00
  -6  -2  23   -5.00   13.90
  -6   2  23   -2.90    4.20
  -6   2  23   -5.10   11.60
   6  -2  23    2.10   12.40
  -6  -3  23    0.70    5.80
   6   3  23  -13.00   15.00
  -6  -3  23    5.40   16.60
  -6   3  23  -22.20   13.80
   6  -3  23   -6.30   12.10
  -6   3  23    4.80    4.80
   6   4  23   71.49   17.80
  -6  -4  23   59.79    9.30
  -6  -4  23   57.29   20.40
   6  -4  23   57.59   15.80
  -6   4  23   25.10   18.80
  -6   4  23   60.59    7.30
   6  -4  23   47.40   23.50
   7   0  23   -9.30   12.50
  -7   0  23    0.20    4.10
  -7   0  23  -19.90   12.10
  -7  -1  23   26.10   14.90
   7   1  23    4.90   13.80
  -7  -1  23    9.80    4.70
  -7   1  23    1.00   12.50
   7  -1  23    3.30   14.40
  -7   1  23   16.40    4.80
  -7  -2  23   37.30    6.30
  -7  -2  23   44.00   17.70
   7   2  23   20.30   14.00
  -7   2  23   26.00   14.80
  -7   2  23   37.70    5.60
   7  -2  23    4.50   12.70
  -7  -3  23   96.69   10.60
   7   3  23  110.59   20.00
  -7  -3  23  107.69   21.50
  -7   3  23   72.69   19.10
   7  -3  23  100.69   17.10
  -7   3  23   87.49    9.30
   7  -3  23   72.89   25.90
   7   4  23   51.79   16.50
  -7  -4  23   45.10    9.10
  -7   4  23   67.89   21.00
   7  -4  23   62.09   25.40
   7  -4  23   39.80   15.60
  -7   4  23   66.89    7.80
  -8   0  23    4.50    4.50
  -8   0  23   -3.40   12.40
   8   0  23  -18.00   12.40
  -8  -1  23   24.30   16.20
  -8  -1  23   21.10    5.20
   8   1  23    6.20   15.10
  -8   1  23   17.20   14.70
   8  -1  23    7.50   13.40
  -8   1  23   12.10    4.80
  -8  -2  23   13.50   16.40
   8   2  23   -5.70   13.40
  -8  -2  23   10.80    5.40
   8  -2  23  -14.20   13.30
   8  -2  23   -4.50   20.10
  -8   2  23    1.50    4.80
  -8   2  23   13.90   14.90
  -8  -3  23   30.40   18.70
   8   3  23   19.90   15.10
  -8  -3  23   10.90    6.80
   8  -3  23   28.80   22.50
   8  -3  23   -8.60   12.90
  -8   3  23    0.20   16.00
  -8   3  23   14.00    5.30
  -8  -4  23   23.50    8.40
   8   4  23    4.30   17.00
  -8   4  23    4.60   18.30
  -8   4  23    4.90    6.30
   8  -4  23   11.00   15.20
   8  -4  23   -7.00   24.40
  -9   0  23   -6.50   13.80
   9   0  23   -9.30   15.10
   9   0  23    7.40   18.90
  -9   0  23    5.00    4.60
   9   1  23    1.50   15.00
  -9  -1  23   -5.00   15.40
  -9  -1  23    0.60    4.70
  -9   1  23   25.80   15.10
   9  -1  23   -8.40   12.60
   9  -1  23    0.50   19.80
  -9   1  23    2.40    4.70
   9   2  23   20.00   15.20
  -9  -2  23   13.30    6.30
  -9  -2  23   20.00   17.60
  -9   2  23    6.50   16.10
  -9   2  23    8.80    5.10
   9  -2  23  -13.40   18.60
   9  -2  23  -29.90   12.30
  -9  -3  23   25.30   21.20
   9   3  23    1.90   14.60
  -9  -3  23   33.80    7.60
   9  -3  23  -14.80   19.60
   9  -3  23    7.30   14.50
  -9   3  23   29.10    6.40
  -9   3  23   53.29   17.50
 -10   0  23   -1.70   15.80
  10   0  23   17.80   14.70
 -10   0  23    7.20    5.30
  10   0  23    6.50   21.40
  10   1  23  -12.60   13.10
 -10  -1  23   14.70   16.80
  10   1  23   -2.80   21.20
 -10  -1  23    8.70    5.50
  10  -1  23    0.40   14.20
 -10   1  23   -7.30    4.60
  10  -1  23    3.40   19.50
 -10   1  23  -11.50   13.80
  10   2  23    9.20   14.30
  10   2  23   37.20   23.30
 -10  -2  23   -7.90    5.80
 -10  -2  23  -16.70   17.00
 -10   2  23   -0.30    5.20
 -10   2  23    6.70   14.90
  10  -2  23  -20.10   13.20
  10  -2  23   -8.40   21.80
  10   3  23   37.70   16.50
 -10  -3  23   15.20    7.50
 -10  -3  23   15.20   18.10
  10   3  23  -29.90   20.20
 -10   3  23   19.80   16.00
 -10   3  23    3.60    6.30
  10  -3  23   36.40   24.20
  10  -3  23  -18.30   14.00
  11   0  23   -7.50   13.90
 -11   0  23   -6.50    5.70
  11   0  23    6.60   21.30
 -11   0  23   27.30   16.60
  11   1  23   14.60   23.20
  11   1  23   20.90   15.10
 -11  -1  23    4.20   16.90
 -11  -1  23   14.20    6.10
  11  -1  23    5.00   21.10
 -11   1  23    3.30   16.40
  11  -1  23   15.60   14.70
 -11   1  23    3.50    6.00
 -11  -2  23   -3.50    6.40
  11   2  23   11.20   21.40
  11   2  23   18.20   16.00
 -11  -2  23  -13.10   16.80
  11  -2  23   22.70   21.90
 -11   2  23   -3.60    5.80
 -11   2  23   25.80   17.50
  12   0  23   16.10   24.80
 -12   0  23   24.00   18.50
  12   0  23   25.90   14.80
  12   1  23    2.60   15.50
 -12  -1  23   11.70   18.90
 -12  -1  23   -2.00    6.20
  12   1  23   -6.00   24.40
 -12   1  23   -6.70   16.80
  12  -1  23  -20.10   15.00
  12  -1  23    0.60   23.80
 -12   1  23   -4.60    5.60
   0   0  24   39.10   13.50
   0   1  24   -8.70   12.60
   0  -1  24    8.90   14.10
   0   2  24   38.20   14.60
   0  -2  24   59.99   16.40
   0  -2  24   45.60    5.00
   0  -3  24    5.10    5.10
   0   3  24  -21.70   14.60
   0  -3  24  -16.90   12.90
   0  -4  24   77.69    8.80
   0  -4  24   62.79   18.70
   0   4  24   68.89   20.90
   1   0  24    2.80   13.20
  -1   0  24   -2.90   11.20
  -1  -1  24   54.79    5.60
  -1  -1  24   49.90   15.40
   1   1  24   79.19   17.30
   1  -1  24   43.80   15.70
  -1   1  24   56.19   16.70
   1   2  24    0.50   15.30
  -1  -2  24   18.10   15.10
  -1  -2  24   11.70    4.20
   1  -2  24   12.20   14.20
  -1   2  24   13.30   15.10
   1   3  24   50.09   18.70
  -1  -3  24   73.39    7.70
  -1  -3  24   66.19   17.60
  -1   3  24   66.09   19.70
   1  -3  24   97.69   20.10
   1  -3  24   71.39    6.70
  -1  -4  24   25.80   17.90
   1   4  24  -12.00   15.50
  -1  -4  24    7.00    6.70
  -1   4  24   20.90   18.40
   1  -4  24   35.70   18.50
   1  -4  24   10.90    6.40
  -2   0  24  162.78   21.40
  -2   0  24  197.58    8.50
   2   0  24  202.18   23.00
  -2  -1  24   33.40   15.40
   2   1  24   44.50   17.00
  -2  -1  24   48.10    5.10
  -2   1  24   33.10   13.50
   2  -1  24   15.90   14.10
  -2  -2  24   16.20    4.40
  -2  -2  24    6.20   14.20
   2   2  24   -6.10   13.00
  -2   2  24    4.60   14.10
   2  -2  24   14.10   13.80
   2   3  24   79.99   19.10
  -2  -3  24   55.39    7.00
  -2  -3  24   72.29   18.80
   2  -3  24   60.29   16.70
  -2   3  24   71.49   19.30
  -2  -4  24   78.99   20.90
  -2  -4  24   70.49    9.10
   2   4  24   88.89   21.80
  -2   4  24   86.39   21.50
   2  -4  24   71.99   18.50
   2  -4  24   70.89    8.40
  -3   0  24  361.76   13.40
   3   0  24  355.36   28.00
  -3   0  24  337.07   29.90
   3   1  24   93.89   19.70
  -3  -1  24  115.99   20.00
  -3  -1  24   95.79    7.40
  -3   1  24  105.19    6.50
  -3   1  24   99.79   18.40
   3  -1  24  109.99   18.10
  -3  -2  24  395.96   15.80
   3   2  24  392.36   32.50
  -3  -2  24  373.96   32.40
   3  -2  24  390.56   30.80
  -3   2  24  382.86   30.90
  -3  -3  24   56.09    7.30
  -3  -3  24   23.80   17.30
   3   3  24   36.50   17.60
   3  -3  24   20.30   15.20
  -3   3  24   30.20   17.40
  -3  -4  24  139.99   23.80
  -3  -4  24  171.88   13.60
   3   4  24  138.99   22.80
   3  -4  24  169.18   21.80
  -3   4  24  133.69   22.30
  -4   0  24   66.99   16.60
   4   0  24   48.10   15.70
  -4   0  24   61.09    6.20
  -4  -1  24   39.70    5.40
   4   1  24   17.60   16.30
  -4  -1  24   65.69   15.80
  -4   1  24   46.00   15.70
   4  -1  24   39.70   14.10
  -4   1  24   29.50    4.50
  -4  -2  24   25.40   16.60
   4   2  24   65.09   18.70
  -4  -2  24   51.09    6.50
  -4   2  24   34.60    4.80
  -4   2  24   46.40   16.30
   4  -2  24   50.79   14.70
  -4  -3  24   41.10   17.10
  -4  -3  24   52.19    7.20
   4   3  24   50.69   18.40
  -4   3  24   51.09   18.90
   4  -3  24   41.10   16.20
  -4  -4  24   12.90    7.00
   4   4  24    9.90   16.40
  -4  -4  24   21.50   16.70
  -4   4  24   20.30   19.00
   4  -4  24   17.60   16.10
  -5   0  24   38.90    5.30
  -5   0  24   39.60   16.00
   5   0  24   22.10   17.10
  -5  -1  24  189.78   24.60
   5   1  24  191.38   24.60
  -5  -1  24  205.98   11.00
  -5   1  24  229.08   25.70
  -5   1  24  213.48   10.40
   5  -1  24  210.88   24.40
   5   2  24   59.19   18.20
  -5  -2  24   43.40   17.00
  -5  -2  24   54.59    6.80
   5  -2  24   43.80   14.60
  -5   2  24   46.70    5.60
  -5   2  24   55.79   17.60
  -5  -3  24   88.69   10.50
  -5  -3  24   99.59   21.30
   5   3  24   92.19   20.70
   5  -3  24   65.19   16.60
  -5   3  24   94.89    8.70
  -5   3  24  101.79   22.30
   5   4  24   17.60   18.00
  -5  -4  24    3.30   17.20
  -5  -4  24   18.80    7.80
  -5   4  24    3.90   17.00
   5  -4  24   -7.30   22.50
   5  -4  24   19.50   15.70
  -6   0  24   65.99    7.70
  -6   0  24   96.59   19.30
   6   0  24   62.29   18.00
   6   1  24    1.80   15.00
  -6  -1  24   10.40    4.70
  -6  -1  24   17.00   15.50
   6  -1  24    5.40   15.20
  -6   1  24   -1.80   12.50
  -6   1  24    5.50    4.20
  -6  -2  24   30.80   16.00
  -6  -2  24   21.30    5.80
   6   2  24   17.80   15.70
  -6   2  24   26.30   15.00
   6  -2  24   22.40   13.80
  -6   2  24   23.30    5.20
   6   3  24    2.30   15.70
  -6  -3  24    2.80   17.40
  -6  -3  24   -0.50    5.60
  -6   3  24   10.80    5.30
  -6   3  24  -13.10   14.60
   6  -3  24   -3.10   14.40
  -6   4  24   20.50    6.10
   7   0  24   44.10   18.20
  -7   0  24   60.69    6.70
  -7   0  24   58.09   17.00
  -7  -1  24  198.38   11.80
   7   1  24  205.78   26.50
  -7  -1  24  201.78   25.40
  -7   1  24  211.48   11.40
   7  -1  24  189.28   24.80
  -7   1  24  214.38   28.60
   7   2  24   67.59   18.70
  -7  -2  24   66.79    7.80
  -7  -2  24   52.69   20.40
  -7   2  24   60.99   17.50
   7  -2  24   35.60   16.20
  -7   2  24   62.09    6.80
  -7  -3  24   85.29    9.70
   7   3  24   63.29   18.90
  -7  -3  24   97.39   22.20
  -7   3  24   66.59   19.70
   7  -3  24  146.99   29.90
  -7   3  24  121.19    9.70
   7  -3  24   92.19   18.60
  -8   0  24   -1.30    4.40
  -8   0  24  -18.10   13.80
   8   0  24  -15.60   14.20
   8   1  24  100.19   20.20
  -8  -1  24   95.89    9.80
  -8  -1  24   56.99   18.40
  -8   1  24   96.29    8.80
   8  -1  24   83.49   18.10
  -8   1  24   97.89   19.90
  -8  -2  24   -0.10    5.60
  -8  -2  24   13.90   16.80
   8   2  24  -13.40   13.80
   8  -2  24    7.60   21.70
   8  -2  24  -37.50   14.30
  -8   2  24  -14.40   14.80
  -8   2  24    2.40    4.80
   8   3  24  110.39   20.20
  -8  -3  24   52.19   21.00
  -8  -3  24  118.49   12.80
  -8   3  24   82.49    8.30
  -8   3  24   42.80   17.20
   8  -3  24   42.00   26.60
   8  -3  24   74.29   18.80
   9   0  24   27.90   15.90
  -9   0  24   51.39   18.60
   9   0  24   14.70   22.10
  -9   0  24   38.00    6.20
  -9  -1  24   -1.60    5.10
  -9  -1  24    6.90   16.60
   9   1  24    1.90   15.30
  -9   1  24   -3.10   15.80
  -9   1  24   -4.80    4.90
   9  -1  24   -1.00   19.90
   9  -1  24   -1.50   15.00
  -9  -2  24   63.89   22.10
  -9  -2  24   52.39    8.50
   9   2  24   76.19   18.60
   9  -2  24   33.50   23.30
  -9   2  24   60.49   20.40
   9  -2  24   41.10   17.60
  -9   2  24   50.89    7.00
  10   0  24   14.30   23.50
 -10   0  24   34.30    6.50
 -10   0  24   42.30   19.00
  10   0  24   43.00   16.00
  10   1  24   37.70   24.20
  10   1  24   20.90   16.20
 -10  -1  24   30.70    7.60
 -10  -1  24   63.29   20.10
 -10   1  24   20.00   18.60
  10  -1  24   33.60   17.30
 -10   1  24   35.90    6.80
  10  -1  24   55.59   23.00
 -10  -2  24  -12.90    6.20
  10   2  24   30.50   16.40
  10   2  24   20.70   23.90
 -10  -2  24    8.10   16.90
 -10   2  24   -3.80    5.60
  10  -2  24   18.60   24.70
 -10   2  24   -2.40   15.30
  10  -2  24  -33.50   15.10
  11   0  24   65.39   26.10
  11   0  24   50.99   18.00
 -11   0  24   58.59   19.70
 -11   0  24   35.50    6.90
   0   0  25   18.50   13.70
   0  -1  25  -10.00   11.60
   0   1  25   -6.90   13.30
   0   2  25   -5.20   16.20
   0  -2  25    5.60   14.90
   0   3  25  -26.70   16.90
   0  -3  25   -0.90   15.90
   0  -4  25   62.09   21.30
   0   4  25   72.29   21.40
   0  -4  25   81.99    9.20
  -1   0  25   -5.90   12.90
   1   0  25    8.30   13.50
  -1  -1  25   -8.20   13.30
   1   1  25   -0.20   15.60
  -1   1  25    4.50   14.80
   1  -1  25   14.10   13.80
  -1  -2  25   19.00   15.30
  -1  -2  25    3.00    6.40
   1   2  25   -0.50   15.60
   1  -2  25   14.50   13.70
  -1   2  25    4.80   17.40
  -1  -3  25   24.80    5.70
   1   3  25   27.30   17.30
  -1  -3  25   21.00   16.60
  -1   3  25   22.40   17.60
   1  -3  25   20.60   16.20
  -1  -4  25    5.00    6.60
   1   4  25  -17.50   19.00
  -1  -4  25   -3.10   17.80
  -1   4  25    0.70   18.90
   1  -4  25    1.00   16.80
   2   0  25   11.20   13.20
  -2   0  25   22.30   15.40
  -2  -1  25    2.10    4.50
  -2  -1  25   11.10   13.00
   2   1  25  -18.20   14.70
  -2   1  25   17.20   13.90
   2  -1  25   14.10   13.00
  -2  -2  25  -23.90   14.40
  -2  -2  25   13.40    4.60
   2   2  25  -15.20   15.10
   2  -2  25   23.10   14.90
  -2   2  25    9.70   16.80
  -2  -3  25   76.09   21.40
   2   3  25   33.70   18.70
  -2  -3  25   37.30    6.60
   2  -3  25   29.80   16.90
  -2   3  25   33.00   19.10
  -2  -4  25   37.40    7.90
  -2  -4  25    7.10   18.60
   2  -4  25    6.50   16.70
  -3   0  25    0.60    4.40
  -3   0  25   -1.50   13.30
   3   0  25   -5.50   14.50
  -3  -1  25    7.90    3.70
   3   1  25   32.60   16.80
  -3  -1  25   10.70   15.60
   3  -1  25   13.70   14.40
  -3   1  25   33.70   15.40
  -3  -2  25    7.00    4.70
  -3  -2  25   -9.00   14.80
   3   2  25  -16.10   13.80
   3  -2  25   11.30   13.90
  -3   2  25   25.40   15.60
   3   3  25  -17.60   17.70
  -3  -3  25   -5.20   15.90
  -3  -3  25   -1.10    5.50
   3  -3  25  -18.00   13.70
  -3   3  25    3.40   18.10
   4   0  25  -24.20   13.80
  -4   0  25    3.60   13.90
  -4   0  25    1.00    3.60
  -4  -1  25   -3.50   14.70
  -4  -1  25   -2.70    4.30
   4   1  25  -36.50   14.90
   4  -1  25    8.00   13.60
  -4   1  25   -4.90   15.50
  -4   1  25   -4.30    3.90
  -4  -2  25   12.60    5.50
   4   2  25   17.50   17.20
  -4  -2  25    7.70   15.40
  -4   2  25   19.40   15.80
   4  -2  25   18.90   13.80
   4   3  25   35.20   19.90
  -4  -3  25   23.80    6.10
  -4  -3  25   22.30   18.40
  -4   3  25    1.40   17.90
   4  -3  25  -15.70   14.00
  -5   0  25   -4.90    4.00
   5   0  25   -5.30   15.40
  -5   0  25   -3.60   14.00
  -5  -1  25   18.30   17.00
   5   1  25   -7.80   15.90
  -5  -1  25    8.00    4.90
   5  -1  25   -7.30   14.10
  -5   1  25   11.60    4.50
  -5   1  25   24.40   15.30
  -5  -2  25   13.90    5.30
   5   2  25   -5.40   15.40
  -5  -2  25    7.80   15.70
  -5   2  25   34.50   18.00
  -5   2  25   15.60    5.60
   5  -2  25   20.90   14.30
  -5  -3  25   32.20   18.50
   5   3  25    1.50   18.00
  -5  -3  25    8.30    6.10
  -5   3  25   -5.40   16.60
   5  -3  25   19.40   14.60
  -6   0  25    1.10   15.90
   6   0  25  -18.60   15.00
  -6   0  25    1.80    4.40
   6   1  25  -29.40   15.20
  -6  -1  25   -6.60   16.00
  -6  -1  25   -7.50    4.80
  -6   1  25   -1.50    4.20
  -6   1  25    3.40   15.10
   6  -1  25  -24.10   13.90
  -6  -2  25   33.90   17.90
  -6  -2  25   28.50    6.30
   6   2  25   35.00   19.50
  -6   2  25   45.10   16.10
   6  -2  25   32.90   15.90
  -6   2  25   29.40    5.60
   6   3  25   12.90   17.20
  -6  -3  25   -2.70    6.10
  -6  -3  25    6.30   19.40
  -6   3  25   -0.60   18.10
   6  -3  25  -16.70   14.50
  -6   3  25  -12.20    8.10
  -7   0  25    3.60    4.60
  -7   0  25    8.00   14.40
   7   0  25  -27.10   15.40
   7   1  25    1.60   16.40
  -7  -1  25    3.30    5.00
  -7  -1  25  -14.50   16.20
  -7   1  25   -9.70   14.60
   7  -1  25   -8.50   15.00
  -7   1  25    6.30    4.90
   7   2  25   22.80   16.60
  -7  -2  25   -1.00    5.30
  -7  -2  25   17.00   16.90
  -7   2  25   -1.60   14.60
   7  -2  25   -2.90   15.10
  -7   2  25    0.30    5.30
  -8   0  25   -2.30    4.60
   8   0  25  -28.50   15.30
  -8   0  25  -15.30   14.10
  -8  -1  25    1.60    5.00
   8   1  25   -9.40   15.40
  -8  -1  25   11.70   16.90
  -8   1  25    0.40    5.00
  -8   1  25    8.80   15.90
   8  -1  25  -19.10   14.40
  -8  -2  25  -18.90   15.40
  -8  -2  25  -10.80    5.80
   8   2  25   22.50   17.50
   8  -2  25   -5.40   22.50
   8  -2  25  -31.60   15.20
  -8   2  25    4.90    5.50
  -8   2  25  -12.10   15.70
  -9   0  25    2.80    5.30
   9   0  25   -4.60   16.70
   9   0  25   10.20   23.80
  -9   0  25    1.60   16.80
   9   1  25   36.40   17.80
  -9  -1  25   30.00   19.50
  -9  -1  25    6.90    5.60
   9  -1  25   15.70   22.70
   9  -1  25   -9.90   16.30
  -9   1  25   -3.20    5.20
  -9   1  25   -1.20   14.40
   0   0  26   46.40   17.70
   0  -1  26   12.50   15.50
   0   1  26   -0.70   15.30
   0   2  26   52.19   22.60
   0  -2  26   59.39   19.40
   0  -3  26   12.40   16.80
   0   3  26  -23.40   19.20
   1   0  26  125.39   21.70
  -1   0  26  105.19   21.60
  -1  -1  26  198.68   25.80
   1   1  26  172.28   24.80
  -1   1  26  212.68   26.50
   1  -1  26  185.18   24.40
  -1  -2  26   46.10   19.00
   1   2  26   47.70   20.70
  -1   2  26   46.80   18.70
   1  -2  26   68.19   19.60
  -1  -3  26  147.39   24.30
   1   3  26  125.09   25.10
  -1   3  26  151.78   26.00
   1  -3  26  118.59   22.30
   2   0  26   42.90   17.30
  -2   0  26   27.00   16.30
   2   1  26   14.50   17.20
  -2  -1  26   24.10   16.80
  -2   1  26   19.80   15.70
   2  -1  26   37.30   15.30
  -2  -2  26   29.30   17.00
   2   2  26  -21.70   15.50
  -2   2  26    6.90   17.50
   2  -2  26   11.50   15.80
  -2  -3  26  -16.90   16.80
   2   3  26   -4.50   18.80
  -2  -3  26    0.20    9.00
  -2   3  26  -25.90   18.10
   2  -3  26  -29.60   16.10
   3   0  26  237.78   30.40
  -3   0  26  266.37   29.30
   3   1  26    0.60   18.80
  -3  -1  26   12.50   15.80
  -3   1  26    0.70   14.60
   3  -1  26    8.70   15.30
   3   2  26   87.99   21.70
  -3  -2  26   97.29   22.30
  -3  -2  26  108.29    9.70
   3  -2  26  109.79   20.10
  -3   2  26  117.19   22.90
   3   3  26   10.20   20.50
  -3  -3  26   -8.20    5.70
  -3  -3  26  -13.40   18.10
  -3   3  26   -5.60   21.70
   3  -3  26  -14.20   16.40
  -4   0  26   11.80   17.10
   4   0  26   12.70   15.50
  -4  -1  26   94.69   20.20
   4   1  26   99.19   22.90
  -4  -1  26   93.59    8.20
  -4   1  26   96.09   20.40
   4  -1  26  110.29   20.80
  -4  -2  26  125.29   22.90
  -4  -2  26  105.49   10.00
   4   2  26  131.59   23.30
   4  -2  26  120.79   21.20
  -4   2  26  130.89   21.90
  -5   0  26   42.20    5.80
  -5   0  26   50.29   17.70
   5   0  26   37.00   19.00
  -5  -1  26  166.48   25.10
   5   1  26  110.49   23.20
  -5  -1  26  109.79    9.40
   5  -1  26  148.59   23.30
  -5   1  26  138.19   21.90
   5   2  26   28.10   20.70
  -5  -2  26   38.00   19.70
  -5  -2  26   38.10    6.60
  -5   2  26   30.40   18.50
   5  -2  26    2.10   16.10
  -6   0  26    5.10    4.70
   6   0  26  -22.90   16.20
  -6   0  26   16.30   15.80
   6   1  26  -14.30   15.60
  -6  -1  26   -2.50    5.00
  -6  -1  26    7.20   16.00
   6  -1  26  -37.40   16.70
  -6   1  26  -12.30    4.70
  -6   1  26  -20.00   15.80
  -6  -2  26  133.09   11.00
  -6  -2  26  106.99   24.30
   6   2  26  133.99   23.40
  -6   2  26  162.48   23.20
   6  -2  26  149.59   24.10
  -7   0  26   90.49   21.50
  -7   0  26  125.49    9.90
   7   0  26   94.09   23.00
   7   1  26   84.09   21.20
  -7  -1  26   42.00   20.30
  -7  -1  26   73.89    7.80
   7  -1  26   53.89   20.70
  -7   1  26   77.69    9.00
  -7   1  26   68.59   20.70
   0   0  27  -11.30   16.20
   0  -1  27  -22.20   13.60
   0   1  27  -39.60   14.80
   0   2  27    8.40   19.40
   0  -2  27  -36.10   15.20
   1   0  27  -11.50   15.40
  -1   0  27  -16.60   15.50
   1   1  27   29.90   20.70
  -1  -1  27   -0.30   15.80
  -1   1  27    0.40   17.90
   1  -1  27  -20.70   13.80
   1   2  27  -32.80   20.10
  -1  -2  27   12.30   17.60
   1  -2  27    8.60   17.20
  -1   2  27  -19.20   20.00
   2   0  27    9.10   17.30
  -2   0  27  -19.00   15.80
   2   1  27   -8.10   19.30
  -2  -1  27  -19.50   16.30
   2  -1  27   21.00   16.30
  -2   1  27  -21.60   15.10
   2   2  27    7.60   20.40
  -2  -2  27    5.20   16.80
  -2   2  27   20.30   21.90
   2  -2  27  -14.90   16.20
  -3   0  27    8.20   18.20
   3   0  27  -14.70   15.00
  -3  -1  27   -5.20   17.10
   3   1  27   16.50   20.30
  -3   1  27    5.30   15.60
   3  -1  27    0.80   15.30
  -4   0  27  -15.40   16.10
   4   0  27  -14.90   18.30
  -4  -1  27   -9.40   16.90
   4   1  27    3.00   17.50
  -4   1  27    7.20   16.20
   4  -1  27  -32.70   16.30
   5   0  27    2.80   18.60
  -5   0  27    0.20   17.90

_computing_structure_solution     'SHELXT 2014/4 (Sheldrick, 2014)'
;
_shelx_hkl_checksum              34797
_olex2_submission_special_instructions 'No special instructions were received'
loop_
_space_group_symop_operation_xyz
'x, y, z'
'-x+1/2, -y, z+1/2'
'-x, y+1/2, -z+1/2'
'x+1/2, -y+1/2, -z'
'-x, -y, -z'
'x-1/2, y, -z-1/2'
'x, -y-1/2, z-1/2'
'-x-1/2, y-1/2, z'
loop_
_atom_site_label
_atom_site_type_symbol
_atom_site_fract_x
_atom_site_fract_y
_atom_site_fract_z
_atom_site_U_iso_or_equiv
_atom_site_adp_type
_atom_site_occupancy
_atom_site_site_symmetry_order
_atom_site_calc_flag
_atom_site_refinement_flags_posn
_atom_site_refinement_flags_adp
_atom_site_refinement_flags_occupancy
_atom_site_disorder_assembly
_atom_site_disorder_group
Co1 Co 0.58625(2) 0.27581(4) 0.56993(2) 0.00998(8) Uani 1 1 d . . . . .
O1W O 0.55972(8) 0.5513(2) 0.55940(7) 0.0147(3) Uani 1 1 d D . . . .
H1WA H 0.5135(7) 0.587(3) 0.5671(9) 0.022 Uiso 1 1 d D U . . .
H1WB H 0.5744(11) 0.600(3) 0.5252(7) 0.022 Uiso 1 1 d D U . . .
O1 O 0.58510(8) 0.3014(2) 0.42533(7) 0.0209(3) Uani 1 1 d . . . . .
O2 O 0.67137(8) 0.3088(2) 0.50314(6) 0.0163(3) Uani 1 1 d . . . . .
O2W O 0.59965(8) -0.0128(2) 0.56105(7) 0.0153(3) Uani 1 1 d D . . . .
H2WA H 0.5827(12) -0.058(3) 0.5273(6) 0.023 Uiso 1 1 d D U . . .
H2WB H 0.5728(12) -0.054(3) 0.5915(6) 0.023 Uiso 1 1 d D U . . .
O3 O 0.95573(8) 0.2849(2) 0.45808(6) 0.0138(3) Uani 1 1 d . . . . .
O3W O 0.48766(9) 0.1485(2) 0.34083(7) 0.0190(3) Uani 1 1 d D . . . .
H3WA H 0.4994(13) 0.076(3) 0.3118(8) 0.028 Uiso 1 1 d D U . . .
H3WB H 0.5271(9) 0.177(3) 0.3624(9) 0.028 Uiso 1 1 d D U . . .
O4 O 0.99579(8) 0.23587(19) 0.36239(6) 0.0128(3) Uani 1 1 d . . . . .
O4W O 0.49928(11) -0.0297(2) 0.23109(7) 0.0279(4) Uani 1 1 d D . . . .
H4WA H 0.4950(17) 0.054(2) 0.2036(9) 0.042 Uiso 1 1 d D U . . .
H4WB H 0.5064(17) -0.1330(18) 0.2129(11) 0.042 Uiso 1 1 d D U . . .
N1 N 0.75064(11) 0.2073(3) 0.12434(8) 0.0197(4) Uani 1 1 d D . . . .
H1 H 0.7652(15) 0.185(3) 0.0868(6) 0.030 Uiso 1 1 d D U . . .
N2 N 0.67338(9) 0.2177(2) 0.13732(8) 0.0132(4) Uani 1 1 d . . . . .
C1 C 0.65397(12) 0.3036(3) 0.44580(9) 0.0123(4) Uani 1 1 d . . . . .
C2 C 0.72027(11) 0.2959(3) 0.39969(9) 0.0107(4) Uani 1 1 d . . . . .
C3 C 0.79754(11) 0.2917(3) 0.42052(9) 0.0117(4) Uani 1 1 d . . . . .
H3 H 0.808431 0.297798 0.463074 0.014 Uiso 1 1 calc R U . . .
C4 C 0.85821(11) 0.2783(3) 0.37758(9) 0.0109(4) Uani 1 1 d . . . . .
C5 C 0.84188(11) 0.2683(3) 0.31373(9) 0.0112(4) Uani 1 1 d . . . . .
H5 H 0.882878 0.259281 0.285264 0.013 Uiso 1 1 calc R U . . .
C6 C 0.76455(11) 0.2716(3) 0.29197(9) 0.0111(4) Uani 1 1 d . . . . .
C7 C 0.70492(11) 0.2870(3) 0.33614(9) 0.0124(4) Uani 1 1 d . . . . .
H7 H 0.653216 0.291471 0.322551 0.015 Uiso 1 1 calc R U . . .
C8 C 0.94047(11) 0.2667(3) 0.40062(9) 0.0104(4) Uani 1 1 d . . . . .
C9 C 0.79478(12) 0.2263(3) 0.17537(10) 0.0200(5) Uani 1 1 d . . . . .
H9 H 0.849197 0.222896 0.176879 0.024 Uiso 1 1 calc R U . . .
C10 C 0.74531(12) 0.2519(3) 0.22534(9) 0.0115(4) Uani 1 1 d . . . . .
C11 C 0.67021(12) 0.2451(3) 0.19870(10) 0.0150(4) Uani 1 1 d . . . . .
H11 H 0.623958 0.258066 0.221234 0.018 Uiso 1 1 calc R U . . .
loop_
_atom_site_aniso_label
_atom_site_aniso_U_11
_atom_site_aniso_U_22
_atom_site_aniso_U_33
_atom_site_aniso_U_23
_atom_site_aniso_U_13
_atom_site_aniso_U_12
Co1 0.00735(13) 0.01522(14) 0.00736(14) 0.00028(10) -0.00008(10) 0.00029(11)
O1W 0.0125(7) 0.0171(7) 0.0146(8) 0.0027(6) 0.0040(6) 0.0032(6)
O1 0.0089(7) 0.0389(9) 0.0149(8) -0.0059(7) 0.0007(6) 0.0018(7)
O2 0.0123(7) 0.0284(9) 0.0083(7) 0.0015(6) 0.0009(6) 0.0003(6)
O2W 0.0166(8) 0.0182(7) 0.0110(7) -0.0017(6) -0.0002(6) -0.0012(6)
O3 0.0125(7) 0.0194(8) 0.0095(7) -0.0006(6) -0.0031(6) 0.0007(6)
O3W 0.0178(8) 0.0220(9) 0.0170(8) -0.0047(7) -0.0009(7) -0.0017(7)
O4 0.0077(6) 0.0195(8) 0.0112(7) -0.0003(6) 0.0010(6) 0.0009(6)
O4W 0.0461(11) 0.0219(9) 0.0158(8) 0.0020(7) -0.0013(8) 0.0049(8)
N1 0.0101(8) 0.0407(12) 0.0084(8) -0.0057(8) 0.0015(7) 0.0003(8)
N2 0.0074(8) 0.0229(9) 0.0095(8) -0.0002(7) 0.0005(7) -0.0005(7)
C1 0.0107(9) 0.0138(10) 0.0124(10) -0.0001(8) 0.0026(8) 0.0005(8)
C2 0.0105(9) 0.0115(9) 0.0102(10) 0.0009(8) 0.0015(8) 0.0013(8)
C3 0.0126(9) 0.0146(10) 0.0079(10) -0.0009(8) -0.0009(8) -0.0004(8)
C4 0.0089(9) 0.0129(9) 0.0109(10) -0.0006(8) -0.0004(7) -0.0008(8)
C5 0.0084(9) 0.0154(10) 0.0099(9) 0.0011(8) 0.0018(7) 0.0006(8)
C6 0.0115(9) 0.0125(9) 0.0091(9) 0.0006(7) -0.0004(8) 0.0002(8)
C7 0.0080(9) 0.0169(10) 0.0121(10) -0.0005(8) -0.0030(8) 0.0001(8)
C8 0.0103(9) 0.0104(9) 0.0106(10) 0.0023(7) -0.0009(8) 0.0003(7)
C9 0.0084(9) 0.0396(14) 0.0121(11) -0.0036(10) -0.0010(8) -0.0003(10)
C10 0.0090(9) 0.0156(10) 0.0099(9) 0.0000(7) -0.0008(8) 0.0005(8)
C11 0.0107(9) 0.0247(12) 0.0097(10) -0.0003(8) 0.0000(8) 0.0002(8)
loop_
_atom_type_symbol
_atom_type_description
_atom_type_scat_dispersion_real
_atom_type_scat_dispersion_imag
_atom_type_scat_source
C C 0.0033 0.0016 'International Tables Vol C Tables 4.2.6.8 and 6.1.1.4'
H H 0.0000 0.0000 'International Tables Vol C Tables 4.2.6.8 and 6.1.1.4'
Co Co 0.3494 0.9721 'International Tables Vol C Tables 4.2.6.8 and 6.1.1.4'
N N 0.0061 0.0033 'International Tables Vol C Tables 4.2.6.8 and 6.1.1.4'
O O 0.0106 0.0060 'International Tables Vol C Tables 4.2.6.8 and 6.1.1.4'
loop_
_geom_angle_atom_site_label_1
_geom_angle_atom_site_label_2
_geom_angle_atom_site_label_3
_geom_angle
_geom_angle_site_symmetry_1
_geom_angle_site_symmetry_3
_geom_angle_publ_flag
O1W Co1 O2W 166.83(6) . . ?
O1W Co1 O3 86.85(5) . 4_456 ?
O1W Co1 O4 87.30(6) . 4_456 ?
O1W Co1 N2 102.25(6) . 7_566 ?
O2 Co1 O1W 88.10(6) . . ?
O2 Co1 O2W 88.63(6) . . ?
O2 Co1 O3 121.09(5) . 4_456 ?
O2 Co1 O4 175.39(6) . 4_456 ?
O2 Co1 N2 88.46(6) . 7_566 ?
O2W Co1 O3 83.94(5) . 4_456 ?
O2W Co1 O4 95.79(5) . 4_456 ?
O4 Co1 O3 58.33(5) 4_456 4_456 ?
N2 Co1 O2W 90.40(6) 7_566 . ?
N2 Co1 O3 149.62(6) 7_566 4_456 ?
N2 Co1 O4 92.82(6) 7_566 4_456 ?
Co1 O1W H1WA 118.8(16) . . ?
Co1 O1W H1WB 115.7(15) . . ?
H1WA O1W H1WB 108.2(14) . . ?
C1 O2 Co1 120.41(13) . . ?
Co1 O2W H2WA 115.1(16) . . ?
Co1 O2W H2WB 102.6(16) . . ?
H2WA O2W H2WB 109.6(14) . . ?
C8 O3 Co1 85.87(11) . 4_556 ?
H3WA O3W H3WB 111.8(15) . . ?
C8 O4 Co1 96.29(12) . 4_556 ?
H4WA O4W H4WB 109.0(15) . . ?
N2 N1 H1 119.2(18) . . ?
C9 N1 H1 128.5(18) . . ?
C9 N1 N2 112.23(17) . . ?
N1 N2 Co1 124.05(13) . 7_565 ?
C11 N2 Co1 130.89(14) . 7_565 ?
C11 N2 N1 104.55(16) . . ?
O1 C1 O2 124.03(18) . . ?
O1 C1 C2 118.47(17) . . ?
O2 C1 C2 117.48(17) . . ?
C3 C2 C1 120.30(17) . . ?
C7 C2 C1 120.19(17) . . ?
C7 C2 C3 119.47(18) . . ?
C2 C3 H3 120.1 . . ?
C4 C3 C2 119.80(18) . . ?
C4 C3 H3 120.1 . . ?
C3 C4 C5 120.12(18) . . ?
C3 C4 C8 119.25(17) . . ?
C5 C4 C8 120.57(17) . . ?
C4 C5 H5 119.6 . . ?
C4 C5 C6 120.84(18) . . ?
C6 C5 H5 119.6 . . ?
C5 C6 C10 122.11(18) . . ?
C7 C6 C5 117.72(18) . . ?
C7 C6 C10 120.12(18) . . ?
C2 C7 C6 122.03(18) . . ?
C2 C7 H7 119.0 . . ?
C6 C7 H7 119.0 . . ?
O3 C8 O4 119.45(17) . . ?
O3 C8 C4 120.65(17) . . ?
O4 C8 C4 119.89(17) . . ?
N1 C9 H9 126.2 . . ?
N1 C9 C10 107.62(18) . . ?
C10 C9 H9 126.2 . . ?
C9 C10 C6 129.02(19) . . ?
C9 C10 C11 103.94(18) . . ?
C11 C10 C6 126.96(18) . . ?
N2 C11 C10 111.65(18) . . ?
N2 C11 H11 124.2 . . ?
C10 C11 H11 124.2 . . ?
loop_
_geom_bond_atom_site_label_1
_geom_bond_atom_site_label_2
_geom_bond_distance
_geom_bond_site_symmetry_2
_geom_bond_publ_flag
Co1 O1W 2.0589(15) . ?
Co1 O2 2.0517(14) . ?
Co1 O2W 2.1123(15) . ?
Co1 O3 2.3494(14) 4_456 ?
Co1 O4 2.1186(14) 4_456 ?
Co1 N2 2.0720(17) 7_566 ?
O1W H1WA 0.848(9) . ?
O1W H1WB 0.851(9) . ?
O1 C1 1.255(2) . ?
O2 C1 1.262(2) . ?
O2W H2WA 0.844(9) . ?
O2W H2WB 0.850(9) . ?
O3 C8 1.263(2) . ?
O3W H3WA 0.839(9) . ?
O3W H3WB 0.844(9) . ?
O4 C8 1.269(2) . ?
O4W H4WA 0.849(9) . ?
O4W H4WB 0.852(9) . ?
N1 H1 0.857(10) . ?
N1 N2 1.350(2) . ?
N1 C9 1.333(3) . ?
N2 C11 1.329(3) . ?
C1 C2 1.502(3) . ?
C2 C3 1.393(3) . ?
C2 C7 1.386(3) . ?
C3 H3 0.9300 . ?
C3 C4 1.388(3) . ?
C4 C5 1.396(3) . ?
C4 C8 1.491(3) . ?
C5 H5 0.9300 . ?
C5 C6 1.400(3) . ?
C6 C7 1.393(3) . ?
C6 C10 1.469(3) . ?
C7 H7 0.9300 . ?
C9 H9 0.9300 . ?
C9 C10 1.375(3) . ?
C10 C11 1.404(3) . ?
C11 H11 0.9300 . ?
loop_
_geom_hbond_atom_site_label_D
_geom_hbond_atom_site_label_H
_geom_hbond_atom_site_label_A
_geom_hbond_distance_DH
_geom_hbond_distance_HA
_geom_hbond_distance_DA
_geom_hbond_angle_DHA
_geom_hbond_site_symmetry_A
_geom_hbond_publ_flag
O1W H1WA O1 0.848(9) 1.874(11) 2.713(2) 170(2) 5_666 yes
O1W H1WB O3 0.851(9) 2.028(15) 2.763(2) 144.0(18) 8_765 yes
O2W H2WA O3 0.844(9) 1.979(11) 2.809(2) 168(2) 8_755 yes
O2W H2WB O3W 0.850(9) 1.906(10) 2.756(2) 179(2) 5_656 yes
O3W H3WA O4W 0.839(9) 1.887(11) 2.686(2) 159(2) . yes
O3W H3WB O1 0.844(9) 1.896(11) 2.695(2) 157(2) . yes
O4W H4WA O4 0.849(9) 1.930(10) 2.776(2) 174(3) 6_556 yes
O4W H4WB O3W 0.852(9) 1.959(11) 2.802(2) 170(2) 3_645 yes
N1 H1 O2 0.857(10) 2.40(2) 2.927(2) 120(2) 7_565 yes
loop_
_geom_torsion_atom_site_label_1
_geom_torsion_atom_site_label_2
_geom_torsion_atom_site_label_3
_geom_torsion_atom_site_label_4
_geom_torsion
_geom_torsion_site_symmetry_1
_geom_torsion_site_symmetry_2
_geom_torsion_site_symmetry_3
_geom_torsion_site_symmetry_4
_geom_torsion_publ_flag
Co1 O2 C1 O1 9.0(3) . . . . ?
Co1 O2 C1 C2 -169.71(13) . . . . ?
Co1 O3 C8 O4 -2.19(17) 4_556 . . . ?
Co1 O3 C8 C4 176.95(17) 4_556 . . . ?
Co1 O4 C8 O3 2.44(19) 4_556 . . . ?
Co1 O4 C8 C4 -176.71(15) 4_556 . . . ?
Co1 N2 C11 C10 -171.99(14) 7_565 . . . ?
O1 C1 C2 C3 -177.80(19) . . . . ?
O1 C1 C2 C7 0.1(3) . . . . ?
O2 C1 C2 C3 1.0(3) . . . . ?
O2 C1 C2 C7 178.95(19) . . . . ?
N1 N2 C11 C10 -0.1(2) . . . . ?
N1 C9 C10 C6 177.1(2) . . . . ?
N1 C9 C10 C11 0.2(2) . . . . ?
N2 N1 C9 C10 -0.3(3) . . . . ?
C1 C2 C3 C4 177.84(18) . . . . ?
C1 C2 C7 C6 -177.15(18) . . . . ?
C2 C3 C4 C5 -0.3(3) . . . . ?
C2 C3 C4 C8 -177.67(18) . . . . ?
C3 C2 C7 C6 0.8(3) . . . . ?
C3 C4 C5 C6 0.0(3) . . . . ?
C3 C4 C8 O3 -6.2(3) . . . . ?
C3 C4 C8 O4 172.95(18) . . . . ?
C4 C5 C6 C7 0.6(3) . . . . ?
C4 C5 C6 C10 -176.88(18) . . . . ?
C5 C4 C8 O3 176.45(18) . . . . ?
C5 C4 C8 O4 -4.4(3) . . . . ?
C5 C6 C7 C2 -1.1(3) . . . . ?
C5 C6 C10 C9 0.8(3) . . . . ?
C5 C6 C10 C11 177.0(2) . . . . ?
C6 C10 C11 N2 -177.03(19) . . . . ?
C7 C2 C3 C4 -0.1(3) . . . . ?
C7 C6 C10 C9 -176.6(2) . . . . ?
C7 C6 C10 C11 -0.4(3) . . . . ?
C8 C4 C5 C6 177.37(18) . . . . ?
C9 N1 N2 Co1 172.87(15) . . . 7_565 ?
C9 N1 N2 C11 0.3(3) . . . . ?
C9 C10 C11 N2 -0.1(2) . . . . ?
C10 C6 C7 C2 176.50(19) . . . . ?
