#------------------------------------------------------------------------------
#$Date: 2021-10-06 18:34:01 +0300 (Wed, 06 Oct 2021) $
#$Revision: 269711 $
#$URL: file:///home/coder/svn-repositories/cod/cif/7/70/81/7708161.cif $
#------------------------------------------------------------------------------
#
# This file is available in the Crystallography Open Database (COD),
# http://www.crystallography.net/
#
# All data on this site have been placed in the public domain by the
# contributors.
#
data_7708161
loop_
_publ_author_name
'Yang, Feng'
'Xu, Yuangang'
'Wang, Pengcheng'
'Lin, Qiuhan'
'Lu, Ming'
_publ_section_title
;
 Novel metal-organic frameworks assembled from the combination of
 polynitro-pyrazole and 5-nitroamine-1,2,4-oxadiazole: synthesis,
 structure and thermal properties.
;
_journal_issue                   37
_journal_name_full
'Dalton transactions (Cambridge, England : 2003)'
_journal_page_first              12906
_journal_page_last               12912
_journal_paper_doi               10.1039/d1dt02093e
_journal_volume                  50
_journal_year                    2021
_chemical_formula_moiety         'C6 H4 K2 N10 O10'
_chemical_formula_sum            'C6 H4 K2 N10 O10'
_chemical_formula_weight         454.39
_space_group_crystal_system      monoclinic
_space_group_IT_number           14
_space_group_name_Hall           '-P 2ybc'
_space_group_name_H-M_alt        'P 1 21/c 1'
_atom_sites_solution_hydrogens   difmap
_audit_creation_method           SHELXL-2018/3
_audit_update_record
;
2020-05-25 deposited with the CCDC.	2021-08-16 downloaded from the CCDC.
;
_cell_angle_alpha                90
_cell_angle_beta                 101.452(2)
_cell_angle_gamma                90
_cell_formula_units_Z            4
_cell_length_a                   10.3408(7)
_cell_length_b                   18.3261(13)
_cell_length_c                   8.4021(5)
_cell_measurement_reflns_used    7761
_cell_measurement_temperature    296(2)
_cell_measurement_theta_max      27.39
_cell_measurement_theta_min      2.22
_cell_volume                     1560.55(18)
_computing_cell_refinement       'Bruker SAINT'
_computing_data_collection       'Bruker APEX3'
_computing_data_reduction        'Bruker SAINT'
_computing_molecular_graphics    'Bruker SHELXTL'
_computing_publication_material  'Bruker SHELXTL'
_computing_structure_refinement  'SHELXL-2018/3 (Sheldrick, 2018)'
_computing_structure_solution    'SHELXT 2014/5 (Sheldrick, 2014)'
_diffrn_ambient_temperature      296(2)
_diffrn_measured_fraction_theta_full 0.998
_diffrn_measured_fraction_theta_max 0.993
_diffrn_measurement_device_type  'Bruker D8 QUEST PHOTON 100'
_diffrn_measurement_method       '\f and \w scans'
_diffrn_radiation_type           MoK\a
_diffrn_radiation_wavelength     0.71073
_diffrn_reflns_av_R_equivalents  0.0365
_diffrn_reflns_av_unetI/netI     0.0335
_diffrn_reflns_Laue_measured_fraction_full 0.998
_diffrn_reflns_Laue_measured_fraction_max 0.993
_diffrn_reflns_limit_h_max       13
_diffrn_reflns_limit_h_min       -13
_diffrn_reflns_limit_k_max       20
_diffrn_reflns_limit_k_min       -23
_diffrn_reflns_limit_l_max       9
_diffrn_reflns_limit_l_min       -10
_diffrn_reflns_number            15559
_diffrn_reflns_point_group_measured_fraction_full 0.998
_diffrn_reflns_point_group_measured_fraction_max 0.993
_diffrn_reflns_theta_full        25.242
_diffrn_reflns_theta_max         27.580
_diffrn_reflns_theta_min         2.223
_diffrn_source.source            'Ius 2.0'
_diffrn_source.type              microfocus
_exptl_absorpt_coefficient_mu    0.690
_exptl_absorpt_correction_T_max  0.7456
_exptl_absorpt_correction_T_min  0.5626
_exptl_absorpt_correction_type   multi-scan
_exptl_absorpt_process_details   sadabs
_exptl_crystal_colour            yellow
_exptl_crystal_density_diffrn    1.934
_exptl_crystal_description       plate
_exptl_crystal_F_000             912
_exptl_crystal_size_max          0.250
_exptl_crystal_size_mid          0.230
_exptl_crystal_size_min          0.020
_refine_diff_density_max         0.229
_refine_diff_density_min         -0.310
_refine_diff_density_rms         0.061
_refine_ls_extinction_method     none
_refine_ls_goodness_of_fit_ref   1.022
_refine_ls_hydrogen_treatment    constr
_refine_ls_matrix_type           full
_refine_ls_number_parameters     253
_refine_ls_number_reflns         3583
_refine_ls_number_restraints     0
_refine_ls_restrained_S_all      1.022
_refine_ls_R_factor_all          0.0498
_refine_ls_R_factor_gt           0.0350
_refine_ls_shift/su_max          0.000
_refine_ls_shift/su_mean         0.000
_refine_ls_structure_factor_coef Fsqd
_refine_ls_weighting_details
'w=1/[\s^2^(Fo^2^)+(0.0405P)^2^+0.4865P] where P=(Fo^2^+2Fc^2^)/3'
_refine_ls_weighting_scheme      calc
_refine_ls_wR_factor_gt          0.0788
_refine_ls_wR_factor_ref         0.0845
_reflns_Friedel_coverage         0.000
_reflns_number_gt                2884
_reflns_number_total             3583
_reflns_threshold_expression     'I > 2\s(I)'
_cod_data_source_file            d1dt02093e2.cif
_cod_data_source_block           Y019_a
_cod_depositor_comments
'Adding full bibliography for 7708161--7708163.cif.'
_cod_original_sg_symbol_H-M      'P 21/c'
_cod_database_code               7708161
_shelx_shelxl_version_number     2018/3
_shelx_space_group_comment
;
The symmetry employed for this shelxl refinement is uniquely defined
by the following loop, which should always be used as a source of
symmetry information in preference to the above space-group names.
They are only intended as comments.
;
_shelx_estimated_absorpt_t_min   0.846
_shelx_estimated_absorpt_t_max   0.986
_shelx_res_file
;
TITL Y019_a.res in P2(1)/c
    Y019_a.res
    created by SHELXL-2018/3 at 17:12:04 on 16-May-2020
CELL 0.71073 10.3408 18.3261 8.4021 90.000 101.452 90.000
ZERR 4.00 0.0007 0.0013 0.0005 0.000 0.002 0.000
LATT 1
SYMM -x, y+1/2, -z+1/2
SFAC C  H  N  O  K
UNIT 24  16  40  40  8
L.S. 10
omit -2   5   1
ACTA
BOND $H
FMAP 2
PLAN -5
CONF
EQIV $10 x, y, z+1
HTAB C4 O3_$10
EQIV $11 -x+1, -y+1, -z+1
HTAB C4 O5_$11
HTAB O10 O1_$10
HTAB O10 O2_$10
size 0.25 0.23 0.02
FREE K1   N10
FREE K1   K2
TEMP 23.000
WGHT    0.040500    0.486500
FVAR       0.60746
C1    1    0.367031    0.438107    0.251406    11.00000    0.02851    0.02383 =
         0.02291   -0.00001    0.00558   -0.00220
C2    1    0.493288    0.407008    0.280672    11.00000    0.02680    0.02427 =
         0.02599   -0.00110    0.00928   -0.00201
C3    1    0.523585    0.395736    0.447912    11.00000    0.02403    0.02315 =
         0.02697    0.00048    0.00673   -0.00339
C4    1    0.393017    0.414065    0.668392    11.00000    0.03174    0.02660 =
         0.02091   -0.00143    0.00781   -0.00376
AFIX   3
H4B   2    0.475948    0.425565    0.746016    11.00000   -1.50000
H4A   2    0.326148    0.452765    0.672116    11.00000   -1.50000
AFIX   0
C5    1    0.346665    0.339242    0.699044    11.00000    0.02345    0.02700 =
         0.02155   -0.00093    0.00797    0.00070
C6    1    0.225220    0.248034    0.686878    11.00000    0.02251    0.02791 =
         0.02953    0.00326    0.00625    0.00262
K1    5   -0.282838    0.200872    0.383140    11.00000    0.03523    0.05253 =
         0.03273    0.00248    0.00398   -0.00057
K2    5    0.036933    0.396685    0.408407    11.00000    0.02932    0.03801 =
         0.04404   -0.00150    0.00515    0.00812
N1    3    0.318732    0.445119    0.383421    11.00000    0.02588    0.02666 =
         0.02516   -0.00041    0.00449   -0.00081
N2    3    0.416633    0.419919    0.502686    11.00000    0.02358    0.02573 =
         0.02111    0.00007    0.00546   -0.00206
N3    3    0.225233    0.314039    0.627081    11.00000    0.02517    0.02579 =
         0.02771    0.00237    0.00411   -0.00086
N4    3    0.420613    0.294698    0.796545    11.00000    0.02531    0.03109 =
         0.04319    0.00736    0.00193   -0.00397
N5    3    0.281084    0.456866    0.098397    11.00000    0.03153    0.05032 =
         0.02720    0.00566    0.00652    0.00274
N6    3    0.569844    0.384602    0.165983    11.00000    0.03064    0.03231 =
         0.02767   -0.00047    0.00944   -0.00170
N7    3    0.624580    0.366058    0.559127    11.00000    0.02282    0.04084 =
         0.03183    0.00668    0.00571   -0.00148
N8    3    0.744388    0.379604    0.532944    11.00000    0.02476    0.03900 =
         0.03611    0.00048    0.00674    0.00172
N9    3    0.139215    0.191940    0.676606    11.00000    0.02871    0.03144 =
         0.04366    0.00751    0.00052   -0.00435
N10   3    0.026555    0.198532    0.569296    11.00000    0.03477    0.03465 =
         0.04369    0.00525    0.00042   -0.00720
O1    4    0.203385    0.505900    0.097726    11.00000    0.06855    0.09843 =
         0.04859    0.01623    0.00882    0.05230
O2    4    0.291930    0.421536   -0.019569    11.00000    0.05889    0.08007 =
         0.02551   -0.00852    0.00406    0.00398
O3    4    0.570747    0.422706    0.047329    11.00000    0.05074    0.05293 =
         0.03417    0.01253    0.02096    0.00126
O4    4    0.630425    0.327057    0.190552    11.00000    0.05756    0.03992 =
         0.04446    0.00194    0.02182    0.01786
O5    4    0.766998    0.419870    0.423124    11.00000    0.03010    0.05190 =
         0.04543    0.01189    0.01485   -0.00266
O6    4    0.836728    0.349562    0.630134    11.00000    0.02808    0.08081 =
         0.06003    0.02527    0.00457    0.01345
O7    4    0.339480    0.232262    0.791287    11.00000    0.02614    0.02981 =
         0.05276    0.01369   -0.00153   -0.00192
O8    4   -0.056431    0.149970    0.578220    11.00000    0.04662    0.06324 =
         0.08182    0.02946   -0.01719   -0.03128
O9    4    0.002349    0.246652    0.465649    11.00000    0.04871    0.04639 =
         0.05138    0.01746   -0.01179   -0.01296
O10   4    0.038948    0.466112    0.718604    11.00000    0.04868    0.05852 =
         0.04683    0.00649   -0.00008   -0.00262
AFIX   3
H10A  2    0.094546    0.468180    0.804370    11.00000   -1.50000
H10B  2   -0.020654    0.432880    0.733970    11.00000   -1.50000
AFIX   0
HKLF 4 1 1 0 0 0 1 0 0 0 1




REM  Y019_a.res in P2(1)/c
REM wR2 = 0.0845, GooF = S = 1.022, Restrained GooF = 1.022 for all data
REM R1 = 0.0350 for 2884 Fo > 4sig(Fo) and 0.0498 for all 3583 data
REM 253 parameters refined using 0 restraints

END

WGHT      0.0400      0.4857

REM Highest difference peak  0.229,  deepest hole -0.310,  1-sigma level  0.061
Q1    1  -0.3768  0.1612  0.1444  11.00000  0.05    0.23
Q2    1   0.3790  0.3738  0.6781  11.00000  0.05    0.23
Q3    1   0.4223  0.4120  0.2393  11.00000  0.05    0.22
Q4    1   0.5358  0.4086  0.3629  11.00000  0.05    0.22
Q5    1   0.0819  0.2411  0.4393  11.00000  0.05    0.20
;
_shelx_res_checksum              97136
_shelx_hkl_file
;
   0   0  -1    0.00    0.10
   0   0   1    0.60    0.30
   0   0   1    0.30    0.20
   0   0  -1   -0.20    0.30
   0   0   2  740.03   27.50
   0   0  -2  729.93   27.50
   0   0  -2  724.03   27.00
   0   0   2  751.92   27.10
   0   0   3   -0.70    0.80
   0   0  -3    1.00    0.40
   0   0  -3    0.10    1.00
   0   0   3    0.50    0.60
   0   0  -4 1136.39   43.10
   0   0   4 1234.38   42.70
   0   0  -4 1121.09   42.30
   0   0  -4 1107.89   44.20
   0   0  -5    1.20    2.00
   0   0   5   -0.50    1.30
   0   0  -5    0.40    0.80
   0   0  -5    1.30    1.60
   0   0   6  401.26   15.30
   0   0  -6  366.36   14.90
   0   0  -6  377.96   16.00
   0   0  -6  382.36   16.70
   0   0  -7    4.30    2.50
   0   0  -7    2.10    1.20
   0   0  -7    0.80    2.90
   0   0  -8    1.10    1.70
   0   0  -8    8.00    3.80
   0   0  -8   -0.30    3.30
   0   0  -9   -4.20    4.30
   0   0  -9   -0.20    2.10
   0   0 -10  128.39   12.20
   0   0 -10  133.79    7.90
   0   1   0   -0.10    0.10
   0   1   0    0.00    0.10
   0  -1   0    0.00    0.20
   0  -1   0   -0.10    0.10
   0   1   1  840.32   31.00
   0   1  -1  792.12   30.50
   0   1   1  865.51   30.90
   0   1  -1  818.52   30.60
   0  -1  -1  841.22   31.00
   0  -1   1  836.82   30.60
   0  -1   1  833.02   30.50
   0  -1  -1  868.71   30.80
   0   1  -2  199.98    7.60
   0   1  -2  195.08    7.50
   0   1   2  201.98    7.80
   0   1  -2  189.58    7.70
   0   1   2  193.88    8.10
   0  -1   2  197.38    7.40
   0  -1  -2  195.48    7.70
   0  -1  -2  189.68    8.10
   0   1  -3   56.19    3.10
   0   1   3   60.39    3.70
   0   1  -3   61.79    2.80
   0   1  -3   61.39    3.40
   0  -1  -3   62.89    2.90
   0  -1  -3   62.59    3.80
   0  -1   3   62.49    2.80
   0   1   4  722.43   26.60
   0   1  -4  712.73   26.90
   0   1  -4  709.13   26.50
   0   1  -4  683.93   26.00
   0  -1   4  710.03   26.10
   0  -1  -4  685.53   26.00
   0  -1  -4  663.73   27.20
   0   1  -5   -0.30    1.40
   0   1   5    2.50    1.50
   0   1   5   -1.20    1.70
   0   1  -5    0.50    1.80
   0   1  -5   -0.10    0.80
   0  -1  -5    4.70    2.10
   0  -1  -5    1.40    0.70
   0  -1   5    1.20    1.20
   0   1   6  202.88    9.40
   0   1  -6  216.18   10.60
   0   1  -6  246.78    9.90
   0   1  -6  235.68    9.10
   0  -1   6  214.58    9.10
   0  -1  -6  208.48   10.90
   0  -1  -6  199.38    8.90
   0  -1  -6  208.18   10.30
   0   1  -7   79.39    5.40
   0   1  -7   74.49    6.20
   0   1  -7   82.09    4.40
   0  -1  -7   70.19    6.10
   0  -1  -7   71.39    4.10
   0  -1  -7   72.49    6.80
   0   1  -8  198.28   11.30
   0   1  -8  207.78    9.40
   0   1  -8  218.58   10.50
   0  -1  -8  211.38    9.10
   0  -1  -8  206.58   11.10
   0  -1  -8  196.28   11.80
   0   1  -9    6.60    4.40
   0   1  -9   17.40    3.00
   0  -1  -9    9.00    4.80
   0  -1  -9   17.80    2.80
   0   1 -10  122.69    7.90
   0  -1 -10  115.69   11.10
   0  -1 -10  125.89    7.50
   0  -2   0  336.97   13.10
   0  -2   0  346.67   12.90
   0   2   1 1011.20   36.50
   0   2  -1  957.90   35.80
   0   2  -1  993.10   36.30
   0   2   1 1007.10   36.50
   0  -2  -1 1004.70   36.50
   0  -2   1  923.11   35.80
   0  -2   1  993.70   36.20
   0  -2  -1  969.40   36.50
   0   2  -2  971.20   34.70
   0   2   2 1033.10   35.40
   0   2   2  979.60   35.50
   0   2  -2  795.12   34.90
   0  -2  -2  985.40   35.50
   0  -2   2  968.10   34.60
   0  -2  -2  853.21   35.40
   0  -2   2  956.90   34.60
   0   2   3  784.42   30.00
   0   2  -3  746.43   29.00
   0   2   3  807.02   29.80
   0   2  -3  800.12   29.00
   0   2  -3  783.32   29.20
   0  -2  -3  766.22   29.30
   0   2   4  291.17   12.80
   0   2  -4  292.67   12.20
   0   2   4  305.97   12.40
   0   2  -4  292.27   11.60
   0   2  -4  308.77   11.80
   0  -2  -4  282.97   12.90
   0  -2   4  313.57   11.40
   0  -2  -4  284.57   11.70
   0   2  -5  502.85   19.30
   0   2  -5  523.05   19.50
   0   2  -5  504.15   20.10
   0   2   5  486.25   20.50
   0   2   5  506.15   20.00
   0  -2  -5  492.85   20.90
   0  -2   5  503.65   19.10
   0  -2  -5  495.65   19.20
   0   2  -6  260.77   10.40
   0   2   6  226.78   11.30
   0   2  -6  231.48   11.00
   0   2   6  227.98   10.60
   0   2  -6  243.58   10.00
   0  -2  -6  222.58   11.80
   0  -2  -6  240.18    9.70
   0  -2   6  229.78    9.60
   0   2  -7   45.60    4.30
   0   2  -7   46.70    3.70
   0   2  -7   42.60    5.30
   0  -2  -7   44.40    5.60
   0  -2  -7   42.70    3.20
   0  -2  -7   48.60    6.40
   0   2  -8   21.30    3.10
   0   2  -8   21.40    4.20
   0   2  -8   20.80    3.60
   0  -2  -8   18.30    2.40
   0  -2  -8   18.40    4.80
   0  -2  -8   16.00    4.60
   0   2  -9  162.38   10.40
   0   2  -9  162.68    8.60
   0  -2  -9  159.88    7.80
   0  -2  -9  149.39   11.40
   0   2 -10   10.90    3.80
   0  -2 -10    6.30    6.20
   0  -2 -10    8.50    2.90
   0   3   0   -0.20    0.60
   0   3   0   -0.60    0.50
   0  -3   0   -0.10    0.50
   0  -3   0    0.20    0.50
   0  -3   0    0.50    0.60
   0   3  -1   86.19    3.50
   0   3   1   83.69    4.30
   0   3  -1   81.19    4.10
   0   3   1   90.49    4.30
   0  -3  -1   83.79    4.20
   0  -3   1   86.99    4.10
   0  -3  -1   83.09    4.30
   0  -3   1   88.89    3.40
   0   3  -2   17.90    1.80
   0   3  -2   18.10    1.10
   0   3   2   20.50    2.20
   0   3   2   20.60    2.10
   0  -3   2   17.20    1.20
   0  -3   2   18.20    1.40
   0  -3  -2   18.60    2.00
   0  -3  -2   18.10    2.30
   0   3   3  901.21   32.80
   0   3  -3  856.21   32.10
   0   3  -3  778.02   31.80
   0  -3  -3  820.32   32.90
   0  -3   3  909.71   31.60
   0  -3  -3  873.01   32.40
   0  -3   3  851.81   31.80
   0   3  -4  424.26   16.80
   0   3  -4  441.16   16.60
   0   3  -4  420.06   16.80
   0   3   4  450.95   17.60
   0   3   4  434.56   18.00
   0  -3  -4  431.36   18.10
   0  -3   4  422.16   16.20
   0  -3  -4  422.86   16.90
   0   3  -5  159.78    7.40
   0   3   5  174.78    8.90
   0   3   5  162.58    8.20
   0   3  -5  171.98    7.40
   0  -3   5  172.18    6.80
   0  -3  -5  168.08    9.10
   0  -3  -5  157.88    7.30
   0   3  -6   67.99    4.30
   0   3   6   60.89    5.10
   0   3  -6   65.29    4.10
   0   3  -6   58.59    4.90
   0   3   6   57.19    5.70
   0  -3  -6   61.09    3.60
   0  -3   6   55.99    3.40
   0  -3  -6   55.99    5.90
   0   3   7   13.20    3.80
   0   3  -7    9.30    2.60
   0   3  -7    6.60    2.80
   0   3  -7    9.10    2.30
   0  -3  -7    9.90    1.70
   0  -3  -7   11.70    3.80
   0  -3  -7    9.70    3.90
   0   3  -8  123.09    8.20
   0   3  -8  107.89    7.50
   0   3  -8  125.39    7.20
   0  -3  -8  129.49    6.30
   0  -3  -8  129.39    9.60
   0  -3  -8  130.39    9.80
   0   3  -9    0.30    3.00
   0   3  -9   10.10    4.10
   0  -3  -9    1.90    2.10
   0  -3  -9    3.90    5.10
   0   3 -10    9.40    4.10
   0  -3 -10   10.00    2.80
   0  -3 -10    9.70    7.40
   0   4   0 3398.86  122.29
   0   4   0 3385.06  121.69
   0  -4   0 3303.97  122.19
   0  -4   0 3234.28  121.59
   0   4  -1 2318.17   87.99
   0   4   1 2450.85   88.79
   0   4  -1 2409.86   88.79
   0  -4   1 2522.95   88.69
   0  -4  -1 2430.06   88.69
   0  -4   1 2325.57   87.79
   0   4  -2 2124.99   79.69
   0   4  -2 2071.99   78.59
   0   4   2 2238.28   80.09
   0   4   2 2259.07   80.19
   0  -4   2 2118.19   79.29
   0  -4  -2 2197.28   80.09
   0  -4  -2 2105.69   79.89
   0   4   3 4218.38  154.38
   0   4   3 4385.26  154.28
   0   4  -3 4122.99  153.58
   0  -4   3 4221.58  152.98
   0  -4  -3 4091.79  153.88
   0  -4  -3 4229.78  154.48
   0  -4   3 4128.59  152.78
   0   4   4   25.00    3.50
   0   4  -4   19.50    2.10
   0   4   4   25.20    3.10
   0   4  -4   19.40    2.10
   0   4  -4   23.20    2.50
   0  -4   4   25.00    1.70
   0  -4  -4   20.70    2.50
   0  -4  -4   22.80    3.40
   0   4  -5    1.10    1.50
   0   4   5    0.30    2.00
   0   4   5    0.50    2.60
   0   4  -5   -0.60    1.50
   0   4  -5    1.00    1.50
   0  -4   5    0.50    0.80
   0  -4  -5    0.70    2.40
   0  -4  -5   -0.90    1.20
   0   4  -6    1.60    1.80
   0   4  -6    3.60    2.20
   0   4   6    2.60    2.70
   0   4   6   -0.70    3.00
   0  -4   6    2.20    1.20
   0  -4  -6    0.20    1.30
   0  -4  -6    1.10    3.00
   0   4  -7  829.32   35.60
   0   4   7  950.50   37.60
   0   4  -7  937.81   36.10
   0   4  -7  953.00   36.10
   0  -4  -7  950.80   38.00
   0  -4  -7  969.10   35.30
   0   4  -8   52.89    5.30
   0   4  -8   48.20    5.60
   0   4  -8   51.49    6.00
   0  -4  -8   46.80    3.70
   0  -4  -8   64.09    7.80
   0   4  -9    7.00    4.00
   0   4  -9    5.80    3.40
   0  -4  -9    1.60    5.20
   0  -4  -9    2.60    2.10
   0   4 -10   25.50    5.00
   0  -4 -10   14.80    2.90
   0  -4 -10   23.10    7.30
   0   5   0    0.50    1.00
   0   5   0    1.40    1.00
   0  -5   0    1.70    1.20
   0  -5   0   -1.10    1.00
   0  -5   0    0.30    0.70
   0   5  -1 8591.74  339.87
   0   5   1 9561.34  339.07
   0   5   1 9999.00  339.57
   0  -5   1 9191.18  339.07
   0  -5   1 8810.32  339.17
   0  -5  -1 9701.93  339.37
   0   5  -2 3145.19  111.79
   0   5  -2 2899.41  110.49
   0   5   2 3193.98  112.19
   0   5   2 3207.38  112.09
   0  -5   2 2902.21  110.39
   0  -5   2 2648.24  111.79
   0  -5  -2 3132.19  111.99
   0  -5  -2 3128.59  111.99
   0   5   3  801.32   31.60
   0   5  -3  809.72   29.70
   0   5   3  779.72   31.60
   0   5  -3  800.42   31.00
   0  -5  -3  774.02   31.20
   0  -5   3  832.52   29.90
   0  -5   3  827.32   30.30
   0  -5  -3  807.82   31.70
   0   5   4   48.70    4.40
   0   5  -4   42.90    3.70
   0   5  -4   45.70    2.30
   0   5   4   51.29    4.80
   0  -5   4   40.10    2.80
   0  -5  -4   45.70    4.70
   0  -5   4   44.70    2.60
   0  -5  -4   48.40    3.80
   0   5   5 1103.59   42.60
   0   5  -5 1085.39   41.90
   0   5   5 1078.59   43.00
   0   5  -5 1109.59   40.70
   0   5  -5 1123.39   41.20
   0  -5  -5 1108.99   43.30
   0  -5   5 1067.49   40.70
   0  -5  -5 1106.09   41.80
   0   5  -6   46.20    4.40
   0   5  -6   44.10    3.50
   0   5  -6   46.30    4.20
   0   5   6   47.10    5.90
   0   5   6   42.90    5.40
   0  -5   6   46.20    4.30
   0  -5   6   47.90    2.90
   0  -5  -6   45.30    6.20
   0  -5  -6   43.30    3.80
   0   5   7  176.78   11.70
   0   5  -7  179.58    9.30
   0   5  -7  190.88    8.70
   0   5  -7  195.08    9.80
   0  -5  -7  195.28    9.10
   0  -5  -7  185.98   11.70
   0  -5   7  186.88    8.60
   0   5  -8   11.60    3.40
   0   5  -8   16.20    3.50
   0   5  -8   11.60    2.70
   0  -5  -8   15.40    5.00
   0  -5  -8    6.50    3.00
   0   5  -9   51.19    7.00
   0  -5  -9   56.09    7.80
   0  -5  -9   56.19    4.50
   0   5 -10   20.90    5.10
   0  -5 -10   16.40    3.10
   0  -5 -10   22.80    7.60
   0   6   0 3598.94  128.69
   0  -6   0 3301.57  128.49
   0  -6   0 3615.94  129.39
   0   6  -1  611.94   22.60
   0   6   1  611.84   23.90
   0   6  -1  583.94   23.60
   0  -6  -1  584.64   23.20
   0  -6  -1  528.95   23.70
   0  -6   1  576.24   23.60
   0  -6   1  590.54   22.30
   0  -6   1  622.74   23.60
   0   6  -2 1436.96   54.09
   0   6  -2 1409.36   55.29
   0   6   2 1507.65   55.59
   0  -6   2 1505.15   54.99
   0  -6  -2 1448.66   55.39
   0  -6   2 1459.85   53.69
   0  -6  -2 1493.75   55.69
   0   6  -3  156.58    6.50
   0   6  -3  158.98    8.10
   0   6   3  156.48    8.60
   0   6   3  165.48    8.70
   0  -6   3  165.08    6.90
   0  -6  -3  149.29    8.30
   0  -6  -3  163.28    8.30
   0  -6   3  166.48    7.40
   0  -6   3  152.78    8.00
   0   6  -4 1242.38   47.70
   0   6   4 1233.08   48.50
   0   6   4 1310.07   48.50
   0   6  -4 1228.08   45.90
   0  -6   4 1264.57   46.50
   0  -6   4 1249.77   46.20
   0  -6  -4 1252.57   47.80
   0  -6  -4 1226.48   48.50
   0  -6   4 1247.68   47.70
   0   6   5  141.89    8.90
   0   6  -5  132.69    6.20
   0   6   5  128.09    8.30
   0   6  -5  123.99    7.40
   0   6  -5  134.09    5.50
   0  -6  -5  136.39    7.30
   0  -6   5  134.69    5.90
   0  -6  -5  134.09    8.60
   0   6   6    1.00    4.10
   0   6  -6    1.50    1.00
   0   6  -6    2.30    2.30
   0  -6  -6    2.40    3.40
   0  -6   6    0.70    2.40
   0  -6   6    1.10    1.60
   0  -6  -6    1.10    1.80
   0   6  -7  163.38    8.10
   0  -6   7  142.29    8.00
   0  -6  -7  158.48   10.80
   0   6  -8    7.60    3.60
   0   6  -8    5.20    3.20
   0   6  -8    6.70    1.90
   0  -6  -8    7.20    4.90
   0   6  -9    1.50    4.00
   0  -6  -9    4.80    5.90
   0  -6  -9    0.30    2.00
   0   6 -10    6.90    5.00
   0  -6 -10    5.00    7.30
   0  -6 -10    2.30    2.70
   0  -7   0    1.50    1.40
   0  -7   0    0.70    1.10
   0  -7   0    0.50    1.40
   0   7   1  305.47   13.40
   0   7   1  315.27   14.00
   0   7  -1  307.77   12.70
   0  -7   1  309.87   13.80
   0  -7   1  300.17   12.40
   0  -7   1  300.57   13.60
   0  -7  -1  307.27   13.20
   0  -7  -1  312.07   13.90
   0   7  -2 1888.81   70.09
   0   7  -2 1837.02   68.59
   0   7   2 1806.12   69.99
   0   7   2 1871.71   70.49
   0  -7  -2 1845.52   69.89
   0  -7  -2 1812.42   70.19
   0  -7   2 1873.31   68.09
   0  -7   2 1937.51   69.69
   0   7  -3   20.70    3.10
   0   7   3   20.20    3.20
   0   7   3   13.80    2.70
   0   7  -3   17.30    1.90
   0  -7  -3   15.20    2.90
   0  -7   3   18.10    2.30
   0  -7   3   15.90    2.70
   0  -7   3   13.50    1.90
   0  -7  -3   13.90    2.60
   0   7   4  168.88    9.60
   0   7  -4  168.98    9.00
   0   7  -4  172.08    7.00
   0   7   4  152.18    9.50
   0  -7  -4  165.78    9.60
   0  -7  -4  161.68    8.90
   0  -7   4  172.48    9.00
   0  -7   4  172.68    7.20
   0  -7   4  174.98    7.70
   0   7  -5    1.40    1.00
   0   7   5   -2.60    3.10
   0   7   5    2.60    3.50
   0   7  -5    2.10    2.40
   0  -7   5    0.60    1.40
   0  -7  -5    0.10    2.90
   0  -7  -5    1.00    2.10
   0  -7   5    2.80    2.50
   0  -7   5    2.30    1.30
   0   7  -6  186.98   10.00
   0   7   6  183.08   11.90
   0   7  -6  190.98    7.60
   0   7  -6  171.18    9.00
   0  -7  -6  199.08   11.50
   0  -7   6  183.68    9.70
   0  -7  -6  185.68    9.50
   0   7  -7    1.50    3.00
   0   7  -7    1.00    1.20
   0   7  -7    0.10    3.00
   0  -7  -7    0.80    4.20
   0  -7   7   -2.90    3.00
   0   7  -8  221.88   10.80
   0   7  -8  242.88   12.80
   0  -7  -8  236.68   14.70
   0   7  -9    7.40    4.70
   0  -7  -9    0.70    2.30
   0  -7  -9    3.50    6.30
   0   7 -10    3.60    5.40
   0  -7 -10    2.10    2.70
   0  -7 -10    4.90    7.50
   0   8   0 1480.95   54.49
   0  -8   0 1432.66   54.09
   0  -8   0 1425.26   55.19
   0  -8   0 1424.76   55.29
   0   8   1  843.32   32.10
   0  -8  -1  799.72   32.60
   0  -8   1  838.52   32.40
   0  -8  -1  819.62   31.80
   0  -8   1  815.72   30.90
   0  -8   1  762.52   32.40
   0   8  -2  269.57   11.40
   0   8  -2  270.87   12.90
   0   8   2  271.77   13.30
   0   8   2  290.97   12.90
   0  -8  -2  249.97   12.80
   0  -8   2  267.67   12.40
   0  -8  -2  274.57   12.60
   0   8   3   13.00    3.50
   0   8   3   11.90    3.40
   0   8  -3    9.40    1.60
   0   8  -3    6.60    2.30
   0  -8   3    5.40    2.30
   0  -8  -3    8.40    2.80
   0  -8   3    9.20    2.20
   0  -8   3    8.40    1.50
   0  -8  -3    7.90    2.80
   0   8   4  155.88    9.90
   0   8  -4  157.18    7.00
   0   8   4  144.89    9.70
   0   8  -4  157.08    9.10
   0  -8  -4  156.48    8.90
   0  -8   4  156.68    7.70
   0  -8  -4  163.28    9.50
   0  -8   4  158.08    8.90
   0  -8   4  172.28    7.10
   0   8  -5  324.37   15.10
   0   8  -5  312.97   12.60
   0   8   5  333.07   16.10
   0   8   5  304.07   16.00
   0  -8  -5  322.77   14.80
   0  -8   5  309.77   13.00
   0  -8   5  315.77   12.80
   0  -8   5  313.97   14.70
   0  -8  -5  327.17   15.90
   0   8  -6    0.60    1.30
   0   8  -6    1.10    2.90
   0   8  -6   -0.90    2.10
   0  -8  -6    1.30    3.60
   0  -8  -6   -0.50    2.30
   0  -8   6    2.10    3.00
   0   8  -7    1.40    1.60
   0   8  -7    1.30    4.20
   0  -8   7    6.20    3.60
   0  -8  -7   -3.20    4.20
   0   8  -8  203.68   12.30
   0  -8  -8  214.88   14.00
   0   8  -9   43.10    6.70
   0  -8  -9   46.10    8.40
   0  -8  -9   46.30    4.90
   0   8 -10    3.00    5.60
   0  -8 -10    8.30    3.10
   0  -8 -10   16.40    8.50
   0   9   0    0.70    2.00
   0  -9   0    0.80    2.10
   0  -9   0    1.00    1.40
   0  -9   0    1.90    2.50
   0   9  -1  210.68    9.80
   0   9   1  216.68   10.60
   0  -9  -1  211.18   10.20
   0  -9   1  209.48    9.20
   0  -9   1  200.68   10.90
   0  -9   1  208.48   10.80
   0  -9  -1  218.58   11.30
   0   9  -2 1163.88   47.70
   0   9   2 1284.67   49.20
   0   9   2 1244.38   48.50
   0  -9  -2 1292.47   48.40
   0  -9   2 1284.67   46.40
   0  -9  -2 1211.48   48.80
   0  -9   2 1296.27   48.40
   0  -9   2 1207.28   48.60
   0   9   3  325.17   15.60
   0   9  -3  325.27   13.20
   0   9  -3  319.37   15.10
   0   9   3  306.57   15.20
   0  -9   3  309.87   14.10
   0  -9   3  333.07   12.60
   0  -9   3  302.07   14.80
   0  -9  -3  308.77   14.90
   0  -9  -3  317.87   15.10
   0   9   4  117.49    8.90
   0   9  -4  116.29    8.00
   0   9  -4  116.49    5.80
   0   9   4  135.09    8.90
   0  -9  -4  110.39    8.20
   0  -9  -4  119.09    8.00
   0  -9   4  113.29    6.60
   0  -9   4  117.69    7.80
   0   9   5    2.30    4.40
   0   9  -5    7.00    3.10
   0   9   5   -5.30    4.90
   0   9  -5    1.70    1.50
   0  -9  -5    2.70    3.50
   0  -9  -5   -1.40    2.60
   0  -9   5    1.60    2.90
   0   9  -6   17.40    3.40
   0   9  -6   18.00    2.30
   0  -9  -6   24.50    5.60
   0  -9   6   23.30    4.40
   0  -9  -6   16.60    3.60
   0   9  -7  156.98    7.10
   0   9  -7  147.19    8.00
   0  -9   7  158.78    9.80
   0  -9  -7  178.18   12.30
   0   9  -8  197.58   12.40
   0  -9  -8  171.18   10.00
   0  -9  -8  196.08   14.30
   0   9  -9   23.40    5.80
   0  -9  -9    7.70    6.90
   0  -9  -9    9.90    3.20
   0  10   0 1500.85   56.79
   0 -10   0 1538.15   58.39
   0 -10   0 1433.86   56.19
   0  10  -1   86.39    5.60
   0  10   1   79.79    6.20
   0 -10  -1   76.79    6.80
   0 -10   1   76.99    6.40
   0 -10   1   77.49    4.70
   0 -10   1   77.99    6.60
   0 -10  -1   82.29    6.70
   0 -10  -1   74.69    5.50
   0  10  -2  196.38    9.30
   0  10   2  200.38   11.60
   0  10   2  198.58   10.80
   0 -10   2  191.48   10.40
   0 -10  -2  189.38   10.10
   0 -10   2  181.28   10.60
   0 -10   2  199.28    8.30
   0 -10  -2  177.88   10.70
   0  10  -3   18.90    2.60
   0  10   3   17.80    4.00
   0  10   3   19.10    4.40
   0  10  -3   10.90    3.50
   0 -10   3   16.30    2.00
   0 -10  -3   17.40    3.80
   0 -10   3   18.10    3.50
   0 -10   3   33.90    4.50
   0 -10  -3   18.40    3.90
   0  10  -4  571.74   24.10
   0  10   4  512.45   24.30
   0  10   4  525.65   24.50
   0 -10   4  562.84   21.80
   0 -10   4  546.45   22.50
   0 -10  -4  560.54   24.10
   0 -10  -4  545.15   24.10
   0 -10   4  550.44   23.80
   0  10  -5  273.07   11.50
   0  10  -5  271.67   14.30
   0 -10   5  279.37   11.30
   0 -10  -5  268.17   14.00
   0 -10  -5  280.97   14.80
   0 -10   5  258.77   13.80
   0  10  -6   61.79    4.40
   0 -10  -6   63.79    7.60
   0 -10   6   58.29    7.40
   0 -10  -6   72.09    8.30
   0  10  -7   -1.70    2.50
   0  10  -7    1.00    2.10
   0 -10  -7   -1.30    3.00
   0 -10   7   -3.40    4.30
   0 -10  -7    2.10    5.10
   0  10  -8   12.30    5.60
   0 -10  -8    9.90    3.80
   0 -10  -8   18.60    6.60
   0 -10  -9   -7.40    7.00
   0 -10  -9    3.00    3.10
   0  11   0    0.00    2.70
   0 -11   0   -0.30    2.10
   0 -11   0    3.50    1.90
   0 -11   0    0.50    2.90
   0  11   1   17.50    3.80
   0  11  -1   15.90    3.20
   0 -11  -1   10.70    3.40
   0 -11   1   10.40    3.60
   0 -11  -1   17.80    3.10
   0 -11   1   14.70    4.00
   0 -11   1   13.10    2.10
   0  11   2  743.13   31.80
   0  11  -2  785.82   30.60
   0 -11   2  809.62   32.10
   0 -11   2  796.52   29.60
   0 -11   2  788.22   32.50
   0 -11  -2  764.62   31.60
   0 -11  -2  738.73   32.40
   0  11  -3   22.60    3.20
   0  11   3   24.20    5.30
   0  11   3   17.50    4.90
   0 -11  -3   15.20    3.60
   0 -11  -3   18.90    3.70
   0 -11   3   21.80    4.00
   0 -11   3   24.30    2.30
   0  11  -4   -1.20    3.30
   0  11  -4    2.10    2.20
   0  11   4    3.50    4.50
   0 -11   4    5.40    2.80
   0 -11  -4    4.30    3.40
   0 -11   4    6.50    2.50
   0 -11  -4    1.00    3.20
   0 -11   4    3.00    3.00
   0  11  -5  154.88   10.60
   0  11  -5  143.79    9.00
   0 -11   5  150.58   10.20
   0 -11  -5  144.99   10.70
   0 -11   5  169.98    7.40
   0 -11  -5  149.59   10.30
   0  11  -6   78.19    5.30
   0 -11   6   76.29    8.40
   0 -11   6   65.99    4.80
   0 -11  -6   79.39    7.80
   0 -11  -6   87.39    9.10
   0  11  -7    5.90    2.60
   0 -11  -7    4.90    5.80
   0 -11   7   10.60    5.30
   0 -11  -7    1.20    3.50
   0  11  -8  131.99   11.60
   0 -11  -8  128.99    9.40
   0 -11  -8  143.99   13.50
   0 -11  -9  -13.40    7.60
   0 -11  -9    2.10    3.60
   0  12   0   68.19    6.60
   0 -12   0   73.79    7.30
   0 -12   0   70.99    7.50
   0 -12   0   66.49    5.20
   0  12  -1   -1.00    2.80
   0  12   1    1.40    3.10
   0 -12  -1    7.10    3.70
   0 -12  -1   -0.50    2.10
   0 -12   1    0.90    3.00
   0 -12   1    4.70    1.80
   0 -12   1    1.80    3.70
   0 -12  -1    0.40    3.60
   0  12  -2   39.50    4.90
   0  12   2   27.70    4.90
   0 -12   2   38.60    3.20
   0 -12   2   30.90    5.10
   0 -12   2   49.30    6.10
   0 -12  -2   43.50    6.10
   0 -12  -2   39.60    5.60
   0 -12  -2   45.20    5.40
   0  12  -3  146.89    7.90
   0  12   3  125.29   10.40
   0 -12   3  134.59    6.20
   0 -12   3  115.89    8.80
   0 -12  -3  140.09   10.00
   0 -12  -3  137.89    9.00
   0  12  -4  319.47   13.60
   0 -12   4  254.57   13.00
   0 -12  -4  300.17   16.00
   0 -12  -4  337.77   16.20
   0 -12   4  314.77   15.90
   0  12  -5   26.20    3.60
   0 -12   5   27.40    3.20
   0 -12  -5   23.30    5.60
   0 -12   5   26.60    5.50
   0 -12  -5   26.80    5.40
   0 -12  -6  122.69   11.00
   0 -12   6  109.29   10.30
   0 -12   6  116.29    6.20
   0  12  -7   93.89    6.60
   0 -12  -7  101.69    9.10
   0 -12  -7   97.09   11.60
   0 -12  -8   38.80    8.60
   0 -12  -8   35.30    5.70
   0 -12  -9   51.69   10.00
   0 -12  -9   53.29    7.30
   0  13   0    0.40    3.30
   0 -13   0    3.40    2.30
   0 -13   0   -1.30    3.90
   0 -13   0    5.70    3.50
   0  13  -1    3.90    3.20
   0  13   1   -1.40    3.40
   0 -13   1    2.80    2.00
   0 -13  -1   -0.30    2.50
   0 -13  -1   -2.00    3.50
   0 -13  -1    9.40    4.60
   0 -13   1    5.00    3.90
   0 -13   1   -0.80    3.60
   0  13   2    1.30    3.80
   0  13  -2    1.00    3.00
   0 -13  -2   -3.10    2.80
   0 -13  -2    9.30    6.60
   0 -13   2    1.10    3.40
   0 -13   2    1.50    1.60
   0 -13   2   -3.40    3.50
   0 -13  -2   -2.70    2.60
   0  13  -3  571.94   23.60
   0 -13  -3  572.54   26.00
   0 -13   3  532.05   24.80
   0 -13   3  541.25   25.60
   0 -13   3  599.94   22.10
   0 -13  -3  588.14   25.30
   0  13  -4  761.82   30.30
   0 -13  -4  771.42   33.20
   0 -13  -4  782.32   32.80
   0 -13   4  737.43   32.70
   0  13  -5   72.49    6.00
   0 -13  -5   69.59    8.20
   0 -13   5   62.69    7.70
   0 -13   5   69.99    5.60
   0  13  -6   62.49    5.80
   0 -13   6   50.29    8.10
   0 -13  -6   80.19   10.10
   0 -13   6   59.39    4.70
   0 -13  -7   22.90    7.00
   0 -13  -7   22.30    5.60
   0 -13  -8    4.40    4.50
   0 -13  -8   -3.50    7.20
   0  14   0  144.89   10.20
   0 -14   0  144.39    8.50
   0 -14   0  158.18   11.60
   0 -14   0  145.19   11.20
   0  14  -1   63.49    7.00
   0  14   1   45.10    6.20
   0 -14  -1   52.89    6.90
   0 -14  -1   49.80    6.80
   0 -14   1   59.29    7.20
   0 -14   1   37.20    6.20
   0 -14   1   56.79    4.80
   0 -14  -1   52.19    5.90
   0  14  -2   55.79    6.60
   0 -14  -2   62.39    6.70
   0 -14  -2   50.89    7.00
   0 -14   2   56.99    8.00
   0 -14   2   53.49    4.30
   0 -14   2   64.69    7.90
   0 -14  -2   73.49    9.00
   0  14  -3   65.19    6.80
   0 -14  -3   80.59    8.90
   0 -14  -3   64.79    8.30
   0 -14   3   87.69    9.00
   0 -14   3   72.29    4.50
   0 -14  -3   79.99    8.00
   0  14  -4   71.49    6.60
   0 -14   4   50.49    4.70
   0 -14  -4   50.79    6.90
   0 -14   4   48.30    6.70
   0  14  -5   19.70    4.10
   0 -14   5   21.10    3.70
   0 -14   5   11.90    5.80
   0 -14  -5   10.90    5.20
   0 -14  -5   14.60    5.50
   0 -14   6   -1.90    2.30
   0 -14  -6    1.10    5.30
   0 -14  -6   -1.80    4.40
   0 -14  -7   28.30    7.70
   0 -14  -7   24.20    5.70
   0 -14  -8   30.10    6.20
   0 -14  -8   24.40    8.80
   0  15   0    1.80    4.60
   0 -15   0    1.30    2.70
   0 -15   0    0.60    4.80
   0 -15   0    0.60    4.80
   0  15  -1  497.45   22.50
   0 -15   1  485.85   24.20
   0 -15   1  491.65   24.50
   0 -15  -1  516.95   22.10
   0 -15  -1  494.35   24.30
   0 -15   1  496.05   20.70
   0 -15  -1  488.35   24.30
   0  15  -2   22.50    4.80
   0 -15  -2   15.70    4.30
   0 -15   2   24.40    6.40
   0 -15  -2   20.50    5.70
   0 -15   2   21.10    2.90
   0 -15  -2   18.60    5.80
   0 -15   2   10.00    4.70
   0  15  -3  175.48   10.90
   0 -15   3  183.78    8.50
   0 -15  -3  175.98   13.20
   0 -15  -3  193.08   12.20
   0 -15  -3  190.28   15.30
   0 -15   3  184.18   13.00
   0  15  -4  100.29    8.20
   0 -15   4   86.89    6.10
   0 -15  -4   84.89   10.60
   0 -15   4   97.69   10.60
   0 -15  -4  100.59   10.60
   0  15  -5   31.30    4.80
   0 -15  -5   13.50   11.40
   0 -15  -5   15.60    5.80
   0 -15  -5   28.40    8.70
   0 -15   5   26.10    4.40
   0 -15   5   13.00   16.50
   0 -15  -6    3.20    5.40
   0 -15   6    7.00    2.80
   0 -15  -6   -0.60    5.70
   0 -15  -7   93.49   11.20
   0 -15  -7   89.09   10.90
   0 -15  -8    6.10    5.30
   0 -15  -8   16.90    8.60
   0 -16   0   -1.50    5.90
   0 -16   0   19.80    3.80
   0 -16   0   10.20    5.20
   0  16  -1  560.54   26.30
   0 -16   1  592.04   24.30
   0 -16   1  617.64   28.80
   0 -16   1  572.74   28.00
   0 -16  -1  609.04   25.70
   0 -16  -1  583.94   28.10
   0 -16  -1  584.84   28.50
   0  16  -2   23.00    5.50
   0 -16  -2   18.10    6.00
   0 -16   2    8.90    5.50
   0 -16  -2   24.60    5.00
   0 -16   2   21.50    3.10
   0 -16  -2   19.00    6.00
   0  16  -3  105.29    9.40
   0 -16   3  115.89    6.20
   0 -16  -3  109.09   11.80
   0 -16   3   97.09   11.40
   0 -16  -3  110.69   13.20
   0  16  -4   -2.60    4.60
   0 -16   4    6.20    2.70
   0 -16  -4    3.80    7.60
   0 -16   4    6.50    5.90
   0 -16  -4    1.60    4.80
   0 -16   5   79.59    7.90
   0 -16  -5   82.99   10.60
   0 -16  -6   29.90    7.90
   0 -16  -6   29.10    7.00
   0 -16  -7   51.39    9.50
   0 -16  -7   39.20    7.60
   0 -17   0    3.50    3.30
   0 -17   0    8.30    6.20
   0 -17   0    8.50    6.20
   0 -17  -1   52.79    7.90
   0 -17  -1   59.49    9.60
   0 -17   1   69.09    5.90
   0 -17   1   70.59    9.00
   0 -17  -1   73.89    7.50
   0 -17   1   49.30    8.70
   0  17  -2  102.59   10.90
   0 -17  -2   97.89   12.40
   0 -17  -2  118.09   12.30
   0 -17   2  113.19    6.90
   0 -17   2   93.09   12.80
   0  17  -3   -4.20    5.30
   0 -17   3    1.90    2.00
   0 -17   3    4.30    5.70
   0 -17  -3    0.10    5.10
   0 -17  -3    4.90    7.90
   0  17  -4   56.99    7.10
   0 -17   4   41.50    5.30
   0 -17  -4   72.29    9.10
   0 -17  -4   45.80   10.50
   0 -17   5  100.19    8.70
   0 -17  -5   95.99   11.60
   0 -17  -5   98.49   11.90
   0 -17  -6   10.30    6.60
   0 -17  -6   13.80    7.70
   0 -17  -7    7.00    6.90
   0 -17  -7    8.20    8.40
   0 -18   0   83.19    8.00
   0 -18   0  103.79   13.20
   0 -18   0  104.69   12.80
   0 -18  -1   23.30    7.60
   0 -18  -1   31.20    8.40
   0 -18   1   34.90    4.50
   0 -18   1   42.80    8.90
   0 -18   2   40.80    4.60
   0 -18  -2   32.00    8.40
   0 -18   2   35.90    9.50
   0 -18  -2   20.30    9.30
   0 -18   3  239.48   11.30
   0 -18  -3  253.57   17.70
   0 -18  -3  248.08   15.60
   0 -18   4    2.80    3.00
   0 -18  -4   -4.50    5.70
   0 -18  -5   37.60    8.80
   0 -18  -5   45.60    8.60
   0 -18   5   55.79    6.40
   0 -18  -6   66.79   10.90
   0 -18  -6   52.49    9.60
   0 -18  -7   11.10    8.80
   0 -19   0    7.60    7.30
   0 -19  -1    6.80    7.80
   0 -19   1   -6.80    7.20
   0 -19   1    4.80    3.40
   0 -19  -1   12.10    8.20
   0 -19   2   25.30    9.10
   0 -19   2    8.30    3.20
   0 -19  -2   12.40    7.60
   0 -19  -2    4.80   10.60
   0 -19  -2    3.50    4.80
   0 -19  -3   15.10    7.30
   0 -19   3    6.70    2.70
   0 -19  -3    3.30    5.20
   0 -19  -4    1.50    6.70
   0 -19   4   -0.20    3.30
   0 -19  -5   21.40    8.30
   0 -19  -5   22.30    7.90
   0 -19  -6    0.40    8.70
   0 -19  -6    0.60    8.10
   0 -20   0  273.37   20.00
   0 -20  -1    0.00    7.90
   0 -20   1    0.80    6.60
   0 -20  -1    9.30    4.80
   0 -20  -2   -0.30    5.20
   0 -20   2    3.30    3.20
   0 -20  -2    7.40    8.90
   0 -20  -3   30.10    7.30
   0 -20   3   39.60    5.20
   0 -20  -3   38.40    9.80
   0 -20  -4  172.58   14.50
   0 -20  -4  157.58   15.90
   0 -20   4  120.59    8.80
   0 -20  -5    0.50    8.20
   0 -20  -5  -11.40    7.80
   0 -21   0   -2.70    4.30
   0 -21   0    8.30    8.60
   0 -21   1   10.90    4.30
   0 -21  -1   -0.50    5.10
   0 -21  -1    4.30    7.50
   0 -21  -2  182.38   18.60
   0 -21  -2  172.28   13.70
   0 -21  -3   23.80    7.60
   0 -21   3   30.60    5.00
   0 -21  -4   48.70    8.80
   0 -21  -4   60.89   11.00
   0 -21   4   35.20    6.90
   0 -21  -5    3.30    7.80
   0 -22   0   54.09    6.80
   0 -22  -1   74.69   13.10
   0 -22  -1   83.09   10.90
   0 -22   1   69.99    8.10
   0 -22   2    6.30    3.80
   0 -22  -2   -1.30    6.10
   0 -22  -2   -7.40   11.40
   0 -22  -3    5.30    8.60
   0 -22  -3    7.80    7.40
   0 -22  -4    0.10    7.80
   0 -23  -1    5.20    5.90
   0 -23   1   12.60    5.10
   0 -23   2   23.50    4.90
   0 -23  -2    7.40    7.30
   1   0 -10    5.70    6.20
   1   0  -9    2.40    6.20
   1   0  -9   -2.60    1.90
   1   0  -9   -4.50    4.80
   1   0  -8  134.09    6.20
   1   0  -8  121.89    8.50
   1   0  -8  134.69    9.90
   1   0  -7    0.20    1.00
   1   0  -7    3.90    3.20
   1   0  -7    2.70    2.60
   1   0  -6 2983.20  111.29
   1   0  -6 3067.89  112.69
   1   0  -6 3104.49  113.59
   1   0  -5    0.30    2.00
   1   0  -5    7.50    1.90
   1   0  -4 1435.06   54.39
   1   0  -4 1494.65   55.59
   1   0  -4 1550.24   56.09
   1   0  -3    1.00    1.00
   1   0  -3    0.60    0.30
   1   0  -3    1.30    1.10
   1   0  -2 5576.84  202.88
  -1   0   1    0.00    0.40
   1   0  -1    1.00    0.20
  -1   0   1    0.20    0.20
   1   0  -1    1.10    0.40
   1   0   1    0.60    0.30
   1   0   1   -0.10    0.30
  -1   0  -1    0.00    0.30
  -1   0  -1    0.10    0.20
  -1   0  -2    5.90    0.90
   1   0   2    4.80    0.90
   1   0   2    5.00    0.70
  -1   0  -3   -0.70    0.50
   1   0   3    0.70    1.00
   1   0   3   -0.40    0.70
  -1   0  -3    1.00    0.90
  -1   0  -4  742.63   29.00
   1   0   4  792.72   29.30
  -1   0  -4  768.82   29.60
   1   0   4  792.62   29.50
  -1   0  -5   -1.40    1.80
   1   0   5    0.30    1.40
   1   0   5    2.00    1.70
  -1   0  -5   -2.10    0.80
  -1   0  -6    8.20    2.30
   1   0   6    8.50    2.40
  -1   0  -6    7.80    2.50
  -1   0  -6    8.10    1.60
  -1   0  -7   -1.20    2.60
  -1   0  -8  128.79    8.30
  -1   0  -8  123.89    6.70
  -1   0  -8  112.29    7.80
  -1   0  -9    0.10    4.10
  -1   0  -9   -2.30    2.60
  -1   0 -10   16.90    3.90
   1   1 -10    4.70    6.00
   1  -1 -10    2.60    6.30
   1  -1 -10    2.60    2.40
   1   1  -9   -0.90    2.10
   1   1  -9    2.10    4.90
   1  -1  -9   -3.10    5.00
   1  -1  -9    2.10    1.80
   1   1  -8    7.30    3.30
   1   1  -8   12.50    4.30
   1   1  -8    7.80    2.40
   1  -1  -8    7.80    4.00
   1  -1  -8    5.20    4.20
   1  -1  -8    8.60    1.50
   1   1  -7  323.17   12.30
   1   1  -7  311.07   14.70
   1   1  -7  302.37   13.60
   1  -1  -7  294.47   13.90
   1  -1  -7  300.37   12.10
   1  -1  -7  317.77   15.20
   1   1  -6  215.58   10.50
   1  -1  -6  202.98   10.80
   1  -1  -6  204.88   10.00
   1  -1  -6  193.68    8.10
   1   1  -5   58.49    4.00
   1   1  -5   62.19    2.90
   1   1  -5   61.99    4.70
   1  -1  -5   58.99    4.40
   1  -1  -5   56.69    4.90
   1  -1  -5   63.19    2.90
   1   1  -4 1693.43   62.89
   1   1  -4 1668.63   61.49
   1   1  -4 1616.14   63.09
   1  -1  -4 1691.43   62.79
   1  -1  -4 1767.82   63.39
   1  -1  -4 1685.23   61.69
   1   1  -3 2087.79   75.69
   1   1  -3 2096.89   75.99
  -1   1   3 2194.58   76.19
   1   1  -3 2005.20   74.99
   1  -1  -3 2067.69   75.39
   1  -1  -3 2015.90   76.09
  -1  -1   3 1970.80   75.89
   1   1  -2 2384.26   86.19
  -1   1   2 2364.96   86.59
   1  -1  -2 2435.06   86.09
  -1  -1   2 2324.77   86.29
   1  -1  -2 2295.47   86.49
   1  -1  -2 2352.76   86.69
  -1   1   1  169.98    6.80
   1   1  -1  176.78    6.60
   1   1  -1  181.78    7.00
   1  -1  -1  164.68    6.90
   1  -1  -1  168.78    7.00
  -1  -1   1  184.08    6.90
  -1  -1   1  176.48    6.50
   1  -1  -1  173.88    6.80
  -1   1   0    8.00    0.70
   1   1   0    9.90    0.70
   1  -1   0   12.60    0.70
  -1  -1   0    9.20    0.60
   1   1   1  567.64   21.40
   1   1   1  577.44   21.40
  -1   1  -1  568.54   20.80
   1  -1   1  579.44   21.20
  -1  -1  -1  565.34   21.20
  -1  -1  -1  571.34   21.30
   1   1   2 1362.46   48.30
   1   1   2 1343.17   48.50
  -1   1  -2 1159.18   48.20
  -1   1  -2 1341.47   47.90
  -1  -1  -2 1342.57   48.40
   1  -1   2 1263.37   48.00
   1  -1   2 1338.67   47.90
  -1   1  -3  217.08    8.60
   1   1   3  206.78    8.80
   1   1   3  221.08    9.20
  -1   1  -3  198.08    8.50
   1  -1   3  218.78    8.50
  -1  -1  -3  210.38    9.10
   1  -1   3  206.48    8.50
  -1  -1  -3  209.98    8.40
   1   1   4  176.58    7.90
  -1   1  -4  172.88    7.50
   1   1   4  177.78    8.30
  -1   1  -4  173.68    7.40
  -1   1  -4  176.48    7.80
   1  -1   4  186.58    7.60
  -1  -1  -4  173.28    8.30
   1  -1   4  187.98    7.50
  -1  -1  -4  167.78    7.30
  -1   1  -5  218.28    9.10
   1   1   5  219.68    9.60
  -1   1  -5  196.18   10.00
   1   1   5  219.78    9.90
  -1   1  -5  204.68    8.90
  -1  -1  -5  210.38    8.80
   1  -1   5  201.38    9.00
  -1  -1  -5  208.88    9.90
  -1   1  -6   90.49    5.20
   1   1   6   85.29    6.00
  -1   1  -6   81.39    5.60
  -1   1  -6   85.39    4.70
   1   1   6   99.19    6.10
   1  -1   6   83.49    5.20
  -1  -1  -6   82.89    6.10
  -1  -1  -6   87.39    4.70
  -1   1  -7  569.44   23.50
  -1   1  -7  588.84   23.00
  -1   1  -7  604.44   23.00
  -1  -1  -7  581.44   23.70
  -1  -1  -7  568.24   24.10
  -1  -1  -7  566.74   22.70
  -1   1  -8  146.99    8.60
  -1   1  -8  145.39    8.20
  -1   1  -8  149.59    7.70
  -1  -1  -8  121.09    7.10
  -1  -1  -8  148.69    9.10
  -1  -1  -8  143.39    9.30
  -1   1  -9    8.30    3.10
  -1   1  -9    7.40    4.10
  -1  -1  -9    7.80    4.50
  -1  -1  -9    4.10    2.60
  -1   1 -10   56.09    6.70
  -1  -1 -10   58.09    6.30
   1   2 -10    8.20    5.80
   1  -2 -10    1.70    2.30
   1  -2 -10    4.60    7.20
   1   2  -9    6.30    2.60
   1   2  -9    2.60    4.60
   1  -2  -9    8.00    1.90
   1  -2  -9   11.10    5.50
   1   2  -8   34.40    3.40
   1   2  -8   36.20    4.40
   1   2  -8   37.00    5.40
   1  -2  -8   37.30    2.90
   1  -2  -8   40.10    6.10
   1  -2  -8   32.60    5.20
   1   2  -7   20.60    3.00
   1   2  -7   17.00    2.20
   1   2  -7   22.40    4.00
   1  -2  -7   18.00    1.90
   1  -2  -7   11.10    3.50
   1  -2  -7   13.70    4.20
   1   2  -6   92.49    5.30
   1   2  -6   85.09    4.20
   1   2  -6   82.19    6.00
   1  -2  -6   78.29    6.00
   1  -2  -6   82.69    6.70
   1  -2  -6   78.19    3.90
   1   2  -5    8.30    2.10
   1   2  -5    8.90    1.20
   1   2  -5    9.00    1.80
  -1   2   5    6.30    2.10
   1  -2  -5    9.10    2.50
   1  -2  -5    9.80    1.40
   1  -2  -5    5.90    2.40
   1   2  -4   41.00    2.40
  -1   2   4   43.80    3.80
   1   2  -4   46.30    3.00
   1   2  -4   42.20    3.30
   1  -2  -4   42.90    2.60
   1  -2  -4   47.00    4.10
   1   2  -3    0.20    0.80
  -1   2   3    1.00    1.40
   1   2  -3    1.50    0.70
   1  -2  -3    1.80    1.40
  -1  -2   3    1.20    0.90
   1  -2  -3    0.90    0.80
   1   2  -2 4196.18  150.98
   1   2  -2 4284.37  150.98
   1   2  -2 4015.40  151.18
  -1   2   2 4302.67  151.68
   1  -2  -2 4267.37  151.78
   1  -2  -2 3796.52  151.68
  -1  -2   2 4185.98  151.08
   1   2  -1    3.90    0.70
  -1   2   1    3.50    0.80
  -1   2   1    2.40    0.70
   1   2  -1    5.30    0.70
   1  -2  -1    6.70    1.10
   1  -2  -1    4.10    0.80
  -1  -2   1    5.70    0.80
  -1  -2   1    4.90    0.70
   1   2   0  548.75   20.90
   1   2   0  556.44   20.70
  -1   2   0  571.84   20.70
  -1   2   0  556.54   21.00
  -1  -2   0  548.65   20.60
   1  -2   0  561.54   20.90
   1  -2   0  546.05   20.70
  -1  -2   0  555.44   20.90
  -1   2  -1   19.20    1.40
   1   2   1   16.60    1.50
   1   2   1   15.80    1.50
  -1  -2  -1   14.70    1.40
   1  -2   1   16.70    1.20
  -1  -2  -1   16.20    1.40
   1   2   2 1117.69   40.80
  -1   2  -2 1079.99   39.80
  -1   2  -2 1077.79   40.40
  -1   2  -2 1106.59   39.70
   1   2   2 1090.89   40.90
  -1  -2  -2 1110.99   40.80
  -1  -2  -2 1057.69   40.50
   1  -2   2 1090.19   40.20
   1   2   3 7011.70  245.88
   1   2   3 6629.84  245.98
  -1  -2  -3 6584.04  245.28
   1   2   4   49.40    4.10
  -1   2  -4   47.20    2.70
  -1   2  -4   44.40    3.00
   1   2   4   47.10    3.70
  -1   2  -4   47.40    2.90
  -1  -2  -4   48.90    4.00
  -1  -2  -4   47.30    2.80
   1  -2   4   48.70    2.70
  -1   2  -5   82.99    4.60
   1   2   5   85.79    5.60
  -1   2  -5   88.09    4.40
  -1   2  -5   78.79    4.90
   1   2   5   88.89    5.90
  -1  -2  -5   88.09    5.80
   1  -2   5   88.99    4.50
  -1  -2  -5   92.49    4.40
   1   2   6  320.67   15.00
  -1   2  -6  373.06   14.30
  -1   2  -6  343.27   14.40
   1   2   6  351.46   15.40
  -1  -2  -6  335.37   15.30
   1  -2   6  321.47   14.00
  -1  -2  -6  350.56   13.80
  -1   2  -7  124.39    7.10
   1   2   7  121.09    8.20
  -1  -2  -7  124.89    6.20
  -1  -2  -7  110.29    7.80
  -1  -2  -7  117.99    8.00
  -1   2  -8   15.70    3.20
  -1   2  -8   11.60    3.00
  -1   2  -8   19.50    3.50
  -1  -2  -8   14.70    4.20
  -1  -2  -8   13.70    4.40
  -1   2  -9  312.87   13.90
  -1   2  -9  290.47   13.70
  -1  -2  -9  307.27   15.30
  -1  -2  -9  252.97   12.60
  -1   2 -10  148.89    9.80
  -1  -2 -10  146.49    8.70
   1  -3 -10   19.70    7.00
   1  -3 -10   11.20    2.50
   1   3  -9    3.30    4.60
   1   3  -9    5.90    3.00
   1  -3  -9    9.60    5.70
   1  -3  -9    3.40    1.80
   1   3  -8  246.08   10.40
   1   3  -8  205.58   11.30
   1   3  -8  226.58   12.30
   1  -3  -8  232.28    9.60
   1  -3  -8  224.88   13.70
   1   3  -7  124.59    6.30
   1   3  -7  119.09    7.00
   1   3  -7  126.29    7.80
   1  -3  -7  117.49    9.20
   1  -3  -7  123.19    5.60
   1  -3  -7  115.49    8.40
   1   3  -6   84.69    5.20
  -1   3   6   81.79    6.30
   1   3  -6   75.29    4.50
   1   3  -6   78.99    5.70
   1  -3  -6   87.39    4.30
   1  -3  -6   83.69    6.40
   1  -3  -6   80.59    7.10
   1   3  -5   78.19    4.60
  -1   3   5   80.29    5.60
   1   3  -5   77.59    4.10
   1   3  -5   72.99    4.80
   1  -3  -5   75.09    4.20
   1  -3  -5   71.69    5.90
  -1   3   4   29.50    3.40
   1   3  -4   22.40    2.50
   1   3  -4   27.70    2.20
   1  -3  -4   20.30    3.10
   1  -3  -4   27.30    2.60
   1   3  -3 1299.37   47.50
   1   3  -3 1243.88   47.60
   1  -3  -3 1274.17   47.90
  -1  -3   3 1299.77   47.20
  -1  -3   3 1290.97   47.50
   1  -3  -3 1282.47   48.60
   1   3  -2 3213.68  127.19
   1   3  -2 3546.35  127.59
   1  -3  -2 3641.84  127.99
  -1  -3   2 3599.84  127.39
  -1  -3   2 3627.64  127.39
   1  -3  -2 3463.15  128.29
  -1  -3   2 3350.66  127.39
   1   3  -1    1.30    0.40
   1   3  -1    0.00    0.70
  -1   3   1    0.40    0.80
  -1   3   1    1.20    0.80
   1  -3  -1    0.40    0.80
   1  -3  -1    2.20    0.90
  -1  -3   1    0.90    0.40
  -1  -3   1    0.40    0.60
   1   3   0    9.10    1.30
   1   3   0    7.30    1.00
  -1   3   0    4.90    0.80
   1  -3   0    7.00    1.20
  -1  -3   0    7.50    0.90
  -1  -3   0    8.00    1.20
   1  -3   0    6.60    0.90
   1   3   1  190.18    8.30
   1   3   1  189.38    8.10
  -1   3  -1  200.08    7.30
  -1   3  -1  175.38    8.00
  -1  -3  -1  192.28    8.10
   1  -3   1  196.28    7.90
  -1  -3  -1  191.58    8.00
   1  -3   1  194.18    7.30
   1   3   2 1376.86   50.99
   1   3   2 1402.06   50.99
  -1   3  -2 1329.57   50.49
  -1  -3  -2 1327.97   50.59
  -1  -3  -2 1383.76   50.89
   1  -3   2 1357.16   50.19
  -1   3  -3   41.60    2.10
  -1   3  -3   45.70    2.80
   1   3   3   38.60    3.30
  -1   3  -3   39.20    2.00
   1  -3   3   46.40    2.40
  -1  -3  -3   40.60    3.40
  -1  -3  -3   35.00    2.70
   1   3   4  245.28   11.00
   1   3   4  239.38   11.10
  -1   3  -4  236.18    9.60
  -1   3  -4  243.68    9.40
  -1   3  -4  246.38   10.20
  -1  -3  -4  238.78   11.00
   1  -3   4  237.28    9.60
  -1  -3  -4  241.48   10.10
  -1   3  -5   44.20    3.30
  -1   3  -5   43.40    3.30
   1   3   5   46.00    4.80
   1   3   5   47.50    4.50
  -1   3  -5   41.60    2.80
  -1  -3  -5   44.80    4.60
  -1  -3  -5   44.60    3.00
   1  -3   5   43.00    2.90
  -1   3  -6    9.60    2.70
   1   3   6   12.40    3.30
  -1   3  -6   12.70    2.20
   1   3   6    4.10    3.00
   1  -3   6    8.60    1.90
  -1  -3  -6    9.20    2.90
  -1  -3  -6    8.60    1.70
  -1   3  -7   77.39    7.00
  -1   3  -7   79.19    5.50
   1   3   7   77.39    7.40
  -1   3  -7   76.09    5.50
  -1  -3  -7   76.99    7.10
  -1   3  -8  552.94   21.40
  -1   3  -8  463.75   20.20
  -1   3  -8  506.35   20.70
  -1  -3  -8  485.45   22.40
  -1  -3  -8  519.85   22.70
  -1   3  -9  111.39    7.80
  -1  -3  -9   97.39    9.60
  -1  -3  -9   87.79    6.10
  -1   3 -10  178.78   11.10
  -1  -3 -10  155.78    9.00
  -1  -3 -10  186.08   13.10
   1  -4 -10   30.10    7.70
   1  -4 -10   31.80    3.70
   1   4  -9  140.79   10.00
   1   4  -9  139.59    7.90
   1  -4  -9  115.79    6.30
   1  -4  -9  134.39   12.20
   1   4  -8   31.50    4.80
   1   4  -8   25.30    4.40
   1   4  -8   30.60    3.80
   1  -4  -8   25.90    6.00
   1  -4  -8   27.90    2.80
   1   4  -7    4.20    2.20
   1   4  -7    4.00    2.90
   1   4  -7    3.60    2.90
   1  -4  -7    9.10    4.20
   1  -4  -7    9.00    4.00
   1  -4  -7    3.20    1.50
   1   4  -6  170.48    8.70
  -1   4   6  168.38    9.90
   1   4  -6  177.38    8.90
   1   4  -6  178.38    8.30
   1  -4  -6  183.48   10.70
   1  -4  -6  186.08    8.10
   1   4  -5    1.20    1.50
   1   4  -5    2.00    1.70
  -1   4   5    2.10    2.40
   1   4  -5    1.50    1.60
   1  -4  -5    1.30    1.30
   1  -4  -5    1.90    2.50
   1   4  -4 2324.17   96.99
   1   4  -4 2748.02   97.19
  -1   4   4 2751.22   98.39
   1  -4  -4 2702.93   97.59
  -1  -4   4 2728.63   96.79
  -1  -4   4 2695.83   96.19
   1  -4  -4 2538.95   98.49
   1   4  -3  157.18    6.60
  -1   4   3  150.98    7.80
   1   4  -3  154.58    7.00
   1  -4  -3  147.09    7.40
  -1  -4   3  151.58    6.80
  -1  -4   3  156.18    6.40
   1  -4  -3  158.38    8.00
  -1  -4   3  156.68    6.70
  -1   4   2 2693.23   97.59
   1   4  -2 2529.35   96.29
   1   4  -2 2639.74   97.19
  -1  -4   2 2559.94   96.99
   1  -4  -2 2696.73   97.69
   1  -4  -2 2663.83   97.59
  -1  -4   2 2721.43   96.99
  -1   4   1 5301.97  188.88
   1   4  -1 5049.49  188.88
   1  -4  -1 5166.68  188.88
   1   4   0 1145.29   41.20
  -1   4   0 1076.09   41.70
  -1   4   0 1100.99   41.20
   1   4   0 1172.18   41.90
   1  -4   0 1058.59   41.10
  -1  -4   0 1081.79   41.00
   1  -4   0 1108.39   41.60
  -1  -4   0 1118.69   41.60
  -1   4  -1   35.20    2.00
  -1   4  -1   31.80    2.70
   1   4   1   34.00    2.50
  -1  -4  -1   40.90    2.90
   1  -4   1   34.60    1.80
  -1  -4  -1   31.40    2.40
   1  -4   1   32.40    2.50
   1   4   2 2356.26   82.49
  -1   4  -2 2198.18   80.59
   1   4   2 2285.27   82.39
  -1   4  -2 2200.78   81.89
  -1  -4  -2 2142.29   81.89
   1  -4   2 2142.19   80.59
   1  -4   2 2199.48   81.39
  -1  -4  -2 2215.78   82.09
  -1   4  -3    5.40    0.60
   1   4   3    5.60    1.70
  -1   4  -3    5.80    0.70
   1   4   3    6.70    2.10
  -1   4  -3    7.80    1.60
   1  -4   3    6.80    1.10
  -1  -4  -3    3.70    1.60
  -1  -4  -3    5.80    1.50
   1   4   4  113.39    6.80
  -1   4  -4  103.89    4.70
  -1   4  -4  113.89    5.80
   1   4   4  108.09    6.50
  -1   4  -4  110.49    4.40
  -1  -4  -4   97.89    6.40
   1  -4   4  112.09    5.00
  -1  -4  -4  101.69    5.50
  -1   4  -5  879.61   33.00
  -1   4  -5  828.02   32.90
   1   4   5  901.71   35.00
  -1   4  -5  887.31   34.00
   1   4   5  885.01   35.10
   1  -4   5  887.51   33.10
  -1  -4  -5  891.11   35.00
  -1  -4  -5  913.01   33.70
  -1   4  -6  455.55   18.70
   1   4   6  458.45   20.00
  -1   4  -6  419.16   17.50
  -1   4  -6  445.06   17.80
  -1  -4  -6  442.66   19.80
   1  -4   6  465.25   17.90
  -1  -4  -6  473.95   18.10
  -1   4  -7    0.40    2.10
   1   4   7    6.10    4.30
  -1  -4  -7   -2.30    3.30
  -1   4  -8   40.00    4.70
  -1   4  -8   43.40    5.40
  -1  -4  -8   37.10    5.60
  -1   4  -9   61.49    7.10
  -1  -4  -9   52.29    4.90
  -1  -4  -9   59.19    7.50
  -1   4 -10   62.69    8.20
  -1  -4 -10   50.09    9.60
  -1  -4 -10   48.80    5.30
   1  -5 -10    0.80    2.20
   1  -5 -10    4.90    7.20
   1   5  -9   14.50    3.70
   1   5  -9   10.50    4.60
   1  -5  -9   12.30    2.20
   1   5  -8  118.09    7.20
   1   5  -8   92.69    7.10
   1   5  -8  100.89    7.90
   1  -5  -8   93.39   10.20
   1  -5  -8  110.89    5.60
   1   5  -7  119.59    7.60
   1   5  -7  150.48    7.80
   1   5  -7  145.89    8.20
   1  -5  -7  137.99   10.40
   1  -5  -7  145.39    7.10
   1   5  -6    7.60    2.30
   1   5  -6    5.60    2.20
  -1   5   6   10.20    3.60
   1   5  -6    9.10    2.30
   1  -5  -6    6.90    1.90
   1  -5  -6    8.80    3.80
   1   5  -5 1166.08   44.40
  -1   5   5 1135.39   45.90
   1   5  -5 1228.28   44.80
  -1  -5   5 1180.58   44.40
   1  -5  -5 1201.28   45.00
   1  -5  -5 1201.48   46.50
  -1  -5   5 1105.39   43.30
  -1  -5   5 1234.48   44.00
   1   5  -4 1028.90   38.70
   1   5  -4 1051.09   37.90
  -1   5   4  975.20   39.60
  -1  -5   4  972.80   38.70
  -1  -5   4 1027.80   38.40
   1  -5  -4 1007.90   39.10
   1  -5  -4  998.20   39.90
  -1  -5   4 1076.19   37.70
  -1   5   3 1321.97   49.20
   1   5  -3 1305.97   47.40
   1   5  -3 1287.27   48.40
  -1  -5   3 1240.78   48.20
  -1  -5   3 1336.57   48.00
  -1  -5   3 1282.37   47.90
   1  -5  -3 1281.27   48.90
   1  -5  -3 1244.28   49.20
  -1   5   2   27.70    2.90
   1   5  -2   27.70    1.80
   1   5  -2   22.40    2.60
  -1  -5   2   23.80    2.50
   1  -5  -2   25.80    3.10
  -1  -5   2   27.20    2.00
   1  -5  -2   28.10    3.00
   1   5  -1 2623.94   94.09
   1   5  -1 2497.55   93.09
  -1   5   1 2656.03   93.89
   1  -5  -1 2647.64   94.39
   1  -5  -1 2384.96   94.49
  -1  -5   1 2431.96   92.89
   1  -5  -1 2558.44   94.09
  -1   5   0 6124.19  226.98
   1   5   0 6472.15  227.08
   1   5   0 6080.19  226.28
  -1   5   0 5966.30  226.18
   1  -5   0 6129.89  226.18
  -1  -5   0 6287.07  226.88
   1  -5   0 6400.16  226.88
  -1   5  -1    7.70    2.10
   1   5   1    7.70    1.90
  -1   5  -1    8.50    1.20
   1   5   1    8.10    1.70
  -1  -5  -1    8.80    1.60
   1  -5   1    7.60    1.00
  -1  -5  -1    6.50    1.60
   1  -5   1    7.50    1.40
  -1   5  -2   47.90    3.70
   1   5   2   54.59    4.10
  -1   5  -2   48.60    2.50
   1   5   2   54.19    4.10
   1  -5   2   48.10    3.60
  -1  -5  -2   51.59    3.90
  -1  -5  -2   51.29    3.90
   1  -5   2   52.29    2.20
   1   5   3  855.81   33.20
  -1   5  -3  853.01   30.90
   1   5   3  841.72   33.10
  -1   5  -3  823.12   32.50
  -1  -5  -3  834.72   32.60
   1  -5   3  839.92   30.90
  -1  -5  -3  821.92   32.80
   1  -5   3  871.11   31.80
  -1   5  -4  583.04   21.90
   1   5   4  583.84   24.30
  -1   5  -4  587.34   23.50
   1   5   4  598.44   24.30
  -1   5  -4  580.94   21.60
  -1  -5  -4  586.44   24.10
  -1  -5  -4  570.34   23.30
   1  -5   4  616.94   22.50
   1   5   5  281.97   13.60
  -1   5  -5  260.47   10.80
   1   5   5  284.47   13.40
  -1   5  -5  280.07   10.40
  -1   5  -5  264.27   12.30
  -1  -5  -5  286.47   12.10
   1  -5   5  278.97   11.30
  -1  -5  -5  275.47   13.30
  -1   5  -6   54.19    3.60
  -1   5  -6   55.89    2.80
   1   5   6   53.09    7.10
  -1   5  -6   53.79    5.10
  -1  -5  -6   69.09    6.30
  -1  -5  -6   61.39    4.20
  -1   5  -7    1.90    2.50
  -1   5  -7    0.00    1.20
   1   5   7    4.10    4.70
  -1   5  -7   -1.50    1.90
  -1  -5  -7   -3.80    3.50
  -1   5  -8   20.30    2.90
  -1   5  -8   18.90    4.00
  -1  -5  -8   18.90    5.10
  -1   5  -9   18.50    4.80
  -1  -5  -9   17.20    5.80
  -1  -5  -9   21.50    3.20
  -1   5 -10   -1.50    5.10
  -1  -5 -10    4.80    2.90
  -1  -5 -10    1.50    6.70
   1  -6 -10    4.90    2.40
   1  -6 -10    2.10    7.60
   1   6  -9  142.49    9.70
   1  -6  -9  115.79   12.50
   1  -6  -9  145.19    7.10
   1   6  -8    4.20    3.50
   1   6  -8    3.30    2.20
   1   6  -8    7.30    3.20
   1  -6  -8    6.10    5.30
   1  -6  -8    0.60    1.90
   1   6  -7  356.66   15.50
   1   6  -7  370.96   15.80
   1   6  -7  364.06   14.50
   1  -6  -7  330.37   15.70
   1  -6  -7  353.66   18.20
   1   6  -6    4.60    2.40
   1   6  -6    2.80    1.50
   1   6  -6    5.00    2.10
  -1   6   6    5.30    3.70
   1  -6  -6    2.90    2.00
   1  -6  -6    7.60    3.80
  -1  -6   6    4.50    1.70
  -1  -6   6    2.90    1.00
   1   6  -5  931.21   35.90
   1   6  -5  937.51   34.50
  -1   6   5  884.11   37.00
  -1  -6   5  987.90   34.40
   1  -6  -5  918.51   37.40
  -1  -6   5  927.91   35.20
  -1  -6   5  911.31   35.10
   1  -6  -5  896.51   36.00
   1   6  -4  420.26   15.90
   1   6  -4  402.66   17.20
  -1   6   4  414.86   18.30
  -1  -6   4  400.76   16.90
  -1  -6   4  437.96   16.40
  -1  -6   4  418.66   16.20
   1  -6  -4  403.76   17.60
   1  -6  -4  421.56   18.50
  -1   6   3  444.66   18.90
   1   6  -3  462.75   17.00
   1  -6  -3  436.86   19.00
  -1  -6   3  445.26   18.10
   1  -6  -3  427.86   18.70
  -1  -6   3  454.25   17.80
   1   6  -2  111.59    5.00
  -1   6   2  109.09    6.30
   1  -6  -2  120.39    6.50
   1  -6  -2   92.59    6.20
  -1  -6   2  103.49    5.90
  -1  -6   2  110.79    6.00
  -1  -6   2  117.29    4.90
   1  -6  -2  112.19    6.40
   1   6  -1  688.93   27.10
   1   6  -1  683.03   26.10
   1  -6  -1  694.73   26.80
  -1  -6   1  660.63   26.80
   1  -6  -1  698.53   27.10
   1  -6  -1  673.33   28.50
  -1   6   0 1440.86   52.69
   1   6   0 1376.86   52.79
  -1   6   0 1430.56   53.49
  -1  -6   0 1375.66   52.39
  -1  -6   0 1418.06   53.29
   1  -6   0 1434.16   53.29
   1  -6   0 1392.16   52.59
  -1   6  -1 2011.40   72.79
   1   6   1 1962.90   72.29
   1   6   1 1933.01   72.89
  -1   6  -1 1925.01   71.49
   1  -6   1 1816.22   71.19
  -1  -6  -1 1932.81   72.59
  -1  -6  -1 1917.51   72.09
   1  -6   1 2023.50   72.39
  -1   6  -2  355.46   13.60
  -1   6  -2  336.07   15.00
   1   6   2  347.67   15.10
   1   6   2  332.37   16.30
  -1  -6  -2  351.26   15.10
   1  -6   2  366.06   13.20
  -1  -6  -2  351.26   14.90
   1  -6   2  355.66   14.50
  -1   6  -3    0.30    1.50
   1   6   3    3.80    2.40
  -1   6  -3    0.10    0.70
   1   6   3   -0.50    1.90
   1  -6   3   -1.60    1.10
  -1  -6  -3   -1.20    1.50
   1  -6   3    0.80    0.60
  -1  -6  -3    1.00    1.70
  -1   6  -4   53.59    2.50
   1   6   4   47.60    5.40
  -1   6  -4   52.29    4.60
   1   6   4   44.00    5.20
  -1   6  -4   48.30    2.40
  -1  -6  -4   49.80    4.20
  -1  -6  -4   46.30    4.90
   1  -6   4   55.59    3.20
  -1   6  -5    4.90    2.20
   1   6   5    1.70    2.80
  -1   6  -5   -0.80    1.00
  -1   6  -5   -0.20    0.70
   1   6   5    0.40    3.10
   1  -6   5   -0.50    1.10
  -1  -6  -5   -3.60    2.30
  -1   6  -6   95.69    6.60
  -1   6  -6   86.99    4.30
   1   6   6   84.39    8.60
  -1   6  -6   88.59    3.80
  -1  -6  -6  102.39    7.90
  -1  -6  -6   89.69    5.70
  -1   6  -7    4.40    0.90
  -1   6  -7    3.90    1.70
  -1  -6  -7    3.40    3.80
  -1   6  -8   30.30    4.90
   1  -6   8   30.20    5.30
  -1  -6  -8   36.40    6.20
  -1   6  -9   30.50    5.50
  -1  -6  -9   30.00    4.20
  -1  -6  -9   27.60    6.90
  -1   6 -10  132.99   11.30
  -1  -6 -10  127.49   13.60
  -1  -6 -10  117.79    7.60
   1  -7 -10    4.50    7.70
   1  -7 -10   -3.50    2.20
   1  -7  -9   -1.30    2.10
   1  -7  -9    2.40    6.30
   1   7  -8    5.50    3.60
   1   7  -8    5.20    3.50
   1   7  -8    3.10    1.90
   1  -7  -8    5.10    6.30
   1  -7  -8   -0.40    2.30
   1   7  -7   52.09    5.10
   1   7  -7   51.19    3.40
   1  -7  -7   57.79    7.70
  -1   7   6   14.30    5.70
   1   7  -6   14.50    1.70
   1   7  -6   14.90    3.40
  -1  -7   6   13.90    2.60
  -1  -7   6   11.90    1.60
  -1  -7   6   14.40    2.50
   1  -7  -6    6.80    4.10
   1  -7  -6   11.40    2.90
   1   7  -5    8.10    2.50
  -1   7   5    8.80    3.80
   1   7  -5    7.50    1.30
   1  -7  -5    5.60    3.20
  -1  -7   5    7.20    2.00
  -1  -7   5    8.50    2.30
   1  -7  -5    3.80    2.30
  -1  -7   5    7.70    1.40
  -1   7   4  321.37   15.30
   1   7  -4  322.87   14.50
   1  -7  -4  324.57   14.80
  -1  -7   4  327.27   14.20
   1  -7  -4  316.57   15.30
  -1  -7   4  352.76   13.40
  -1  -7   4  315.97   13.30
   1   7  -3  771.62   28.50
  -1   7   3  800.02   30.50
   1  -7  -3  774.92   30.50
  -1  -7   3  751.22   29.70
   1  -7  -3  770.32   30.40
  -1  -7   3  785.02   29.40
  -1  -7   3  632.04   28.80
  -1   7   2 1473.95   56.49
   1   7  -2 1493.05   55.19
   1  -7  -2 1466.75   56.69
   1  -7  -2 1484.75   56.89
   1  -7  -2 1483.45   56.59
  -1  -7   2 1505.65   54.79
  -1  -7   2 1508.55   56.29
  -1   7   1   29.80    3.30
   1   7  -1   25.30    3.40
  -1  -7   1   35.90    3.50
   1  -7  -1   36.50    3.90
  -1  -7   1   30.60    2.30
  -1  -7   1   21.40    3.20
   1  -7  -1   27.30    3.50
   1  -7  -1   27.20    3.30
   1   7   0   24.60    3.40
  -1   7   0   23.00    3.20
   1   7   0   27.50    2.90
  -1   7   0   26.20    2.90
   1  -7   0   27.40    3.40
   1  -7   0   25.00    2.80
  -1  -7   0   24.30    2.40
   1   7   1  754.72   29.40
   1   7   1  777.12   30.10
  -1   7  -1  762.02   28.50
  -1   7  -1  759.22   29.90
  -1  -7  -1  708.23   28.90
  -1  -7  -1  699.43   29.80
   1  -7   1  770.82   29.50
   1  -7   1  733.83   28.20
   1   7   2 2872.81  104.69
  -1   7  -2 2767.12  104.19
  -1   7  -2 2766.42  102.49
   1   7   2 2850.91  104.09
  -1  -7  -2 2863.61  104.19
   1  -7   2 2856.51  103.49
  -1  -7  -2 2690.73  103.69
   1  -7   2 2709.13  101.99
   1   7   3   39.20    4.80
   1   7   3   36.40    4.80
  -1   7  -3   35.40    2.40
  -1   7  -3   27.80    3.90
   1  -7   3   37.70    3.20
   1  -7   3   35.60    2.30
  -1  -7  -3   35.60    4.10
  -1  -7  -3   30.00    4.00
   1   7   4  440.86   20.20
  -1   7  -4  455.35   17.20
  -1   7  -4  449.26   19.50
   1   7   4  465.05   20.30
  -1  -7  -4  459.75   19.40
   1  -7   4  472.15   18.20
  -1  -7  -4  470.85   19.90
   1  -7   4  447.36   17.10
  -1   7  -5  520.55   22.50
   1   7   5  527.15   23.40
   1   7   5  527.85   23.40
  -1  -7  -5  534.85   22.00
  -1  -7  -5  546.05   23.10
   1  -7   5  538.85   20.80
   1   7   6   74.19    8.80
  -1   7  -6   76.89    6.60
  -1  -7  -6   85.99    5.90
  -1  -7  -6   71.99    7.50
  -1  -7  -7  409.46   19.80
  -1   7  -8   23.10    5.00
  -1  -7  -8   22.00    3.10
   1  -7   8   19.40    5.20
  -1  -7  -8   15.50    5.70
  -1   7  -9    7.30    4.90
  -1  -7  -9    3.40    6.10
  -1  -7  -9    4.60    2.60
  -1  -7 -10   48.20    8.90
   1  -8 -10    2.90    2.60
   1  -8 -10    0.80    8.20
   1  -8  -9    3.20    2.70
   1  -8  -9    7.40    6.70
   1   8  -8   45.80    5.00
   1  -8  -8   40.40    4.60
   1  -8  -8   29.80    6.70
   1   8  -7   28.60    4.60
   1   8  -7   35.50    4.60
   1   8  -7   24.10    2.90
   1  -8  -7   33.10    6.50
  -1  -8   7   29.20    3.20
   1   8  -6   18.70    3.80
   1   8  -6   17.00    2.00
   1  -8  -6   17.20    3.50
  -1  -8   6   16.40    2.70
   1  -8  -6   13.20    4.80
  -1  -8   6   18.30    3.20
  -1   8   5  627.74   27.20
   1   8  -5  648.44   24.10
   1   8  -5  629.54   26.00
   1  -8  -5  621.34   27.20
   1  -8  -5  634.94   26.30
  -1  -8   5  654.13   24.50
  -1  -8   5  603.14   25.70
  -1  -8   5  617.84   24.20
  -1   8   4    6.00    3.50
   1  -8  -4    4.60    2.30
  -1  -8   4    7.30    2.50
  -1  -8   4    9.80    2.10
   1  -8  -4    8.10    3.50
  -1  -8   4    6.90    2.00
   1   8  -3    2.00    1.30
  -1   8   3    5.20    2.90
  -1  -8   3    1.80    1.90
   1  -8  -3    5.00    2.70
   1  -8  -3    1.50    2.40
  -1  -8   3    1.80    2.00
  -1  -8   3    2.90    1.40
  -1   8   2  453.75   19.20
   1   8  -2  445.36   17.80
   1  -8  -2  449.66   19.40
   1  -8  -2  421.46   18.90
  -1  -8   2  448.46   18.90
   1  -8  -2  440.56   19.40
  -1  -8   2  461.25   17.20
   1   8  -1  959.50   36.40
   1   8  -1  994.90   37.80
  -1   8   1  973.50   37.10
   1  -8  -1  942.31   36.90
  -1  -8   1  940.21   37.40
  -1  -8   1  951.80   37.50
  -1  -8   1  933.51   35.80
   1  -8  -1  923.51   37.50
  -1   8   0 1370.96   52.19
   1   8   0 1448.06   53.59
   1   8   0 1390.46   52.39
   1  -8   0 1391.86   53.59
   1  -8   0 1435.56   53.19
  -1  -8   0 1321.47   51.89
   1  -8   0 1353.56   52.09
  -1  -8   0 1362.86   53.09
  -1   8  -1  126.19    7.70
   1   8   1  136.89    8.00
  -1   8  -1  130.29    6.50
   1   8   1  126.09    7.30
   1  -8   1  129.79    7.50
  -1  -8  -1  130.79    6.90
  -1  -8  -1  120.69    7.60
  -1   8  -2 1917.41   70.79
   1   8   2 1883.51   72.29
  -1   8  -2 1874.11   72.59
   1   8   2 1971.40   73.09
   1  -8   2 1970.20   71.99
   1  -8   2 1894.31   70.29
  -1  -8  -2 1921.21   72.49
  -1  -8  -2 1880.91   71.99
   1   8   3  332.17   15.50
   1   8   3  324.67   15.70
  -1   8  -3  335.97   13.10
  -1   8  -3  326.37   15.20
   1  -8   3  332.37   14.10
  -1  -8  -3  346.07   15.10
   1  -8   3  303.57   12.60
  -1  -8  -3  330.47   15.10
   1   8   4   92.59    7.90
   1   8   4   93.99    7.70
  -1   8  -4   96.39    4.40
  -1   8  -4   94.89    6.90
   1  -8   4   94.29    4.10
  -1  -8  -4   90.09    6.50
   1  -8   4   90.89    5.30
  -1  -8  -4  101.39    7.20
  -1   8  -5   31.50    4.40
   1   8   5   21.50    4.80
   1   8   5   32.10    4.90
   1  -8   5   29.20    3.10
  -1  -8  -5   36.70    4.60
  -1  -8  -5   29.30    4.30
  -1   8  -6  146.09    9.80
  -1  -8  -6  166.08   10.60
  -1  -8  -6  168.98    9.10
  -1  -8  -7  230.28   13.70
   1  -8   7  236.38   13.10
  -1   8  -8   34.30    6.00
  -1  -8  -8   53.29    7.80
   1  -8   8    7.30   15.60
  -1  -8  -8   38.20    4.80
  -1   8  -9   70.99    9.80
  -1  -8  -9   66.39    5.70
  -1  -8  -9   57.79    8.80
   1  -9 -10   70.69   11.20
   1  -9  -9   67.99    6.00
   1  -9  -9   45.60    9.00
   1   9  -8   -3.90    3.30
   1  -9  -8    2.70    6.00
   1  -9  -8   -2.90    3.00
   1   9  -7    4.10    2.70
   1   9  -7    6.90    2.00
  -1  -9   7    3.80    3.00
   1  -9  -7    8.50    5.30
   1   9  -6   48.20    3.70
   1  -9  -6   49.50    7.10
  -1  -9   6   44.50    5.40
   1  -9  -6   46.80    6.00
  -1  -9   6   45.40    4.30
  -1   9   5  347.67   19.20
   1   9  -5  339.37   13.80
  -1  -9   5  285.67   18.50
   1  -9  -5  344.97   17.10
   1  -9  -5  355.26   16.30
  -1  -9   5  364.96   14.10
  -1  -9   5  324.67   14.10
  -1   9   4  183.68   11.00
   1   9  -4  193.28    8.60
   1  -9  -4  196.98   10.80
  -1  -9   4  195.58    9.40
  -1  -9   4  186.78   10.10
   1  -9  -4  200.88   11.30
  -1  -9   4  185.68    9.30
   1   9  -3  277.37   11.60
  -1   9   3  277.37   13.60
  -1  -9   3  274.37   12.80
   1  -9  -3  268.37   13.70
  -1  -9   3  276.47   11.30
   1  -9  -3  264.47   13.60
  -1  -9   3  245.78   12.80
   1  -9  -3  285.07   13.60
   1   9  -2  144.39    7.00
  -1   9   2  135.39    8.20
  -1  -9   2  142.39    6.10
   1  -9  -2  130.29    7.90
   1  -9  -2  132.99    8.50
  -1  -9   2  130.79    7.90
   1  -9  -2  131.39    8.40
  -1   9   1   65.99    5.00
   1   9  -1   55.29    5.40
   1   9  -1   58.49    4.30
  -1  -9   1   59.79    5.30
   1  -9  -1   45.80    5.20
   1  -9  -1   51.39    4.60
   1  -9  -1   53.99    5.40
  -1  -9   1   65.09    3.80
  -1  -9   1   56.39    5.30
   1   9   0    6.40    2.80
   1   9   0    3.50    2.00
  -1   9   0    4.70    2.10
   1  -9   0    4.50    1.70
  -1  -9   0    3.20    1.40
   1  -9   0    4.30    2.60
  -1  -9   0    1.50    1.90
  -1   9  -1  706.53   27.80
   1   9   1  732.83   29.90
   1   9   1  704.43   28.50
  -1   9  -1  681.63   29.10
   1  -9   1  728.83   28.80
  -1  -9  -1  692.63   28.00
  -1  -9  -1  704.13   29.00
   1  -9   1  690.03   29.30
   1  -9   1  711.93   27.30
   1   9   2   96.89    7.20
   1   9   2  107.59    7.80
  -1   9  -2   98.59    7.10
  -1   9  -2  105.29    5.60
   1  -9   2   98.99    6.50
  -1  -9  -2   93.19    6.20
  -1  -9  -2   89.29    6.70
   1   9   3    6.80    3.30
  -1   9  -3   -3.30    2.40
   1   9   3   -1.10    2.50
  -1   9  -3   -1.20    1.40
  -1  -9  -3   -1.40    2.20
  -1  -9  -3    2.00    2.10
   1  -9   3   -0.40    2.00
   1  -9   3   -0.10    0.80
   1   9   4  187.48   12.10
  -1   9  -4  211.88   11.60
   1   9   4  198.28   12.10
  -1   9  -4  200.98    8.70
  -1  -9  -4  216.68   11.40
   1  -9   4  220.88    8.40
   1  -9   4  207.28    9.70
  -1  -9  -4  200.08   11.00
  -1   9  -5   48.30    2.60
  -1   9  -5   43.90    2.90
  -1   9  -5   50.69    6.20
  -1  -9  -5   45.90    6.30
  -1  -9  -5   43.60    5.40
   1  -9   6  202.18   12.40
  -1  -9  -6  200.48   12.70
  -1  -9  -6  219.38   11.20
   1  -9   7   44.60    6.30
  -1  -9  -7   26.80    5.90
  -1  -9  -7   53.79    7.30
  -1   9  -8   11.30    4.90
  -1  -9  -8    0.70    2.70
  -1  -9  -8   -3.90    5.40
  -1   9  -9   -4.90    5.50
  -1  -9  -9    5.30    6.80
  -1  -9  -9    2.30    2.80
   1 -10  -9    0.80    7.40
   1 -10  -9    0.50    3.10
   1  10  -8   -1.00    3.40
   1 -10  -8    4.10    3.30
   1 -10  -8    3.50    6.30
   1  10  -7   43.00    4.40
   1  10  -7   50.49    4.90
  -1 -10   7   44.80    5.00
   1 -10  -7   41.70    7.10
   1  10  -6 1056.69   41.20
   1 -10  -6 1104.89   45.30
   1 -10  -6 1074.69   44.20
  -1 -10   6 1106.69   42.80
  -1 -10   6 1129.19   41.60
   1  10  -5   34.80    3.70
  -1 -10   5   39.80    5.00
   1 -10  -5   34.00    6.10
   1 -10  -5   35.00    5.00
  -1 -10   5   35.50    3.80
  -1  10   4   65.09    7.70
   1  10  -4   64.49    4.50
  -1 -10   4   55.69    5.00
  -1 -10   4   69.09    6.20
   1 -10  -4   66.49    6.50
  -1 -10   4   62.29    5.60
   1 -10  -4   65.09    7.00
   1  10  -3  113.29    6.30
   1 -10  -3  105.09    8.30
   1 -10  -3  122.59    8.60
   1 -10  -3  110.19    8.10
  -1 -10   3  116.49    7.60
  -1 -10   3  121.69    5.70
  -1 -10   3  111.79    7.70
  -1  10   2 1403.96   53.59
   1  10  -2 1389.56   52.19
  -1 -10   2 1346.87   53.49
  -1 -10   2 1317.77   53.49
   1 -10  -2 1402.36   53.39
  -1 -10   2 1387.46   51.29
   1 -10  -2 1373.06   54.19
   1 -10  -2 1409.86   54.19
   1  10  -1  188.08    9.40
   1  10  -1  201.08   11.00
  -1  10   1  201.58   10.20
  -1 -10   1  194.08   10.70
   1 -10  -1  192.58    9.90
   1 -10  -1  192.28   10.80
  -1 -10   1  181.88   10.50
   1 -10  -1  193.28   11.10
  -1 -10   1  188.78    8.70
  -1  10   0   27.50    3.60
   1  10   0   18.70    3.40
   1  10   0   19.50    3.00
   1 -10   0   21.30    3.00
   1 -10   0   22.90    4.20
  -1 -10   0   20.40    2.80
  -1 -10   0   14.80    3.30
  -1  10  -1   11.90    3.40
   1  10   1   11.30    3.50
   1  10   1   17.00    3.60
  -1  10  -1   10.70    2.50
   1 -10   1   15.80    3.70
  -1 -10  -1   10.10    2.30
   1 -10   1   10.00    2.90
   1 -10   1   11.00    2.10
  -1 -10  -1   10.60    3.30
   1  10   2  755.82   30.30
  -1  10  -2  683.53   29.20
  -1  10  -2  733.73   30.60
   1  10   2  734.43   31.00
  -1 -10  -2  722.33   29.60
  -1 -10  -2  728.53   30.30
   1 -10   2  741.03   29.80
   1 -10   2  747.23   27.80
   1 -10   2  732.33   30.70
   1  10   3   52.39    6.90
  -1  10  -3   43.70    5.70
  -1  10  -3   42.40    3.80
   1  10   3   48.30    5.80
   1 -10   3   39.50    3.10
   1 -10   3   46.20    4.90
  -1 -10  -3   45.40    5.20
  -1 -10  -3   44.80    5.40
   1  10   4  506.45   23.70
   1  10   4  467.85   23.10
  -1  10  -4  516.75   23.00
  -1  10  -4  521.15   20.00
  -1 -10  -4  511.65   22.50
   1 -10   4  504.05   23.00
  -1 -10  -4  524.95   22.70
   1 -10   4  551.34   19.90
   1 -10   4  496.25   21.00
  -1  10  -5   97.09    4.80
  -1  10  -5   84.99    8.20
   1 -10   5  104.79    8.80
  -1 -10  -5  113.59    8.80
   1 -10   5   94.99    4.50
  -1 -10  -5  101.59    7.80
   1 -10   6   10.20    4.80
  -1 -10  -6   15.70    5.00
   1 -10   7    6.00    5.40
  -1 -10  -7   -1.50    4.60
  -1 -10  -7    6.20    3.40
  -1  10  -8   -4.20    4.80
  -1 -10  -8   -1.00    5.90
  -1 -10  -8    4.30    3.30
  -1  10  -9    2.50    6.40
  -1 -10  -9    1.20    3.30
  -1 -10  -9    7.00    7.40
   1 -11  -9    3.40    7.70
   1 -11  -9    1.80    3.80
   1 -11  -8  112.59   13.70
   1 -11  -8  144.79    9.90
   1  11  -7    5.00    3.10
  -1 -11   7    6.10    2.90
  -1 -11   7    1.90    4.10
   1 -11  -7    9.60    4.20
   1 -11  -7    7.60    6.20
   1  11  -6  399.46   16.60
  -1 -11   6  388.36   18.40
  -1 -11   6  413.46   16.70
   1 -11  -6  414.76   19.50
   1 -11  -6  393.66   20.80
   1  11  -5  119.79    6.80
  -1 -11   5  138.39    7.10
  -1 -11   5  116.49    8.80
   1 -11  -5  122.89   10.00
   1 -11  -5  112.89    9.20
   1  11  -4   48.60    4.40
   1 -11  -4   51.29    6.80
  -1 -11   4   48.60    5.80
   1 -11  -4   53.69    6.90
  -1 -11   4   54.49    6.20
   1 -11  -4   52.19    6.50
  -1 -11   4   34.40    4.20
  -1  11   3   90.79    8.20
   1  11  -3   96.19    6.00
  -1 -11   3   88.89    7.30
  -1 -11   3  101.29    5.00
   1 -11  -3   94.09    8.40
   1 -11  -3   99.59    7.80
   1 -11  -3   98.49    8.40
  -1 -11   3   93.19    7.60
   1  11  -2    1.10    2.20
  -1  11   2    1.20    2.90
   1 -11  -2    1.40    2.60
   1 -11  -2   -1.90    2.50
  -1 -11   2    8.60    3.40
  -1 -11   2   -1.50    2.50
  -1 -11   2    2.20    1.30
   1 -11  -2    0.40    4.70
   1  11  -1  994.10   39.70
  -1  11   1 1035.30   40.30
  -1 -11   1  988.20   40.90
  -1 -11   1 1013.20   38.70
   1 -11  -1 1047.10   41.30
  -1 -11   1  996.20   40.90
   1 -11  -1 1037.50   41.60
   1 -11  -1 1021.60   40.00
  -1  11   0  585.54   24.20
   1  11   0  585.54   24.40
   1  11   0  598.64   25.80
   1 -11   0  574.14   23.80
   1 -11   0  598.54   26.00
  -1 -11   0  601.84   25.90
  -1 -11   0  549.25   23.50
  -1 -11   0  589.24   25.60
   1  11   1   49.10    6.80
  -1  11  -1   64.69    5.20
   1  11   1   50.79    6.00
   1 -11   1   49.30    6.50
   1 -11   1   59.59    4.30
  -1 -11  -1   60.69    5.00
  -1 -11  -1   54.99    6.30
   1 -11   1   60.09    6.20
   1  11   2   -3.80    3.50
  -1  11  -2    0.00    2.20
   1  11   2   -2.30    3.70
  -1  11  -2    3.70    3.00
   1 -11   2   -3.40    2.80
   1 -11   2    2.50    2.90
  -1 -11  -2   -0.40    2.60
   1 -11   2    3.50    1.40
  -1 -11  -2    0.20    2.30
  -1  11  -3    5.30    3.00
   1  11   3    5.20    3.50
   1  11   3    5.40    4.30
  -1 -11  -3    3.80    2.70
   1 -11   3    5.60    1.30
   1 -11   3    6.20    3.00
  -1 -11  -3   -1.00    2.60
   1 -11   3    2.80    3.00
   1  11   4    1.90    4.50
  -1  11  -4    4.60    2.10
  -1  11  -4   11.60    4.20
   1 -11   4    0.60    3.50
  -1 -11  -4    5.20    3.60
   1 -11   4    6.90    2.20
   1 -11   4    4.30    2.80
  -1 -11  -4    4.20    3.40
  -1  11  -5  234.48   10.10
  -1  11  -5  225.68   13.70
  -1 -11  -5  258.87   13.30
   1 -11   5  233.78   13.90
   1 -11   5  235.58    9.60
  -1 -11  -5  255.17   13.90
  -1 -11  -6   97.89    8.40
  -1 -11  -6  105.59   10.10
   1 -11   6   81.89   12.10
  -1  11  -7   28.50    6.30
  -1 -11  -7   51.69    6.10
  -1 -11  -7   49.00    7.80
  -1  11  -8    5.60    6.40
  -1 -11  -8   17.00    4.30
  -1 -11  -8   17.90    6.60
  -1  11  -9    8.60    6.80
  -1 -11  -9   18.60    8.50
  -1 -11  -9    1.40    3.50
   1 -12  -9   -3.70    4.00
   1 -12  -9   15.50    8.50
   1 -12  -8   34.30    8.20
   1 -12  -8   27.70    5.60
   1 -12  -7   32.50    5.90
  -1 -12   7   20.80    3.50
   1 -12  -7   18.20    6.90
  -1 -12   7    6.20   12.90
   1 -12  -7    9.30    7.70
   1  12  -6   32.60    4.10
  -1 -12   6   25.00    5.50
  -1 -12   6   35.60    4.40
   1 -12  -6   34.60    7.30
   1 -12  -6   32.00    6.80
   1  12  -5  158.68    8.50
   1 -12  -5  153.28   11.10
  -1 -12   5  139.49   10.40
  -1 -12   5  173.58    8.90
   1 -12  -5  173.18   12.80
   1 -12  -5  160.38   11.20
   1  12  -4  216.98   10.80
   1 -12  -4  254.07   14.30
  -1 -12   4  187.58   10.70
   1 -12  -4  239.28   13.40
  -1 -12   4  239.48   12.90
   1 -12  -4  238.28   13.50
  -1  12   3   73.79    8.70
   1  12  -3   91.69    6.30
  -1 -12   3   93.49    8.00
  -1 -12   3   71.19    7.40
   1 -12  -3   92.79    8.00
   1 -12  -3   86.69    8.60
  -1 -12   3   98.69    5.00
   1 -12  -3   94.09    8.90
  -1  12   2    0.70    3.50
   1  12  -2    5.60    2.60
   1 -12  -2    6.40    3.80
   1 -12  -2    8.90    3.50
  -1 -12   2    5.70    1.60
  -1 -12   2    5.10    3.70
  -1 -12   2    3.50    2.90
   1 -12  -2    6.60    3.80
  -1  12   1  452.75   20.90
   1  12  -1  460.05   20.40
   1 -12  -1  491.55   22.40
  -1 -12   1  496.15   22.00
   1 -12  -1  475.95   20.70
  -1 -12   1  476.55   21.90
  -1 -12   1  480.05   19.40
  -1  12   0   35.30    4.80
   1  12   0   31.50    4.60
   1  12   0   31.00    5.50
   1 -12   0   31.80    5.20
  -1 -12   0   33.00    5.30
  -1 -12   0   40.70    5.70
  -1 -12   0   37.10    4.00
   1 -12   0   38.80    4.30
   1 -12   0   36.20    5.90
   1  12   1    0.10    3.60
   1  12   1   10.40    4.40
  -1  12  -1    3.20    2.60
  -1 -12  -1    0.80    2.20
   1 -12   1    0.60    1.80
   1 -12   1   -1.80    3.80
   1 -12   1   -2.80    3.30
  -1  12  -2   82.49    6.00
  -1  12  -2   73.29    8.00
   1  12   2   76.19    8.60
   1  12   2   79.89    8.20
  -1 -12  -2   86.49    7.80
   1 -12   2   70.49    7.60
  -1 -12  -2   89.89    6.80
   1 -12   2   82.39    4.80
   1 -12   2   82.79    7.40
  -1  12  -3  393.66   16.40
   1  12   3  363.76   19.60
  -1  12  -3  398.66   19.30
   1 -12   3  378.46   19.00
   1 -12   3  407.16   15.20
  -1 -12  -3  386.66   18.10
  -1 -12  -3  370.16   18.50
   1 -12   3  367.36   17.50
  -1  12  -4   65.19    7.90
  -1  12  -4   63.79    6.10
   1  12   4   69.59    9.20
   1 -12   4   59.39    7.90
  -1 -12  -4   68.89    7.70
  -1 -12  -4   77.99    7.40
   1 -12   4   77.49    4.90
  -1  12  -5  164.28   12.60
  -1  12  -5  140.29    7.10
  -1 -12  -5  144.99   10.70
   1 -12   5  136.89    6.40
   1 -12   5  131.29   10.90
  -1 -12  -5  157.88   10.60
  -1 -12  -6  224.78   14.40
  -1  12  -7  177.88   13.70
  -1 -12  -7  186.58   11.60
  -1 -12  -7  192.78   14.30
  -1  12  -8    7.70    6.50
  -1 -12  -8   -3.70    6.30
  -1 -12  -8    2.80    4.30
  -1 -12  -9   20.40    8.90
  -1 -12  -9   25.00    5.00
   1 -13  -9   28.10    5.90
   1 -13  -9   34.10   10.00
   1 -13  -8   31.60    9.10
   1 -13  -8   18.90    5.40
   1 -13  -7   -1.20    6.00
  -1 -13   7    4.50    3.00
   1 -13  -7   -3.60    4.50
   1  13  -6   -3.20    3.40
   1 -13  -6   -2.50    5.50
  -1 -13   6    4.70    2.70
   1 -13  -6   12.70    6.70
  -1 -13   6   -0.70    4.60
   1  13  -5    2.70    3.10
  -1 -13   5    3.70    3.20
   1 -13  -5    2.50    3.80
   1 -13  -5    1.10    6.20
  -1 -13   5    0.60    4.40
   1 -13  -5    3.40    5.30
   1  13  -4    6.50    3.20
  -1 -13   4    4.40    2.70
  -1 -13   4    6.10    4.10
   1 -13  -4    5.80    4.80
   1 -13  -4    6.10    4.50
   1 -13  -4    7.60    4.20
   1  13  -3 1015.70   40.90
   1 -13  -3 1076.19   43.90
   1 -13  -3 1031.60   43.60
  -1 -13   3 1109.89   39.70
   1 -13  -3 1031.30   42.50
  -1 -13   3 1021.90   42.50
  -1  13   2  590.74   26.90
   1  13  -2  587.54   25.50
   1 -13  -2  611.34   26.40
  -1 -13   2  597.14   27.10
  -1 -13   2  627.74   27.30
  -1 -13   2  632.74   24.20
   1 -13  -2  669.83   28.40
   1 -13  -2  617.54   27.70
  -1  13   1   27.80    5.00
   1  13  -1   20.80    4.20
   1 -13  -1   31.90    4.40
   1 -13  -1   22.80    5.40
  -1 -13   1   23.80    5.10
  -1 -13   1   22.30    3.00
   1 -13  -1   17.90    4.40
  -1 -13   1   20.50    4.60
  -1  13   0  137.69    8.90
   1  13   0  118.29    9.20
   1 -13   0  135.89    8.10
  -1 -13   0  138.99   10.40
  -1 -13   0  142.09    7.90
  -1 -13   0  141.39   10.00
   1 -13   0  123.89   10.00
   1 -13   0  131.79   10.50
  -1  13  -1  309.27   14.40
   1  13   1  281.97   15.30
   1  13   1  310.27   16.90
   1 -13   1  285.77   15.50
   1 -13   1  275.07   16.60
  -1 -13  -1  290.67   15.70
   1 -13   1  300.37   13.30
  -1 -13  -1  303.87   14.20
   1  13   2  183.68   12.40
  -1  13  -2  159.58    9.40
   1 -13   2  161.78   11.50
  -1 -13  -2  179.68   10.30
   1 -13   2  164.48   11.00
   1 -13   2  172.18    8.20
  -1 -13  -2  169.98   11.40
  -1  13  -3   38.70    5.30
   1  13   3   69.99    8.80
  -1  13  -3   50.39    7.30
   1 -13   3   49.60    3.40
   1 -13   3   46.70    6.90
   1 -13   3   40.10    5.60
  -1 -13  -3   46.10    6.20
  -1 -13  -3   60.49    7.40
  -1  13  -4  108.39    6.90
  -1  13  -4  102.59   10.10
   1 -13   4   96.99    5.90
  -1 -13  -4  117.39    9.60
   1 -13   4  103.49    9.60
  -1 -13  -4  114.19    9.10
  -1  13  -5   27.70    6.10
  -1  13  -5   33.30    3.60
   1 -13   5   26.20    5.80
  -1 -13  -5   24.00    5.40
  -1 -13  -5   24.50    6.40
  -1  13  -6   49.20    7.70
  -1 -13  -6   56.99    7.90
  -1  13  -7   -0.40    5.90
  -1 -13  -7    8.10    6.60
  -1 -13  -7    1.40    4.00
  -1  13  -8    6.20    6.80
  -1 -13  -8    2.90    4.60
  -1 -13  -8   -4.20    7.90
   1 -14  -8   34.10    9.50
   1 -14  -8   29.30    6.40
   1 -14  -7  150.88   14.60
   1 -14  -7  157.48   12.80
   1 -14  -6   12.90    4.70
   1 -14  -6   10.00    6.10
  -1 -14   6   17.60    3.50
   1  14  -5  107.49    7.80
  -1 -14   5   84.79    9.90
  -1 -14   5  113.09    8.10
   1 -14  -5  119.09   12.70
   1 -14  -5   77.39   10.60
   1  14  -4    4.80    3.50
  -1 -14   4    1.30    2.40
  -1 -14   4   -0.60    4.50
   1 -14  -4    1.20    4.60
   1 -14  -4   -6.00    5.30
   1  14  -3   28.80    4.50
   1 -14  -3   31.90    6.60
  -1 -14   3   28.40    3.20
  -1 -14   3   27.60    5.70
   1 -14  -3   37.20    6.70
   1 -14  -3   19.40    4.90
   1  14  -2   55.99    6.50
   1 -14  -2   42.80    6.90
  -1 -14   2   53.49    4.20
  -1 -14   2   52.49    7.00
  -1 -14   2   49.60    7.00
   1 -14  -2   48.50    6.30
  -1  14   1   28.50    5.40
   1  14  -1   38.70    5.40
   1 -14  -1   25.60    6.00
  -1 -14   1   27.90    5.10
   1 -14  -1   30.10    4.50
  -1 -14   1   36.00    4.10
   1 -14  -1   24.00    5.50
  -1 -14   1   36.80    7.30
  -1  14   0  447.76   20.30
   1  14   0  433.76   20.70
   1 -14   0  472.65   22.50
  -1 -14   0  457.55   19.20
   1 -14   0  445.86   19.50
  -1 -14   0  427.96   21.50
   1 -14   0  436.66   21.60
  -1 -14   0  426.06   21.80
  -1  14  -1   17.40    4.20
  -1 -14  -1   14.30    3.40
   1 -14   1   12.60    2.90
  -1 -14  -1   20.60    5.70
  -1 -14  -1    3.80    3.20
   1 -14   1   17.50    4.30
   1 -14   1    9.10    5.00
   1  14   2   30.70    6.30
  -1  14  -2   42.60    5.20
   1 -14   2   41.20    6.10
  -1 -14  -2   47.70    6.90
   1 -14   2   43.60    4.10
  -1 -14  -2   40.60    5.50
   1 -14   2   42.10    7.00
   1  14   3    8.10    6.70
  -1  14  -3    1.60    3.30
  -1 -14  -3    0.20    3.70
   1 -14   3    3.30    3.80
   1 -14   3    2.20    1.50
  -1 -14  -3    0.40    4.30
  -1  14  -4   38.50    4.50
   1 -14   4   33.60    6.50
   1 -14   4   28.40    3.70
  -1 -14  -4   30.80    5.90
  -1 -14  -4   34.70    7.00
   1 -14   5  609.14   22.20
  -1 -14  -5  569.14   26.30
   1 -14   5  529.85   26.50
  -1 -14  -5  533.25   27.30
  -1  14  -6   75.89    9.60
  -1 -14  -6   71.39    9.30
  -1 -14  -6   73.59    9.30
  -1  14  -7   22.40    7.40
  -1 -14  -7   26.80    7.50
  -1 -14  -7   19.40    5.20
  -1 -14  -8   -1.30    8.30
  -1 -14  -8   -0.10    5.00
   1 -15  -8    6.40    8.10
   1 -15  -8    8.40    6.30
   1 -15  -7   26.50    8.40
   1 -15  -7   19.40    6.10
   1 -15  -6   65.09    9.50
  -1 -15   6   66.89    6.50
   1  15  -5  179.38   11.00
  -1 -15   5  179.48   11.00
  -1 -15   5  152.38   16.10
   1 -15  -5  188.08   15.70
   1  15  -4  166.98   10.90
  -1 -15   4  192.88   12.90
   1 -15  -4  168.58   14.30
  -1 -15   4  188.78    9.60
   1 -15  -4  188.08   13.80
   1  15  -3   32.80    5.20
   1 -15  -3   33.90    6.00
  -1 -15   3   26.50    6.10
   1 -15  -3   29.00    7.00
   1 -15  -3   22.20    6.70
  -1 -15   3   34.40    3.50
   1  15  -2   15.60    4.80
  -1 -15   2   17.40    2.70
  -1 -15   2   19.60    5.70
   1 -15  -2   21.10    5.10
   1 -15  -2   11.00    6.00
  -1 -15   2   13.40    6.90
   1 -15  -2   29.40    6.80
   1  15  -1  392.86   19.60
  -1 -15   1  407.96   21.20
   1 -15  -1  423.46   19.20
   1 -15  -1  416.76   21.90
  -1 -15   1  408.46   21.00
   1 -15  -1  427.26   21.50
  -1 -15   1  404.96   17.60
  -1  15   0  116.49   10.00
   1 -15   0  131.69   11.70
  -1 -15   0  124.09   10.70
   1 -15   0  132.09    8.50
   1 -15   0  136.89   11.60
  -1 -15   0  135.19   11.50
  -1 -15   0  135.19    8.20
  -1  15  -1   -9.10    3.70
   1 -15   1    5.80    8.00
  -1 -15  -1   -1.90    3.50
   1 -15   1   -8.70    4.40
  -1 -15  -1    2.70    2.90
   1 -15   1    0.50    2.40
  -1 -15  -1   -1.40    4.80
  -1  15  -2   29.70    4.90
  -1 -15  -2   25.40    5.80
   1 -15   2   34.60    6.30
  -1 -15  -2   23.50    4.90
   1 -15   2   26.60    3.30
  -1 -15  -2   37.50    8.20
   1 -15   2   29.60    6.50
   1  15   3    6.20    8.20
  -1  15  -3   15.80    4.30
   1 -15   3    9.30    2.00
   1 -15   3    1.90    4.40
  -1 -15  -3   14.60    5.50
  -1  15  -4  246.98   11.80
  -1 -15  -4  242.88   14.80
   1 -15   4  185.48    9.80
  -1 -15  -5   36.50    7.20
   1 -15   5   41.70    5.00
  -1 -15  -6   56.09    8.00
  -1 -15  -6   62.09    8.70
  -1 -15  -7    2.90    7.60
  -1 -15  -7    0.70    5.50
  -1 -15  -8   28.70    6.50
  -1 -15  -8   19.00    8.60
   1 -16  -8    3.50    6.20
   1 -16  -8   13.10    8.90
   1 -16  -7  146.89   15.70
   1 -16  -7  172.78   14.30
   1 -16  -6    7.20    5.10
   1 -16  -6   14.00    7.10
  -1 -16   6   13.40    4.00
   1  16  -5   72.19    9.00
  -1 -16   5   73.59    8.30
   1  16  -4   35.90    5.90
   1 -16  -4   15.80    6.10
   1 -16  -4   28.20    7.50
  -1 -16   4   30.90    7.00
  -1 -16   4   32.50    4.20
   1  16  -3    3.70    4.90
   1 -16  -3   -8.40    6.30
   1 -16  -3    5.10    5.70
  -1 -16   3    1.40    2.00
  -1 -16   3   -9.30    4.20
   1  16  -2   14.90    5.40
   1 -16  -2   21.90    6.60
  -1 -16   2   12.80    5.90
   1 -16  -2   19.30    5.10
   1 -16  -2   12.80    6.60
  -1 -16   2   15.10    2.90
  -1 -16   1  118.49   12.10
   1 -16  -1  128.79    9.60
  -1 -16   1  142.99    8.10
  -1 -16   1  135.79   11.80
   1 -16  -1  134.19   13.00
   1 -16   0   -1.70    3.00
  -1 -16   0    2.30    2.80
  -1 -16   0    3.60    5.70
   1 -16   0    4.50    4.90
   1 -16   0    5.00    5.50
  -1 -16   0    7.90    5.30
  -1  16  -1   71.79    9.10
   1 -16   1   79.19   10.80
   1 -16   1  110.49   11.90
  -1 -16  -1   69.89    9.70
  -1 -16  -1   94.29   11.40
   1 -16   1   85.19    6.70
  -1 -16  -1   96.19    7.70
  -1  16  -2   19.90    5.30
  -1 -16  -2   22.10    5.30
  -1 -16  -2   25.20    4.90
  -1 -16  -2   44.30    8.60
   1 -16   2   15.70    6.50
   1 -16   2   25.80    3.50
  -1  16  -3   51.79    6.10
   1 -16   3   40.20    7.20
   1 -16   3   48.20    4.00
  -1 -16  -3   28.00    5.50
  -1  16  -4   69.29    7.80
   1 -16   4   63.39    5.00
  -1 -16  -4   90.49   10.80
  -1 -16  -5   65.09    9.10
   1 -16   5   71.39    6.50
  -1 -16  -6  121.39   12.70
  -1 -16  -6  144.99   13.60
  -1 -16  -7   10.50    6.00
  -1 -16  -7   13.50    7.80
   1 -17  -7   -3.40    7.00
   1 -17  -7   25.30    9.10
   1 -17  -6  203.88   16.00
   1 -17  -6  181.68   15.20
   1 -17  -5   32.70    8.70
   1 -17  -5   24.80    7.60
  -1 -17   5   24.80    5.80
   1  17  -4   24.60    6.50
   1 -17  -4   41.10    8.70
   1 -17  -4   24.40    6.60
  -1 -17   4   34.30    4.40
   1 -17  -3   27.90    8.90
  -1 -17   3   33.80    4.00
  -1 -17   3   15.20    5.70
   1 -17  -3   22.40    7.20
   1 -17  -2  146.29   13.80
  -1 -17   2  150.58   12.90
   1 -17  -2  129.19   14.20
  -1 -17   2  150.28    8.10
   1 -17  -2  138.59   11.70
  -1 -17   1    3.30    2.70
   1 -17  -1   -1.60    3.90
   1 -17  -1   -8.60    4.90
  -1 -17   1   -1.70    5.40
   1 -17  -1    6.20    6.70
  -1 -17   0   15.00    5.10
   1 -17   0   34.60    8.30
   1 -17   0   36.30    7.80
  -1 -17   0   27.50    4.40
   1 -17   0   19.70    4.40
  -1 -17   0   48.10    8.40
   1 -17   1   14.90    3.70
   1 -17   1   13.80    6.60
  -1 -17  -1   28.30    8.70
  -1 -17  -1   14.70    3.90
   1 -17   1   21.50    6.80
  -1 -17  -1   25.50    7.10
  -1  17  -2    9.20    5.70
  -1 -17  -2   12.80    8.00
   1 -17   2   12.80    7.60
   1 -17   2   13.40    3.10
  -1 -17  -2    9.90    5.10
  -1  17  -3   24.20    5.80
   1 -17   3   29.30    3.30
  -1 -17  -3   36.20    8.40
  -1 -17  -3   24.30    6.10
   1 -17   3   22.80    7.70
  -1 -17  -3   39.10    7.60
  -1 -17  -4   16.30    7.50
  -1 -17  -5   87.09   12.00
  -1 -17  -5  122.19   13.00
  -1 -17  -6   10.40    7.60
  -1 -17  -6   13.20    7.30
  -1 -17  -7   17.60    9.10
  -1 -17  -7   16.10    7.80
   1 -18  -7   13.60    7.90
   1 -18  -7   -4.10    8.80
   1 -18  -6   13.20    8.80
   1 -18  -6   13.10    6.90
   1 -18  -5    4.50    7.80
  -1 -18   5   -4.50    5.20
   1 -18  -5    9.70    7.10
   1 -18  -4   -7.40    5.60
  -1 -18   4    0.00    3.30
   1 -18  -3   88.89   11.10
   1 -18  -3   95.59   10.60
  -1 -18   3   92.99    6.20
  -1 -18   2   84.39   10.60
   1 -18  -2   85.09   11.80
  -1 -18   2   72.39    6.00
   1 -18  -2   67.69   10.10
   1 -18  -1  202.48   16.70
   1 -18  -1  166.38   11.70
   1 -18  -1  151.28   15.30
  -1 -18   1  187.88   15.20
  -1 -18   1  175.88    9.90
  -1 -18   0    4.20    8.10
   1 -18   0    6.90    4.10
  -1 -18   0    4.80    3.60
   1 -18   0    0.80    8.20
  -1 -18   0    6.90    6.20
   1 -18   0    6.30    7.50
   1 -18   1   26.30    8.00
   1 -18   1   23.30    4.30
  -1 -18  -1   17.50    6.10
  -1 -18  -1   27.30    8.10
  -1 -18  -2  427.56   21.20
   1 -18   2  431.06   24.60
  -1 -18  -2  433.86   23.60
  -1 -18  -2  409.96   25.10
   1 -18   2  432.06   18.40
  -1  18  -3   16.50    6.40
  -1 -18  -3   14.80    7.20
  -1 -18  -3    8.80    5.60
   1 -18   3   11.00    2.80
  -1 -18  -4   31.10    6.70
   1 -18   4   33.50    3.90
  -1 -18  -5    2.00    5.90
  -1 -18  -5    9.10    7.60
  -1 -18  -6   32.90    8.50
  -1 -18  -6   26.90    8.50
   1 -19  -6    0.20    7.80
   1 -19  -6   -1.10    8.20
   1 -19  -5   -5.00    6.30
  -1 -19   5   -2.20    5.80
   1 -19  -5   -0.20    7.70
  -1 -19   4   48.70    6.50
   1 -19  -4   44.20   10.20
   1 -19  -4   45.20    9.10
   1 -19  -3  180.68   14.10
   1 -19  -3  236.78   27.50
  -1 -19   3  183.98    9.60
   1 -19  -2   41.70    7.30
  -1 -19   2   28.60    8.10
   1 -19  -2   31.80    7.90
  -1 -19   2   40.90    5.10
   1 -19  -1   18.50    8.20
  -1 -19   1   22.70    7.80
   1 -19  -1   24.80   10.10
   1 -19   0   10.50    4.40
   1 -19   0    7.50    8.30
  -1 -19   0   10.00    7.70
   1 -19   1  116.19   14.00
  -1 -19  -1   97.69   13.50
   1 -19   1   93.89    8.10
  -1 -19  -1  109.19    9.60
  -1 -19  -2   40.50    9.20
  -1 -19  -2   35.60    6.50
   1 -19   2   31.10    4.40
  -1 -19  -2   62.29   17.30
   1 -19   2   46.40   10.70
  -1 -19  -3   73.69    8.90
   1 -19   3   63.29    5.60
  -1 -19  -3   85.49   11.40
  -1 -19  -4   18.00    6.40
   1 -19   4   10.50    3.00
  -1 -19  -5   -0.30    7.30
  -1 -19  -5    7.70    7.20
  -1 -19  -6   70.49   11.30
  -1 -19  -6   55.59   10.20
   1 -20  -5   -4.30    8.70
   1 -20  -5   14.90    8.20
  -1 -20   4   17.30    4.60
   1 -20  -4   17.40    7.70
   1 -20  -4   15.20    9.50
  -1 -20   3    7.80    3.20
   1 -20  -3   16.40   10.10
   1 -20  -3    8.00    7.10
   1 -20  -2  166.58   13.10
   1 -20  -2  152.38   17.00
   1 -20  -1   25.30    9.80
  -1 -20   1    9.00    7.40
   1 -20  -1    9.80    5.50
   1 -20   0  126.39   17.80
  -1 -20   0  152.98   15.90
  -1 -20   0  144.79   10.30
  -1 -20  -1   -0.80    7.20
   1 -20   1    8.00    9.10
   1 -20   1    5.90    4.30
  -1 -20  -1    0.90    4.60
  -1 -20  -2    0.70    6.20
  -1 -20  -2   -3.60    4.70
   1 -20   2    1.50    3.30
  -1 -20  -3    5.50    6.00
   1 -20   3   -3.00    2.90
  -1 -20  -3    7.30    8.20
  -1 -20  -4   -3.00    8.10
  -1 -20  -4   -0.60    6.40
  -1 -20  -5   36.00    8.90
  -1 -20  -5   32.30   10.10
   1 -21  -5   -5.00    9.20
   1 -21  -5   11.60    8.40
  -1 -21   4   18.50    6.40
   1 -21  -4   25.70    8.80
   1 -21  -4   -1.10    9.70
   1 -21  -3   14.20    7.10
   1 -21  -2   16.00    6.40
  -1 -21   2   20.00    4.20
   1 -21  -2   10.50    7.90
   1 -21  -1   88.59   11.00
   1 -21  -1   75.89   12.00
  -1 -21   1   97.39    8.20
  -1 -21   0   -1.50    4.50
  -1 -21   0    0.80    8.50
   1 -21   0    0.70    5.10
   1 -21   0    5.00    9.80
  -1 -21  -1   16.70    5.50
  -1 -21  -1   24.20    8.20
  -1 -21  -2   -9.20    8.40
  -1 -21  -2    0.50    5.60
   1 -21   3    8.20    3.30
  -1 -21  -3    5.60    5.90
  -1 -21  -4    8.90    9.60
  -1 -21  -4   18.80    8.00
   1 -22  -4    1.50    8.30
   1 -22  -4  -10.10   10.80
   1 -22  -3   19.50    9.80
   1 -22  -3   38.10    8.90
  -1 -22   3   32.40    4.80
   1 -22  -2   19.90    7.40
   1 -22  -2   26.10   11.60
  -1 -22   2    9.50    4.10
   1 -22  -1   48.20    7.70
   1 -22  -1   31.70    9.80
  -1 -22   1   36.10    6.00
   1 -22   0    6.10    5.40
  -1 -22   0   10.80    5.20
   1 -22   1   -2.50    4.60
  -1 -22  -1    0.90    4.90
  -1 -22  -2   13.90    6.60
  -1 -22  -3   18.80    7.10
  -1 -22  -3   17.80   10.80
   1 -23  -2   -4.60    7.00
  -1 -23   2   -1.10    4.10
   1 -23  -1   18.20    7.00
  -1 -23   1   16.80    5.10
  -1 -23   0   45.60    7.00
   1 -23   0   41.60    6.80
  -1 -23  -1   54.59    8.10
   1 -23   1   57.69    7.20
   1 -23   2   -2.40    4.40
  -1 -23  -2   10.30    6.80
   2   0 -10   62.49    9.00
   2   0  -9    6.50    5.30
   2   0  -8  197.98   12.30
   2   0  -8  193.58   10.70
   2   0  -7   -1.50    2.70
   2   0  -7    2.40    3.20
   2   0  -6  411.16   17.80
   2   0  -6  448.76   18.90
   2   0  -5    0.80    1.90
   2   0  -5    1.50    1.70
   2   0  -4  836.72   32.80
   2   0  -4  860.61   32.40
  -2   0   3    1.20    1.20
   2   0  -2  422.96   15.70
  -2   0   2  429.96   16.50
   2   0  -2  434.96   16.40
  -2   0   2  407.46   15.80
  -2   0   1    0.00    0.60
   2   0  -1    0.10    0.30
   2   0  -1    0.50    0.60
   2   0   0   97.19    4.30
  -2   0   0   92.39    4.30
   2   0   0  104.39    4.20
  -2   0  -1    0.10    0.30
   2   0   1    0.80    0.40
  -2   0  -1    0.80    0.60
   2   0   1    0.10    0.40
  -2   0  -2  185.38    7.30
   2   0   2  190.78    7.70
   2   0   2  183.78    7.60
  -2   0  -2  182.88    7.60
  -2   0  -3   -0.70    0.70
   2   0   3    1.70    1.10
   2   0   3    0.20    0.80
  -2   0  -3    0.00    0.80
  -2   0  -4 3359.26  121.69
   2   0   4 3344.87  121.89
   2   0   4 3456.35  122.09
  -2   0  -4 3128.09  121.59
   2   0   5   -0.40    1.60
  -2   0  -5    1.10    1.60
  -2   0  -5   -0.20    1.10
   2   0   6 1103.69   41.00
  -2   0  -6 1025.00   40.60
  -2   0  -6 1091.09   40.90
  -2   0  -7   -0.10    2.40
  -2   0  -7    2.00    2.70
  -2   0  -8  451.15   19.00
  -2   0  -8  448.46   19.00
  -2   0  -9    1.20    3.00
  -2   0  -9   -0.70    3.50
  -2   0 -10   31.70    5.00
   2   1 -10   21.40    7.10
   2   1  -9  284.17   15.90
   2  -1  -9  278.27   16.40
   2   1  -8   13.80    4.60
   2   1  -8   10.10    3.80
   2  -1  -8   15.50    4.70
   2  -1  -8   18.40    4.50
   2   1  -7  457.75   20.60
   2   1  -7  450.15   19.40
   2  -1  -7  488.55   17.50
   2  -1  -7  489.55   21.30
   2  -1  -7  454.85   19.80
   2   1  -6  178.78    8.10
   2   1  -6  151.28    8.70
   2  -1  -6  135.89    9.00
   2  -1  -6  143.39    8.10
   2  -1  -6  146.79    5.90
   2   1  -5   22.30    2.70
   2   1  -5   27.60    3.50
   2  -1  -5   25.50    1.60
   2  -1  -5   20.60    3.20
   2  -1  -5   30.10    3.50
   2   1  -4  859.11   32.60
   2   1  -4  845.12   32.20
  -2  -1   4  816.42   32.50
   2  -1  -4  858.21   33.00
   2  -1  -4  833.22   32.40
   2  -1  -4  871.91   31.40
   2  -1  -4  844.52   31.40
   2   1  -3  291.37   12.20
  -2  -1   3  296.77   12.40
   2  -1  -3  311.97   11.60
   2  -1  -3  298.17   12.70
   2  -1  -3  305.97   12.50
  -2   1   2  272.97   11.60
  -2   1   2  290.27   11.10
   2   1  -2  294.07   11.40
   2   1  -2  279.67   10.70
   2  -1  -2  283.87   10.90
   2  -1  -2  274.37   11.40
  -2  -1   2  297.17   11.50
  -2  -1   2  293.37   10.60
   2   1  -1   34.10    1.70
   2   1  -1   38.90    2.40
  -2   1   1   36.20    2.20
  -2  -1   1   30.60    2.10
   2  -1  -1   35.40    2.10
  -2  -1   1   35.30    1.70
   2  -1  -1   34.30    1.80
  -2   1   0   82.79    3.80
  -2   1   0   83.89    3.70
   2   1   0   82.69    3.60
   2   1   0   85.19    3.70
  -2  -1   0   84.39    3.70
   2  -1   0   88.89    3.70
  -2  -1   0   83.29    3.60
   2   1   1 1690.63   59.79
  -2   1  -1 1547.25   59.39
   2   1   1 1691.83   59.69
  -2  -1  -1 1562.24   59.59
  -2  -1  -1 1611.64   59.39
   2  -1   1 1649.54   59.19
   2   1   2  350.26   14.20
  -2   1  -2  366.56   13.40
  -2   1  -2  328.47   14.00
   2   1   2  381.96   14.30
   2  -1   2  362.36   13.70
  -2  -1  -2  361.26   14.00
  -2  -1  -2  361.66   13.90
   2  -1   2  372.76   14.00
   2   1   3   47.70    3.40
   2   1   3   49.20    3.20
  -2   1  -3   47.80    2.40
  -2   1  -3   42.00    2.70
  -2  -1  -3   46.00    2.70
   2  -1   3   47.80    2.80
   2  -1   3   44.90    2.70
  -2  -1  -3   47.90    3.00
  -2   1  -4  141.59    6.80
  -2   1  -4  155.18    6.50
   2   1   4  150.78    7.30
   2   1   4  143.69    7.30
   2  -1   4  148.39    6.80
   2  -1   4  152.68    6.70
  -2  -1  -4  141.69    6.60
  -2  -1  -4  150.98    7.10
   2   1   5  195.68    9.30
  -2   1  -5  195.28    8.40
   2   1   5  190.08    9.20
  -2   1  -5  171.48    8.40
   2  -1   5  195.18    8.50
  -2  -1  -5  185.38    8.40
   2  -1   5  199.58    8.80
  -2  -1  -5  192.38    9.00
  -2   1  -6  254.17   11.70
  -2   1  -6  276.87   11.70
   2   1   6  288.77   12.60
  -2  -1  -6  277.87   11.70
  -2  -1  -6  265.07   12.30
  -2   1  -7   67.49    5.10
  -2   1  -7   69.89    5.10
   2   1   7   58.69    6.20
  -2  -1  -7   69.69    5.70
  -2   1  -8   19.90    3.50
  -2   1  -8   29.40    4.90
  -2  -1  -8   26.70    4.50
  -2  -1  -8   30.80    4.40
  -2   1  -9   44.50    6.00
  -2  -1  -9   52.79    5.60
  -2  -1  -9   38.40    4.50
  -2   1 -10    1.90    4.10
  -2  -1 -10    6.90    3.70
   2   2 -10   76.99    9.20
   2  -2 -10   85.19   10.20
   2   2  -9   19.00    5.70
   2   2  -9   10.80    6.70
   2  -2  -9   18.10    6.50
   2   2  -8   22.60    5.00
   2   2  -8   23.50    4.20
   2  -2  -8   28.70    5.80
   2   2  -7  155.98    9.40
   2   2  -7  161.68    8.50
   2  -2  -7  149.09   10.20
   2  -2  -7  154.88    6.30
   2  -2  -7  153.38    9.30
   2   2  -6   61.99    5.50
   2   2  -6   72.39    4.90
   2  -2  -6   61.49    5.50
   2  -2  -6   66.39    3.30
   2  -2  -6   60.79    6.30
   2   2  -5  162.48    7.60
   2   2  -5  154.78    7.90
   2  -2  -5  161.48    6.70
   2  -2  -5  155.08    8.80
   2  -2  -5  148.89    8.00
   2   2  -4  442.86   17.00
  -2  -2   4  415.16   17.20
   2  -2  -4  425.56   17.40
   2  -2  -4  432.66   16.60
   2  -2  -4  419.56   16.50
   2  -2  -4  419.96   17.90
   2   2  -3 9417.16  349.87
   2  -2  -3 9609.54  350.46
  -2  -2   3 9594.64  349.87
   2  -2  -3 9851.51  350.16
   2   2  -2 2353.26   89.09
  -2   2   2 2495.05   89.59
   2   2  -2 2448.75   89.79
   2  -2  -2 2442.06   89.49
  -2  -2   2 2431.96   89.59
   2  -2  -2 2485.15   89.79
   2   2  -1 1152.58   40.80
   2   2  -1 1100.19   40.70
  -2  -2   1 1012.40   40.50
   2  -2  -1 1130.29   41.10
   2  -2  -1 1142.19   40.90
   2  -2  -1 1163.78   41.00
  -2  -2   1 1023.00   41.10
  -2   2   0  439.26   16.80
   2   2   0  459.15   16.50
   2   2   0  430.96   16.70
  -2   2   0  433.86   16.50
   2  -2   0  433.36   16.40
   2  -2   0  437.56   16.60
  -2  -2   0  422.26   16.50
  -2  -2   0  429.16   16.30
   2   2   1 3757.02  136.79
   2   2   1 3865.91  136.99
  -2  -2  -1 3616.94  136.69
  -2  -2  -1 3682.43  136.59
   2  -2   1 3817.52  136.69
  -2   2  -2 1865.21   71.79
   2   2   2 1985.40   72.99
  -2   2  -2 1989.10   72.69
   2   2   2 2073.99   73.09
   2  -2   2 2053.69   72.59
  -2  -2  -2 1948.01   72.69
   2  -2   2 1957.20   71.89
  -2  -2  -2 1929.31   72.59
  -2   2  -3  350.06   14.30
   2   2   3  363.16   14.80
   2   2   3  364.06   14.80
  -2   2  -3  362.56   13.30
  -2  -2  -3  332.07   14.50
   2  -2   3  355.96   13.50
   2  -2   3  371.16   14.10
  -2  -2  -3  363.86   14.10
   2   2   4 1130.59   43.50
  -2   2  -4 1162.08   42.10
  -2   2  -4 1110.69   42.90
   2   2   4 1188.08   43.70
   2  -2   4 1121.39   42.60
  -2  -2  -4 1127.19   43.20
  -2  -2  -4 1154.38   42.70
   2   2   5  705.53   27.70
  -2   2  -5  702.43   26.10
  -2   2  -5  677.53   26.90
  -2   2  -5  692.23   26.10
   2   2   5  668.03   27.60
   2  -2   5  707.13   26.70
  -2  -2  -5  697.63   26.50
  -2  -2  -5  685.43   27.30
  -2   2  -6  277.27   10.70
  -2   2  -6  268.37   11.60
  -2   2  -6  253.87   10.90
   2   2   6  239.18   12.20
  -2  -2  -6  245.38   11.90
  -2  -2  -6  253.77   11.10
  -2   2  -7   51.79    4.30
   2   2   7   46.10    5.40
  -2  -2  -7   50.79    5.60
  -2   2  -8   44.30    4.60
  -2  -2  -8   43.20    5.20
  -2  -2  -8   35.90    5.30
  -2   2  -9    5.00    3.70
  -2  -2  -9    5.70    2.70
  -2  -2  -9    3.90    4.20
  -2   2 -10    7.50    4.50
  -2  -2 -10    7.20    3.70
   2   3 -10    6.60    6.20
   2  -3 -10    1.80    7.30
   2   3  -9   71.69    9.10
   2  -3  -9   80.69    4.20
   2  -3  -9   81.69   10.60
   2  -3  -9   78.39    6.30
   2   3  -8  790.72   33.10
   2   3  -8  851.41   34.00
   2  -3  -8  860.61   35.50
   2  -3  -8  814.72   30.90
   2   3  -7   10.40    3.30
   2   3  -7   13.80    3.20
   2  -3  -7   13.40    1.60
   2  -3  -7   12.20    4.30
   2  -3  -7   13.30    4.00
   2   3  -6  722.53   28.20
   2   3  -6  703.83   28.40
   2  -3  -6  698.43   29.80
   2  -3  -6  725.23   27.10
   2  -3  -6  718.53   28.90
   2   3  -5    3.00    1.80
   2  -3  -5   -1.00    2.30
   2  -3  -5    2.90    2.30
  -2  -3   5    1.60    1.80
   2  -3  -5   -0.40    1.20
   2   3  -4  343.07   13.90
  -2   3   4  358.06   14.50
   2  -3  -4  326.17   14.20
  -2  -3   4  323.57   13.70
   2  -3  -4  321.47   13.60
   2  -3  -4  325.97   14.80
   2   3  -3 1075.89   40.00
   2   3  -3 1031.50   40.70
  -2   3   3 1094.19   41.00
  -2  -3   3 1076.29   39.30
   2  -3  -3 1070.19   40.90
   2  -3  -3 1097.09   41.30
   2  -3  -3 1071.49   40.40
  -2  -3   3 1079.09   39.60
  -2  -3   3 1097.09   40.40
  -2   3   2  129.89    6.00
   2   3  -2  129.69    5.70
  -2   3   2  134.69    6.30
   2   3  -2  134.79    5.80
  -2  -3   2  131.19    5.30
   2  -3  -2  126.69    5.90
  -2  -3   2  111.99    6.00
   2  -3  -2  125.09    6.30
   2   3  -1 4529.55  172.78
   2   3  -1 4565.74  173.18
  -2   3   1 5052.89  173.38
   2  -3  -1 4707.33  173.38
  -2  -3   1 4793.62  173.08
   2  -3  -1 4787.82  173.28
   2  -3  -1 4815.52  173.38
   2   3   0  314.87   11.80
  -2   3   0  290.57   12.10
   2   3   0  303.57   12.10
  -2  -3   0  306.47   11.50
   2  -3   0  290.97   11.70
   2  -3   0  287.27   11.90
   2  -3   0  298.07   11.60
  -2  -3   0  292.07   11.80
   2   3   1  472.85   18.30
   2   3   1  460.55   18.10
   2  -3   1  468.35   17.20
  -2  -3  -1  442.46   17.80
  -2  -3  -1  449.86   17.90
   2  -3   1  487.85   17.90
   2  -3   1  463.65   17.30
   2   3   2  248.78   10.50
   2   3   2  241.48   10.50
  -2   3  -2  241.08   10.10
  -2  -3  -2  241.28   10.00
   2  -3   2  261.37    9.80
  -2  -3  -2  213.68   10.60
  -2   3  -3  625.54   24.20
   2   3   3  619.94   24.70
   2   3   3  628.74   24.70
   2  -3   3  648.04   23.80
  -2  -3  -3  609.54   24.30
  -2  -3  -3  614.84   24.00
  -2   3  -4  102.79    4.10
   2   3   4   96.59    6.20
   2   3   4   99.69    6.50
  -2   3  -4  109.19    5.60
  -2   3  -4  104.39    4.10
  -2  -3  -4  101.69    5.90
   2  -3   4  108.69    5.10
  -2  -3  -4  104.59    5.20
  -2   3  -5  382.16   14.10
   2   3   5  353.66   16.30
  -2   3  -5  367.96   14.00
   2   3   5  377.56   16.40
  -2   3  -5  387.76   15.60
   2  -3   5  358.76   14.90
  -2  -3  -5  363.96   15.90
  -2  -3  -5  370.96   15.00
   2   3   6   34.40    4.60
  -2   3  -6   23.50    2.40
  -2   3  -6   26.20    3.50
  -2   3  -6   25.90    2.50
  -2  -3  -6   26.20    3.80
  -2  -3  -6   24.40    2.80
  -2   3  -7  151.08    7.10
  -2   3  -7  158.88    7.30
   2   3   7  167.78   10.30
  -2  -3  -7  161.88    9.40
   2   3   8   -2.40    4.80
  -2  -3  -8    8.50    3.90
  -2   3  -9   -1.00    3.70
  -2  -3  -9    0.60    2.70
  -2  -3  -9    3.20    4.60
  -2   3 -10   -0.40    4.60
  -2  -3 -10    0.50    3.00
   2   4 -10   36.10    7.20
   2  -4 -10   46.50    5.20
   2  -4 -10   39.30    8.70
   2  -4 -10   38.30    3.30
   2   4  -9   11.10    5.00
   2  -4  -9   10.10    3.80
   2  -4  -9    8.30    1.80
   2   4  -8   55.19    7.10
   2   4  -8   46.70    5.60
   2  -4  -8   55.09    3.40
   2  -4  -8   55.29    7.70
   2  -4  -8   54.59    6.20
   2   4  -7  275.07   13.10
   2   4  -7  247.68   12.90
   2  -4  -7  288.77   15.20
   2  -4  -7  270.17   11.30
   2  -4  -7  289.67   16.30
   2   4  -6  205.58    9.90
   2   4  -6  195.38   10.00
   2  -4  -6  197.78   11.70
   2  -4  -6  217.18    9.20
   2  -4  -6  195.38   10.80
  -2   4   5  299.07   13.90
   2   4  -5  287.67   13.10
   2  -4  -5  315.97   12.90
   2  -4  -5  291.67   13.70
  -2  -4   5  304.47   13.00
   2  -4  -5  310.07   14.60
  -2   4   4  649.83   25.80
   2   4  -4  616.04   25.00
   2  -4  -4  639.34   26.20
   2  -4  -4  638.44   25.10
  -2  -4   4  656.23   24.80
   2  -4  -4  639.64   25.10
   2   4  -3 3672.53  134.89
  -2   4   3 3846.32  135.69
  -2  -4   3 3768.82  134.49
  -2  -4   3 3549.94  134.19
  -2  -4   3 3631.74  134.89
   2  -4  -3 3708.33  135.39
   2  -4  -3 3633.94  135.89
   2  -4  -3 3652.53  135.19
   2   4  -2 1063.59   38.90
  -2   4   2 1049.00   39.10
  -2   4   2 1044.80   39.20
   2   4  -2 1055.09   38.20
   2  -4  -2 1026.90   39.30
   2  -4  -2 1042.50   39.00
  -2  -4   2  896.41   40.50
  -2  -4   2 1059.29   38.40
   2   4  -1 1070.59   40.60
   2   4  -1 1082.09   40.00
  -2   4   1 1119.19   40.60
  -2   4   1 1080.19   40.90
   2  -4  -1 1094.19   40.70
   2  -4  -1 1082.79   40.70
  -2  -4   1 1025.30   39.90
  -2   4   0 2435.46   86.79
  -2   4   0 2381.16   87.49
   2   4   0 2424.96   87.49
   2   4   0 2416.06   86.89
   2  -4   0 2415.06   87.19
  -2  -4   0 2147.09   86.89
   2  -4   0 2320.27   86.89
  -2  -4   0 2391.26   87.19
   2   4   1 1427.96   52.19
   2   4   1 1393.46   51.79
  -2  -4  -1 1370.46   51.49
   2  -4   1 1413.16   50.79
   2  -4   1 1367.56   50.99
  -2  -4  -1 1301.47   51.69
   2  -4   1 1437.96   51.59
   2   4   2  307.17   13.40
  -2   4  -2  313.87   13.30
   2   4   2  331.87   13.80
  -2  -4  -2  297.07   13.10
  -2  -4  -2  316.47   13.10
   2  -4   2  347.87   13.60
  -2   4  -3   62.29    4.20
   2   4   3   74.69    5.10
   2   4   3   70.89    5.00
  -2  -4  -3   68.59    4.50
   2  -4   3   66.99    3.60
  -2  -4  -3   65.09    4.00
   2   4   4 1585.54   59.69
   2   4   4 1598.24   59.69
  -2   4  -4 1591.54   58.99
  -2  -4  -4 1558.44   59.19
   2  -4   4 1567.04   58.19
  -2  -4  -4 1519.35   58.49
   2   4   5  279.27   13.20
  -2   4  -5  284.67   12.20
   2   4   5  260.77   13.10
  -2  -4  -5  260.27   12.50
   2  -4   5  268.57   11.30
  -2  -4  -5  263.37   11.40
   2   4   6  168.58   10.30
  -2   4  -6  173.48    9.10
  -2  -4  -6  175.88    8.10
  -2  -4  -6  171.18    9.50
  -2   4  -7  512.35   19.50
  -2   4  -7  528.55   19.50
   2   4   7  513.25   23.10
  -2  -4  -7  533.05   22.50
  -2   4  -8   83.39    8.30
  -2  -4  -8   70.79    7.70
  -2  -4  -8   60.69    6.90
  -2   4  -9   22.40    5.10
  -2  -4  -9   23.40    3.70
  -2  -4  -9   24.60    5.70
  -2   4 -10   25.20    5.80
  -2  -4 -10   16.10    3.70
   2  -5 -10   15.00    8.20
   2  -5 -10   18.70    5.10
   2  -5 -10   13.40    2.30
   2   5  -9   34.40    5.80
   2  -5  -9   35.70    7.80
   2  -5  -9   27.50    3.00
   2  -5  -9   38.00    5.30
   2   5  -8   10.40    3.90
   2   5  -8    3.40    3.80
   2  -5  -8   14.10    5.70
   2  -5  -8    6.00    1.90
   2  -5  -8    3.90    3.70
   2   5  -7   43.30    5.10
   2   5  -7   41.10    5.30
   2  -5  -7   43.70    3.70
   2  -5  -7   39.40    6.20
  -2   5   6   11.80    3.50
   2   5  -6   10.40    2.70
  -2  -5   6   10.20    2.70
   2  -5  -6    8.80    3.50
   2  -5  -6   10.00    2.40
   2  -5  -6    9.50    3.90
   2   5  -5  202.48    9.80
  -2   5   5  216.58   11.20
   2  -5  -5  207.78   10.10
  -2  -5   5  228.58    9.90
   2  -5  -5  215.78   10.50
   2  -5  -5  223.68   11.80
   2   5  -4   90.69    4.70
  -2   5   4   89.79    6.00
  -2  -5   4   85.69    4.00
  -2  -5   4   95.99    4.90
   2  -5  -4   74.49    5.90
  -2  -5   4   77.59    4.70
   2  -5  -4   90.69    5.50
   2  -5  -4   84.39    5.50
  -2   5   3  150.38    7.70
   2   5  -3  138.39    6.90
   2   5  -3  147.99    6.20
   2  -5  -3  142.99    7.50
   2  -5  -3  148.59    7.30
  -2  -5   3  141.19    6.60
  -2  -5   3  136.39    6.30
   2  -5  -3  135.69    7.80
  -2  -5   3  131.29    6.90
   2   5  -2   71.89    3.70
   2   5  -2   68.79    4.30
  -2  -5   2   70.39    3.90
  -2  -5   2   62.09    3.90
   2  -5  -2   67.99    4.60
   2  -5  -2   69.79    4.50
   2   5  -1   18.90    2.50
  -2   5   1   12.40    2.00
  -2   5   1   19.70    2.40
   2   5  -1   22.00    1.90
  -2  -5   1   20.20    1.60
   2  -5  -1   19.60    2.60
   2  -5  -1   15.90    2.40
  -2   5   0 1437.26   52.19
  -2  -5   0 1323.17   51.99
   2  -5   0 1390.86   52.29
  -2  -5   0 1419.66   52.69
   2  -5   0 1459.65   52.79
  -2   5  -1  135.19    5.50
  -2   5  -1  112.99    7.30
   2   5   1  138.19    7.00
   2   5   1  124.89    6.40
  -2  -5  -1  124.79    6.10
   2  -5   1  130.89    6.30
   2  -5   1  126.79    5.60
  -2  -5  -1  126.49    6.40
  -2   5  -2  332.07   14.40
   2   5   2  342.07   14.50
  -2  -5  -2  343.77   14.30
   2  -5   2  346.07   12.60
   2  -5   2  353.16   13.80
  -2  -5  -2  322.07   14.10
   2   5   3 1008.30   39.90
   2   5   3 1055.69   40.20
  -2   5  -3 1017.80   39.50
  -2  -5  -3 1013.70   39.50
  -2  -5  -3 1027.30   39.20
   2  -5   3 1047.30   38.60
   2   5   4   44.80    5.10
   2   5   4   49.90    5.10
  -2   5  -4   52.69    4.30
   2  -5   4   48.00    3.20
  -2  -5  -4   49.50    3.80
  -2  -5  -4   51.89    4.60
   2   5   5   26.70    4.30
  -2   5  -5   20.20    3.20
   2   5   5   22.50    4.30
   2  -5   5   24.20    2.70
  -2  -5  -5   25.40    3.00
  -2  -5  -5   31.90    4.30
   2   5   6    2.00    4.00
  -2   5  -6    1.50    2.50
  -2  -5  -6    4.40    1.70
  -2  -5  -6    1.70    2.90
   2   5   7  179.48   12.30
  -2  -5  -7  197.48   11.10
  -2   5  -8   11.30    4.00
  -2  -5  -8   18.50    4.90
  -2  -5  -8   12.20    2.60
  -2   5  -9    1.70    4.30
  -2  -5  -9    9.70    5.40
  -2  -5  -9    6.50    2.90
   2  -6 -10   37.90    3.80
   2  -6 -10   55.29    7.90
   2  -6 -10   41.50    9.70
   2   6  -9   23.80    5.40
   2  -6  -9   25.10    5.30
   2  -6  -9   29.80    7.70
   2  -6  -9   30.90    3.40
   2   6  -8   30.10    4.00
   2   6  -8   23.80    4.40
   2  -6  -8   27.20    3.20
   2  -6  -8   24.30    5.10
   2  -6  -8   26.40    6.60
   2   6  -7    7.70    3.00
   2   6  -7   11.10    2.60
   2  -6  -7    3.20    4.70
   2  -6  -7   11.00    3.80
   2  -6  -7    6.40    2.40
  -2   6   6    6.40    3.90
   2   6  -6   12.10    2.30
   2  -6  -6   15.90    3.70
   2  -6  -6    8.00    2.50
  -2  -6   6   13.50    2.80
   2  -6  -6    9.70    4.30
  -2   6   5    7.90    3.10
   2   6  -5   11.60    1.90
   2  -6  -5   14.20    3.70
  -2  -6   5   14.20    2.50
  -2  -6   5   16.10    1.70
   2  -6  -5   13.60    3.60
  -2  -6   5   13.70    1.50
   2  -6  -5   13.90    2.80
   2   6  -4   85.19    4.30
  -2   6   4   90.09    6.50
  -2  -6   4   83.19    4.90
   2  -6  -4   75.99    5.70
  -2  -6   4   89.39    4.70
  -2  -6   4   80.59    4.50
   2  -6  -4   92.59    6.70
   2  -6  -4   87.19    5.90
   2   6  -3    2.10    0.90
  -2   6   3    2.80    2.20
   2   6  -3    2.00    1.50
   2  -6  -3   -0.20    1.70
   2  -6  -3    6.10    2.10
  -2  -6   3    5.30    1.50
   2  -6  -3    2.00    2.10
  -2  -6   3    2.30    1.50
  -2  -6   3    3.20    1.90
   2   6  -2  109.89    6.10
   2   6  -2  112.09    5.10
   2  -6  -2  105.29    6.20
   2  -6  -2  109.19    6.40
  -2  -6   2  108.69    5.20
  -2  -6   2  102.29    5.70
   2   6  -1 3761.22  136.09
  -2   6   1 3787.72  136.79
  -2   6   1 3757.92  137.29
   2   6  -1 3624.84  137.09
  -2  -6   1 3665.93  136.69
  -2  -6   1 3612.64  135.59
   2  -6  -1 3674.43  136.69
   2  -6  -1 3849.21  137.09
   2   6   0 1977.10   74.69
   2   6   0 2075.29   75.59
  -2   6   0 2043.20   74.49
   2  -6   0 2063.29   75.19
  -2  -6   0 2018.40   75.09
   2  -6   0 1984.20   74.59
  -2  -6   0 1936.31   74.19
  -2   6  -1    3.40    1.70
   2   6   1    2.60    1.70
  -2   6  -1    8.00    1.40
   2   6   1    6.30    1.90
  -2  -6  -1    0.20    1.90
  -2  -6  -1    7.20    1.60
   2  -6   1    7.90    1.70
   2  -6   1    5.90    1.30
  -2   6  -2  133.79    7.50
   2   6   2  143.19    7.60
   2   6   2  149.09    8.10
  -2   6  -2  141.09    5.70
  -2  -6  -2  146.39    7.20
   2  -6   2  139.09    5.60
  -2  -6  -2  142.89    7.40
   2  -6   2  139.19    6.80
   2   6   3   88.09    6.30
   2   6   3   75.99    6.00
  -2   6  -3   76.19    5.50
  -2  -6  -3   85.19    5.40
   2  -6   3   78.69    4.50
  -2  -6  -3   79.79    5.10
   2   6   4  200.08   11.00
   2   6   4  184.38   10.80
  -2   6  -4  205.28   10.30
  -2  -6  -4  212.58    9.80
  -2  -6  -4  210.98   10.30
   2  -6   4  211.08    9.00
   2   6   5  843.02   34.40
  -2   6  -5  837.32   33.50
   2   6   5  817.82   34.40
   2  -6   5  845.42   32.10
  -2  -6  -5  861.11   33.80
  -2  -6  -5  841.42   32.70
   2   6   6   63.09    7.10
  -2   6  -6   52.89    5.90
  -2  -6  -6   59.99    6.30
  -2  -6  -6   64.59    4.70
  -2  -6  -7  139.79    9.70
  -2   6  -8   26.50    5.00
  -2  -6  -8   24.60    5.40
  -2  -6  -8   28.30    3.60
  -2   6  -9   48.60    7.20
  -2  -6  -9   53.49    5.40
  -2  -6  -9   44.10    8.70
   2  -7 -10    0.60    8.00
   2   7  -9   91.99    9.10
   2  -7  -9   90.59    5.80
   2  -7  -9   90.69   10.00
   2  -7  -9  113.69   13.40
   2   7  -8   74.19    7.20
   2   7  -8   68.89    5.20
   2  -7  -8   80.79   10.60
   2  -7  -8   77.59    8.60
   2  -7  -8   82.19    5.80
   2   7  -7   32.70    3.40
   2   7  -7   28.40    3.90
   2  -7  -7   26.70    4.10
   2  -7  -7   26.40    5.00
   2  -7  -7   31.30    6.50
   2   7  -6   42.60    3.30
   2  -7  -6   40.50    4.80
   2  -7  -6   42.90    6.20
  -2  -7   6   44.70    4.40
   2  -7  -6   45.80    6.30
   2   7  -5   87.19    4.50
  -2   7   5   83.09    7.40
  -2  -7   5   80.89    5.30
  -2  -7   5   86.99    4.30
   2  -7  -5   93.89    7.00
   2  -7  -5   83.59    7.40
  -2  -7   5   81.29    4.80
   2  -7  -5   90.19    6.40
   2   7  -4  220.38    8.90
  -2   7   4  205.08   11.10
   2  -7  -4  203.28   11.40
   2  -7  -4  202.88   10.70
  -2  -7   4  217.38    9.60
  -2  -7   4  209.18    9.40
  -2  -7   4  215.78    9.70
   2  -7  -4  201.28   10.70
   2   7  -3  120.79    7.00
   2   7  -3  128.69    5.80
  -2   7   3  122.89    7.60
  -2  -7   3  105.19    6.50
   2  -7  -3  130.29    7.50
   2  -7  -3  126.19    7.60
  -2  -7   3  119.29    6.60
  -2  -7   3  124.09    6.70
   2  -7  -3  136.09    7.80
   2   7  -2 2712.23   98.79
  -2   7   2 2745.63   98.69
   2   7  -2 2673.63   97.49
   2  -7  -2 2711.73   99.29
   2  -7  -2 2694.33   98.89
  -2  -7   2 2580.84   97.09
  -2  -7   2 2566.24   98.19
   2  -7  -2 2517.15   98.69
   2   7  -1  993.10   36.50
  -2   7   1  915.91   37.60
  -2   7   1  981.70   37.00
   2   7  -1  978.60   37.60
  -2  -7   1  953.70   35.90
   2  -7  -1  960.60   37.40
  -2  -7   1  963.60   37.10
   2  -7  -1  926.81   37.00
  -2   7   0    7.40    2.20
   2   7   0    7.20    1.90
   2   7   0    9.40    2.40
  -2   7   0    7.70    1.80
   2  -7   0    9.30    2.20
   2  -7   0    9.20    2.00
  -2  -7   0    7.70    1.50
  -2  -7   0    7.90    2.10
  -2   7  -1    2.80    2.00
   2   7   1    1.30    2.00
  -2   7  -1    1.20    1.30
   2   7   1    1.60    1.70
   2  -7   1    4.00    1.40
  -2  -7  -1    2.30    1.30
   2  -7   1    0.50    1.40
  -2  -7  -1    1.80    2.00
  -2   7  -2  265.77   10.40
  -2   7  -2  238.88   12.20
   2   7   2  279.77   12.90
   2   7   2  264.37   12.40
   2  -7   2  274.07   11.60
   2  -7   2  261.47   10.20
  -2  -7  -2  249.38   12.00
  -2  -7  -2  252.57   11.70
   2   7   3   28.10    4.00
   2   7   3   33.40    4.50
  -2   7  -3   30.10    4.20
   2  -7   3   34.60    3.20
  -2  -7  -3   37.70    3.90
  -2  -7  -3   29.90    3.80
  -2   7  -4  918.91   36.40
   2   7   4  885.01   36.80
   2   7   4  901.71   37.10
   2  -7   4  956.20   34.90
  -2  -7  -4  911.31   36.30
  -2  -7  -4  917.51   35.80
   2   7   5  126.59    9.80
   2   7   5  137.89   10.30
  -2   7  -5  153.98    8.90
  -2  -7  -5  144.59    8.80
   2  -7   5  142.09    7.10
  -2  -7  -5  147.49    8.00
   2   7   6  260.47   15.50
  -2   7  -6  282.87   14.10
  -2  -7  -6  274.47   14.10
  -2  -7  -6  282.47   12.70
  -2  -7  -7  585.94   25.70
  -2   7  -8   38.50    6.00
  -2  -7  -8   35.70    4.60
  -2  -7  -8   35.70    6.20
  -2   7  -9   24.40    6.00
  -2  -7  -9   22.00    3.60
  -2  -7  -9   22.60    6.70
   2  -8 -10   12.80    8.70
   2   8  -9    2.30    4.80
   2  -8  -9   11.80    7.40
   2  -8  -9    6.50    2.80
   2  -8  -9    5.00    5.60
   2   8  -8  100.29    6.20
   2   8  -8  102.29    8.00
   2  -8  -8  111.19   10.00
   2  -8  -8  101.99    7.10
   2  -8  -8   99.59   11.80
   2   8  -7  155.68    7.40
   2  -8  -7  149.39   10.80
   2  -8  -7  163.18   12.20
  -2  -8   7  163.98    8.90
   2   8  -6  148.79    7.10
   2  -8  -6  153.08   10.30
   2  -8  -6  157.88   11.10
  -2  -8   6  158.98    8.20
  -2  -8   6  154.18    7.10
   2  -8  -6  157.38    9.30
  -2   8   5   27.50    5.30
   2   8  -5   31.10    2.80
   2  -8  -5   23.30    4.60
  -2  -8   5   29.40    3.70
  -2  -8   5   29.00    3.10
   2  -8  -5   31.30    4.60
  -2  -8   5   30.50    3.60
   2  -8  -5   35.90    5.10
  -2   8   4  800.32   32.70
   2   8  -4  849.12   30.50
   2  -8  -4  808.62   32.70
  -2  -8   4  813.82   31.40
   2  -8  -4  783.92   32.50
   2  -8  -4  785.62   33.00
  -2  -8   4  737.33   31.20
  -2  -8   4  826.82   31.20
   2   8  -3  240.88   11.70
  -2   8   3  240.58   12.10
   2   8  -3  252.57   10.30
   2  -8  -3  237.38   12.10
   2  -8  -3  242.18   12.20
  -2  -8   3  239.38   11.20
  -2  -8   3  232.48   10.80
  -2  -8   3  234.48   11.30
   2  -8  -3  244.78   12.10
   2   8  -2  117.39    5.90
  -2   8   2  112.09    7.00
   2   8  -2  103.99    7.00
   2  -8  -2  110.29    7.10
   2  -8  -2  103.69    7.30
   2  -8  -2  105.49    7.00
  -2  -8   2  106.29    6.80
  -2  -8   2  121.49    5.30
  -2   8   1  201.68    9.60
  -2   8   1  182.08   10.20
   2   8  -1  207.68   10.40
   2   8  -1  197.48    9.10
   2  -8  -1  203.38    9.80
   2  -8  -1  202.58   10.10
  -2  -8   1  195.18    8.40
  -2  -8   1  183.38    9.60
   2   8   0 1440.66   54.39
  -2   8   0 1455.65   54.09
   2   8   0 1476.65   55.49
   2  -8   0 1421.46   54.09
  -2  -8   0 1393.76   53.69
   2  -8   0 1478.65   54.99
  -2  -8   0 1381.96   54.79
   2   8   1 1093.19   42.30
   2   8   1 1153.48   43.40
  -2   8  -1 1126.19   41.30
  -2   8  -1 1114.19   43.10
  -2  -8  -1 1047.80   42.50
   2  -8   1 1029.90   41.20
  -2  -8  -1 1059.69   41.70
   2  -8   1 1122.49   42.40
  -2   8  -2  415.66   18.60
  -2   8  -2  420.56   16.50
   2   8   2  422.86   19.10
   2   8   2  428.06   18.50
  -2  -8  -2  418.06   18.20
   2  -8   2  427.76   17.70
   2  -8   2  418.66   16.20
  -2  -8  -2  419.06   17.80
   2   8   3  746.23   30.60
  -2   8  -3  765.22   27.60
   2   8   3  751.02   31.10
  -2   8  -3  739.33   30.40
   2  -8   3  756.42   27.40
  -2  -8  -3  702.13   29.80
  -2  -8  -3  713.83   29.80
   2  -8   3  770.62   29.20
  -2   8  -4  592.94   24.90
   2   8   4  589.14   25.70
   2   8   4  581.44   25.30
  -2  -8  -4  565.54   24.40
  -2  -8  -4  578.74   24.20
   2  -8   4  598.04   23.10
   2   8   5   80.59    9.20
  -2   8  -5   86.99    7.30
  -2  -8  -5   95.89    7.20
  -2  -8  -5   82.09    6.30
  -2   8  -6   18.10    6.70
  -2  -8  -6   18.80    3.50
  -2  -8  -6   19.30    4.80
  -2  -8  -7   42.30    6.00
  -2  -8  -7   33.40    5.80
  -2   8  -8   85.79    9.70
  -2  -8  -8  100.89    6.80
  -2  -8  -8  110.29   10.40
  -2   8  -9   -4.40    5.50
  -2  -8  -9    1.40    2.90
  -2  -8  -9    5.70    6.20
   2  -9 -10   16.90    9.50
   2  -9  -9    4.70    7.50
   2  -9  -9   15.40    3.60
   2   9  -8   34.40    4.80
   2  -9  -8   38.20    4.90
   2  -9  -8   44.80    8.60
   2  -9  -8   39.80    6.90
   2   9  -7   27.50    3.60
   2  -9  -7   33.10    6.00
  -2  -9   7   30.50    4.10
   2   9  -6   26.00    3.20
   2  -9  -6   28.40    5.70
  -2  -9   6   27.10    3.20
   2  -9  -6   29.60    6.00
   2  -9  -6   17.90    3.90
  -2  -9   6   26.00    3.40
   2   9  -5  731.03   27.80
   2  -9  -5  714.23   30.20
  -2  -9   5  780.62   28.50
  -2  -9   5  712.43   28.50
  -2  -9   5  670.03   27.90
   2  -9  -5  727.13   31.10
   2  -9  -5  713.23   30.40
  -2   9   4 1703.83   66.39
   2   9  -4 1753.92   64.09
   2  -9  -4 1713.03   66.29
   2  -9  -4 1717.43   66.69
  -2  -9   4 1720.03   64.99
  -2  -9   4 1732.73   65.09
   2  -9  -4 1714.53   66.49
  -2   9   3  538.25   23.00
   2   9  -3  552.84   21.20
   2  -9  -3  521.75   23.00
   2  -9  -3  528.85   23.30
  -2  -9   3  556.04   21.30
  -2  -9   3  529.75   22.20
   2  -9  -3  530.15   23.10
  -2  -9   3  510.65   22.30
  -2   9   2  381.66   16.90
   2   9  -2  377.46   15.70
   2   9  -2  387.56   17.30
   2  -9  -2  371.06   16.90
  -2  -9   2  380.06   14.90
   2  -9  -2  365.76   17.10
  -2  -9   2  377.16   17.00
   2  -9  -2  375.76   17.60
  -2   9   1  505.55   21.30
   2   9  -1  501.95   22.20
   2   9  -1  524.45   21.00
  -2  -9   1  519.85   20.10
   2  -9  -1  523.25   21.50
  -2  -9   1  516.85   21.70
   2  -9  -1  505.75   21.90
  -2   9   0  166.08    9.80
   2   9   0  171.78    9.90
   2   9   0  160.48    8.70
  -2   9   0  177.38    8.60
   2  -9   0  173.18    9.30
  -2  -9   0  161.98    7.90
   2  -9   0  170.68    8.50
  -2  -9   0  153.28    9.00
   2   9   1  744.03   34.40
  -2   9  -1  800.92   32.90
   2   9   1  818.62   32.20
   2  -9   1  823.82   32.20
  -2  -9  -1  816.82   32.50
   2  -9   1  825.22   30.90
  -2  -9  -1  787.02   31.40
   2   9   2  271.87   13.70
  -2   9  -2  257.67   11.00
   2   9   2  243.78   12.80
  -2   9  -2  239.28   13.00
   2  -9   2  256.47   10.60
  -2  -9  -2  270.27   12.90
   2  -9   2  275.57   12.30
  -2  -9  -2  271.47   12.30
   2   9   3   24.80    4.60
  -2   9  -3   20.30    2.30
  -2   9  -3   22.30    4.20
   2   9   3   26.10    5.10
   2  -9   3   29.50    3.50
   2  -9   3   19.40    1.40
  -2  -9  -3   20.20    3.40
  -2  -9  -3   19.70    3.50
   2   9   4   19.00    4.40
   2   9   4   19.70    5.10
  -2   9  -4   14.90    3.90
  -2  -9  -4   20.10    3.70
  -2  -9  -4   18.60    3.70
   2  -9   4   15.60    2.50
  -2   9  -5  452.85   20.90
  -2  -9  -5  467.75   19.90
  -2  -9  -5  445.96   20.50
  -2   9  -6   50.79    7.20
  -2  -9  -6   66.59    7.80
  -2   9  -7  143.69   11.10
  -2  -9  -7  148.89   11.30
  -2  -9  -7  149.99    8.90
  -2   9  -8   48.10    7.30
  -2  -9  -8   52.09    7.50
  -2  -9  -8   42.60    5.50
  -2   9  -9   35.30    7.40
  -2  -9  -9   33.30    7.80
  -2  -9  -9   31.00    4.30
   2 -10  -9   14.50    3.90
   2 -10  -9   10.40    8.10
   2  10  -8   90.99    7.60
   2 -10  -8   90.19    8.10
   2 -10  -8   81.59   10.90
   2 -10  -8  105.29   12.20
   2  10  -7   21.70    3.30
   2 -10  -7   28.10    6.50
   2 -10  -7   33.30    7.60
  -2 -10   7   22.80    3.00
  -2 -10   7   22.40    3.90
   2  10  -6    2.50    2.10
   2 -10  -6    0.50    4.60
   2 -10  -6    7.90    5.20
  -2 -10   6    0.30    2.30
   2 -10  -6   -3.70    3.70
  -2 -10   6   -3.20    2.80
   2  10  -5   13.80    2.50
  -2 -10   5   17.40    3.60
   2 -10  -5   17.70    3.90
  -2 -10   5   22.30    3.40
   2 -10  -5   16.70    5.10
   2 -10  -5   19.60    4.30
   2  10  -4   48.80    4.10
  -2  10   4   37.60    5.90
   2 -10  -4   53.29    6.80
  -2 -10   4   37.10    4.50
   2 -10  -4   39.20    5.50
  -2 -10   4   43.60    5.10
   2 -10  -4   49.80    6.60
  -2 -10   4   46.20    5.60
  -2  10   3  157.68    9.90
   2  10  -3  167.58    8.20
  -2 -10   3  179.08    7.90
   2 -10  -3  155.68    9.90
  -2 -10   3  161.58    9.40
  -2 -10   3  155.88    9.10
   2 -10  -3  164.48   10.40
   2 -10  -3  154.78    9.90
   2  10  -2  121.29    7.00
   2  10  -2  117.39    8.30
  -2  10   2  127.69    8.20
   2 -10  -2  114.59    7.90
  -2 -10   2  125.99    5.90
   2 -10  -2  136.59    9.10
   2 -10  -2  120.09    8.40
  -2 -10   2  126.69    8.40
  -2  10   1  231.38   11.50
   2  10  -1  223.58   12.40
   2  10  -1  229.28   11.10
   2 -10  -1  247.78   12.40
   2 -10  -1  228.38   11.50
  -2 -10   1  229.88   11.80
   2 -10  -1  244.18   12.90
  -2 -10   1  230.88   10.10
  -2  10   0  286.37   12.90
   2  10   0  282.77   13.20
   2  10   0  286.97   14.50
  -2  10   0  285.27   14.50
  -2 -10   0  284.77   12.30
   2 -10   0  283.97   12.80
  -2 -10   0  263.27   13.70
   2  10   1  659.33   27.80
  -2  10  -1  632.24   25.40
   2  10   1  617.44   26.40
  -2  10  -1  639.44   27.50
   2 -10   1  630.24   25.20
  -2 -10  -1  636.74   26.80
  -2 -10  -1  648.04   25.80
   2 -10   1  663.43   26.70
   2  10   2   50.59    6.20
   2  10   2   53.79    7.20
  -2  10  -2   51.99    4.10
  -2  10  -2   56.49    6.30
  -2 -10  -2   58.29    5.80
   2 -10   2   50.49    4.00
  -2 -10  -2   51.59    4.80
   2 -10   2   49.99    5.40
  -2  10  -3  132.99    9.20
  -2  10  -3  129.19    6.10
   2  10   3  124.69    9.60
   2  10   3  115.99    9.60
  -2 -10  -3  127.89    8.50
   2 -10   3  128.49    5.30
  -2 -10  -3  113.79    7.70
   2 -10   3  126.49    7.40
   2  10   4  103.09   11.30
  -2  10  -4  109.79    8.70
   2  10   4   97.39   10.10
  -2 -10  -4  114.19    8.00
   2 -10   4   91.79    6.40
  -2 -10  -4  102.59    7.70
  -2  10  -5   36.70    5.80
  -2 -10  -5   37.80    5.70
  -2 -10  -5   39.60    5.10
  -2 -10  -6  106.49    8.00
  -2 -10  -6   99.79    9.30
  -2  10  -7   16.40    5.10
  -2 -10  -7   18.10    4.00
  -2 -10  -7   19.90    5.70
  -2  10  -8  141.99   12.90
  -2 -10  -8  161.98    9.60
  -2 -10  -8  156.68   13.30
  -2  10  -9    3.30    6.60
  -2 -10  -9    2.20    3.30
  -2 -10  -9   -8.50    7.00
   2 -11  -9   41.20    9.70
   2 -11  -9   39.80    5.50
   2  11  -8   28.10    4.60
   2 -11  -8   22.80    7.60
   2 -11  -8   15.90    4.70
   2  11  -7   38.10    4.10
   2 -11  -7   54.09    8.70
  -2 -11   7   34.60    4.70
  -2 -11   7   42.10    5.50
   2 -11  -7   36.70    6.00
   2 -11  -7   36.60    7.60
   2  11  -6   25.90    3.50
   2 -11  -6   44.90    7.20
   2 -11  -6   32.30    5.70
  -2 -11   6   30.60    4.30
  -2 -11   6   24.40    3.70
   2 -11  -6   35.30    9.50
   2  11  -5   57.09    5.00
   2 -11  -5   51.09    7.20
  -2 -11   5   57.49    5.70
   2 -11  -5   62.49    7.90
   2 -11  -5   58.39    7.60
   2  11  -4   70.49    5.30
   2 -11  -4   97.29    8.30
  -2 -11   4   66.19    7.20
  -2 -11   4   62.29    6.10
  -2 -11   4   68.19    6.50
   2 -11  -4   69.09    7.80
   2 -11  -4   80.89    8.10
  -2  11   3   47.40    6.30
   2  11  -3   41.10    4.50
  -2 -11   3   55.99    5.60
  -2 -11   3   52.79    3.80
  -2 -11   3   42.20    6.00
   2 -11  -3   45.20    6.00
   2 -11  -3   54.49    6.70
   2 -11  -3   49.20    6.70
   2  11  -2    3.40    3.10
  -2  11   2   -5.40    3.20
   2  11  -2   -0.50    2.20
  -2 -11   2    3.20    1.30
   2 -11  -2    2.90    3.00
   2 -11  -2   -0.40    2.70
  -2 -11   2    1.30    3.20
  -2 -11   2    0.50    2.50
   2 -11  -2    2.30    2.70
  -2  11   1  124.99    8.00
   2  11  -1  107.69    7.20
   2  11  -1  136.59    9.10
   2 -11  -1  120.49    7.70
   2 -11  -1  121.69    9.30
  -2 -11   1  115.49    6.20
  -2 -11   1  111.69    8.00
   2 -11  -1  129.39    8.80
  -2  11   0 1812.52   71.29
  -2  11   0 1880.41   69.59
   2  11   0 1851.41   69.99
   2  11   0 1893.41   71.59
   2 -11   0 1916.61   70.79
  -2 -11   0 1836.52   68.89
   2 -11   0 1807.12   69.29
  -2 -11   0 1697.93   72.29
   2 -11   0 1843.42   71.59
  -2  11  -1 2124.49   82.69
  -2  11  -1 2188.08   80.49
   2  11   1 2152.38   81.69
   2  11   1 2218.78   83.09
  -2 -11  -1 2123.79   81.99
  -2 -11  -1 2122.19   80.69
   2 -11   1 2082.99   80.09
   2 -11   1 2203.78   81.79
   2  11   2   19.80    5.00
   2  11   2    3.40    4.20
  -2  11  -2   12.00    2.60
  -2  11  -2   17.20    4.60
   2 -11   2   11.30    2.00
  -2 -11  -2    6.90    3.00
   2 -11   2   18.00    3.70
  -2 -11  -2   10.00    2.70
  -2  11  -3   65.49    4.40
   2  11   3   73.49    8.60
   2  11   3   63.69    8.20
  -2  11  -3   60.69    7.60
  -2 -11  -3   63.29    6.70
  -2 -11  -3   60.69    6.10
   2 -11   3   61.59    3.40
   2 -11   3   61.99    5.90
  -2  11  -4  566.04   21.50
   2  11   4  527.35   26.40
  -2  11  -4  563.84   25.80
  -2 -11  -4  589.84   25.00
   2 -11   4  599.84   21.50
  -2 -11  -4  559.04   24.80
  -2  11  -5   67.29    8.40
  -2 -11  -5   63.99    7.10
  -2 -11  -5   75.69    7.80
  -2  11  -7    5.50    5.30
  -2 -11  -7    0.40    3.30
  -2 -11  -7   10.20    5.60
  -2  11  -8   23.90    7.20
  -2 -11  -8   32.80    7.80
  -2 -11  -8   32.90    5.00
  -2 -11  -9   -8.10    7.30
   2 -12  -9   15.00    4.80
   2 -12  -9   27.20    9.60
   2  12  -8  113.69    8.10
   2 -12  -8   88.69    9.60
   2 -12  -8  131.09   14.20
   2 -12  -7  161.98   21.80
  -2 -12   7  150.28    9.20
   2 -12  -7  176.08   14.30
   2 -12  -7  145.89   11.00
  -2 -12   7  146.79    9.00
   2  12  -6   30.30    4.00
  -2 -12   6   30.40    4.90
   2 -12  -6   22.60    6.70
  -2 -12   6   32.00    4.30
   2 -12  -6   28.50    6.70
   2  12  -5    2.70    2.90
   2 -12  -5    6.80    3.90
  -2 -12   5    5.20    3.80
   2 -12  -5    2.50    4.50
  -2 -12   5    6.10    3.30
   2 -12  -5    7.10    4.90
   2  12  -4    1.60    2.70
   2 -12  -4    4.90    3.90
  -2 -12   4    5.10    3.00
   2 -12  -4    4.30    4.40
  -2 -12   4    8.50    3.60
   2 -12  -4   10.60    4.40
  -2  12   3  602.64   26.90
   2  12  -3  577.14   24.70
   2 -12  -3  607.34   27.30
  -2 -12   3  594.24   26.20
   2 -12  -3  614.44   27.00
  -2 -12   3  569.14   25.80
  -2 -12   3  645.74   23.80
   2 -12  -3  632.74   26.70
   2  12  -2  118.49    9.50
  -2  12   2  116.59    8.80
   2  12  -2  122.59    7.50
   2 -12  -2  106.09    8.90
  -2 -12   2  106.79    8.10
   2 -12  -2  110.09    8.20
  -2 -12   2  109.69    8.90
  -2 -12   2  117.49    5.90
   2 -12  -2  119.59    9.70
   2  12  -1 1001.80   40.00
  -2  12   1  959.30   38.30
   2  12  -1  964.60   38.00
  -2 -12   1  940.11   39.30
  -2 -12   1  941.61   38.80
   2 -12  -1  959.60   40.10
  -2 -12   1  912.81   36.60
   2 -12  -1  986.40   40.10
   2 -12  -1  935.31   38.10
  -2  12   0   63.09    6.00
   2  12   0   65.49    6.30
   2  12   0   57.29    7.70
   2 -12   0   64.29    7.90
   2 -12   0   57.49    5.40
   2 -12   0   55.39    6.70
  -2 -12   0   63.89    6.90
  -2 -12   0   69.79    5.00
  -2  12  -1  383.56   16.50
   2  12   1  385.36   19.20
   2  12   1  367.66   17.70
  -2  12  -1  362.26   18.80
   2 -12   1  378.26   19.30
   2 -12   1  370.36   16.00
   2 -12   1  376.86   17.80
  -2 -12  -1  359.16   17.80
  -2 -12  -1  375.86   16.60
  -2  12  -2  307.27   16.20
  -2  12  -2  304.47   13.40
   2  12   2  304.97   16.70
   2  12   2  269.47   15.30
  -2 -12  -2  289.17   14.20
   2 -12   2  303.27   12.70
   2 -12   2  298.77   14.70
  -2 -12  -2  307.37   15.50
  -2  12  -3  695.03   30.90
   2  12   3  692.53   31.40
  -2  12  -3  658.73   28.50
  -2 -12  -3  701.43   30.00
   2 -12   3  681.33   29.00
  -2 -12  -3  744.63   29.60
   2 -12   3  741.43   26.60
  -2  12  -4  116.39   10.40
  -2  12  -4  119.09    6.00
  -2 -12  -4  116.79    9.30
  -2 -12  -4  117.49    9.10
   2 -12   4  122.29    5.90
  -2  12  -5   25.50    6.90
  -2 -12  -5   24.10    5.30
  -2 -12  -5   30.60    5.80
  -2  12  -6    4.80    5.60
  -2 -12  -6   14.10    5.20
  -2  12  -7   45.00    7.60
  -2 -12  -7   33.70    7.40
  -2 -12  -7   43.60    6.10
  -2  12  -8  116.79   12.70
  -2 -12  -8  104.09   12.70
  -2 -12  -8   84.29    8.30
   2 -13  -9   34.10    6.20
   2 -13  -9   31.70   10.10
   2 -13  -8   10.90    5.60
   2 -13  -8   11.30    8.10
   2 -13  -7  125.49   13.50
  -2 -13   7  112.89    8.20
   2 -13  -7  128.79   10.70
   2  13  -6   40.40    5.10
  -2 -13   6   44.20    5.80
  -2 -13   6   58.89    6.10
   2 -13  -6   44.10    8.10
   2 -13  -6   45.60    8.30
   2  13  -5  310.67   14.60
  -2 -13   5  286.67   15.00
   2 -13  -5  344.17   18.30
   2 -13  -5  314.97   17.60
  -2 -13   5  320.67   16.00
   2  13  -4  110.29    7.50
   2 -13  -4   96.99   10.50
  -2 -13   4   99.49    7.60
   2 -13  -4  114.49   10.70
   2 -13  -4  107.09    9.90
  -2 -13   4  122.59    9.10
   2  13  -3    5.30    3.00
  -2 -13   3   -1.90    4.40
   2 -13  -3   -3.40    4.20
  -2 -13   3   -1.00    3.40
   2 -13  -3   -4.20    3.60
   2 -13  -3    1.00    4.30
  -2 -13   3    1.10    1.70
   2  13  -2  288.97   14.00
  -2  13   2  265.67   15.10
  -2 -13   2  288.27   15.50
  -2 -13   2  286.47   15.00
   2 -13  -2  294.87   14.90
  -2 -13   2  293.97   12.30
   2 -13  -2  286.57   16.40
   2 -13  -2  295.37   15.90
   2  13  -1   84.49    8.70
   2  13  -1   74.69    7.10
  -2  13   1   86.49    7.60
  -2 -13   1   91.09    8.60
   2 -13  -1   91.59    7.20
   2 -13  -1   85.29    9.00
  -2 -13   1   82.89    8.00
  -2 -13   1   86.59    5.40
   2 -13  -1  100.49    9.00
   2  13   0  146.09   10.20
   2  13   0  148.79   11.70
  -2  13   0  157.28    9.50
   2 -13   0  162.28   11.70
  -2 -13   0  159.88   10.70
  -2 -13   0  161.58    8.50
   2 -13   0  161.68    9.10
   2 -13   0  158.68   10.70
   2  13   1  206.18   13.60
  -2  13  -1  207.58   10.70
  -2  13  -1  203.08   13.10
   2  13   1  176.18   12.20
   2 -13   1  189.88    9.90
  -2 -13  -1  209.88   10.60
   2 -13   1  198.38   12.00
  -2 -13  -1  206.08   12.00
   2 -13   1  189.58   13.10
   2  13   2 1112.19   47.10
  -2  13  -2 1136.79   43.60
  -2  13  -2 1156.28   46.90
   2 -13   2 1108.29   42.80
   2 -13   2 1101.79   45.10
  -2 -13  -2 1156.78   44.70
   2 -13   2 1106.69   46.90
  -2 -13  -2 1154.98   46.00
   2  13   3  192.88   14.50
  -2  13  -3  204.98   10.00
  -2  13  -3  216.48   13.60
   2 -13   3  199.58   13.90
   2 -13   3  179.38   11.70
  -2 -13  -3  209.58   11.80
   2 -13   3  220.38    8.80
  -2 -13  -3  202.38   12.50
  -2  13  -4   83.39    9.90
  -2  13  -4   82.39    5.40
  -2 -13  -4   68.39    8.00
  -2 -13  -4   92.39    8.70
   2 -13   4   86.19    5.00
   2 -13   5  146.79   12.60
  -2 -13  -5  129.69   12.80
  -2 -13  -5  125.69   10.80
  -2  13  -6    8.30    5.60
  -2 -13  -6    3.50    4.30
  -2 -13  -6    6.00    5.40
  -2  13  -7   26.10    7.70
  -2 -13  -7   37.50    6.20
  -2 -13  -7   45.60    8.10
  -2  13  -8   44.90    9.20
  -2 -13  -8   49.50    9.20
  -2 -13  -8   50.69    6.30
   2 -14  -8    6.00    8.10
   2 -14  -8   16.10    6.10
   2 -14  -7   11.70    5.30
   2 -14  -7   20.90    8.30
  -2 -14   7   15.70    4.20
   2  14  -6  126.39    9.40
  -2 -14   6  167.58    9.60
   2 -14  -6  164.48   12.60
   2 -14  -6  123.09   13.20
   2 -14  -6  166.38   20.60
   2  14  -5   89.49    7.90
   2 -14  -5  114.49   10.80
  -2 -14   5   86.69    8.40
  -2 -14   5  104.49    9.40
   2 -14  -5  121.99   12.10
   2  14  -4  391.66   18.10
   2 -14  -4  409.06   21.40
  -2 -14   4  388.46   17.60
   2 -14  -4  404.86   20.60
  -2 -14   4  398.36   19.50
   2 -14  -4  406.06   21.30
   2  14  -3   66.89    7.00
  -2 -14   3   73.69    4.80
   2 -14  -3   62.09    7.50
   2 -14  -3   73.19    9.70
   2 -14  -3   83.29   10.00
   2  14  -2   80.89    7.50
  -2 -14   2   79.99    8.20
   2 -14  -2   74.49    9.60
  -2 -14   2   81.69    5.00
  -2 -14   2   70.09    9.00
   2 -14  -2   76.79    9.30
   2 -14  -2   81.59    7.90
   2  14  -1   18.00    4.40
   2  14  -1   18.60    5.70
  -2  14   1   20.30    4.80
   2 -14  -1   26.40    5.60
  -2 -14   1   32.10    6.10
   2 -14  -1   19.30    4.30
   2 -14  -1   18.80    5.00
  -2 -14   1   30.60    3.80
  -2 -14   1   21.60    4.80
   2  14   0  334.67   18.50
  -2  14   0  324.77   15.90
   2  14   0  321.47   18.30
   2 -14   0  336.57   15.40
   2 -14   0  335.77   17.20
  -2 -14   0  314.97   17.00
  -2 -14   0  312.67   14.60
   2 -14   0  317.07   18.10
  -2  14  -1    7.50    3.60
   2  14   1   10.40    5.00
   2 -14   1    8.80    4.20
   2 -14   1   11.40    3.10
   2 -14   1   12.50    4.40
  -2 -14  -1    5.50    3.50
  -2 -14  -1   10.20    3.10
   2  14   2   55.69    8.50
  -2  14  -2   48.80    7.50
  -2  14  -2   52.39    5.80
   2 -14   2   52.59    6.90
   2 -14   2   39.50    4.10
   2 -14   2   31.10    6.20
  -2 -14  -2   31.60    5.10
  -2 -14  -2   43.10    5.50
  -2  14  -3   38.10    7.30
  -2  14  -3   40.10    5.30
   2  14   3   44.20    8.60
  -2 -14  -3   29.90    5.20
   2 -14   3   35.10    6.50
   2 -14   3   40.00    3.30
  -2  14  -4  117.99   11.30
  -2 -14  -4  111.99   10.10
  -2 -14  -4   91.19    9.50
   2 -14   4   92.49   11.10
   2 -14   4  111.69    5.80
  -2 -14  -5  247.38   14.70
  -2 -14  -5  226.88   14.40
  -2  14  -6   19.60    6.70
  -2 -14  -6   36.10    7.00
  -2 -14  -6   37.30    6.40
  -2  14  -7   20.00    7.70
  -2 -14  -7   25.60    6.10
  -2 -14  -7   20.10    7.70
  -2  14  -8    9.90    8.20
  -2 -14  -8   10.50    5.20
  -2 -14  -8   10.40    7.80
   2 -15  -8    0.30    8.50
   2 -15  -8    1.00    6.00
  -2 -15   7   28.70    4.70
   2 -15  -7   29.10    8.50
   2 -15  -7   29.60    6.70
   2 -15  -6  124.59   12.30
  -2 -15   6  137.99    9.40
   2 -15  -6  121.19   13.10
   2  15  -5    5.60    4.70
  -2 -15   5    6.60    4.50
   2 -15  -5   -1.50    6.90
  -2 -15   5    1.20    8.60
   2  15  -4  161.58   11.10
  -2 -15   4  183.28   12.30
   2 -15  -4  162.48   14.40
   2 -15  -4  174.38   13.90
  -2 -15   4  183.28   10.00
   2  15  -3   36.50    5.80
   2 -15  -3   34.10    6.50
   2 -15  -3   56.89    8.60
   2 -15  -3   50.99    8.50
  -2 -15   3   18.40    5.00
  -2 -15   3   35.70    3.90
   2  15  -2   99.69    9.30
   2 -15  -2  122.09    9.50
   2 -15  -2  121.89   12.10
  -2 -15   2  121.69    6.70
   2 -15  -2  111.29   11.20
  -2 -15   2  128.89   10.20
   2 -15  -1   50.89    6.70
   2 -15  -1   69.19    9.10
  -2 -15   1   39.40    7.70
   2 -15  -1   38.80    7.30
  -2 -15   1   47.10    4.70
  -2  15   0  340.67   17.80
   2  15   0  367.16   20.30
   2 -15   0  369.16   17.10
   2 -15   0  371.46   19.10
  -2 -15   0  367.46   19.10
   2 -15   0  379.56   20.60
  -2 -15   0  386.66   16.60
  -2 -15   0  348.87   19.90
   2  15   1  231.28   16.00
  -2  15  -1  216.88   12.70
   2 -15   1  244.68   15.80
  -2 -15  -1  225.98   14.00
   2 -15   1  234.98   11.70
  -2 -15  -1  242.88   12.40
   2 -15   1  245.18   14.40
   2  15   2  317.37   19.50
  -2  15  -2  338.57   15.60
   2 -15   2  307.17   17.30
   2 -15   2  324.97   14.10
  -2 -15  -2  319.97   16.00
  -2 -15  -2  331.17   17.70
  -2  15  -3  114.79   12.00
   2  15   3   96.79   13.60
  -2  15  -3  117.99    8.10
  -2 -15  -3  118.29   10.90
   2 -15   3  122.79    6.10
   2 -15   3  124.29   11.90
  -2  15  -4  202.88   10.00
  -2  15  -4  209.88   15.40
   2 -15   4  189.58    8.80
  -2 -15  -4  185.58   13.40
   2 -15   4  180.78   14.30
  -2  15  -5    3.00    5.90
  -2 -15  -5   -2.40    4.70
  -2  15  -6   24.30    7.80
  -2 -15  -6   21.30    6.60
  -2 -15  -6   29.80    6.30
  -2  15  -7  204.28   17.00
  -2 -15  -7  189.18   14.00
  -2 -15  -7  188.48   16.00
   2 -16  -8    0.30    6.60
   2 -16  -8   14.40    9.20
   2 -16  -7   49.99    9.90
   2 -16  -7   46.10    7.60
  -2 -16   6   19.30    5.00
   2 -16  -6   16.40    7.80
   2 -16  -6    2.00    5.70
   2  16  -5   34.30    6.50
   2 -16  -5   28.50    7.10
  -2 -16   5   18.30    5.20
   2  16  -4    6.30    6.50
   2 -16  -4   15.30    9.00
   2 -16  -4   20.80    7.70
  -2 -16   4   19.20    6.00
  -2 -16   4   21.20    4.00
   2 -16  -3   19.30    7.40
  -2 -16   3   14.80    2.90
   2 -16  -3   31.90    9.30
  -2 -16   3   11.80    5.20
   2 -16  -2  383.46   21.00
   2 -16  -2  393.56   19.30
  -2 -16   2  347.87   19.50
  -2 -16   2  376.36   16.10
   2 -16  -2  402.26   22.00
   2 -16  -1   17.30    6.60
   2 -16  -1   18.00    6.70
   2 -16  -1   12.70    4.30
  -2 -16   1   13.80    3.00
  -2 -16   1   10.10    6.90
  -2 -16   1   14.90    5.70
  -2  16   0  328.67   18.10
  -2 -16   0  355.96   20.40
  -2 -16   0  369.36   19.40
   2 -16   0  353.56   20.80
  -2 -16   0  363.56   16.40
   2 -16   0  366.56   19.60
   2 -16   0  371.66   17.20
   2  16   1   81.09   10.60
  -2  16  -1   93.29    9.00
  -2 -16  -1   79.89    9.40
  -2 -16  -1   87.19    7.50
   2 -16   1   82.59   10.50
   2 -16   1   84.29    6.80
   2 -16   1   95.09   11.30
   2  16   2  206.98   16.20
  -2  16  -2  196.18   11.70
  -2 -16  -2  188.18   13.40
   2 -16   2  198.38    9.80
   2 -16   2  181.08   14.90
  -2  16  -3   52.89    7.20
   2 -16   3   53.39    8.50
   2 -16   3   58.19    4.40
  -2 -16  -3   63.09    8.60
   2 -16   4   10.50    2.50
   2 -16   4    1.00   17.50
  -2 -16  -4   22.30    5.80
  -2 -16  -4   27.90    7.10
  -2  16  -5  116.29   13.90
  -2 -16  -5   99.69   14.20
  -2 -16  -5  116.99   11.40
  -2  16  -6   11.00    7.60
  -2 -16  -6   16.70    7.10
  -2 -16  -6   14.20    6.60
  -2  16  -7   -8.30    8.00
  -2 -16  -7   -0.70    7.40
  -2 -16  -7   -4.70    6.10
   2 -17  -7   26.30    7.80
   2 -17  -7   29.70    9.90
   2 -17  -6    0.60    5.90
   2 -17  -6    0.70    7.90
  -2 -17   6    6.30    5.20
   2 -17  -5   -2.80    7.10
   2 -17  -5    6.70    6.70
  -2 -17   5   -8.90    5.10
  -2 -17   4  290.27   13.90
   2 -17  -4  281.27   17.50
   2 -17  -4  258.37   18.80
  -2 -17   3    3.90    2.40
   2 -17  -3   14.80    7.80
   2 -17  -3    0.40    7.00
  -2 -17   3    7.10    5.60
   2 -17  -2  326.07   20.10
  -2 -17   2  272.47   17.20
   2 -17  -2  296.77   16.70
  -2 -17   2  293.07   13.20
   2 -17  -2  294.17   18.80
   2 -17  -1    5.80    4.50
   2 -17  -1   14.30    6.50
   2 -17  -1    0.30    5.40
  -2 -17   1   10.80    5.50
  -2 -17   1    4.30    2.80
  -2 -17   0   10.90    7.40
  -2 -17   0   15.60    3.80
  -2 -17   0   13.20    5.40
   2 -17   0   25.70    7.60
   2 -17   0   14.70    4.40
   2 -17   0    7.30    6.10
  -2  17  -1  134.79   11.40
   2 -17   1  123.09   13.50
   2 -17   1  144.19   14.10
   2 -17   1  145.29    9.10
  -2 -17  -1  148.09   12.20
  -2 -17  -1  136.99   14.40
   2  17   2   96.29   12.90
  -2  17  -2  111.59    9.60
  -2 -17  -2   75.79   10.60
   2 -17   2   84.79    6.40
   2 -17   2   98.89   12.40
  -2  17  -3   76.69    9.10
  -2 -17  -3  113.89   12.00
   2 -17   3  111.69    6.20
   2 -17   3  104.19   13.50
  -2 -17  -4  108.89   12.50
  -2 -17  -4  104.79   10.60
   2 -17   4   87.59    5.70
  -2 -17  -5    5.90    6.50
  -2 -17  -5    8.10    6.20
  -2 -17  -6   -7.00    6.40
  -2 -17  -6   -4.20    6.30
   2 -18  -7   61.49   11.40
   2 -18  -7   44.60    9.10
   2 -18  -6   58.99   10.50
   2 -18  -6   41.70    9.10
  -2 -18   6   78.49    8.50
  -2 -18   5   33.10    7.00
   2 -18  -5   31.80    8.90
   2 -18  -5   35.50    8.10
   2 -18  -4  260.07   17.60
  -2 -18   4  287.47   14.10
   2 -18  -3   17.10    6.20
   2 -18  -3   24.50    9.10
  -2 -18   3   24.40    3.60
   2 -18  -2   -2.20    7.40
  -2 -18   2    0.00    2.40
   2 -18  -2   -1.40    7.90
  -2 -18   2    3.70    6.10
   2 -18  -1  145.29   15.20
   2 -18  -1  133.69   11.00
  -2 -18   1  112.59   12.70
   2 -18  -1  120.19   14.10
  -2 -18   1  137.29    8.80
  -2 -18   0   12.90    5.40
   2 -18   0   13.50    7.30
   2 -18   0   23.10    5.10
   2 -18   0   12.80    7.60
   2 -18   1    1.50    7.70
  -2 -18  -1    3.20    5.10
  -2 -18  -1    1.50    7.00
   2 -18   1    9.60    3.70
  -2  18  -2   -1.10    5.90
   2 -18   2   -1.30    7.70
  -2 -18  -2    3.50    4.40
  -2 -18  -2    1.90    9.30
   2 -18   2    0.20    2.70
  -2 -18  -2    4.00    5.80
  -2 -18  -3   76.99    9.30
   2 -18   3   74.89    5.50
  -2 -18  -3   87.19   10.60
  -2 -18  -4   48.60    7.60
   2 -18   4   35.10    4.50
  -2 -18  -5   -4.60    5.80
  -2 -18  -5   -5.80    6.20
  -2 -18  -6   15.50    7.40
  -2 -18  -6   10.30    6.90
   2 -19  -6    8.60    9.30
   2 -19  -6    2.50    8.50
   2 -19  -5  183.78   17.60
   2 -19  -5  208.88   16.30
  -2 -19   5  146.49   13.50
   2 -19  -4    0.70    8.40
  -2 -19   4   13.80    4.70
   2 -19  -4   15.00    7.30
   2 -19  -3   -3.60    5.60
  -2 -19   3    2.00    3.10
   2 -19  -3    5.70    8.40
  -2 -19   2   -1.50    3.70
   2 -19  -2   -5.10    5.40
   2 -19  -2   11.00    8.60
  -2 -19   1   69.59    9.80
   2 -19  -1   52.59    9.20
   2 -19  -1   93.69   13.10
   2 -19   0    6.50    4.50
   2 -19   0   11.70    8.70
  -2 -19   0    9.00    5.80
  -2 -19   0   11.20    4.40
  -2 -19  -1  220.98   16.00
  -2 -19  -1  223.88   12.60
   2 -19   1  160.98   18.20
   2 -19   1  202.38   11.80
  -2 -19  -2    0.20    7.20
   2 -19   2   -0.40    3.00
  -2 -19  -2    0.70    4.80
   2 -19   2    7.50    9.00
  -2 -19  -3   -4.30    4.70
   2 -19   3    2.60    2.60
  -2 -19  -3   -1.10    7.00
  -2 -19  -4   45.50    8.00
  -2 -19  -4   25.40   10.50
  -2 -19  -5   37.50    8.70
  -2 -19  -5   49.99    8.80
   2 -20  -5   11.20    8.50
   2 -20  -5   15.80    8.40
   2 -20  -4   10.10    7.60
   2 -20  -4    7.90    7.70
   2 -20  -3   21.20    7.50
  -2 -20   2   -3.60    4.70
   2 -20  -2   10.60   10.10
   2 -20  -2   -5.50    5.70
   2 -20  -1   22.80    6.10
  -2 -20   1   14.50    4.30
   2 -20  -1   20.60   10.20
   2 -20   0   51.29   10.90
  -2 -20   0   36.00    8.60
  -2 -20   0   52.09    6.40
  -2 -20  -1    6.00    6.20
   2 -20   1    4.70    4.30
   2 -20   1   16.30    8.70
  -2 -20  -1   12.40    4.90
  -2 -20  -2  159.38   12.00
  -2 -20  -2  152.68   15.80
   2 -20   2  155.58    9.60
   2 -20   3   24.50    3.70
  -2 -20  -3   11.90    7.00
  -2 -20  -3   20.00    6.60
  -2 -20  -4   52.69   10.20
  -2 -20  -4   41.30    7.90
  -2 -20  -5    2.40    6.80
  -2 -20  -5   -0.10    8.10
   2 -21  -5    8.50    8.60
   2 -21  -5   -5.50    8.60
   2 -21  -4   14.20   10.00
  -2 -21   4   -1.60    5.10
   2 -21  -4   -1.10    7.80
  -2 -21   3    7.90    3.80
   2 -21  -3   14.70    7.70
   2 -21  -3  -14.30   10.20
   2 -21  -2   33.70   17.10
   2 -21  -2   23.20    7.30
  -2 -21   2   23.80    4.40
   2 -21  -1   47.90   12.20
  -2 -21   1   36.90    5.40
   2 -21  -1   33.30    7.00
   2 -21   0   -6.70    4.90
   2 -21   0    5.40   10.60
  -2 -21   0   -1.70    4.40
  -2 -21  -1    8.90    8.10
  -2 -21  -1   -9.20    4.70
   2 -21   2    6.80    4.00
  -2 -21  -2    9.00    5.80
  -2 -21  -2   21.00    9.50
  -2 -21  -3    6.40    6.10
  -2 -21  -4   12.70    7.60
  -2 -21  -4   13.90    9.20
  -2 -22   4   12.20    5.80
   2 -22  -4    3.40    9.30
   2 -22  -3   73.29   12.70
   2 -22  -3   81.09   10.90
  -2 -22   3  100.09    8.20
   2 -22  -2    3.60    6.80
  -2 -22   2    1.00    3.60
   2 -22  -1   78.19    9.40
  -2 -22   1   67.19    7.70
   2 -22  -1   53.19   12.90
  -2 -22   0   -8.20    4.50
   2 -22   0    1.90    5.60
  -2 -22  -1    5.40    5.40
   2 -22   1    8.10    4.70
  -2 -22  -2   15.10    5.90
  -2 -22  -3   10.50    8.90
  -2 -22  -3    9.70    7.00
  -2 -23   2   59.79    7.60
   2 -23  -2   68.39   10.00
   2 -23  -2   75.09   16.10
   2 -23  -1   11.90    7.30
  -2 -23   1   12.70    4.70
  -2 -23   0    7.00    5.30
   2 -23   0   -0.10    6.20
  -2 -23  -1   -8.40    5.50
   2 -23   1    1.80    5.20
   3   0 -10  119.59   13.20
   3   0  -9    1.10    5.40
   3   0  -8  425.66   20.40
   3   0  -7   -0.20    3.40
   3   0  -7    4.20    2.90
   3   0  -6    4.70    3.00
   3   0  -5    3.70    2.00
   3   0  -4  492.35   18.00
   3   0  -4  494.75   19.40
   3   0  -4  484.15   19.90
  -3   0   4  477.35   19.90
  -3   0   3   -0.10    1.30
   3   0  -3   -0.10    1.20
   3   0  -3    0.20    0.40
  -3   0   3    0.70    0.70
  -3   0   1   -0.40    0.40
   3   0  -1   -0.10    0.60
   3   0  -1   -1.00    0.90
  -3   0   1    0.90    1.00
   3   0   1   -0.30    0.60
   3   0   1    0.50    0.60
  -3   0  -1   -0.60    0.70
  -3   0  -1    1.50    0.70
   3   0   3   -2.80    1.20
  -3   0  -3   -0.30    0.90
  -3   0  -3    0.30    0.70
   3   0   3   -0.80    1.00
  -3   0  -4  383.16   15.70
   3   0   4  390.36   15.80
   3   0   4  390.16   16.00
  -3   0  -4  381.56   15.10
   3   0   5   -2.50    2.00
  -3   0  -5    1.10    1.40
  -3   0  -5    0.40    1.30
  -3   0  -6  976.90   36.70
   3   0   6  964.90   37.30
  -3   0  -6  965.70   37.30
  -3   0  -7    1.70    2.20
  -3   0  -7    6.70    3.00
  -3   0  -8  146.89    7.70
  -3   0  -8  139.69    8.30
  -3   0  -9    0.60    3.30
   3  -1 -10  147.39   14.30
   3   1  -9    0.80    5.10
   3  -1  -9   -1.20    5.40
   3   1  -8   65.89    7.90
   3  -1  -8   48.80    6.70
   3   1  -7   10.80    3.70
   3   1  -7   10.00    3.00
   3  -1  -7   12.10    3.70
   3  -1  -7   11.60    4.10
   3   1  -6  924.41   36.70
   3   1  -6  942.71   36.00
   3  -1  -6  933.61   37.20
   3  -1  -6  903.11   36.00
   3   1  -5  241.58   11.60
   3   1  -5  249.08   11.30
   3  -1  -5  254.37   12.10
  -3  -1   5  247.28   11.70
   3  -1  -5  268.67   10.00
   3  -1  -5  254.87    9.60
   3  -1  -5  245.08   11.30
   3   1  -4   40.50    3.20
   3  -1  -4   29.90    3.50
   3  -1  -4   33.40    1.90
  -3  -1   4   37.90    3.50
  -3   1   3  229.98    9.30
  -3   1   3  234.78   10.40
   3   1  -3  244.88   10.10
   3   1  -3  228.88    8.90
   3  -1  -3  236.28    9.10
  -3  -1   3  229.88    8.90
   3  -1  -3  228.08   10.00
  -3  -1   3  230.18   10.10
   3   1  -2 1297.17   49.10
  -3   1   2 1385.76   49.50
  -3   1   2 1443.96   50.19
  -3  -1   2 1241.98   49.10
  -3  -1   2 1365.06   49.99
   3  -1  -2 1301.67   50.09
   3  -1  -2 1339.37   49.20
  -3   1   1 1387.06   50.19
   3   1  -1 1277.67   49.60
   3   1  -1 1388.66   50.39
   3  -1  -1 1295.17   49.60
   3  -1  -1 1401.26   49.99
  -3   1   0  835.62   32.80
  -3   1   0  854.71   32.90
   3   1   0  897.91   32.60
   3   1   0  907.81   32.80
  -3  -1   0  874.01   33.10
   3  -1   0  886.41   33.00
   3  -1   0  886.41   32.80
  -3  -1   0  890.41   32.80
  -3   1  -1  452.25   17.50
   3   1   1  472.05   17.50
   3   1   1  452.05   17.70
  -3   1  -1  434.16   17.70
   3  -1   1  477.55   17.70
  -3  -1  -1  455.95   17.20
  -3  -1  -1  461.35   17.60
   3  -1   1  450.95   17.10
   3   1   2 1470.45   52.09
   3   1   2 1298.87   52.69
  -3   1  -2 1408.36   52.09
  -3   1  -2 1437.66   51.29
  -3  -1  -2 1335.27   51.89
  -3  -1  -2 1402.66   51.49
   3  -1   2 1445.86   51.59
  -3   1  -3  235.98    9.10
  -3   1  -3  226.68   10.10
   3   1   3  232.58   10.30
   3   1   3  259.27   10.60
  -3  -1  -3  236.28   10.00
   3  -1   3  244.48   10.10
   3  -1   3  235.38    9.80
  -3   1  -4   38.10    2.30
   3   1   4   42.60    3.80
  -3   1  -4   38.50    3.10
   3  -1   4   38.90    3.10
  -3  -1  -4   38.70    3.00
  -3  -1  -4   33.80    2.90
   3  -1   4   40.40    3.30
   3   1   5   -0.50    2.20
  -3   1  -5    2.20    1.40
   3   1   5    2.30    2.30
  -3   1  -5   -0.20    1.10
   3  -1   5    2.20    1.70
   3  -1   5    0.70    1.80
  -3  -1  -5   -2.00    1.50
  -3  -1  -5    0.10    1.40
  -3   1  -6   50.09    4.30
  -3   1  -6   52.29    3.60
   3   1   6   45.00    5.20
  -3  -1  -6   51.09    4.10
   3  -1   6   56.19    4.30
  -3  -1  -6   47.90    4.30
   3   1   7  133.59    8.30
  -3   1  -7  127.89    6.30
  -3   1  -7  125.09    6.90
  -3  -1  -7  119.19    7.10
  -3   1  -8   44.50    4.10
  -3   1  -8   49.40    5.70
  -3  -1  -8   51.89    5.40
  -3  -1  -8   47.90    5.00
  -3   1  -9    2.80    3.80
  -3  -1  -9    2.70    3.20
   3   2 -10   41.50    8.20
   3  -2 -10   35.80    8.80
   3   2  -9   52.79    7.20
   3  -2  -9   51.69    8.30
   3   2  -8   31.50    5.00
   3   2  -8   44.40    6.00
   3  -2  -8   35.40    6.40
   3   2  -7  579.84   24.50
   3   2  -7  583.34   23.70
   3  -2  -7  584.04   25.40
   3  -2  -7  547.25   23.90
   3   2  -6    1.30    2.40
   3  -2  -6    2.70    2.60
   3  -2  -6    1.60    1.10
   3  -2  -6    3.40    1.30
   3  -2  -6    7.10    3.00
   3   2  -5   47.60    4.00
   3  -2  -5   45.20    2.80
   3  -2  -5   45.00    3.10
   3  -2  -5   46.30    4.80
   3  -2  -5   35.80    4.10
  -3  -2   5   54.39    4.50
   3   2  -4 1007.50   37.60
   3   2  -4 1062.49   38.90
   3  -2  -4  972.70   39.40
  -3  -2   4 1011.80   39.00
   3  -2  -4 1033.50   39.00
   3  -2  -4 1028.80   37.90
   3   2  -3 1455.75   54.49
  -3   2   3 1479.75   54.99
   3   2  -3 1543.85   55.69
   3  -2  -3 1446.86   55.89
  -3  -2   3 1541.75   55.49
  -3  -2   3 1486.15   54.19
   3  -2  -3 1449.55   55.39
   3  -2  -3 1470.35   54.69
   3   2  -2    4.50    1.40
   3   2  -2    4.40    0.90
  -3   2   2    4.80    1.20
  -3   2   2    9.30    1.80
  -3  -2   2    4.60    0.70
  -3  -2   2    5.10    1.30
   3  -2  -2    4.50    1.20
   3  -2  -2    4.80    0.90
  -3   2   1 3449.75  132.59
   3   2  -1 3736.73  131.99
   3   2  -1 3605.04  131.89
  -3  -2   1 3434.86  132.39
   3  -2  -1 3780.32  131.99
   3  -2  -1 3663.93  131.89
   3   2   0  394.66   14.70
   3   2   0  372.96   15.00
  -3   2   0  393.06   14.80
  -3   2   0  366.96   15.10
   3  -2   0  373.96   14.80
   3  -2   0  387.96   14.70
  -3  -2   0  384.06   14.70
   3   2   1 2238.18   79.29
  -3   2  -1 2297.57   79.59
  -3   2  -1 2173.68   78.79
   3   2   1 2192.18   79.59
  -3  -2  -1 1858.11   78.99
   3  -2   1 2294.37   79.29
  -3  -2  -1 2023.40   79.09
   3  -2   1 2173.88   78.79
  -3   2  -2 1119.39   42.20
   3   2   2 1170.58   43.20
  -3   2  -2 1122.89   43.10
   3  -2   2 1189.98   42.20
  -3  -2  -2 1175.98   42.80
  -3  -2  -2 1102.59   42.60
   3  -2   2 1150.78   43.30
  -3   2  -3   14.80    2.10
   3   2   3   21.60    2.80
  -3   2  -3   18.00    1.30
   3   2   3   21.60    3.10
   3  -2   3   16.50    1.80
  -3  -2  -3   17.80    1.90
  -3  -2  -3   21.20    2.20
   3  -2   3   16.50    2.00
  -3   2  -4  303.07   13.90
  -3   2  -4  330.47   12.50
   3   2   4  345.57   14.60
   3   2   4  330.77   14.60
   3  -2   4  330.97   13.00
  -3  -2  -4  346.87   13.70
   3  -2   4  342.47   13.80
  -3  -2  -4  342.47   13.80
   3   2   5  204.58   10.50
  -3   2  -5  193.48    9.60
   3   2   5  207.28   10.30
  -3   2  -5  208.98    8.10
  -3  -2  -5  213.38    9.40
   3  -2   5  214.58    8.60
   3  -2   5  197.58    9.50
  -3  -2  -5  209.08    9.50
  -3   2  -6   29.80    4.10
  -3   2  -6   38.50    2.50
  -3   2  -6   35.20    3.10
   3   2   6   45.00    5.80
  -3  -2  -6   36.00    4.10
  -3  -2  -6   37.80    3.70
  -3   2  -7  130.59    5.80
   3   2   7  133.19    9.10
  -3   2  -7  125.39    6.20
  -3  -2  -7  127.29    7.50
  -3   2  -8    4.70    3.10
  -3  -2  -8    3.90    3.30
  -3  -2  -8    6.60    2.80
  -3   2  -9   -2.50    3.80
  -3  -2  -9    0.20    3.00
   3   3 -10   12.00    6.80
   3  -3 -10    4.80    7.70
   3   3  -9   23.50    5.70
   3  -3  -9   12.40    7.30
   3   3  -8    1.50    4.40
   3   3  -8    3.70    4.00
   3  -3  -8   -0.90    1.70
   3  -3  -8    0.30    4.80
   3   3  -7   -6.00    3.20
   3   3  -7    3.00    2.90
   3  -3  -7    3.30    3.80
   3  -3  -7    1.20    1.20
   3  -3  -7    2.00    1.70
   3   3  -6  349.96   15.70
   3   3  -6  346.67   15.60
   3  -3  -6  363.36   17.00
   3  -3  -6  339.87   15.80
   3  -3  -6  355.56   14.30
  -3  -3   6  357.36   15.80
   3  -3  -6  365.86   14.30
   3   3  -5  128.79    7.30
   3  -3  -5  133.29    7.50
  -3  -3   5  131.49    7.20
   3  -3  -5  135.49    6.50
   3  -3  -5  123.39    6.20
   3  -3  -5  125.39    8.10
   3   3  -4  792.72   29.70
   3   3  -4  797.92   30.90
   3  -3  -4  749.92   30.50
   3  -3  -4  788.12   31.00
  -3  -3   4  830.42   30.80
   3  -3  -4  793.62   31.60
   3   3  -3   42.30    2.80
   3   3  -3   45.50    3.60
  -3   3   3   45.40    3.20
   3  -3  -3   43.80    3.10
   3  -3  -3   36.50    3.70
  -3  -3   3   42.70    2.10
   3  -3  -3   38.30    3.40
  -3  -3   3   45.30    3.30
  -3   3   2  435.66   17.70
   3   3  -2  472.35   17.60
   3   3  -2  451.55   17.30
   3  -3  -2  442.46   17.60
  -3  -3   2  447.56   16.70
  -3  -3   2  391.16   17.70
   3  -3  -2  461.35   17.40
   3  -3  -2  445.86   18.00
  -3   3   1  410.86   16.70
  -3   3   1  384.16   17.00
   3   3  -1  437.56   16.50
   3  -3  -1  426.36   16.40
  -3  -3   1  418.36   16.60
   3  -3  -1  425.46   16.40
   3   3   0   27.00    2.00
   3   3   0   27.10    2.30
  -3   3   0   23.80    2.30
  -3   3   0   29.00    2.10
  -3  -3   0   27.70    1.90
  -3  -3   0   28.30    2.00
   3  -3   0   28.50    2.10
   3  -3   0   25.80    1.90
   3   3   1 1312.47   51.09
  -3   3  -1 1311.37   51.49
   3   3   1 1351.66   50.89
  -3   3  -1 1400.06   49.99
   3  -3   1 1456.45   50.49
  -3  -3  -1 1349.27   50.09
  -3  -3  -1 1324.27   50.39
   3  -3   1 1357.76   49.99
  -3   3  -2   27.90    1.60
   3   3   2   27.60    2.90
  -3   3  -2   28.80    2.60
   3  -3   2   27.10    1.50
   3  -3   2   26.50    2.20
  -3  -3  -2   36.10    2.50
  -3  -3  -2   31.00    2.40
  -3   3  -3  355.06   14.40
   3   3   3  337.87   14.80
   3   3   3  338.27   14.70
  -3  -3  -3  344.57   14.00
   3  -3   3  356.16   13.90
  -3  -3  -3  328.17   13.80
   3   3   4   60.19    5.20
  -3   3  -4   63.19    4.50
   3   3   4   69.59    5.40
  -3  -3  -4   62.49    3.90
  -3  -3  -4   67.19    4.50
   3  -3   4   68.29    4.00
   3   3   5  388.06   16.90
  -3   3  -5  377.86   16.00
   3   3   5  359.86   16.80
   3  -3   5  363.06   15.40
  -3  -3  -5  368.16   15.20
  -3  -3  -5  383.06   15.80
   3   3   6  153.18    9.50
  -3   3  -6  145.89    8.40
  -3  -3  -6  155.18    7.70
  -3  -3  -6  156.18    8.30
   3   3   7   58.69    7.70
  -3  -3  -7   58.19    5.70
  -3   3  -8    4.70    3.50
  -3  -3  -8   -1.20    3.40
  -3  -3  -8    1.60    2.40
  -3   3  -9   61.89    8.00
  -3  -3  -9   53.09    6.10
  -3  -3  -9   61.19    5.90
   3   4 -10  104.39   12.20
   3  -4 -10  105.59   14.40
   3   4  -9   51.29    6.90
   3  -4  -9   32.20    4.00
   3  -4  -9   36.40    2.60
   3  -4  -9   50.29    8.40
   3   4  -8    3.90    3.80
   3   4  -8    5.20    4.60
   3  -4  -8    6.90    2.50
   3  -4  -8    5.10    5.10
   3  -4  -8    3.60    1.40
   3   4  -7  224.78   12.00
   3   4  -7  225.08   12.10
   3  -4  -7  248.78   14.00
   3  -4  -7  237.38   10.70
   3  -4  -7  244.18   10.20
   3   4  -6   18.40    3.40
   3  -4  -6   26.30    3.30
  -3  -4   6   25.70    3.70
   3  -4  -6   21.50    4.30
   3  -4  -6   23.10    4.40
   3  -4  -6   25.70    3.50
   3   4  -5  536.05   22.40
  -3  -4   5  563.04   22.30
   3  -4  -5  538.65   22.70
   3  -4  -5  553.74   21.80
   3  -4  -5  546.05   22.00
   3  -4  -5  551.84   23.60
   3   4  -4  534.55   20.70
   3   4  -4  523.35   21.40
  -3  -4   4  582.24   21.40
  -3  -4   4  532.05   19.50
   3  -4  -4  502.55   22.20
   3  -4  -4  523.45   21.00
   3  -4  -4  512.65   21.70
   3   4  -3   50.79    3.40
   3   4  -3   49.80    3.50
  -3  -4   3   49.10    2.40
   3  -4  -3   51.19    4.40
  -3  -4   3   48.00    3.70
   3  -4  -3   47.50    4.00
   3  -4  -3   48.50    3.50
   3   4  -2   17.30    2.20
  -3   4   2   15.00    2.20
   3   4  -2   18.70    1.80
  -3  -4   2   16.30    1.50
  -3  -4   2   22.50    2.80
   3  -4  -2   15.40    2.20
   3  -4  -2   18.20    2.50
   3  -4  -2   16.80    2.30
   3   4  -1 5921.81  224.98
  -3   4   1 6058.09  225.38
   3  -4  -1 6167.58  225.08
   3  -4  -1 6501.45  225.08
   3  -4  -1 6178.08  224.88
   3   4   0  101.19    5.30
  -3   4   0   90.69    5.30
   3   4   0  108.49    5.00
   3  -4   0   96.49    4.90
   3  -4   0   94.79    4.60
  -3  -4   0   97.79    4.80
  -3  -4   0  102.19    4.50
   3  -4   0   96.39    4.90
  -3   4  -1 5372.76  196.08
   3   4   1 5448.25  196.08
   3   4   1 5482.95  195.68
  -3  -4  -1 5265.97  195.38
   3  -4   1 5168.18  194.78
  -3  -4  -1 5057.49  194.98
   3  -4   1 5370.96  194.58
   3  -4   1 5651.93  195.38
   3   4   2  461.55   19.00
   3   4   2  494.45   19.40
  -3   4  -2  468.75   18.90
   3  -4   2  463.45   18.20
  -3  -4  -2  473.15   18.40
   3  -4   2  462.75   17.40
   3  -4   2  439.66   17.10
   3   4   3  463.75   19.10
   3   4   3  463.35   19.30
  -3   4  -3  463.85   18.80
  -3  -4  -3  455.25   18.20
   3  -4   3  440.16   17.90
  -3  -4  -3  450.45   18.30
  -3   4  -4    0.20    1.30
   3   4   4   -1.60    2.30
   3   4   4   -0.80    2.50
   3  -4   4   -1.90    1.20
  -3  -4  -4    1.50    1.70
  -3  -4  -4    0.90    1.20
   3   4   5    9.50    3.60
   3   4   5   12.80    3.90
  -3   4  -5    5.80    2.00
  -3  -4  -5    5.40    1.70
   3  -4   5    6.00    1.90
  -3  -4  -5    6.80    2.30
  -3   4  -6   40.10    4.80
   3   4   6   29.90    5.00
  -3  -4  -6   29.60    4.00
  -3  -4  -6   36.00    3.60
   3   4   7  209.58   13.10
  -3  -4  -7  230.28   11.50
  -3   4  -8   75.59    7.70
  -3  -4  -8   67.59    5.70
  -3  -4  -8   72.39    7.20
  -3   4  -9   64.39    8.40
  -3  -4  -9   65.79    6.30
  -3  -4  -9   57.89    6.80
   3   5 -10    9.30    6.40
   3  -5 -10    1.60    8.00
   3   5  -9  110.09   10.00
   3  -5  -9   96.69    6.90
   3  -5  -9  114.99   13.10
   3  -5  -9  105.19    5.10
   3   5  -8    2.50    4.40
   3   5  -8   13.60    4.10
   3  -5  -8   12.30    3.30
   3  -5  -8   15.70    2.30
   3  -5  -8   18.10    6.10
   3   5  -7  688.13   30.00
   3   5  -7  729.63   30.10
   3  -5  -7  797.72   32.60
   3  -5  -7  758.02   29.50
   3  -5  -7  760.12   29.10
   3   5  -6  211.68   10.80
  -3  -5   6  228.38   10.90
   3  -5  -6  218.18   12.70
   3  -5  -6  217.78   10.40
   3  -5  -6  217.28   10.40
   3  -5  -6  206.38   11.80
   3   5  -5 1242.38   49.10
   3  -5  -5 1281.77   50.79
   3  -5  -5 1292.97   49.40
   3  -5  -5 1292.97   49.99
  -3  -5   5 1361.76   49.30
   3  -5  -5 1288.07   49.10
  -3   5   4   24.20    3.50
   3   5  -4   27.80    3.10
   3   5  -4   24.60    3.00
   3  -5  -4   20.40    3.20
  -3  -5   4   26.70    1.70
   3  -5  -4   24.80    3.20
   3  -5  -4   24.00    3.40
   3  -5  -4   29.60    4.20
  -3  -5   4   22.30    2.50
  -3  -5   4   27.00    3.10
  -3   5   3  819.22   30.90
   3   5  -3  815.72   30.40
   3   5  -3  812.12   29.70
   3  -5  -3  781.62   31.20
  -3  -5   3  664.33   30.30
   3  -5  -3  790.62   30.80
  -3  -5   3  812.02   29.40
   3  -5  -3  775.02   30.50
  -3   5   2   -0.70    1.50
   3   5  -2    1.00    0.80
   3   5  -2    1.70    1.30
  -3   5   2   -0.20    1.40
   3  -5  -2   -1.00    1.50
   3  -5  -2    0.40    1.30
  -3  -5   2    3.80    1.60
   3  -5  -2   -0.90    1.50
  -3  -5   2    1.10    0.90
  -3   5   1   22.70    3.00
   3   5  -1   28.30    2.30
   3   5  -1   28.30    3.00
   3  -5  -1   19.70    2.50
   3  -5  -1   20.90    2.60
   3  -5  -1   22.80    2.80
  -3  -5   1   21.50    2.20
   3   5   0  701.73   25.60
   3   5   0  631.64   26.00
  -3   5   0  650.93   26.20
   3  -5   0  658.93   25.70
   3  -5   0  651.73   25.40
  -3  -5   0  647.14   25.50
   3  -5   0  668.43   25.10
  -3  -5   0  665.93   25.00
   3   5   1 2596.44   92.09
   3   5   1 2605.74   92.59
   3  -5   1 2466.95   91.09
   3  -5   1 2643.34   91.79
  -3  -5  -1 2176.48   92.19
   3  -5   1 2499.35   90.79
  -3  -5  -1 2403.56   91.29
   3   5   2  420.86   17.40
  -3   5  -2  386.56   16.90
   3   5   2  399.66   17.00
   3  -5   2  395.76   15.10
  -3  -5  -2  411.56   16.50
   3  -5   2  400.46   15.20
  -3  -5  -2  406.86   16.30
   3   5   3  130.79    7.90
  -3   5  -3  145.69    7.70
   3   5   3  137.89    8.10
   3  -5   3  144.09    6.70
  -3  -5  -3  145.09    7.20
  -3  -5  -3  139.29    7.00
  -3   5  -4    2.80    1.90
   3   5   4    1.50    3.10
   3   5   4    4.20    3.00
  -3  -5  -4    4.30    2.00
  -3  -5  -4    6.40    1.80
   3  -5   4    4.70    1.60
  -3   5  -5  669.33   27.30
   3   5   5  656.73   28.10
   3   5   5  658.23   28.00
  -3  -5  -5  676.53   26.20
  -3  -5  -5  679.63   26.90
   3  -5   5  652.63   25.90
  -3   5  -6  294.47   14.20
   3   5   6  289.57   15.20
  -3  -5  -6  292.77   13.80
  -3  -5  -6  289.77   12.70
   3   5   7  287.37   16.70
  -3  -5  -7  312.67   14.70
  -3   5  -8    4.30    4.30
  -3  -5  -8   13.70    4.20
  -3  -5  -8    1.20    2.40
  -3   5  -9   15.50    5.50
  -3  -5  -9   13.00    5.30
  -3  -5  -9   14.30    3.40
   3   6 -10   29.00    8.20
   3  -6 -10   23.20    9.50
   3  -6 -10   27.90    3.20
   3  -6 -10   40.80    4.60
   3   6  -9   21.30    5.60
   3  -6  -9   17.70    2.60
   3  -6  -9   22.70    4.40
   3  -6  -9   33.00    7.70
   3   6  -8  242.08   12.50
   3   6  -8  216.08   11.80
   3  -6  -8  189.98   19.20
   3  -6  -8  238.88   11.90
   3  -6  -8  240.28   10.60
   3   6  -7    3.70    2.70
   3  -6  -7    3.60    2.60
   3  -6  -7    6.60    4.80
   3  -6  -7    3.80    3.20
  -3  -6   7   -0.90    2.90
   3   6  -6  128.59    7.30
   3  -6  -6  131.79   10.00
   3  -6  -6  137.79    7.90
  -3  -6   6  139.99    8.00
   3  -6  -6  141.69    8.30
   3   6  -5  517.25   20.60
  -3   6   5  509.65   22.20
   3  -6  -5  514.35   23.00
   3  -6  -5  499.15   22.20
  -3  -6   5  544.45   19.20
   3  -6  -5  487.65   22.00
  -3  -6   5  555.14   21.30
   3  -6  -5  520.95   21.80
   3   6  -4  436.46   18.60
  -3   6   4  437.16   19.20
   3   6  -4  453.15   17.60
  -3  -6   4  449.36   18.30
  -3  -6   4  442.46   17.10
  -3  -6   4  459.35   17.80
   3  -6  -4  438.76   19.10
   3  -6  -4  449.06   19.80
   3  -6  -4  438.36   18.70
   3   6  -3  215.38   10.10
  -3   6   3  230.38   10.60
   3   6  -3  223.58    9.10
   3  -6  -3  204.38   10.70
  -3  -6   3  201.08   10.10
  -3  -6   3  216.18    9.20
   3  -6  -3  211.38   10.20
   3   6  -2  381.66   16.30
  -3   6   2  385.36   16.20
   3   6  -2  400.96   15.40
  -3  -6   2  385.96   15.60
   3  -6  -2  377.36   16.30
  -3  -6   2  394.16   15.80
   3  -6  -2  377.66   16.60
   3   6  -1 1567.94   58.99
  -3   6   1 1632.84   58.49
  -3   6   1 1542.15   59.19
   3   6  -1 1625.04   58.19
  -3  -6   1 1491.95   57.59
   3  -6  -1 1555.74   58.69
  -3  -6   1 1491.85   58.29
   3  -6  -1 1573.34   58.79
  -3   6   0  725.33   26.60
   3   6   0  698.43   27.70
  -3   6   0  696.13   27.80
  -3  -6   0  673.23   27.00
   3  -6   0  696.33   27.20
  -3  -6   0  667.03   26.20
   3  -6   0  681.53   26.40
   3   6   1 1114.29   42.40
   3   6   1 1117.49   41.80
   3  -6   1 1117.39   41.40
  -3  -6  -1 1041.60   40.90
  -3  -6  -1 1067.79   41.80
   3  -6   1 1098.89   40.40
   3  -6   1 1061.69   40.70
   3   6   2  216.68   10.90
  -3   6  -2  223.98   10.60
   3   6   2  207.68   10.40
  -3  -6  -2  204.78    9.90
   3  -6   2  216.18    8.20
   3  -6   2  226.08    9.60
   3  -6   2  214.38    8.50
  -3  -6  -2  207.98    9.60
   3   6   3 1014.00   39.70
  -3   6  -3 1009.80   39.50
   3   6   3 1001.30   40.00
  -3  -6  -3 1020.30   38.90
  -3  -6  -3 1004.80   38.70
   3  -6   3  994.60   38.20
   3   6   4   28.50    4.60
   3   6   4   21.00    4.20
  -3   6  -4   30.00    4.00
   3  -6   4   29.60    2.80
  -3  -6  -4   32.70    4.00
  -3  -6  -4   28.70    3.40
   3   6   5    5.00    4.00
  -3   6  -5    7.70    3.10
   3   6   5   10.50    4.60
  -3  -6  -5    5.20    2.10
  -3  -6  -5    4.20    2.60
   3   6   6   21.10    5.70
  -3   6  -6   25.00    4.10
  -3  -6  -6   23.40    3.10
  -3  -6  -6   24.70    4.10
  -3   6  -7   91.29    8.20
  -3  -6  -7   68.49    7.60
  -3  -6  -7   93.79    7.90
  -3   6  -8    4.00    4.70
  -3  -6  -8   11.90    4.40
  -3  -6  -8    1.30    2.50
  -3   6  -9   30.80    6.60
  -3  -6  -9   31.40    7.90
  -3  -6  -9   32.10    4.40
   3  -7 -10    0.70    4.30
   3  -7 -10    1.90    2.10
   3  -7 -10   10.60    9.10
   3   7  -9    4.20    5.00
   3  -7  -9   -7.30    7.00
   3  -7  -9    0.90    2.40
   3  -7  -9    7.60    4.20
   3   7  -8   22.60    3.60
   3   7  -8   23.00    4.70
   3  -7  -8   28.10    3.80
   3  -7  -8   22.90    4.80
   3  -7  -8   18.00    6.70
   3   7  -7   11.10    2.60
   3  -7  -7    7.60    5.40
   3  -7  -7   12.20    4.00
   3  -7  -7   13.30    3.30
  -3  -7   7   10.80    3.70
   3   7  -6   17.40    2.50
   3  -7  -6   17.40    3.50
  -3  -7   6   26.60    3.70
   3  -7  -6   17.80    4.80
   3  -7  -6   21.60    4.00
  -3   7   5    4.30    3.50
   3   7  -5    8.80    1.80
  -3  -7   5   11.70    1.40
   3  -7  -5   10.80    3.10
  -3  -7   5   10.40    1.70
   3  -7  -5    7.60    2.90
   3  -7  -5    5.70    3.80
  -3  -7   5   10.30    2.60
   3   7  -4  112.59    5.30
   3   7  -4   99.49    6.70
  -3   7   4  108.09    7.50
   3  -7  -4  105.19    7.20
   3  -7  -4  103.99    7.70
   3  -7  -4  103.39    6.80
  -3  -7   4   89.49    6.20
  -3  -7   4  109.09    5.40
  -3  -7   4  105.09    6.20
  -3   7   3  168.68    9.10
   3   7  -3  170.68    8.90
   3   7  -3  172.98    7.60
  -3  -7   3  167.48    8.50
   3  -7  -3  163.08    9.30
  -3  -7   3  164.08    8.70
   3  -7  -3  162.38    8.80
  -3  -7   3  173.08    7.90
  -3   7   2 1152.78   45.40
   3   7  -2 1179.48   45.20
  -3   7   2 1194.68   44.90
   3   7  -2 1217.48   44.00
  -3  -7   2 1207.08   44.00
   3  -7  -2 1127.19   44.90
   3  -7  -2 1129.59   45.10
  -3  -7   2 1129.29   44.30
  -3   7   1  157.98    8.60
   3   7  -1  153.88    8.30
   3   7  -1  150.98    7.40
  -3   7   1  166.68    7.80
   3  -7  -1  150.38    7.90
  -3  -7   1  135.09    7.50
   3  -7  -1  158.88    8.20
  -3  -7   1  148.19    6.70
   3   7   0   12.00    2.70
  -3   7   0   14.40    3.20
   3   7   0   10.70    2.30
   3  -7   0   11.40    2.20
  -3  -7   0   12.10    1.70
  -3  -7   0   16.30    2.70
   3  -7   0   14.20    2.70
  -3   7  -1  259.17   12.90
  -3   7  -1  297.57   11.20
   3   7   1  278.07   13.20
   3   7   1  267.57   12.40
  -3  -7  -1  268.07   11.60
   3  -7   1  272.37   11.40
  -3  -7  -1  273.97   12.40
   3  -7   1  252.87   12.80
   3   7   2   70.99    5.60
  -3   7  -2   58.69    5.30
   3   7   2   79.19    6.30
   3  -7   2   60.69    3.30
  -3  -7  -2   70.19    4.70
  -3  -7  -2   65.69    4.90
   3  -7   2   65.99    3.10
   3  -7   2   62.89    4.30
   3   7   3  157.08    9.40
  -3   7  -3  153.48    9.00
   3   7   3  159.98    9.70
  -3  -7  -3  156.08    8.20
  -3  -7  -3  152.08    8.10
   3  -7   3  154.78    7.50
   3   7   4   75.99    7.30
   3   7   4   62.59    7.00
  -3   7  -4   65.79    6.20
  -3  -7  -4   69.39    5.10
  -3  -7  -4   64.89    5.30
   3  -7   4   56.89    4.20
  -3   7  -5  199.58   11.40
   3   7   5  206.18   12.60
  -3  -7  -5  204.98   10.80
  -3  -7  -5  194.68    9.80
  -3   7  -6  283.27   17.90
  -3  -7  -6  356.96   15.20
  -3  -7  -6  349.27   16.10
  -3   7  -7   23.10    5.20
  -3  -7  -7   16.60    4.50
  -3  -7  -7   20.40    3.30
  -3   7  -8   58.39    7.80
  -3  -7  -8   63.29    7.40
  -3  -7  -8   66.09    5.70
  -3   7  -9    9.30    5.80
  -3  -7  -9   -6.20    5.50
  -3  -7  -9    5.30    3.20
   3  -8 -10   44.20    4.70
   3  -8 -10   41.70   10.80
   3   8  -9  137.39   10.90
   3  -8  -9  145.89   15.10
   3  -8  -9  139.99   10.90
   3  -8  -9  147.39    8.40
   3   8  -8   76.99    5.80
   3   8  -8  100.39    7.80
   3  -8  -8   79.39    9.00
   3  -8  -8   91.79    7.00
   3  -8  -8   96.49   12.00
   3   8  -7    4.60    2.10
  -3  -8   7    6.00    3.30
   3  -8  -7    4.50    5.70
   3  -8  -7    7.50    4.40
   3   8  -6   28.40    3.20
   3  -8  -6   22.90    4.50
   3  -8  -6   17.50    5.40
  -3  -8   6   34.30    4.20
   3  -8  -6   20.20    4.10
   3   8  -5   78.59    4.50
  -3   8   5   73.59    8.30
   3  -8  -5   83.89    6.90
   3  -8  -5   76.99    6.60
  -3  -8   5   71.69    4.30
  -3  -8   5   66.99    4.80
  -3  -8   5   81.89    5.80
   3  -8  -5   72.29    7.70
  -3   8   4  316.37   15.50
   3   8  -4  334.27   13.70
   3   8  -4  340.27   15.40
   3  -8  -4  326.97   15.40
  -3  -8   4  335.67   14.70
  -3  -8   4  349.47   14.10
   3  -8  -4  338.87   16.40
   3  -8  -4  335.77   16.00
   3   8  -3   11.60    2.80
   3   8  -3   20.90    2.50
  -3   8   3   14.20    3.00
  -3  -8   3   13.80    3.00
   3  -8  -3   16.10    3.40
  -3  -8   3   16.40    2.90
   3  -8  -3   11.40    3.10
  -3  -8   3    8.60    2.10
  -3   8   2  308.07   13.90
  -3   8   2  302.57   14.40
   3   8  -2  318.27   13.00
   3   8  -2  305.37   14.30
   3  -8  -2  285.77   14.00
   3  -8  -2  302.07   14.00
  -3  -8   2  288.97   13.30
  -3  -8   2  315.37   12.60
  -3   8   1  161.08    8.10
  -3   8   1  145.39    9.00
   3   8  -1  158.58    7.90
   3   8  -1  160.28    9.00
  -3  -8   1  150.88    8.10
   3  -8  -1  165.18    8.70
   3  -8  -1  153.98    8.30
  -3  -8   1  149.88    6.90
  -3   8   0  126.29    6.70
   3   8   0  137.59    7.40
  -3   8   0  130.89    8.40
   3   8   0  126.09    8.10
   3  -8   0  127.29    7.40
   3  -8   0  129.79    7.00
  -3  -8   0  129.19    6.30
   3   8   1  424.86   18.40
  -3   8  -1  439.36   17.10
   3   8   1  432.66   19.30
   3  -8   1  444.46   18.30
  -3  -8  -1  409.56   18.30
  -3  -8  -1  425.76   17.60
   3   8   2   17.40    3.60
  -3   8  -2   13.10    3.50
   3   8   2    5.00    2.50
  -3  -8  -2   14.40    2.80
   3  -8   2    9.50    2.30
   3  -8   2   14.90    2.00
  -3  -8  -2    8.90    2.30
   3  -8   2   13.70    1.60
  -3   8  -3  651.43   27.70
   3   8   3  670.53   27.90
   3   8   3  653.53   28.30
  -3  -8  -3  659.13   26.90
  -3  -8  -3  684.23   26.90
   3  -8   3  654.43   26.10
   3   8   4   13.50    4.20
   3   8   4   13.20    4.60
  -3   8  -4   14.60    3.90
  -3  -8  -4   14.70    3.30
  -3  -8  -4    8.30    2.60
   3  -8   4    7.20    1.90
  -3   8  -5   31.70    5.20
   3   8   5   23.30    6.00
  -3  -8  -5   29.70    4.50
  -3  -8  -5   24.80    3.50
  -3   8  -6   59.89    7.70
  -3  -8  -6   65.39    7.10
  -3  -8  -6   51.99    7.00
  -3   8  -7   22.40    5.50
  -3  -8  -7   29.00    5.30
  -3  -8  -7   27.60    4.00
  -3   8  -8   25.80    6.40
  -3  -8  -8   27.90    5.70
  -3  -8  -8   25.30    4.10
  -3   8  -9    6.70    6.30
  -3  -8  -9    3.30    3.30
  -3  -8  -9    2.10    6.30
   3  -9 -10   80.09    6.30
   3  -9 -10   91.19   12.90
   3   9  -9   75.99    9.10
   3  -9  -9   69.39   11.00
   3  -9  -9   84.09    8.70
   3  -9  -9   79.59    6.80
   3   9  -8   13.00    4.10
   3  -9  -8    6.70    5.40
   3  -9  -8   22.80    7.80
   3  -9  -8   18.10    4.30
  -3  -9   8    9.30    4.30
   3   9  -7    8.00    2.40
   3  -9  -7    9.80    5.00
  -3  -9   7    9.90    3.60
   3  -9  -7    7.70    5.60
   3   9  -6  218.58    9.90
  -3  -9   6  236.78   11.20
  -3  -9   6  218.68    9.20
   3  -9  -6  206.58   13.40
   3  -9  -6  230.98   14.00
   3  -9  -6  206.48   12.80
   3   9  -5  110.59    5.90
   3  -9  -5  100.59    8.20
   3  -9  -5  100.89    8.20
  -3  -9   5  112.19    7.10
  -3  -9   5  111.79    6.10
   3  -9  -5  107.29    9.10
   3   9  -4  124.89    8.20
   3   9  -4  122.89    6.50
  -3   9   4  124.99    8.90
  -3  -9   4  128.59    8.00
   3  -9  -4  126.99    8.40
  -3  -9   4  126.39    6.90
   3  -9  -4  125.79    8.80
   3  -9  -4  125.59    9.00
  -3  -9   4  110.89    7.60
   3   9  -3  179.28   10.20
   3   9  -3  174.28    8.50
   3  -9  -3  182.08   10.50
   3  -9  -3  178.98   10.00
  -3  -9   3  186.08    9.10
  -3  -9   3  190.48    9.10
  -3  -9   3  172.38    9.80
   3  -9  -3  174.98   10.70
  -3   9   2  156.18    9.10
   3   9  -2  177.48    8.60
   3   9  -2  177.18   10.00
   3  -9  -2  178.08    9.80
  -3  -9   2  174.08    7.70
   3  -9  -2  165.08    9.50
  -3   9   1  216.88   12.00
  -3   9   1  228.68   10.90
   3   9  -1  234.88   12.10
   3   9  -1  229.58   10.80
   3  -9  -1  220.68   11.00
  -3  -9   1  226.18    9.60
  -3  -9   1  210.28   10.80
   3  -9  -1  221.78   11.40
  -3   9   0 1968.50   71.59
   3   9   0 1921.81   73.39
   3   9   0 1828.52   72.09
   3  -9   0 1880.01   71.79
  -3  -9   0 1874.01   71.09
  -3  -9   0 1898.41   72.39
   3  -9   0 2026.70   72.69
   3   9   1  124.09    9.90
   3   9   1  107.39    7.50
  -3   9  -1  126.49    8.50
  -3  -9  -1  116.29    6.60
   3  -9   1  136.59    7.60
   3  -9   1  132.89    6.70
  -3  -9  -1  118.69    7.60
   3   9   2   87.29    7.50
   3   9   2   86.59    7.10
  -3   9  -2   88.19    4.60
  -3   9  -2   84.79    7.20
   3  -9   2   85.09    4.60
  -3  -9  -2   90.39    5.90
   3  -9   2   86.99    6.00
  -3  -9  -2   93.29    6.60
   3   9   3    7.40    3.50
  -3   9  -3   10.00    3.70
   3   9   3    5.40    4.20
  -3  -9  -3    5.60    2.50
  -3  -9  -3    5.60    2.40
   3  -9   3    5.50    2.00
   3   9   4  452.75   21.70
  -3   9  -4  477.25   21.50
   3   9   4  460.45   22.20
  -3  -9  -4  484.85   20.30
  -3  -9  -4  478.15   20.30
   3  -9   4  437.06   19.00
  -3   9  -5   19.70    4.40
  -3  -9  -5   15.50    4.00
  -3  -9  -5   25.60    4.00
  -3  -9  -6   32.60    5.40
  -3  -9  -6   20.40    3.40
  -3   9  -7   72.19    8.70
  -3  -9  -7   56.09    6.00
  -3   9  -8   19.80    6.30
  -3  -9  -8    5.60    5.30
  -3  -9  -8    8.50    3.50
  -3   9  -9   25.90    7.60
  -3  -9  -9   36.90    4.70
  -3  -9  -9   39.90    7.90
   3  10  -9   -2.40    5.50
   3 -10  -9   11.70    4.00
   3 -10  -9   12.50    8.60
  -3 -10   8  196.78   11.60
   3 -10  -8  191.28   11.60
   3 -10  -8  177.28   13.60
   3 -10  -8  205.78   16.30
   3  10  -7   36.40    4.70
   3 -10  -7   24.70    6.30
  -3 -10   7   36.20    4.70
   3 -10  -7   26.20    7.30
   3  10  -6   87.89    6.00
  -3 -10   6   93.99    5.60
   3 -10  -6  104.79   10.40
  -3 -10   6  110.99    7.30
   3 -10  -6  102.09    9.90
   3  10  -5   26.90    3.30
   3 -10  -5   26.70    5.10
  -3 -10   5   28.00    4.10
  -3 -10   5   32.90    3.80
   3 -10  -5   26.90    5.10
   3 -10  -5   29.50    5.60
   3  10  -4  452.95   18.50
  -3  10   4  437.46   21.30
   3 -10  -4  449.76   21.10
  -3 -10   4  451.95   19.80
  -3 -10   4  411.56   19.50
   3 -10  -4  450.35   20.40
  -3 -10   4  462.15   19.00
   3 -10  -4  465.25   21.10
   3  10  -3  135.89    8.80
   3  10  -3  132.39    7.30
  -3  10   3  124.59    8.40
   3 -10  -3  126.19    8.60
   3 -10  -3  127.89    8.90
  -3 -10   3  125.49    7.60
   3 -10  -3  127.89    9.30
  -3 -10   3  128.59    7.20
  -3 -10   3  137.89    8.70
   3  10  -2   64.59    6.50
  -3  10   2   74.29    6.50
   3  10  -2   78.79    5.60
   3 -10  -2   70.69    6.50
   3 -10  -2   67.79    6.30
  -3 -10   2   78.19    4.30
  -3  10   1  213.58   12.40
   3  10  -1  220.28   10.80
  -3  10   1  224.58   11.00
   3  10  -1  205.98   12.00
  -3 -10   1  220.38   11.20
   3 -10  -1  228.28   11.70
   3 -10  -1  204.98   10.90
  -3 -10   1  214.88    9.50
  -3  10   0  265.27   12.10
  -3  10   0  258.37   14.00
   3  10   0  254.97   12.70
   3  10   0  265.07   13.90
   3 -10   0  264.87   12.30
   3 -10   0  273.87   13.50
  -3 -10   0  253.57   11.50
  -3 -10   0  256.37   13.00
  -3  10  -1  332.17   13.70
  -3  10  -1  307.47   15.90
   3  10   1  299.77   14.80
   3 -10   1  316.37   14.80
   3 -10   1  318.47   13.70
  -3 -10  -1  314.27   13.90
  -3 -10  -1  317.67   15.00
  -3  10  -2  873.61   36.20
  -3  10  -2  888.41   33.10
   3  10   2  885.21   36.60
   3  10   2  860.71   35.60
  -3 -10  -2  875.11   35.20
   3 -10   2  892.31   34.70
   3 -10   2  818.32   33.30
  -3 -10  -2  882.61   34.50
  -3  10  -3   86.09    7.80
   3  10   3   87.09    8.60
   3  10   3   69.39    8.50
  -3 -10  -3   77.79    6.60
   3 -10   3   83.29    5.90
   3 -10   3   72.79    3.40
  -3 -10  -3   79.29    6.20
   3 -10   3   76.59    3.80
   3  10   4  287.97   17.20
  -3  10  -4  307.87   16.20
  -3 -10  -4  313.67   14.90
  -3 -10  -4  313.57   15.00
  -3  10  -5    5.70    3.90
  -3 -10  -5    4.60    3.20
  -3 -10  -5   13.10    3.80
  -3 -10  -6  283.97   15.10
  -3  10  -7   -1.60    5.00
  -3 -10  -7    6.10    4.70
  -3 -10  -7   -1.30    3.00
  -3  10  -8   18.90    6.80
  -3 -10  -8    9.80    3.60
  -3 -10  -8   18.90    6.10
   3 -11  -9    1.90    4.20
   3 -11  -9   11.00    9.20
   3 -11  -8   47.70    6.70
   3 -11  -8   58.09    9.90
  -3 -11   8   52.59    6.40
   3  11  -7  102.49    7.50
   3 -11  -7  127.99   12.50
   3 -11  -7   98.99    9.50
  -3 -11   7  129.29    8.40
   3 -11  -7  106.19   11.40
   3  11  -6  286.97   13.20
  -3 -11   6  321.67   14.10
  -3 -11   6  287.97   12.90
   3 -11  -6  286.17   16.40
   3 -11  -6  289.07   18.10
   3 -11  -6  256.97   17.10
   3  11  -5  179.28    9.30
  -3 -11   5  165.28   10.20
   3 -11  -5  180.58   11.90
  -3 -11   5  193.18    9.80
   3 -11  -5  187.08   12.20
   3 -11  -5  205.18   14.30
   3  11  -4  268.87   12.60
   3 -11  -4  273.47   15.20
  -3 -11   4  276.77   13.80
   3 -11  -4  301.97   15.60
  -3 -11   4  282.17   13.30
   3 -11  -4  266.87   14.60
  -3  11   3   87.19    8.20
   3  11  -3   96.59    6.40
   3  11  -3   89.89    7.90
   3 -11  -3   84.99    7.70
  -3 -11   3   97.99    8.00
  -3 -11   3   92.69    5.80
  -3 -11   3   90.49    6.80
   3 -11  -3   82.69    7.90
   3 -11  -3   83.59    8.40
   3  11  -2  177.18   11.10
  -3  11   2  172.18   10.40
   3  11  -2  187.38    9.70
   3 -11  -2  167.08   10.50
   3 -11  -2  200.98   12.10
  -3 -11   2  186.98    8.30
   3 -11  -2  182.28   10.60
  -3 -11   2  180.88   10.10
  -3  11   1   66.19    8.70
  -3  11   1   70.99    6.00
   3  11  -1   67.29    5.80
   3  11  -1   57.19    6.90
  -3 -11   1   54.39    3.90
   3 -11  -1   60.09    5.80
  -3 -11   1   58.59    5.80
   3 -11  -1   53.79    6.50
  -3  11   0 1242.28   50.59
  -3  11   0 1328.37   48.60
   3  11   0 1246.48   49.10
   3  11   0 1320.27   50.89
   3 -11   0 1290.57   49.70
   3 -11   0 1266.87   48.70
  -3 -11   0 1249.57   47.90
  -3 -11   0 1138.79   50.89
  -3  11  -1   21.90    3.10
   3  11   1   13.10    3.90
  -3  11  -1   13.50    4.40
   3  11   1   32.90    5.70
  -3 -11  -1   26.80    3.50
   3 -11   1   18.20    3.50
   3 -11   1   23.30    3.20
  -3 -11  -1   23.30    4.10
  -3  11  -2   11.50    4.60
   3  11   2   18.40    5.20
   3  11   2   10.90    4.90
  -3 -11  -2   10.60    2.90
   3 -11   2   14.40    2.30
  -3 -11  -2   12.60    3.50
   3 -11   2   12.10    3.00
  -3  11  -3  157.88   11.20
   3  11   3  166.48   12.00
  -3  11  -3  167.48    7.20
   3 -11   3  154.98    9.00
  -3 -11  -3  177.08    9.60
  -3 -11  -3  155.38   10.00
   3 -11   3  163.88    6.80
  -3  11  -4   28.70    5.30
   3  11   4   26.70    7.30
  -3 -11  -4   31.00    4.60
  -3 -11  -4   26.40    4.00
  -3 -11  -5   64.29    7.00
  -3 -11  -5   67.89    7.40
  -3  11  -6   -0.40    5.00
  -3 -11  -6    4.10    4.30
  -3  11  -7   18.80    6.50
  -3 -11  -7   13.30    5.50
  -3  11  -8   33.20    8.30
  -3 -11  -8   33.00    5.10
  -3 -11  -8   27.60    6.90
   3 -12  -9   47.70    6.60
   3 -12  -9   47.40   10.90
  -3 -12   8   31.30    5.50
   3 -12  -8   25.20    8.50
   3 -12  -8   23.80    5.90
   3  12  -7    3.80    3.90
   3 -12  -7   -0.30    6.20
  -3 -12   7    2.40    3.80
   3 -12  -7    0.30    4.30
  -3 -12   7    5.00    3.10
   3 -12  -7    0.70    6.80
   3  12  -6   19.90    4.00
  -3 -12   6   15.60    3.60
   3 -12  -6   20.30    6.20
  -3 -12   6   25.50    4.40
   3  12  -5   30.60    4.20
   3 -12  -5   19.60    5.50
  -3 -12   5   28.70    4.70
   3 -12  -5   42.80    7.00
  -3 -12   5   23.70    4.80
   3  12  -4   21.30    3.80
  -3 -12   4   17.90    3.80
   3 -12  -4   28.80    5.80
   3 -12  -4   20.80    5.20
  -3 -12   4   29.40    4.70
   3 -12  -4   28.30    6.00
   3  12  -3  200.48   12.50
   3  12  -3  197.58   10.60
  -3 -12   3  208.58   11.30
   3 -12  -3  219.58   12.60
  -3 -12   3  207.88    9.80
   3 -12  -3  205.98   12.40
  -3 -12   3  181.48   11.90
   3 -12  -3  212.28   13.40
   3  12  -2   -2.80    2.80
   3  12  -2   -0.60    3.00
  -3  12   2    7.70    3.90
   3 -12  -2    1.30    3.60
  -3 -12   2    2.10    3.80
   3 -12  -2    2.60    3.30
  -3 -12   2    5.30    2.80
   3 -12  -2    3.90    3.40
  -3 -12   2    1.10    1.40
   3  12  -1  412.26   20.50
  -3  12   1  426.06   18.90
   3  12  -1  430.56   19.00
   3 -12  -1  415.46   19.00
   3 -12  -1  418.86   21.50
  -3 -12   1  417.56   19.30
  -3 -12   1  428.56   17.30
  -3  12   0  154.38   11.10
   3  12   0  146.99    9.60
  -3  12   0  158.18    9.20
   3  12   0  163.08   11.50
  -3 -12   0  164.48    8.20
   3 -12   0  165.98    9.20
  -3 -12   0  146.29    9.90
  -3  12  -1   63.09    7.80
   3  12   1   56.09    7.30
  -3  12  -1   56.89    5.50
   3  12   1   65.79    8.10
  -3 -12  -1   55.89    6.50
   3 -12   1   55.09    5.00
  -3 -12  -1   53.99    5.00
   3 -12   1   57.39    6.50
  -3  12  -2   67.99    5.20
   3  12   2   65.29    8.60
  -3  12  -2   59.49    7.80
   3 -12   2   61.49    4.50
   3 -12   2   60.99    6.50
  -3 -12  -2   60.99    5.80
  -3 -12  -2   57.39    6.90
  -3  12  -3  177.88    8.00
   3  12   3  171.08   13.50
  -3  12  -3  163.98   12.00
  -3 -12  -3  182.48   10.30
  -3 -12  -3  176.08   11.00
   3 -12   3  178.58    7.40
   3 -12   3  157.98   10.00
  -3  12  -4  282.87   16.50
  -3 -12  -4  274.27   14.40
  -3 -12  -4  285.17   14.80
  -3  12  -5    6.80    5.80
  -3 -12  -5   -2.10    5.20
  -3 -12  -5    1.90    3.70
  -3  12  -6  409.86   21.60
  -3 -12  -6  401.26   20.00
  -3 -12  -6  387.86   19.40
  -3  12  -7   18.00    7.00
  -3 -12  -7   20.40    5.10
  -3 -12  -7   20.30    6.00
  -3  12  -8    8.60    7.50
  -3 -12  -8   19.70    4.60
  -3 -12  -8    4.80    6.70
   3 -13  -9   -3.70    9.20
   3 -13  -9   -0.10    5.30
   3 -13  -8    1.20    5.20
  -3 -13   8    8.80    4.80
   3 -13  -8   -4.10    7.40
  -3 -13   7    3.40    3.90
   3 -13  -7   -1.20    4.70
   3 -13  -7   -1.80    6.60
   3  13  -6   21.30    4.60
  -3 -13   6   24.10    4.70
   3 -13  -6   26.10    6.60
   3 -13  -6   14.50    6.10
  -3 -13   6   27.90    4.60
   3  13  -5    6.40    3.80
  -3 -13   5    1.00    3.90
   3 -13  -5    5.10    5.30
   3  13  -4   69.99    7.30
   3 -13  -4   78.79    9.70
   3 -13  -4   78.89    9.40
  -3 -13   4   89.69    7.70
   3 -13  -4   92.79    9.30
  -3 -13   4   88.39    7.60
   3  13  -3    0.60    3.20
   3  13  -3   -3.00    3.80
   3 -13  -3    2.30    4.20
   3 -13  -3   -6.70    3.80
  -3 -13   3    2.00    2.00
  -3 -13   3    1.40    3.20
   3 -13  -3   -5.20    3.70
   3  13  -2   98.89    7.90
   3  13  -2  117.29   10.00
  -3  13   2  109.99    9.40
  -3 -13   2  123.79    6.20
  -3 -13   2  121.79    8.70
   3 -13  -2  118.69   10.70
   3 -13  -2  104.39    9.30
  -3 -13   2  107.69    9.60
   3 -13  -2  109.39    8.80
   3  13  -1   50.69    6.30
   3  13  -1   31.40    5.30
  -3  13   1   39.30    5.40
   3 -13  -1   48.80    6.60
  -3 -13   1   48.70    6.50
   3 -13  -1   38.20    5.30
   3 -13  -1   31.40    5.50
  -3 -13   1   42.80    3.90
   3  13   0   13.10    5.00
  -3  13   0    6.00    4.50
  -3  13   0    2.70    3.40
   3  13   0    6.30    4.70
   3 -13   0    5.30    2.90
  -3 -13   0    8.60    2.50
   3 -13   0    4.40    3.40
  -3 -13   0    6.40    3.80
   3  13   1   14.10    5.60
  -3  13  -1   11.10    4.40
  -3  13  -1   22.90    3.80
   3 -13   1   18.60    3.30
  -3 -13  -1   24.80    5.00
  -3 -13  -1   26.00    3.80
   3 -13   1   24.00    4.80
   3  13   2   92.19   10.50
  -3  13  -2  112.89   10.30
  -3  13  -2   96.99    6.60
   3 -13   2   93.39    5.80
   3 -13   2   91.49    8.20
  -3 -13  -2   99.29    7.50
  -3 -13  -2   99.89    8.60
  -3  13  -3   24.60    6.30
  -3  13  -3   28.30    4.20
   3  13   3   27.80    7.90
  -3 -13  -3   26.30    5.40
   3 -13   3   21.90    2.70
  -3 -13  -3   27.80    4.70
  -3  13  -4  229.78   15.40
  -3 -13  -4  240.58   17.00
  -3 -13  -4  246.48   14.00
  -3 -13  -5    5.80    4.60
  -3 -13  -5    4.80    4.20
  -3  13  -6   47.60    8.10
  -3 -13  -6   48.40    6.60
  -3 -13  -6   69.19    9.20
  -3  13  -7    4.60    7.20
  -3 -13  -7   -0.80    6.00
  -3 -13  -7   -2.40    4.00
  -3  13  -8   34.30    8.70
  -3 -13  -8   16.30    5.00
  -3 -13  -8   22.60    7.60
   3 -14  -8   -0.20    8.10
   3 -14  -8    7.50    5.90
   3 -14  -7    2.60    7.10
   3 -14  -7   -3.60    5.10
  -3 -14   7   -2.00    4.40
   3  14  -6    9.20    5.90
  -3 -14   6   14.10    4.60
   3 -14  -6   16.10    7.60
   3 -14  -6    7.60    5.50
   3  14  -5  110.59    9.10
  -3 -14   5   88.19    9.40
   3 -14  -5  113.49   11.50
   3 -14  -5  138.59   14.20
  -3 -14   5  120.89    9.40
   3  14  -4   12.70    4.50
   3 -14  -4    2.10    5.40
   3 -14  -4   12.60    5.30
  -3 -14   4   10.10    4.00
   3 -14  -4   16.00    5.20
  -3 -14   4   16.00    4.20
   3  14  -3   41.90    5.60
  -3 -14   3   48.10    4.40
   3 -14  -3   52.59    8.40
  -3 -14   3   29.50    4.70
   3 -14  -3   42.20    6.40
   3 -14  -3   42.30    6.50
   3  14  -2    2.40    4.90
   3  14  -2    7.70    5.10
  -3 -14   2   -3.50    5.40
   3 -14  -2    1.90    4.50
  -3 -14   2    3.30    1.90
   3 -14  -2    9.90    4.20
   3 -14  -2    3.60    4.40
  -3 -14   2    2.50    3.20
  -3  14   1  463.25   21.50
   3  14  -1  477.45   23.50
  -3 -14   1  476.75   19.50
   3 -14  -1  482.85   24.20
  -3 -14   1  466.65   22.10
   3 -14  -1  462.15   22.50
   3 -14  -1  478.85   21.50
  -3  14   0   38.40    5.30
   3  14   0   36.30    7.30
   3 -14   0   33.00    6.20
  -3 -14   0   34.50    4.40
  -3 -14   0   43.60    8.30
   3 -14   0   31.90    4.70
   3 -14   0   34.20    6.00
  -3  14  -1  355.66   19.70
  -3  14  -1  343.17   16.10
   3  14   1  342.97   19.70
  -3 -14  -1  352.56   16.00
   3 -14   1  360.76   17.80
   3 -14   1  343.17   15.70
  -3 -14  -1  357.56   17.90
  -3  14  -2   49.20    7.90
  -3  14  -2   48.60    5.90
   3  14   2   60.09    8.90
  -3 -14  -2   54.49    7.60
   3 -14   2   44.40    4.50
  -3 -14  -2   53.29    6.60
   3 -14   2   45.00    6.40
  -3  14  -3  140.39   12.30
  -3  14  -3  132.69    7.60
   3  14   3  117.89   14.00
  -3 -14  -3  141.39    9.60
   3 -14   3  133.89    6.50
  -3 -14  -3  134.69   10.60
  -3 -14  -4   88.29    9.60
  -3 -14  -4   82.89    8.50
   3 -14   4   99.19    5.10
   3 -14   4  107.79    5.10
  -3  14  -5   15.70    6.80
  -3 -14  -5    3.90    4.80
  -3  14  -6   96.19   13.20
  -3 -14  -6   76.39   10.50
  -3 -14  -6   84.69    9.90
  -3  14  -7   -0.80    7.30
  -3 -14  -7    0.90    4.90
  -3 -14  -7    9.80    6.50
   3 -15  -8   20.60    9.60
   3 -15  -8    5.50    6.00
   3 -15  -7   46.40    8.30
   3 -15  -7   33.20    9.60
  -3 -15   7   43.70    6.10
   3 -15  -6   28.00    7.30
   3 -15  -6   27.40    8.10
  -3 -15   6   31.80    5.80
   3 -15  -5    5.00    6.10
  -3 -15   5   -2.40    4.80
   3 -15  -5   -3.10    5.60
   3 -15  -4   14.00    5.70
   3 -15  -4   27.80    6.90
  -3 -15   4   29.40    4.90
  -3 -15   4   21.40    5.40
  -3 -15   3  263.87   12.20
   3 -15  -3  254.87   15.60
   3 -15  -3  264.97   16.20
   3 -15  -3  278.57   17.40
   3  15  -2  354.56   20.10
  -3 -15   2  359.46   18.10
   3 -15  -2  361.76   20.60
   3 -15  -2  337.57   19.10
   3 -15  -2  347.27   18.10
  -3 -15   2  374.86   15.30
   3  15  -1   40.10    8.00
   3 -15  -1   18.80    5.20
   3 -15  -1   36.10    5.70
  -3 -15   1   25.20    3.60
   3 -15  -1   23.60    6.30
  -3 -15   1   28.80    7.00
  -3  15   0  171.88   11.90
   3  15   0  184.68   14.40
   3 -15   0  183.68   12.80
   3 -15   0  194.88   14.60
   3 -15   0  201.38   11.30
  -3 -15   0  197.98   10.20
  -3 -15   0  194.68   12.70
  -3  15  -1   75.19    7.80
   3  15   1   95.19   12.00
  -3  15  -1   97.29   11.10
  -3 -15  -1   74.89    8.90
   3 -15   1   85.19    9.30
   3 -15   1   86.99   11.50
  -3 -15  -1   79.49    6.70
   3 -15   1   83.19    6.80
  -3  15  -2   -0.60    5.70
  -3  15  -2    3.90    3.60
   3  15   2   11.60    7.50
  -3 -15  -2    5.30    4.30
   3 -15   2    0.90    7.10
   3 -15   2    3.40    2.40
   3 -15   2    7.40    7.00
  -3  15  -3   16.00    3.70
  -3  15  -3   18.20    6.70
   3 -15   3   16.20    2.40
   3 -15   3   24.70    8.00
  -3 -15  -3   10.60    4.90
  -3  15  -4   74.29    7.10
  -3  15  -4   87.99   12.50
  -3 -15  -4   76.59    8.50
  -3 -15  -4   64.89    7.80
   3 -15   4   73.89   10.30
   3 -15   4   71.79    4.50
  -3  15  -5   44.30    8.60
  -3 -15  -5   64.49    8.00
  -3  15  -6   30.70    8.90
  -3 -15  -6   19.10    6.20
  -3 -15  -6   32.00    7.30
  -3  15  -7   44.70    9.90
  -3 -15  -7   48.00    9.00
  -3 -15  -7   75.69   10.00
   3 -16  -8    1.60   10.10
   3 -16  -7   84.79   10.70
   3 -16  -7   75.79   11.90
   3 -16  -6   15.00    6.50
   3 -16  -6   18.60    7.10
  -3 -16   6   18.60    5.70
   3 -16  -5   91.69   12.10
  -3 -16   5   87.19   10.20
   3 -16  -5   91.19   12.50
   3 -16  -4  217.28   17.10
  -3 -16   4  148.69   15.40
   3 -16  -4  185.48   15.70
   3 -16  -4  196.68   15.40
  -3 -16   4  216.48   11.80
  -3 -16   3   69.89    5.80
   3 -16  -3   62.29    9.20
   3 -16  -3   86.79   10.50
   3 -16  -2    6.90    5.60
  -3 -16   2   12.70    2.80
  -3 -16   2    3.30    4.10
   3 -16  -2    7.30    4.70
   3 -16  -2    4.70    6.70
   3  16  -1  329.17   21.90
  -3 -16   1  327.97   18.50
  -3 -16   1  340.67   15.30
   3 -16  -1  353.96   17.60
   3 -16  -1  378.86   21.30
   3 -16  -1  357.46   19.40
  -3  16   0    2.80    5.40
   3  16   0    0.60    5.90
   3 -16   0    1.00    3.60
   3 -16   0    3.20    4.80
   3 -16   0    0.40    6.10
  -3 -16   0    4.30    2.80
  -3 -16   0   -1.20    4.80
   3  16   1   33.90    7.70
  -3  16  -1   36.20    5.80
   3 -16   1   37.10    4.90
   3 -16   1   25.80    6.70
  -3 -16  -1   41.00    7.00
   3 -16   1   20.00    5.60
  -3  16  -2   42.90    8.40
   3  16   2   30.60    8.10
  -3  16  -2   54.59    6.00
   3 -16   2   44.50    9.20
  -3 -16  -2   54.89    7.70
   3 -16   2   49.20    5.20
  -3  16  -3  449.66   19.30
  -3  16  -3  457.45   25.00
  -3 -16  -3  454.45   22.70
   3 -16   3  422.06   24.90
   3 -16   3  446.96   18.00
  -3 -16  -4   10.40    5.40
   3 -16   4   13.20    2.50
  -3 -16  -4    6.10    8.50
  -3  16  -5   18.90    8.40
  -3 -16  -5   25.90    6.30
  -3 -16  -5   24.20    6.70
  -3  16  -6    9.50    8.20
  -3 -16  -6    2.40    6.20
  -3 -16  -6    7.40    6.40
  -3  16  -7   13.90    9.40
  -3 -16  -7   18.40    6.80
  -3 -16  -7    9.50    7.40
   3 -17  -7   20.50    9.40
   3 -17  -7   18.90    8.20
  -3 -17   6   76.99    8.50
   3 -17  -6   43.90   10.00
   3 -17  -6   72.09   11.10
   3 -17  -5   13.40    7.00
   3 -17  -5    9.90    7.20
  -3 -17   5   13.20    6.10
   3 -17  -4   87.49   11.70
  -3 -17   4  104.09    8.80
  -3 -17   3   16.00    3.30
   3 -17  -3   17.40    7.70
   3 -17  -3   13.90    6.90
  -3 -17   3   12.40    5.70
  -3 -17   2    2.40    2.40
   3 -17  -2    5.70    5.10
   3 -17  -2    0.40    6.40
  -3 -17   2    6.20    5.60
   3 -17  -2   -2.70    6.00
   3  17  -1    8.70    7.70
  -3 -17   1   12.70    3.10
   3 -17  -1   13.40    5.00
  -3 -17   1   11.40    5.00
   3 -17  -1   14.40    7.70
   3 -17  -1   16.70    6.10
   3  17   0    0.60    6.40
   3 -17   0    0.90    5.80
   3 -17   0   -3.20    3.70
   3 -17   0    2.60    6.60
  -3 -17   0   -6.30    5.00
   3  17   1  185.58   17.80
  -3  17  -1  182.18   13.10
   3 -17   1  236.98   17.30
  -3 -17  -1  216.38   14.60
   3 -17   1  264.17   21.60
   3 -17   1  212.28   11.70
  -3  17  -2    4.40    4.90
   3  17   2    7.60    9.70
  -3 -17  -2   -0.70    3.70
   3 -17   2   -2.10    7.70
   3 -17   2    2.30    2.90
  -3 -17  -2    6.60    5.20
  -3  17  -3   23.40    8.30
   3 -17   3   27.00    3.20
  -3 -17  -3   31.60    6.60
  -3  17  -4   69.89   10.60
  -3 -17  -4   81.69    9.80
  -3 -17  -4   80.99   10.10
  -3  17  -5   67.29   11.90
  -3 -17  -5   44.20    8.10
  -3 -17  -5   47.00    7.70
  -3  17  -6   20.10    9.60
  -3 -17  -6    9.40    6.60
  -3 -17  -6    6.20    6.90
   3 -18  -7   -3.40    8.20
   3 -18  -7    4.40    9.30
   3 -18  -6   -5.20    8.40
  -3 -18   6   -1.00    6.50
   3 -18  -6   23.00    8.80
  -3 -18   5   35.90    7.70
   3 -18  -5   55.49   10.90
   3 -18  -5   62.49   10.20
   3 -18  -4   13.30   12.20
  -3 -18   4   17.00    5.10
   3 -18  -4   16.60    6.80
  -3 -18   3  101.39   11.10
   3 -18  -3   85.99   11.20
   3 -18  -2   46.30    8.00
  -3 -18   2   44.30    7.70
   3 -18  -2   60.49   10.20
   3 -18  -1   44.20   10.00
   3 -18  -1   46.40    6.90
  -3 -18   1   38.80    8.20
   3 -18  -1   44.50    8.60
   3  18   0   64.49   11.30
   3 -18   0   23.50    6.30
   3 -18   0   32.20    8.00
  -3 -18   0   21.70    6.20
   3 -18   0   39.20    6.30
   3  18   1   24.80    7.90
  -3 -18  -1   20.30    6.60
   3 -18   1   20.40    4.60
  -3 -18  -1   16.80    4.50
   3 -18   1   15.20    7.00
  -3  18  -2  136.39   13.30
  -3 -18  -2  144.19   13.40
  -3 -18  -2  157.88   10.90
   3 -18   2  148.29    8.80
   3 -18   2  126.59   15.00
   3 -18   3  130.39    7.40
  -3 -18  -3  146.39   13.60
  -3 -18  -3  146.39   11.00
  -3 -18  -4   26.80    6.30
  -3  18  -5   61.09   11.30
  -3 -18  -5   38.40    7.50
  -3 -18  -5   33.10    7.30
  -3  18  -6   17.10   10.30
  -3 -18  -6    1.90    7.20
  -3 -18  -6   -2.70    6.70
   3 -19  -6   -2.40    8.40
   3 -19  -6   -0.20    9.10
   3 -19  -5   50.19    9.70
   3 -19  -5   50.79   11.40
   3 -19  -4   76.19   12.10
   3 -19  -4   85.09   11.10
   3 -19  -3   13.50   12.00
   3 -19  -3   10.80    6.60
   3 -19  -2    8.90    9.00
   3 -19  -2    9.30    6.40
  -3 -19   1   35.50    8.00
  -3 -19   1   23.70    4.00
   3 -19  -1   20.90   12.50
   3 -19  -1   22.60    8.40
  -3 -19   0   50.59    8.70
   3 -19   0   41.90    6.70
  -3 -19   0   48.80    5.90
   3 -19   0   32.60    9.20
  -3 -19  -1    4.30    4.40
   3 -19   1    1.50    7.10
  -3 -19  -1    1.90    6.10
   3 -19   1   -1.90    4.00
  -3 -19  -2   29.10    6.00
   3 -19   2   27.70    4.30
  -3 -19  -2   38.10    8.50
  -3 -19  -3   11.70    5.70
   3 -19   3    6.10    2.80
  -3 -19  -3   15.80    8.10
  -3 -19  -4   16.50    6.20
  -3 -19  -4    7.80    7.30
  -3 -19  -5   13.30    7.50
  -3 -19  -5   15.80    6.70
   3 -20  -5  -10.00    7.50
  -3 -20   5    3.00    8.00
   3 -20  -5    1.70    8.20
   3 -20  -4   81.69   10.90
  -3 -20   4  100.59   10.10
   3 -20  -4   74.39   12.10
   3 -20  -3    2.30    6.80
  -3 -20   3   -2.20    3.40
  -3 -20   2   -0.30    3.00
   3 -20  -2   -0.70    6.30
   3 -20  -2   -9.70   11.40
   3 -20  -1   22.90    6.60
   3 -20  -1   21.90   10.30
  -3 -20   1   13.90    3.60
   3 -20   0   32.80   10.00
  -3 -20   0   31.10    8.50
  -3 -20   0   18.20    4.50
   3 -20   0   27.10    7.50
  -3 -20  -1   13.10    6.30
   3 -20   1    7.80    9.20
  -3 -20  -1   20.00    5.50
   3 -20   1   21.30    5.20
   3 -20   2  193.18   11.20
  -3 -20  -2  215.88   17.60
  -3 -20  -2  215.18   13.70
  -3 -20  -3   10.70    5.80
  -3 -20  -3    1.50    8.30
  -3 -20  -4   49.90    8.30
  -3 -20  -4   29.80    8.80
   3 -21  -4    3.20   11.40
  -3 -21   4    3.10    5.70
   3 -21  -4   13.60    8.70
   3 -21  -3    5.60   11.90
  -3 -21   3   15.60    4.50
   3 -21  -3    1.10    7.60
   3 -21  -2   95.99   11.20
  -3 -21   2   63.79    7.00
   3 -21  -2   79.09   14.30
   3 -21  -1   18.20    7.10
   3 -21  -1    7.60   11.10
  -3 -21   1   15.90    4.50
  -3 -21   0   45.60    6.30
   3 -21   0   36.40    8.10
   3 -21   0   27.50   12.20
  -3 -21  -1   21.40    5.50
  -3 -21  -2   65.89   10.40
   3 -21   2   53.09    6.00
  -3 -21  -2   63.09    8.30
  -3 -21  -3   -0.90    5.90
   3 -22  -3   18.00    8.90
   3 -22  -3    5.00   10.20
  -3 -22   3    9.00    4.90
  -3 -22   2   16.50    4.40
   3 -22  -2   19.10    8.30
  -3 -22   1   -2.00    3.70
   3 -22  -1   -7.80    6.70
   3 -22  -1   12.90   12.70
  -3 -22   0   23.40    5.40
   3 -22   0    7.50    6.40
  -3 -22  -1  116.79   10.40
  -3 -22  -2    8.80    6.40
   3 -23  -1    0.50    7.10
  -3 -23   1   -7.60    4.30
  -3 -23   0    8.70    5.20
   3 -23   0   20.90    6.90
   4   0 -10  111.19   13.30
   4   0  -9    8.50    8.90
   4   0  -8  140.99   10.70
   4   0  -7    4.50    3.50
   4   0  -6  822.62   33.10
   4   0  -6  807.22   32.20
   4   0  -5    0.00    0.50
   4   0  -5    4.30    2.20
  -4   0   5    1.10    2.20
   4   0  -5    0.70    2.10
   4   0  -4 2258.07   84.19
   4   0  -4 2323.27   85.59
  -4   0   4 2339.97   86.19
   4   0  -3    1.20    1.50
  -4   0   3    0.80    0.90
  -4   0   3    2.00    1.70
   4   0  -3    0.20    0.70
   4   0  -2 2353.06   87.69
  -4   0   2 2362.26   88.59
   4   0  -2 2502.45   88.69
  -4   0   2 2368.86   87.89
  -4   0   1    1.20    0.70
  -4   0   1    1.00    1.10
   4   0  -1    1.40    1.30
   4   0  -1   -0.20    0.70
   4   0   0 2662.83   97.69
  -4   0   0 2602.54   97.79
  -4   0   0 2635.34   97.99
   4   0   0 2751.42   97.69
  -4   0  -1   -1.50    1.60
   4   0   1    0.40    1.30
   4   0   1   -0.40    0.70
  -4   0  -2 3175.28  132.39
  -4   0  -2 3743.63  132.79
   4   0   2 3701.23  132.79
   4   0   2 3855.91  132.49
  -4   0  -3    0.40    1.10
   4   0   3    3.10    1.60
   4   0   3    0.70    1.60
  -4   0  -4    1.70    1.30
  -4   0  -4    3.80    1.00
   4   0   4    4.70    2.10
   4   0   4    1.60    2.00
   4   0   5    3.40    2.70
   4   0   5   -0.90    2.30
  -4   0  -5    1.30    1.20
  -4   0  -5    0.10    1.70
  -4   0  -6  333.17   14.70
  -4   0  -6  335.67   13.30
   4   0   6  333.67   14.60
  -4   0  -7    0.10    1.70
  -4   0  -7    1.70    2.90
   4   0   7   -0.70    3.10
  -4   0  -8   31.20    4.50
  -4   0  -8   26.10    4.10
  -4   0  -9    4.90    4.10
   4   1 -10   23.00    7.60
   4  -1 -10    8.70    7.60
   4   1  -9    2.50    5.40
   4  -1  -9  -11.40    5.40
   4   1  -8  135.29   10.30
   4  -1  -8  117.89   10.50
   4   1  -7   50.99    6.30
   4   1  -7   36.80    4.80
   4  -1  -7   52.89    7.10
   4   1  -6   78.99    5.80
   4   1  -6   71.69    6.30
   4  -1  -6   61.29    6.20
   4  -1  -6   65.79    5.70
   4   1  -5    8.60    2.40
   4   1  -5    7.80    1.00
  -4  -1   5    5.60    2.50
   4  -1  -5    7.00    2.50
  -4   1   4  197.38   10.30
   4   1  -4  224.98    9.90
   4   1  -4  200.28    8.30
   4  -1  -4  214.78    8.40
   4  -1  -4  225.88   10.50
   4  -1  -4  213.38    9.80
   4   1  -3 1619.74   61.69
  -4   1   3 1628.24   62.19
  -4   1   3 1703.03   63.19
   4   1  -3 1719.13   62.99
   4  -1  -3 1643.64   61.69
  -4  -1   3 1756.82   61.79
   4  -1  -3 1689.83   62.69
  -4  -1   3 1692.83   62.99
   4   1  -2 3009.60  105.49
   4   1  -2 2856.61  104.39
  -4   1   2 2982.90  104.79
  -4   1   2 2987.30  105.39
   4  -1  -2 2979.70  105.09
   4  -1  -2 2836.02  104.29
  -4  -1   2 2651.03  105.09
  -4  -1   2 2537.55  104.29
  -4   1   1  219.28    9.60
   4   1  -1  231.88    9.80
   4   1  -1  218.98    9.10
  -4   1   1  209.88    9.40
   4  -1  -1  236.88    9.70
   4  -1  -1  236.18    9.20
  -4  -1   1  207.48    9.70
  -4   1   0  115.59    5.80
   4   1   0  114.09    5.80
   4   1   0  124.69    5.80
  -4   1   0  119.89    5.90
   4  -1   0  135.59    6.10
  -4  -1   0  130.69    6.40
   4  -1   0  129.39    5.80
  -4  -1   0  136.79    5.90
   4   1   1  360.56   15.30
  -4   1  -1  402.46   15.20
   4   1   1  388.96   15.40
  -4  -1  -1  373.26   15.00
   4  -1   1  384.86   14.60
  -4   1  -2  988.20   37.90
   4   1   2  997.30   38.90
  -4   1  -2  998.10   38.40
   4   1   2 1018.20   38.60
  -4  -1  -2  979.20   37.50
  -4  -1  -2  972.40   38.20
   4  -1   2 1086.09   37.90
   4  -1   2 1071.29   38.30
   4   1   3  714.33   28.50
   4   1   3  686.63   28.90
  -4   1  -3  722.03   28.20
  -4   1  -3  747.23   27.20
  -4  -1  -3  700.53   28.00
  -4  -1  -3  716.43   27.20
   4  -1   3  774.42   28.20
   4  -1   3  750.02   27.70
  -4   1  -4    3.60    0.90
  -4   1  -4    2.10    1.50
   4   1   4    2.30    2.30
   4   1   4    3.40    2.00
  -4  -1  -4    0.90    1.10
  -4  -1  -4    2.90    1.60
   4  -1   4    3.10    1.90
   4  -1   4    2.80    1.80
   4   1   5    5.10    3.00
  -4   1  -5    3.10    2.00
  -4   1  -5    1.30    1.00
   4   1   5   -0.80    2.70
  -4  -1  -5    3.40    1.50
   4  -1   5    3.70    2.10
  -4  -1  -5   -0.10    1.50
   4  -1   5    1.90    2.20
   4   1   6    5.60    3.30
  -4   1  -6    5.80    2.40
  -4  -1  -6    9.40    2.30
   4  -1   6    9.60    2.70
  -4  -1  -6    6.60    1.90
  -4   1  -7  189.28    7.90
  -4   1  -7  179.58    9.80
  -4   1  -7  181.38   11.40
   4   1   7  187.78   10.60
  -4  -1  -7  211.28   12.10
  -4  -1  -7  208.58    9.00
  -4   1  -8   48.60    6.30
  -4  -1  -8   33.60    4.60
  -4  -1  -8   40.20    4.30
  -4   1  -9    7.20    4.30
  -4  -1  -9    7.90    4.00
   4   2 -10  -10.90    6.10
   4  -2 -10   -4.00    7.50
   4   2  -9   15.00    5.80
   4  -2  -9   14.20    6.70
   4   2  -8   38.30    5.80
   4  -2  -8   30.40    6.20
   4   2  -7  193.48   10.90
   4   2  -7  201.58   11.30
   4  -2  -7  200.48   12.30
   4   2  -6  183.48   10.00
   4   2  -6  171.68    9.40
   4  -2  -6  193.78    8.00
  -4  -2   6  179.68   10.00
   4  -2  -6  163.08    9.60
   4  -2  -6  182.28    7.20
   4  -2  -6  170.38   10.50
   4   2  -5  277.07   12.70
   4   2  -5  276.17   10.90
  -4  -2   5  286.37   13.00
   4  -2  -5  280.17   13.50
   4  -2  -5  273.67   10.90
   4  -2  -5  275.97   12.60
   4   2  -4   95.89    4.60
   4   2  -4   89.99    5.90
  -4  -2   4  109.09    6.20
   4  -2  -4  100.89    5.80
   4  -2  -4   92.29    6.10
   4  -2  -4  102.09    4.60
   4   2  -3   21.20    2.80
   4   2  -3   18.00    1.80
  -4   2   3   19.20    2.30
  -4   2   3   15.70    2.50
  -4  -2   3   19.20    2.60
  -4  -2   3   18.20    1.60
   4  -2  -3   20.10    1.70
   4  -2  -3   18.10    2.40
  -4   2   2 2170.28   79.69
   4   2  -2 2080.99   79.09
  -4   2   2 2224.48   80.09
   4   2  -2 2186.78   80.09
   4  -2  -2 2136.89   79.09
   4  -2  -2 2198.78   79.59
  -4  -2   2 2081.19   78.89
  -4   2   1  792.82   29.70
   4   2  -1  767.52   29.30
   4   2  -1  806.72   29.40
  -4   2   1  788.92   29.70
   4  -2  -1  767.62   29.40
  -4  -2   1  778.92   30.00
   4  -2  -1  711.43   29.00
  -4   2   0   23.10    2.70
   4   2   0   32.30    2.50
  -4   2   0   23.80    2.50
   4   2   0   31.50    2.10
  -4  -2   0   23.20    2.60
  -4  -2   0   28.60    2.10
   4  -2   0   24.90    2.50
   4  -2   0   28.00    2.20
   4   2   1  245.78   10.30
   4   2   1  250.47   10.00
  -4   2  -1  221.08   10.30
  -4   2  -1  218.38    9.50
  -4  -2  -1  221.48    9.40
   4  -2   1  239.18    9.90
   4  -2   1  249.68    9.40
   4   2   2   10.90    2.00
  -4   2  -2    8.00    1.50
   4   2   2    7.90    1.80
  -4   2  -2   12.00    1.50
   4  -2   2    9.50    1.70
  -4  -2  -2    8.60    1.50
   4  -2   2   10.60    1.30
  -4  -2  -2   12.50    1.50
  -4   2  -3 2294.47   85.29
   4   2   3 2399.06   86.99
  -4   2  -3 2181.18   86.39
   4   2   3 2367.46   86.59
  -4  -2  -3 2253.17   85.99
   4  -2   3 2344.77   85.49
   4  -2   3 2491.25   86.19
  -4  -2  -3 2306.27   85.49
  -4   2  -4  440.86   19.20
   4   2   4  467.85   19.90
  -4   2  -4  455.35   17.80
   4   2   4  465.25   19.70
  -4  -2  -4  484.25   18.50
   4  -2   4  482.25   19.00
  -4  -2  -4  474.85   19.00
   4  -2   4  483.45   18.30
  -4   2  -5 1128.19   41.40
   4   2   5 1141.39   43.80
   4   2   5 1072.69   44.30
  -4   2  -5 1061.09   43.30
   4  -2   5 1143.49   43.80
  -4  -2  -5 1161.68   42.50
   4  -2   5 1141.29   41.90
  -4  -2  -5 1157.58   43.00
  -4   2  -6  214.78    8.40
   4   2   6  209.48   11.50
  -4   2  -6  197.98   10.80
  -4   2  -6  214.28    9.00
  -4  -2  -6  227.78   10.40
  -4  -2  -6  225.88    9.90
  -4   2  -7  106.29    5.30
   4   2   7  117.39    9.00
  -4   2  -7  112.49    4.70
  -4   2  -7  111.69    8.10
  -4  -2  -7  111.79    7.80
  -4  -2  -7  121.19    6.60
  -4   2  -8  114.09    8.90
  -4  -2  -8  120.79    7.70
  -4  -2  -8  109.79    7.00
  -4   2  -9  214.88   13.30
  -4  -2  -9  216.98   11.80
   4   3 -10   16.20    7.20
   4  -3 -10   19.90    8.30
   4   3  -9   -5.90    5.00
   4  -3  -9    6.80    6.60
   4   3  -8   23.50    5.00
   4  -3  -8   13.10    5.70
   4   3  -7   47.60    5.70
   4   3  -7   59.29    6.30
   4  -3  -7   52.39    3.10
   4  -3  -7   51.09    6.70
   4  -3  -7   51.49    3.50
   4   3  -6    2.50    3.10
   4  -3  -6    2.70    1.30
   4  -3  -6    8.00    3.40
   4  -3  -6    6.20    2.00
  -4  -3   6    4.00    2.80
   4  -3  -6    5.00    3.30
   4   3  -5   76.19    6.00
   4   3  -5   70.49    4.00
  -4  -3   5   77.99    5.70
   4  -3  -5   64.89    5.60
   4  -3  -5   78.79    6.40
   4  -3  -5   70.59    4.00
   4   3  -4  757.52   30.30
   4   3  -4  753.92   28.90
   4  -3  -4  751.22   30.00
  -4  -3   4  767.02   30.10
  -4  -3   4  797.62   28.20
   4  -3  -4  752.32   30.70
  -4   3   3  196.68    9.20
   4   3  -3  221.08    9.80
   4   3  -3  210.08    8.70
   4  -3  -3  198.08    8.60
   4  -3  -3  203.78    9.40
   4  -3  -3  196.18    9.80
  -4  -3   3  207.18    8.10
  -4  -3   3  184.88    9.30
  -4   3   2 1847.12   71.59
  -4   3   2 1950.20   71.49
   4   3  -2 2038.90   71.29
   4   3  -2 1945.61   70.99
  -4  -3   2 1854.61   70.39
   4  -3  -2 1870.81   70.79
   4  -3  -2 1974.50   71.79
   4  -3  -2 1961.30   71.19
  -4  -3   2 1832.22   71.59
   4   3  -1  392.66   16.00
   4   3  -1  429.56   15.70
  -4   3   1  407.96   16.40
  -4   3   1  405.76   16.30
  -4  -3   1  357.46   15.40
  -4  -3   1  382.76   16.50
   4  -3  -1  399.36   15.80
   4  -3  -1  419.96   15.90
   4   3   0 5582.94  206.78
   4   3   0 5742.33  207.38
  -4   3   0 5835.42  207.58
  -4   3   0 5616.34  207.58
  -4  -3   0 5516.65  206.68
   4  -3   0 5734.33  206.68
   4  -3   0 5666.83  206.88
  -4  -3   0 5683.23  206.88
   4   3   1  467.65   17.90
  -4   3  -1  425.46   18.10
   4   3   1  473.95   18.30
  -4   3  -1  447.86   17.20
  -4  -3  -1  402.56   17.00
   4  -3   1  461.65   17.60
   4  -3   1  441.96   17.30
   4   3   2  229.18   10.10
   4   3   2  217.98   10.20
  -4   3  -2  209.98    9.90
  -4   3  -2  213.68    8.70
   4  -3   2  213.48    8.50
  -4  -3  -2  206.38    9.30
   4  -3   2  222.58    9.40
  -4  -3  -2  218.58    9.00
   4   3   3   13.70    2.90
   4   3   3   12.30    2.60
  -4   3  -3    9.50    2.30
  -4   3  -3    9.20    1.10
  -4  -3  -3   10.70    1.70
   4  -3   3    9.80    1.30
  -4  -3  -3    6.20    1.50
   4  -3   3   12.40    2.00
  -4   3  -4  614.64   25.90
   4   3   4  645.84   26.30
   4   3   4  671.23   26.80
  -4  -3  -4  633.54   25.20
   4  -3   4  637.84   24.00
   4  -3   4  667.93   25.40
  -4  -3  -4  657.83   25.20
   4   3   5   36.10    6.40
  -4   3  -5   31.50    4.10
   4   3   5   37.30    5.00
  -4  -3  -5   30.40    3.60
  -4  -3  -5   29.00    3.40
  -4   3  -6  310.77   15.70
   4   3   6  355.46   16.40
  -4  -3  -6  347.47   14.80
  -4  -3  -6  341.97   14.60
  -4   3  -7   14.50    3.70
   4   3   7   20.30    5.50
  -4  -3  -7    9.50    2.70
  -4  -3  -7   15.50    3.10
  -4   3  -8   37.70    5.70
  -4  -3  -8   36.50    4.40
  -4  -3  -8   28.00    4.20
  -4   3  -9   -2.00    4.60
  -4  -3  -9    4.10    3.20
   4   4 -10   16.10    7.10
   4  -4 -10    3.70    8.10
   4   4  -9   69.89    8.10
   4  -4  -9   68.79    9.60
   4   4  -8   69.99    7.80
   4  -4  -8   78.59    4.30
   4  -4  -8   79.69   11.10
   4  -4  -8   82.09    4.30
   4   4  -7  141.09    9.90
   4   4  -7  161.28    9.40
   4  -4  -7  147.19    7.40
   4  -4  -7  145.19    7.00
  -4  -4   7  163.58    9.80
   4  -4  -7  149.19   11.10
   4   4  -6   50.89    5.90
   4  -4  -6   53.49    4.60
  -4  -4   6   51.59    5.60
   4  -4  -6   53.69    6.90
   4  -4  -6   52.79    3.90
   4   4  -5 1133.39   42.60
   4   4  -5 1079.99   43.90
   4  -4  -5 1146.69   42.80
   4  -4  -5 1129.49   45.00
  -4  -4   5 1217.68   44.10
   4  -4  -5 1106.69   44.00
   4   4  -4  350.26   14.50
   4   4  -4  352.86   15.40
  -4  -4   4  369.26   15.40
   4  -4  -4  357.76   14.60
   4  -4  -4  355.06   15.50
   4  -4  -4  348.17   16.20
  -4  -4   4  356.66   13.50
   4   4  -3  938.41   36.00
   4   4  -3 1005.80   36.30
  -4   4   3  971.70   36.60
   4  -4  -3  988.00   36.10
  -4  -4   3  972.70   35.10
  -4  -4   3  795.42   36.30
   4  -4  -3  991.10   36.60
   4  -4  -3  921.91   37.10
  -4   4   2   17.60    2.50
   4   4  -2   21.00    2.40
   4   4  -2   19.40    2.10
  -4  -4   2   19.60    1.70
   4  -4  -2   20.30    2.60
  -4  -4   2   19.20    2.80
   4  -4  -2   20.60    2.20
   4  -4  -2   16.20    2.60
  -4   4   1   11.20    2.20
   4   4  -1    6.10    1.50
   4   4  -1    8.80    1.50
  -4  -4   1    7.40    1.80
   4  -4  -1    5.90    1.40
   4  -4  -1    7.80    1.80
  -4  -4   1    6.50    1.10
   4  -4  -1    7.40    1.40
  -4   4   0  127.59    6.50
   4   4   0  152.28    6.70
   4   4   0  144.99    7.20
  -4   4   0  136.39    7.20
   4  -4   0  130.29    6.40
   4  -4   0  132.39    6.20
   4  -4   0  134.09    6.60
  -4  -4   0  145.89    6.40
  -4  -4   0  144.29    6.20
   4   4   1 3077.09  110.39
  -4   4  -1 2931.21  108.99
   4   4   1 3122.89  109.89
  -4  -4  -1 2828.52  108.89
  -4  -4  -1 2771.42  109.49
   4  -4   1 3004.40  108.99
   4  -4   1 3106.69  109.39
   4   4   2  164.08    8.40
  -4   4  -2  154.78    6.40
  -4   4  -2  148.29    7.90
   4   4   2  149.88    8.00
  -4  -4  -2  146.09    7.10
  -4  -4  -2  151.28    6.90
   4  -4   2  164.08    7.20
   4  -4   2  151.78    6.10
  -4   4  -3  345.27   15.50
   4   4   3  353.46   15.70
   4   4   3  361.06   16.00
  -4  -4  -3  363.06   14.60
  -4  -4  -3  360.66   14.60
   4  -4   3  358.86   14.70
   4  -4   3  347.47   13.30
   4   4   4  712.13   28.70
  -4   4  -4  656.63   28.20
   4   4   4  694.93   28.90
   4  -4   4  730.33   27.30
  -4  -4  -4  699.83   27.30
  -4  -4  -4  707.73   27.30
   4   4   5   -0.50    3.90
  -4   4  -5    3.90    2.50
  -4  -4  -5    6.20    2.00
  -4  -4  -5    6.30    2.20
   4   4   6   74.79    8.50
  -4  -4  -6   92.09    6.00
  -4  -4  -6   89.89    6.20
   4   4   7   -0.70    5.70
  -4   4  -7   -1.50    3.40
  -4  -4  -7    0.20    2.10
  -4  -4  -7    4.90    3.00
  -4   4  -8   30.40    5.70
  -4  -4  -8   31.10    4.10
  -4  -4  -8   33.70    4.50
  -4   4  -9    5.50    5.40
  -4  -4  -9   -2.40    3.40
   4   5 -10    1.00    7.90
   4  -5 -10    8.70    8.50
   4   5  -9  174.48   12.50
   4  -5  -9  178.98    7.40
   4  -5  -9  183.18   15.10
   4  -5  -9  168.18    8.30
   4   5  -8   91.09    8.30
   4  -5  -8   83.89    5.50
   4  -5  -8   79.79   10.40
   4  -5  -8   89.79    5.40
   4   5  -7  318.27   15.80
   4  -5  -7  358.06   17.90
  -4  -5   7  323.77   15.90
   4  -5  -7  338.27   14.50
   4  -5  -7  325.47   14.10
   4   5  -6  224.88   11.80
   4  -5  -6  243.38   10.90
  -4  -5   6  247.28   12.10
   4  -5  -6  248.08   11.50
   4  -5  -6  238.98   13.50
   4   5  -5 1559.24   59.39
   4   5  -5 1586.14   58.79
   4  -5  -5 1587.34   61.09
   4  -5  -5 1575.24   58.99
   4  -5  -5 1564.34   59.69
  -4  -5   5 1604.34   59.69
   4  -5  -5 1515.15   59.99
   4   5  -4  493.45   19.50
   4   5  -4  490.35   19.50
   4  -5  -4  495.65   20.30
  -4  -5   4  475.55   19.90
  -4  -5   4  454.85   18.30
   4  -5  -4  475.75   19.50
   4  -5  -4  466.55   20.80
  -4  -5   4  498.85   19.10
   4   5  -3  134.39    6.30
  -4   5   3  121.29    7.20
   4   5  -3  125.29    6.70
  -4  -5   3  125.59    7.30
  -4  -5   3  134.79    5.60
   4  -5  -3  126.19    6.60
   4  -5  -3  125.49    7.10
   4  -5  -3  128.99    7.70
   4   5  -2   66.79    4.50
   4   5  -2   68.19    3.80
  -4  -5   2   66.19    3.60
  -4  -5   2   59.49    4.80
   4  -5  -2   73.39    4.60
   4  -5  -2   69.79    4.30
   4  -5  -2   61.19    4.90
   4   5  -1  568.24   22.50
  -4   5   1  548.35   22.70
   4   5  -1  559.54   21.70
   4  -5  -1  567.14   21.80
  -4  -5   1  554.84   21.80
   4  -5  -1  563.54   22.30
  -4  -5   1  528.85   21.50
   4  -5  -1  563.04   22.10
  -4   5   0  869.91   34.10
   4   5   0  891.31   33.40
   4  -5   0  887.01   33.30
   4  -5   0  824.42   33.40
  -4  -5   0  854.31   32.60
   4  -5   0  895.91   33.30
  -4  -5   0  856.61   33.10
   4   5   1 1618.44   57.19
   4   5   1 1563.64   57.69
   4  -5   1 1479.55   56.09
  -4  -5  -1 1437.26   55.99
   4  -5   1 1488.25   55.69
   4  -5   1 1554.94   56.59
  -4  -5  -1 1449.15   56.49
   4   5   2  442.66   19.60
   4   5   2  475.55   19.40
  -4   5  -2  469.55   19.50
   4  -5   2  490.25   17.30
   4  -5   2  454.35   17.60
  -4  -5  -2  440.36   18.40
  -4  -5  -2  454.85   18.20
   4  -5   2  448.66   18.30
   4   5   3  348.67   15.80
  -4   5  -3  361.06   15.80
   4   5   3  358.86   16.30
  -4  -5  -3  339.07   14.50
   4  -5   3  357.36   14.50
  -4  -5  -3  338.87   14.60
   4   5   4  309.47   14.80
   4   5   4  305.87   15.20
  -4   5  -4  319.77   14.60
   4  -5   4  292.67   13.10
  -4  -5  -4  320.97   13.50
  -4  -5  -4  306.57   13.20
  -4   5  -5  263.97   13.10
   4   5   5  242.78   13.70
  -4  -5  -5  255.27   11.90
  -4  -5  -5  262.37   11.60
  -4   5  -6   55.39    6.60
   4   5   6   51.89    6.90
  -4  -5  -6   53.99    5.40
  -4   5  -7   35.40    5.70
   4   5   7   42.00    9.00
  -4  -5  -7   38.70    4.70
  -4  -5  -7   26.10    3.70
  -4   5  -8   31.60    6.00
  -4  -5  -8   24.60    3.90
  -4  -5  -8   21.40    4.60
  -4   5  -9   -1.30    5.50
  -4  -5  -9    7.90    3.60
   4  -6 -10   12.30    9.00
   4   6  -9   13.90    5.30
   4  -6  -9   16.90    3.20
   4  -6  -9   29.10    8.60
   4  -6  -9   28.20    3.50
   4   6  -8   56.99    7.30
   4  -6  -8   60.09    5.50
   4  -6  -8   54.29    5.10
   4  -6  -8   57.29    8.80
   4   6  -7  275.17   13.70
   4  -6  -7  296.17   13.20
  -4  -6   7  299.07   14.60
   4  -6  -7  291.57   16.60
   4   6  -6    3.70    2.70
   4  -6  -6    9.70    4.10
  -4  -6   6    9.00    3.20
   4  -6  -6    6.60    2.50
   4  -6  -6    8.10    3.00
   4   6  -5  249.58   11.60
   4   6  -5  247.98   11.30
  -4  -6   5  275.97   12.30
   4  -6  -5  255.57   11.80
  -4  -6   5  257.67    9.70
  -4  -6   5  255.57   10.20
   4  -6  -5  258.57   12.60
   4  -6  -5  232.78   12.80
   4  -6  -5  241.98   13.70
   4   6  -4   43.50    3.40
   4   6  -4   53.19    4.70
   4  -6  -4   46.70    4.30
   4  -6  -4   49.80    5.30
  -4  -6   4   49.80    4.10
   4  -6  -4   51.39    5.90
  -4  -6   4   39.70    4.50
  -4  -6   4   43.90    2.80
  -4   6   3 1612.44   61.09
   4   6  -3 1629.54   59.59
   4   6  -3 1566.24   60.59
  -4  -6   3 1586.64   60.99
  -4  -6   3 1621.04   59.39
   4  -6  -3 1622.64   60.79
   4  -6  -3 1642.34   60.49
   4  -6  -3 1549.94   61.29
   4   6  -2  183.98    8.20
   4   6  -2  183.78    9.20
   4  -6  -2  195.78    9.10
   4  -6  -2  194.78    9.60
   4  -6  -2  181.08    9.00
  -4  -6   2  171.18    8.10
  -4  -6   2  186.88    9.20
  -4   6   1 2493.85   95.89
   4   6  -1 2485.05   95.59
   4   6  -1 2641.24   94.79
  -4  -6   1 2558.24   94.49
   4  -6  -1 2681.43   95.29
   4  -6  -1 2512.25   95.29
   4  -6  -1 2637.84   94.89
  -4  -6   1 2515.05   94.69
   4   6   0 1404.76   53.49
   4   6   0 1448.16   52.79
  -4   6   0 1354.86   53.49
  -4  -6   0 1381.46   52.39
   4  -6   0 1375.66   51.99
   4  -6   0 1461.05   52.69
  -4  -6   0 1340.47   51.79
   4  -6   0 1392.76   52.49
   4   6   1 1095.69   43.70
   4   6   1 1109.99   43.10
   4  -6   1 1154.18   42.70
   4  -6   1 1125.49   42.10
  -4  -6  -1 1106.09   42.00
  -4  -6  -1 1097.39   42.60
   4  -6   1 1147.89   41.60
  -4   6  -2  735.03   29.90
   4   6   2  761.02   29.80
   4   6   2  748.53   30.20
  -4  -6  -2  727.33   28.80
   4  -6   2  717.83   27.70
   4  -6   2  710.53   27.50
  -4  -6  -2  734.33   28.50
   4  -6   2  769.42   28.70
   4   6   3  113.09    8.00
  -4   6  -3  107.99    7.30
   4   6   3  115.49    7.70
  -4  -6  -3  109.79    6.20
   4  -6   3  105.89    5.90
  -4  -6  -3  111.69    6.20
  -4   6  -4    5.90    2.80
   4   6   4    7.20    3.80
   4   6   4    8.60    3.90
   4  -6   4    5.00    2.10
  -4  -6  -4   10.70    2.20
  -4  -6  -4   10.20    2.50
   4   6   5   71.99    8.70
  -4   6  -5   86.09    7.30
  -4  -6  -5   77.99    5.50
  -4  -6  -5   80.29    6.10
  -4   6  -6   -1.70    3.30
   4   6   6    0.70    6.20
  -4  -6  -6    1.20    2.70
  -4  -6  -6    4.40    2.90
  -4   6  -7   12.40    4.80
  -4  -6  -7   14.30    4.00
  -4  -6  -7   14.00    3.20
  -4   6  -8  166.08   12.60
  -4  -6  -8  162.28    9.40
  -4  -6  -8  172.38   10.70
  -4   6  -9   27.70    6.70
  -4  -6  -9   20.10    4.20
  -4  -6  -9   22.80    5.70
   4  -7 -10   22.00    9.50
   4  -7 -10    4.40    2.10
   4  -7 -10   -0.40    3.30
   4   7  -9    2.80    5.10
   4  -7  -9    0.50    2.60
   4  -7  -9    1.10    3.40
   4  -7  -9   -1.60    7.70
   4   7  -8   51.09    6.80
  -4  -7   8   29.40    5.60
   4  -7  -8   32.10    4.40
   4  -7  -8   23.60    7.00
   4  -7  -8   22.90    4.00
   4   7  -7   -1.70    2.70
   4  -7  -7   -2.40    2.80
  -4  -7   7    4.00    3.40
   4  -7  -7    1.80    3.00
   4  -7  -7    3.10    4.80
   4   7  -6   17.80    2.80
  -4  -7   6   32.90    4.40
   4  -7  -6   14.90    3.50
   4  -7  -6   20.10    3.90
   4  -7  -6   26.20    5.40
   4   7  -5   15.50    2.40
   4   7  -5   15.10    3.00
   4  -7  -5   12.50    3.20
  -4  -7   5   16.70    3.20
  -4  -7   5   15.70    2.40
   4  -7  -5    7.90    4.00
   4  -7  -5   13.80    3.30
  -4  -7   5   12.30    1.50
   4   7  -4  112.09    5.80
   4   7  -4  108.69    7.80
  -4  -7   4   92.99    6.90
   4  -7  -4  120.69    7.80
   4  -7  -4  129.69    8.40
   4  -7  -4  124.39    7.10
  -4  -7   4  114.09    6.80
  -4  -7   4  112.59    5.40
   4   7  -3 1142.69   43.10
   4   7  -3 1148.99   44.40
  -4   7   3 1162.48   44.90
   4  -7  -3 1108.59   44.90
  -4  -7   3 1167.18   43.00
   4  -7  -3 1136.39   44.20
   4  -7  -3 1170.18   44.40
  -4  -7   3 1113.29   44.40
  -4   7   2  482.95   21.20
   4   7  -2  496.05   20.90
   4   7  -2  493.25   19.70
  -4  -7   2  492.35   19.70
   4  -7  -2  512.75   20.60
   4  -7  -2  482.45   20.90
   4  -7  -2  481.15   20.30
  -4  -7   2  501.95   20.10
  -4   7   1 2373.76   91.79
   4   7  -1 2562.64   90.69
   4   7  -1 2391.66   91.49
  -4  -7   1 2385.16   90.49
   4  -7  -1 2484.05   90.99
   4  -7  -1 2533.25   90.59
  -4  -7   1 2406.36   89.89
   4  -7  -1 2389.06   90.99
   4   7   0  704.73   27.00
   4   7   0  676.13   27.70
   4  -7   0  679.63   26.90
  -4  -7   0  672.23   25.90
   4  -7   0  641.94   26.60
   4  -7   0  666.03   26.10
  -4  -7   0  682.83   26.70
   4   7   1 1737.03   63.39
  -4   7  -1 1644.94   63.79
   4   7   1 1719.43   64.09
  -4  -7  -1 1700.83   62.79
   4  -7   1 1664.73   62.59
   4  -7   1 1736.23   61.59
  -4  -7  -1 1613.44   61.99
   4  -7   1 1516.75   62.59
  -4   7  -2    4.50    2.50
   4   7   2    6.60    3.30
   4   7   2    4.70    3.00
  -4  -7  -2    4.90    2.10
  -4  -7  -2    4.40    1.60
   4  -7   2    4.70    1.70
   4  -7   2    5.50    1.50
   4  -7   2    4.00    1.10
   4   7   3  548.55   24.00
  -4   7  -3  562.84   23.50
   4   7   3  515.95   23.30
  -4  -7  -3  556.04   22.20
   4  -7   3  517.55   21.60
  -4  -7  -3  550.74   22.10
   4   7   4 1223.68   48.60
  -4   7  -4 1234.98   48.40
   4   7   4 1226.38   49.10
  -4  -7  -4 1254.17   46.90
   4  -7   4 1134.79   46.30
  -4  -7  -4 1265.07   47.10
  -4   7  -5    2.50    3.40
   4   7   5   -3.10    5.10
  -4  -7  -5    1.60    2.10
  -4  -7  -5   -2.30    2.70
  -4  -7  -6   31.50    4.40
  -4  -7  -6   34.20    4.80
  -4   7  -7  284.27   16.30
  -4  -7  -7  296.57   14.70
  -4  -7  -7  298.77   13.70
  -4   7  -8   12.00    6.10
  -4  -7  -8   17.90    3.90
  -4   7  -9   22.10    8.30
  -4  -7  -9   44.40    6.60
  -4  -7  -9   25.70    4.30
   4  -8 -10   -0.70    4.10
   4  -8 -10   -1.00    2.50
   4  -8 -10    7.70    9.50
   4   8  -9    7.80    5.20
   4  -8  -9    5.20    4.10
   4  -8  -9    1.50    3.20
   4  -8  -9    6.50    8.00
   4  -8  -8    9.60    3.60
   4  -8  -8    0.40    6.60
   4  -8  -8   15.00    4.20
  -4  -8   8    8.40    4.70
   4   8  -7   35.40    4.70
   4  -8  -7   37.20    5.00
   4  -8  -7   40.40    7.10
  -4  -8   7   43.00    5.60
   4  -8  -7   39.20    6.90
   4   8  -6    8.90    2.40
  -4  -8   6   12.60    3.50
   4  -8  -6   15.90    3.80
   4  -8  -6    4.80    4.60
   4   8  -5  257.37   12.50
   4   8  -5  248.98   11.00
  -4  -8   5  250.47   11.50
   4  -8  -5  241.38   13.80
   4  -8  -5  243.18   12.50
  -4  -8   5  241.98   12.30
  -4  -8   5  260.67   10.20
   4  -8  -5  270.67   13.50
  -4   8   4   29.30    4.40
   4   8  -4   37.30    5.20
   4   8  -4   40.30    3.40
   4  -8  -4   39.60    4.80
   4  -8  -4   45.60    5.90
  -4  -8   4   35.90    4.50
   4  -8  -4   36.60    4.90
  -4  -8   4   38.00    3.10
  -4  -8   4   38.60    4.70
  -4   8   3   61.39    5.70
   4   8  -3   68.39    4.30
   4   8  -3   57.69    5.60
  -4   8   3   56.19    5.90
   4  -8  -3   58.69    5.70
   4  -8  -3   61.09    5.50
   4  -8  -3   63.99    6.30
  -4  -8   3   63.49    5.70
  -4  -8   3   60.89    4.30
   4   8  -2  650.73   24.80
   4   8  -2  614.14   25.90
  -4   8   2  613.34   26.30
  -4   8   2  645.84   25.40
  -4  -8   2  662.53   24.80
   4  -8  -2  608.04   25.80
  -4  -8   2  581.54   24.60
   4  -8  -2  633.34   25.60
   4  -8  -2  594.54   25.10
   4   8  -1   72.59    5.30
   4   8  -1   64.89    5.90
  -4   8   1   77.99    5.20
  -4   8   1   74.09    6.50
   4  -8  -1   62.39    5.30
  -4  -8   1   70.19    4.10
   4  -8  -1   78.49    5.20
   4  -8  -1   71.99    5.50
  -4  -8   1   69.49    5.00
   4   8   0  197.58   10.70
   4   8   0  202.18    9.90
  -4   8   0  195.68   10.80
  -4  -8   0  188.98    8.50
   4  -8   0  183.48    9.50
   4  -8   0  184.48    9.30
  -4  -8   0  180.28    9.30
   4  -8   0  191.58    8.90
   4   8   1  103.59    6.80
  -4   8  -1   99.69    7.60
  -4  -8  -1  105.09    5.70
  -4  -8  -1   95.69    6.40
   4  -8   1  102.99    5.90
   4  -8   1   99.99    5.30
   4  -8   1   99.69    6.20
   4   8   2  155.58    9.60
  -4   8  -2  173.58   10.10
   4  -8   2  163.68    6.80
  -4  -8  -2  165.98    8.30
  -4  -8  -2  164.18    8.80
   4  -8   2  167.08    8.40
   4  -8   2  163.68    7.40
  -4   8  -3   70.69    6.70
   4   8   3   60.19    7.20
   4   8   3   59.29    7.60
  -4  -8  -3   67.29    5.40
  -4  -8  -3   75.69    5.30
   4  -8   3   63.39    4.60
  -4   8  -4  752.92   30.90
   4   8   4  715.03   31.50
   4   8   4  709.23   31.00
   4  -8   4  665.33   28.30
  -4  -8  -4  750.82   29.30
  -4  -8  -4  745.53   29.10
  -4   8  -5  520.15   23.00
  -4  -8  -5  477.75   21.20
  -4  -8  -5  485.75   20.80
  -4  -8  -6   92.29    7.80
  -4   8  -7   46.80    7.30
  -4  -8  -7   40.90    5.30
  -4  -8  -7   34.00    5.60
  -4   8  -8  178.78   14.00
  -4  -8  -8  142.69   11.20
  -4  -8  -8  164.88    9.50
   4  -9 -10   13.40   10.20
   4   9  -9   60.69    7.30
   4  -9  -9   45.70    5.50
   4  -9  -9   57.59    8.00
   4  -9  -9   61.49   10.80
  -4  -9   8  236.38   13.20
   4  -9  -8  232.48   16.80
   4  -9  -8  215.28   12.70
   4  -9  -8  208.68   12.10
   4   9  -7   40.80    5.60
   4  -9  -7   40.10    7.80
  -4  -9   7   51.99    5.90
   4  -9  -7   44.70    6.00
   4   9  -6   51.49    4.70
  -4  -9   6   51.49    6.20
   4  -9  -6   43.90    7.30
  -4  -9   6   50.79    2.90
   4  -9  -6   49.90    6.60
   4   9  -5   23.50    4.20
   4   9  -5   20.20    2.90
  -4  -9   5   20.50    2.40
   4  -9  -5   20.80    5.30
   4  -9  -5   25.80    4.40
  -4  -9   5   20.60    3.70
   4  -9  -5   24.80    4.90
  -4   9   4    5.60    3.50
   4   9  -4   -1.90    2.90
   4   9  -4    1.00    1.80
  -4  -9   4    1.50    2.90
   4  -9  -4   -0.20    3.00
  -4  -9   4   -3.40    2.80
   4  -9  -4    0.60    3.40
  -4  -9   4   -0.70    1.70
   4  -9  -4   -5.00    2.40
   4   9  -3   30.60    3.50
  -4   9   3   26.40    4.20
   4   9  -3   32.60    4.80
   4  -9  -3   31.60    4.90
  -4  -9   3   27.90    3.90
   4  -9  -3   28.00    3.70
  -4  -9   3   29.80    3.40
   4   9  -2 2244.88   85.49
  -4   9   2 2264.17   84.59
   4   9  -2 2335.57   84.09
  -4   9   2 2195.28   85.69
   4  -9  -2 2107.49   84.99
  -4  -9   2 2322.97   83.59
   4  -9  -2 2282.97   84.99
  -4   9   1  204.28    9.90
  -4   9   1  191.58   11.50
   4   9  -1  210.08   11.30
   4   9  -1  199.58   10.00
  -4  -9   1  198.08    8.90
   4  -9  -1  201.58   10.50
   4  -9  -1  200.28   10.40
  -4  -9   1  202.98   10.10
  -4   9   0  231.48   10.20
   4   9   0  225.28   11.30
  -4   9   0  212.88   12.20
   4   9   0  234.28   12.50
  -4  -9   0  218.98   11.00
   4  -9   0  221.08   12.60
   4  -9   0  212.88   10.10
   4  -9   0  210.38   10.60
  -4  -9   0  211.18    9.60
   4   9   1 1089.99   43.30
   4   9   1 1048.20   42.10
  -4   9  -1 1072.09   43.00
  -4  -9  -1 1045.00   41.60
   4  -9   1 1098.29   40.30
   4  -9   1 1057.69   40.80
  -4  -9  -1 1045.60   40.70
   4  -9   1 1077.09   41.60
   4   9   2    5.60    3.50
  -4   9  -2    8.40    3.40
   4   9   2    6.10    3.60
   4  -9   2   11.20    2.00
  -4  -9  -2   13.00    3.90
  -4  -9  -2    9.00    2.30
   4  -9   2   10.00    2.70
   4  -9   2   10.10    1.60
   4   9   3  101.59    9.40
   4   9   3  110.79    9.40
  -4   9  -3  111.29    8.90
  -4  -9  -3  109.49    6.90
   4  -9   3  109.99    6.40
  -4  -9  -3  106.19    7.20
   4   9   4  261.97   15.90
  -4   9  -4  265.97   14.90
  -4  -9  -4  273.07   13.10
  -4  -9  -4  274.37   13.00
  -4   9  -5    8.50    4.30
  -4  -9  -5    0.40    2.10
  -4  -9  -5    1.80    3.10
  -4  -9  -6   51.59    6.90
  -4   9  -7    1.90    5.40
  -4  -9  -7    6.20    3.20
  -4  -9  -7    7.20    4.50
  -4   9  -8   24.30    7.20
  -4  -9  -8   21.90    4.20
  -4  -9  -8   19.70    5.90
   4  10  -9   10.00    5.60
   4 -10  -9    5.80    9.00
   4 -10  -9   12.80    4.30
   4 -10  -8   87.49   11.50
   4 -10  -8   83.39    9.30
  -4 -10   8   89.89    9.30
   4 -10  -8   90.99    8.60
   4 -10  -7    8.80    4.50
  -4 -10   7   22.10    4.80
   4 -10  -7   18.80    6.50
   4  10  -6  329.87   15.50
  -4 -10   6  400.16   17.10
  -4 -10   6  359.66   14.30
   4  10  -5   41.20    4.60
   4 -10  -5   52.19    6.50
  -4 -10   5   48.60    4.20
   4 -10  -5   51.79    6.90
   4 -10  -5   42.40    6.90
  -4 -10   5   33.60    4.90
   4  10  -4  526.75   21.90
   4  10  -4  528.55   23.70
  -4 -10   4  541.95   21.90
   4 -10  -4  516.95   23.40
  -4 -10   4  545.85   23.50
   4 -10  -4  566.54   24.80
   4 -10  -4  545.85   24.60
   4  10  -3  186.08   10.80
  -4  10   3  173.88   10.50
   4  10  -3  176.48    9.30
  -4 -10   3  190.68    9.40
  -4 -10   3  186.68    9.80
   4 -10  -3  188.58   10.50
   4 -10  -3  155.28   10.50
   4  10  -2   46.50    6.10
  -4  10   2   55.09    5.70
  -4  10   2   42.30    5.60
   4  10  -2   55.89    5.20
   4 -10  -2   59.09    6.20
   4 -10  -2   44.70    5.30
  -4 -10   2   45.40    3.80
   4  10  -1  208.98   10.70
  -4  10   1  194.88   12.30
   4  10  -1  202.08   11.90
  -4  10   1  200.68   10.30
   4 -10  -1  202.48   11.00
  -4 -10   1  210.28   10.60
  -4 -10   1  198.68    9.10
   4 -10  -1  207.48   10.90
  -4  10   0 1001.80   37.00
   4  10   0  996.90   38.30
   4  10   0  956.90   39.30
  -4  10   0  936.31   39.30
  -4 -10   0  861.31   38.70
   4 -10   0  953.40   37.50
   4 -10   0  993.60   38.10
  -4 -10   0  930.91   36.40
   4  10   1   86.79    8.10
  -4  10  -1   86.39    8.20
   4  10   1  102.99    7.70
   4 -10   1   94.89    6.10
  -4 -10  -1   88.49    6.80
   4 -10   1  100.59    6.90
  -4 -10  -1   93.09    5.70
   4 -10   1   91.69    5.50
   4  10   2   30.30    5.40
   4  10   2   23.40    4.60
  -4  10  -2   28.70    5.10
  -4 -10  -2   42.60    5.10
   4 -10   2   35.50    4.50
   4 -10   2   31.50    3.90
   4 -10   2   30.40    3.00
  -4 -10  -2   33.20    4.20
  -4  10  -3   22.80    5.00
   4  10   3   18.20    5.00
  -4 -10  -3   26.30    3.90
  -4 -10  -3   15.60    3.40
   4 -10   3   23.80    3.40
  -4  10  -4   23.90    5.70
   4  10   4   11.30    6.20
  -4 -10  -4   18.50    3.50
  -4 -10  -4   16.40    3.60
  -4 -10  -5   86.79    7.00
  -4 -10  -5   81.59    7.60
  -4  10  -6  224.18   14.50
  -4 -10  -6  158.08   13.20
  -4  10  -7   -4.40    6.10
  -4 -10  -7   -0.20    4.60
  -4 -10  -7    5.90    3.50
  -4  10  -8   17.20    7.20
  -4 -10  -8   10.70    3.80
  -4 -10  -8   20.50    6.10
   4  11  -9   -7.00    5.30
   4 -11  -9   10.20    9.20
  -4 -11   9   -2.80    6.00
   4 -11  -9    4.00    4.70
  -4 -11   8  126.79   10.40
   4 -11  -8  127.59   14.80
   4 -11  -8  121.29   10.30
   4 -11  -7  121.09   11.00
   4 -11  -7  123.79   10.60
   4 -11  -7  106.89   13.00
  -4 -11   7  156.18   10.00
   4  11  -6  205.68   11.50
   4 -11  -6  185.38   12.50
  -4 -11   6  188.18    8.90
  -4 -11   6  201.68   11.30
   4  11  -5   64.19    5.70
  -4 -11   5   52.39    7.10
   4 -11  -5   70.39    7.60
   4 -11  -5   64.69    7.90
  -4 -11   5   65.29    5.40
   4  11  -4   12.90    3.90
   4  11  -4   10.70    3.20
   4 -11  -4   11.50    4.30
   4 -11  -4    8.10    3.50
  -4 -11   4    9.70    4.00
   4 -11  -4    8.10    4.40
  -4 -11   4    8.60    2.90
  -4  11   3  560.14   26.30
   4  11  -3  639.94   25.60
   4  11  -3  609.64   27.20
  -4 -11   3  639.04   25.70
  -4 -11   3  663.33   25.60
   4 -11  -3  618.14   26.80
   4 -11  -3  616.64   27.20
  -4  11   2  143.59    9.00
   4  11  -2  137.99    8.60
   4  11  -2  152.58   10.30
  -4  11   2  139.19   10.40
   4 -11  -2  146.99    9.50
  -4 -11   2  136.89    8.40
   4 -11  -2  141.49    9.20
  -4 -11   2  143.39    7.20
   4  11  -1  170.58   10.20
  -4  11   1  185.28   12.10
   4  11  -1  180.58   11.60
  -4  11   1  180.58    9.80
   4 -11  -1  181.98   10.50
  -4 -11   1  170.98    8.10
  -4 -11   1  168.98    9.80
   4 -11  -1  169.08   10.10
   4  11   0    9.40    4.20
  -4  11   0    3.50    2.60
   4  11   0    0.90    3.20
  -4  11   0    7.20    3.90
   4 -11   0    7.90    2.90
  -4 -11   0    6.70    3.30
  -4 -11   0    8.10    2.20
   4 -11   0    5.60    4.40
   4  11   1  416.46   20.70
  -4  11  -1  490.25   19.10
  -4  11  -1  477.85   22.30
   4  11   1  442.86   22.00
  -4 -11  -1  479.15   20.70
   4 -11   1  460.05   19.40
  -4 -11  -1  455.15   19.20
   4 -11   1  478.85   20.50
   4  11   2   11.90    4.10
  -4  11  -2   15.90    4.70
  -4 -11  -2   16.00    4.00
   4 -11   2   18.80    2.70
   4 -11   2   10.50    2.70
  -4 -11  -2   18.70    3.40
  -4  11  -3   -0.10    4.20
   4  11   3    9.00    5.60
  -4 -11  -3    9.30    3.20
   4 -11   3    7.30    3.20
   4 -11   3    4.10    1.20
   4 -11   3    3.70    1.10
  -4 -11  -3    4.80    3.60
  -4  11  -4   11.70    4.80
  -4 -11  -4    7.50    3.70
  -4 -11  -4    8.00    3.30
  -4  11  -5    7.10    5.40
  -4 -11  -5    7.60    3.50
  -4 -11  -5    7.20    5.60
  -4  11  -6   98.59   11.20
  -4 -11  -6   74.69    8.40
  -4 -11  -6   74.79    7.20
  -4  11  -7   46.70    9.00
  -4 -11  -7   53.59    7.30
  -4 -11  -7   60.59    6.50
  -4  11  -8    6.60    7.60
  -4 -11  -8    1.40    4.00
  -4 -11  -8    0.50    6.10
   4 -12  -9    3.70    5.10
   4 -12  -9   -7.60    9.90
   4 -12  -8   -3.30    4.70
   4 -12  -8    6.90    8.30
  -4 -12   8    1.80    5.20
   4 -12  -7   48.10    7.40
   4 -12  -7   61.09   10.50
   4 -12  -7   61.39    8.00
  -4 -12   7   60.29    6.70
   4 -12  -6   -2.80    4.60
  -4 -12   6    3.00    3.90
  -4 -12   6    4.20    2.80
  -4 -12   5   47.00    5.40
  -4 -12   5   44.30    6.00
   4 -12  -5   39.90    5.70
   4  12  -4  134.29    8.70
   4  12  -4  123.29   10.10
  -4 -12   4  142.89    8.40
   4 -12  -4  118.39   10.00
   4 -12  -4  120.19    9.60
   4 -12  -4  131.49   11.00
  -4 -12   4  123.49    9.30
   4  12  -3   24.50    4.30
   4  12  -3   20.80    5.30
  -4 -12   3   22.60    3.70
   4 -12  -3   24.90    5.10
   4 -12  -3   27.10    5.40
   4 -12  -3   25.60    5.80
  -4 -12   3   28.20    4.20
  -4  12   2  427.46   20.60
   4  12  -2  455.05   22.20
   4  12  -2  458.65   20.60
   4 -12  -2  487.55   21.70
  -4 -12   2  474.15   20.60
  -4 -12   2  495.95   19.00
   4 -12  -2  464.15   21.40
   4  12  -1   34.10    5.60
  -4  12   1   21.80    5.10
  -4  12   1   27.70    4.20
   4  12  -1   23.00    4.80
  -4 -12   1   32.80    4.80
  -4 -12   1   26.20    3.20
   4 -12  -1   20.00    4.20
  -4  12   0   74.29    8.60
  -4  12   0   91.19    6.50
  -4 -12   0   77.69    5.40
   4 -12   0   82.19    6.80
   4 -12   0   69.09    7.50
  -4 -12   0  104.09   10.00
  -4  12  -1   34.20    6.40
  -4  12  -1   42.10    4.40
   4  12   1   42.90    7.50
   4 -12   1   50.39    5.90
  -4 -12  -1   45.60    4.60
   4 -12   1   39.50    4.90
  -4 -12  -1   39.20    5.50
   4  12   2  426.26   22.10
  -4  12  -2  431.36   21.70
  -4 -12  -2  453.15   19.00
   4 -12   2  431.16   17.50
  -4 -12  -2  414.56   19.80
   4 -12   2  434.26   19.50
   4 -12   2  429.86   17.70
  -4  12  -3  107.69   10.30
   4  12   3   94.39   11.90
   4 -12   3  104.89    5.00
  -4 -12  -3  104.99    7.60
  -4 -12  -3  113.29    8.60
   4 -12   3   97.89    4.80
  -4  12  -4   12.70    5.20
  -4 -12  -4   28.10    5.00
  -4 -12  -4   31.90    5.30
  -4 -12  -5  328.87   16.30
  -4 -12  -5  310.07   17.20
  -4  12  -6   15.30    6.70
  -4 -12  -6   13.10    4.20
  -4 -12  -6   10.00    4.90
  -4  12  -7    9.30    7.20
  -4 -12  -7    0.90    4.10
  -4 -12  -7    0.50    5.40
  -4 -12  -8   49.60    8.00
   4 -13  -9   -6.10   10.40
   4 -13  -8   27.60    6.30
  -4 -13   8   21.40    6.00
   4 -13  -8   22.60    9.70
   4 -13  -7   73.49   10.50
   4 -13  -7   52.69    7.90
  -4 -13   7   66.59    8.50
  -4 -13   6   -2.00    4.20
  -4 -13   6    3.50    3.30
   4 -13  -6    2.40    5.70
   4 -13  -6    2.80    5.30
  -4 -13   5  334.97   17.60
  -4 -13   5  347.47   16.10
   4 -13  -5  355.26   18.70
   4 -13  -5  362.76   19.80
   4  13  -4    0.00    4.40
  -4 -13   4    0.20    3.20
   4 -13  -4    2.50    3.90
   4 -13  -4    0.90    4.50
  -4 -13   4   -0.60    3.90
   4 -13  -4   -0.80    4.80
   4  13  -3  706.93   31.10
   4 -13  -3  704.53   30.60
   4 -13  -3  692.03   30.40
   4 -13  -3  693.43   31.80
  -4 -13   3  649.43   28.80
  -4 -13   3  727.23   28.20
   4  13  -2  203.88   13.30
  -4  13   2  185.58   12.40
   4 -13  -2  194.28   13.90
   4 -13  -2  214.58   12.40
  -4 -13   2  208.88    9.50
  -4 -13   2  180.58   11.10
   4 -13  -2  194.38   12.40
   4  13  -1   19.40    4.90
  -4  13   1   14.90    4.30
  -4  13   1   19.40    6.00
   4 -13  -1   15.90    4.60
  -4 -13   1   24.50    4.80
  -4 -13   1   19.10    2.70
   4 -13  -1   13.30    4.00
   4  13   0  158.88   12.80
  -4  13   0  155.98   12.00
  -4  13   0  158.78    9.20
  -4 -13   0  149.59   10.40
   4 -13   0  168.18    9.70
  -4 -13   0  152.48    8.30
   4 -13   0  155.58   10.60
  -4  13  -1  559.14   23.00
  -4  13  -1  564.54   26.90
   4  13   1  559.84   26.80
  -4 -13  -1  558.54   24.80
  -4 -13  -1  565.54   23.30
   4 -13   1  565.34   23.30
   4 -13   1  547.85   24.60
  -4  13  -2   20.30    3.20
   4  13   2   23.10    6.30
  -4  13  -2   21.60    6.40
   4 -13   2   18.70    3.00
   4 -13   2   17.10    4.00
  -4 -13  -2   23.60    5.40
  -4 -13  -2   19.40    3.60
   4  13   3  224.08   17.20
  -4  13  -3  248.38   16.30
  -4 -13  -3  259.37   14.20
   4 -13   3  252.77   10.30
  -4 -13  -3  256.67   13.10
   4 -13   3  253.67   10.50
  -4  13  -4   44.00    8.80
  -4 -13  -4   51.49    6.20
  -4 -13  -4   39.40    5.90
  -4  13  -5   46.10    9.80
  -4 -13  -5   47.90    7.30
  -4 -13  -5   43.70    6.30
  -4  13  -6  143.39   15.00
  -4 -13  -6  174.08   11.50
  -4 -13  -6  172.38   12.40
  -4  13  -7   32.30    9.10
  -4 -13  -7   33.20    7.00
  -4 -13  -7   25.70    5.60
  -4 -14   8   11.40    5.60
   4 -14  -8    7.00    9.50
   4 -14  -8   10.60    5.90
   4 -14  -7  118.49   12.40
  -4 -14   7  146.59   11.00
   4 -14  -7  122.09   14.10
  -4 -14   6    6.90    4.90
   4 -14  -6    9.90    7.50
   4 -14  -6    8.90    6.60
   4 -14  -5   43.80    9.10
  -4 -14   5   43.70    6.90
   4 -14  -5   30.30    6.50
  -4 -14   5   46.00    5.80
   4 -14  -4    4.60    4.90
   4 -14  -4    5.40    5.60
  -4 -14   4    1.20    3.80
  -4 -14   4   -1.20    4.00
   4  14  -3    3.10    4.70
  -4 -14   3    2.50    3.60
   4 -14  -3   -4.40    4.40
   4 -14  -3   -5.60    5.00
  -4 -14   3    3.20    2.80
   4 -14  -3    4.30    4.70
   4  14  -2   34.30    7.00
  -4 -14   2   27.80    3.80
   4 -14  -2   30.20    5.90
   4 -14  -2   29.60    6.30
   4 -14  -2   33.50    7.40
  -4 -14   2   29.20    4.60
  -4  14   1  120.69    9.70
  -4  14   1  125.19   11.70
   4  14  -1  120.99   11.80
   4 -14  -1  126.19    9.60
  -4 -14   1  138.49    7.30
   4 -14  -1  134.99   10.30
  -4 -14   1  129.49    9.80
   4  14   0  431.96   22.30
  -4  14   0  391.26   18.60
  -4  14   0  426.56   22.00
   4 -14   0  416.46   20.10
  -4 -14   0  424.76   20.00
  -4 -14   0  415.46   17.80
   4 -14   0  401.36   18.90
  -4  14  -1  162.98    9.70
  -4  14  -1  156.58   13.10
   4  14   1  163.48   14.60
  -4 -14  -1  171.48   10.10
   4 -14   1  179.08    9.80
   4 -14   1  203.78   13.70
  -4 -14  -1  173.68   11.50
   4  14   2  177.78   16.20
  -4  14  -2  208.88   10.00
  -4  14  -2  209.18   15.20
   4 -14   2  195.98    9.70
   4 -14   2  180.38   12.20
  -4 -14  -2  209.48   12.80
  -4  14  -3    3.30    6.20
   4 -14   3   11.70    2.10
  -4 -14  -3    8.70    3.70
  -4 -14  -3    8.90    4.70
  -4  14  -4   36.60    7.70
  -4 -14  -4   39.30    5.70
  -4 -14  -4   32.10    5.80
  -4  14  -5   34.10    8.50
  -4 -14  -5   22.30    5.60
  -4  14  -6   31.90    8.70
  -4 -14  -6   27.80    5.50
  -4 -14  -6   29.20    6.50
  -4  14  -7   24.20    9.40
  -4 -14  -7   22.40    5.10
  -4 -14  -7   26.50    7.20
   4 -15  -8    2.40    9.50
   4 -15  -8   -1.70    6.30
   4 -15  -7   16.20    7.10
   4 -15  -7   18.20    8.10
  -4 -15   7   22.20    6.20
  -4 -15   6   -7.90    4.90
   4 -15  -6    0.90    6.70
   4 -15  -6    1.10    7.30
  -4 -15   5  158.98   12.40
   4 -15  -5  167.08   14.20
   4 -15  -5  166.48   16.40
   4 -15  -4    5.20    5.40
   4 -15  -4    3.50    6.20
  -4 -15   4    2.70    4.30
  -4 -15   4    7.00    4.20
   4  15  -3    9.30    5.60
   4 -15  -3   12.40    5.50
   4 -15  -3   10.10    6.00
   4 -15  -3   16.40    5.30
  -4 -15   3    6.10    4.40
  -4 -15   3   12.50    3.30
   4  15  -2   26.10    7.00
   4 -15  -2   42.30    7.10
  -4 -15   2   36.60    4.40
   4 -15  -2   43.30    6.50
  -4 -15   2   41.60    5.90
   4 -15  -2   36.00    7.30
   4  15  -1  335.57   19.70
   4 -15  -1  340.57   20.30
  -4 -15   1  334.77   14.70
  -4 -15   1  328.37   18.90
   4 -15  -1  354.76   17.40
   4 -15  -1  314.57   17.70
  -4  15   0   68.39    9.80
  -4  15   0   50.39    6.30
  -4 -15   0   71.19    5.80
   4 -15   0   58.19    7.20
   4 -15   0   68.19    7.90
  -4 -15   0   56.99    7.20
   4  15   1  105.69   14.70
  -4  15  -1   84.59    7.50
  -4  15  -1   79.39   10.60
  -4 -15  -1   78.69    9.00
   4 -15   1   82.29    7.00
   4 -15   1   77.39    9.50
  -4  15  -2   76.59    6.50
  -4  15  -2   62.89    9.30
   4  15   2   68.29   10.60
   4 -15   2   69.39    5.80
  -4 -15  -2   75.39    9.10
  -4  15  -3   18.70    7.50
  -4 -15  -3   21.60    5.10
   4 -15   3   22.90    2.70
   4 -15   3   17.80    3.80
  -4 -15  -3   18.60    4.40
  -4 -15  -4   14.60    4.90
  -4 -15  -4   12.70    5.50
  -4  15  -5   55.49   10.60
  -4 -15  -5   39.60    7.40
  -4 -15  -5   35.50    6.20
  -4  15  -6    9.60    8.50
  -4 -15  -6   16.60    5.70
  -4 -15  -6    1.10    5.70
  -4 -15  -7   -0.20    6.70
   4 -16  -7  142.39   16.60
  -4 -16   7   98.09   14.80
   4 -16  -7  121.89   13.80
  -4 -16   6   34.90    7.60
   4 -16  -6   51.99    9.80
   4 -16  -6   47.40    9.70
   4 -16  -5    1.90    7.60
  -4 -16   5    7.90    6.00
   4 -16  -5    8.30    7.00
  -4 -16   4   28.60    5.90
   4 -16  -4   10.00    6.60
   4  16  -3  221.88   16.50
   4 -16  -3  218.58   15.70
  -4 -16   3  225.88   11.50
   4 -16  -3  243.28   17.50
   4  16  -2   26.10    6.60
   4 -16  -2   35.70    8.90
  -4 -16   2   41.40    6.20
  -4 -16   2   40.50    4.60
   4 -16  -2   28.70    7.60
   4 -16  -2   52.59    7.50
   4  16  -1   32.90    8.30
   4 -16  -1   51.99    9.80
  -4 -16   1   39.20    5.20
   4 -16  -1   26.20    5.60
  -4 -16   1   41.00    7.10
   4 -16  -1   30.30    5.80
  -4  16   0    6.80    5.10
   4  16   0    8.70    6.30
   4 -16   0    1.30    3.90
   4 -16   0    0.60    5.20
   4 -16   0   -1.20    6.60
  -4 -16   0    2.00    4.90
   4  16   1   40.20    8.40
  -4  16  -1   55.79    9.40
  -4  16  -1   66.19    7.70
   4 -16   1   66.69    8.80
  -4 -16  -1   49.80    6.90
   4 -16   1   71.29    7.10
   4 -16   1   83.29   11.40
   4  16   2    8.10    9.70
  -4  16  -2    9.30    4.10
  -4  16  -2   13.10    7.50
   4 -16   2   16.40    3.50
  -4 -16  -2   17.90    5.80
  -4 -16  -3    1.50    4.70
   4 -16   3    3.20    2.10
  -4 -16  -3    7.40    4.20
  -4  16  -4   65.59   11.30
  -4 -16  -4   44.20    7.50
  -4 -16  -4   72.29    8.70
  -4  16  -5   24.60    8.50
  -4 -16  -5   15.60    6.00
  -4 -16  -5    8.50    6.20
  -4  16  -6   50.49   11.50
  -4 -16  -6   58.49    8.60
  -4 -16  -6   45.70    8.00
   4 -17  -7   12.10    8.10
   4 -17  -7    4.60   10.10
   4 -17  -6    8.90    8.40
   4 -17  -6  -10.10    7.10
  -4 -17   5   18.70    8.80
   4 -17  -5   15.80    7.80
   4 -17  -5   13.70    8.40
  -4 -17   4   75.19   10.10
   4 -17  -4   63.19    9.50
  -4 -17   3    9.50    5.00
   4  17  -2    6.70    7.40
   4 -17  -2    3.70    5.70
   4 -17  -2   16.00    8.30
  -4 -17   2   -3.90    5.10
   4  17  -1   58.49    9.90
  -4 -17   1   74.19   10.00
   4 -17  -1   80.99   10.30
   4 -17  -1   63.99    8.00
   4 -17  -1   40.80    8.10
   4  17   0  294.17   20.40
   4 -17   0  292.37   20.90
   4 -17   0  285.67   17.90
   4 -17   0  326.97   16.20
  -4 -17   0  301.97   17.80
   4  17   1   98.89   12.90
  -4  17  -1  123.79   10.30
  -4  17  -1  125.99   14.70
   4 -17   1  123.29   15.50
  -4 -17  -1  123.49    8.80
   4 -17   1  135.19    9.20
  -4 -17  -1  118.19   11.80
  -4  17  -2   17.60    7.50
  -4  17  -2    0.50    7.60
  -4 -17  -2    2.00    6.60
   4 -17   2   12.40    9.30
  -4 -17  -2    9.60    5.50
   4 -17   2   12.30    3.30
  -4  17  -3    9.90    8.40
   4 -17   3   18.60    2.80
  -4 -17  -3   31.90    5.90
  -4 -17  -3   18.30    6.00
  -4  17  -4   37.80    9.30
  -4 -17  -4   41.90    6.50
  -4  17  -5    6.30    9.10
  -4 -17  -5   11.90    6.10
  -4 -17  -5   15.50    7.10
  -4  17  -6   11.50    9.50
  -4 -17  -6    7.40    6.80
  -4 -17  -6    3.60    6.50
   4 -18  -6   24.60    9.00
  -4 -18   6   19.50    8.20
   4 -18  -6   43.90   10.20
   4 -18  -5    4.70    9.20
   4 -18  -5    3.00    7.70
   4 -18  -4   79.39   10.50
   4 -18  -4   69.69   10.90
   4 -18  -3    6.60    7.90
   4 -18  -3   -2.50    6.10
   4 -18  -2    0.80    8.20
  -4 -18   2    4.60    3.60
   4 -18  -1  573.84   29.10
   4 -18  -1  641.24   28.00
   4 -18  -1  623.84   32.10
  -4 -18   1  566.54   28.20
  -4 -18   1  612.34   25.00
   4 -18   0   11.60    6.80
   4 -18   0   35.10    6.20
  -4 -18   0   30.50    4.60
   4 -18   0   28.80    8.40
  -4 -18   0   31.10    6.80
   4 -18   1   -1.00    4.00
   4 -18   1   -2.40    7.80
  -4 -18  -1    1.40    3.80
  -4 -18  -1   -0.60    6.20
  -4  18  -2  171.48   17.60
   4 -18   2  158.98    9.60
  -4 -18  -2  152.48   14.00
   4 -18   2  151.98   17.50
  -4 -18  -2  172.28   11.30
  -4 -18  -3   10.00    5.20
  -4 -18  -3   11.80    7.50
  -4  18  -4   26.80    9.70
  -4 -18  -4   34.50    7.10
  -4  18  -5   54.39   11.70
  -4 -18  -5   71.49    9.20
  -4 -18  -5   76.39    9.90
   4 -19  -6   20.80    9.70
   4 -19  -6    4.70    9.20
  -4 -19   6    9.50    8.00
  -4 -19   5    5.50    7.60
   4 -19  -5   18.40   10.50
   4 -19  -5    7.20    8.40
   4 -19  -4   15.80   10.20
  -4 -19   4   10.80    5.90
   4 -19  -4    8.50    7.70
  -4 -19   3    1.30    3.90
   4 -19  -3   -0.80    6.70
  -4 -19   2   49.10    5.90
   4 -19  -2   68.99   13.10
   4 -19  -2   55.09    8.80
  -4 -19   1   -0.70    3.10
   4 -19  -1    3.10    9.80
  -4 -19   0   61.19    9.00
   4 -19   0   73.39   12.80
   4 -19   0   46.40    7.50
  -4 -19   0   48.60    6.40
  -4 -19  -1   51.59    6.40
  -4 -19  -1   61.79    9.60
   4 -19   1   54.39    6.70
   4 -19   1   71.39   11.20
  -4 -19  -2    1.80    4.40
   4 -19   2   -2.00    3.80
  -4 -19  -2   -4.80    7.10
  -4 -19  -3   92.59   10.60
  -4 -19  -3   83.09   15.80
  -4  19  -4    3.80    9.80
  -4 -19  -4    4.50    6.80
  -4 -19  -4    7.60    6.00
   4 -20  -5   31.00    9.80
  -4 -20   5   14.50    8.30
   4 -20  -5   35.90   11.70
  -4 -20   4   39.50    7.60
   4 -20  -4   49.90   12.90
   4 -20  -4   54.49   10.50
   4 -20  -3    7.60   10.30
  -4 -20   3    5.90    4.50
   4 -20  -3   17.60    8.00
   4 -20  -2   -1.50    9.60
   4 -20  -2    0.90    6.90
  -4 -20   2    0.30    3.30
   4 -20  -1   31.00   12.10
   4 -20  -1   28.90    7.50
  -4 -20   1   23.50    4.30
   4 -20   0  182.18   20.20
  -4 -20   0  171.88   10.70
  -4 -20  -1   25.80    9.00
   4 -20   1   41.60    6.30
  -4 -20  -1   37.40    5.80
  -4 -20  -2   14.70    5.80
   4 -20   2   21.40    4.50
  -4 -20  -2   24.20    8.50
  -4 -20  -3   10.00    5.80
  -4 -20  -4  -10.70    7.50
  -4 -20  -4   12.50    6.50
   4 -21  -4    7.70    8.80
  -4 -21   4    4.70    7.00
   4 -21  -4   24.30   12.80
   4 -21  -3   22.20   12.90
   4 -21  -3   30.10    9.50
  -4 -21   3   38.30    5.90
   4 -21  -2   84.39   10.90
  -4 -21   2   78.69    7.60
   4 -21  -1   11.60    7.50
  -4 -21   1   16.30    4.30
   4 -21  -1   15.90   11.70
   4 -21   0   10.30    7.40
  -4 -21   0   10.50    4.60
   4 -21   0    3.30   11.50
   4 -21   1    4.50    6.00
  -4 -21  -1    3.80    4.60
  -4 -21  -2   -0.90    5.00
  -4 -21  -3    0.10    6.00
  -4 -21  -3    8.90   13.30
   4 -22  -3    7.80   13.30
  -4 -22   3   -7.80    4.90
   4 -22  -3    1.90    8.60
  -4 -22   2  121.29    9.20
   4 -22  -2  124.19   18.00
   4 -22  -2  129.09   15.60
   4 -22  -1   39.20   13.70
   4 -22  -1   58.79    9.40
  -4 -22   1   64.29    7.90
   4 -22   0   24.30    7.30
  -4 -22   0   31.20    5.40
  -4 -22  -1  102.99   10.10
   5   0 -10    8.40    7.50
   5   0  -9   -4.70    5.90
   5   0  -8  412.06   20.60
   5   0  -7   -1.10    3.60
   5   0  -6   56.09    6.00
   5   0  -6   58.39    2.80
   5   0  -6   54.79    6.10
  -5   0   5   -4.20    2.50
   5   0  -5    0.20    0.80
   5   0  -5    0.00    2.50
   5   0  -4    8.90    1.30
  -5   0   4   14.40    3.10
   5   0  -4    8.50    2.40
  -5   0   4   11.10    2.10
   5   0  -3   -1.20    1.80
   5   0  -3    0.00    0.70
  -5   0   3    1.50    1.20
  -5   0   3    3.00    1.90
   5   0  -2  446.66   16.30
  -5   0   2  391.56   16.40
   5   0  -2  417.96   17.30
  -5   0   2  397.56   17.10
   5   0  -1    0.90    1.40
  -5   0   1   -0.40    0.80
  -5   0   1    0.60    1.50
   5   0  -1   -0.30    0.80
  -5   0   0 1318.27   50.59
  -5   0   0 1322.47   50.69
   5   0   0 1347.67   50.39
   5   0   0 1413.46   50.29
   5   0   1   -1.20    1.00
  -5   0  -1    0.40    1.00
   5   0   1    1.10    0.90
  -5   0  -1   -0.30    1.50
   5   0   2   43.10    3.30
  -5   0  -2   33.60    3.30
  -5   0  -2   41.90    3.40
   5   0   2   34.70    3.30
  -5   0  -3    1.20    1.20
   5   0   3    3.60    1.90
  -5   0  -3   -1.30    1.20
   5   0   3    2.70    2.00
   5   0   4  210.28    9.90
  -5   0  -4  217.88   10.00
   5   0   4  195.58   10.20
  -5   0  -4  198.58    8.50
   5   0   5    2.50    3.00
  -5   0  -5   -0.50    2.00
  -5   0  -5    0.30    1.10
  -5   0  -6  129.09    7.90
  -5   0  -6  122.79    5.70
   5   0   6  126.29    8.10
  -5   0  -7   -2.20    2.70
  -5   0  -7    1.00    1.40
  -5   0  -8   51.99    7.00
  -5   0  -9   -2.20    4.50
   5   1 -10   -6.70    6.90
   5  -1 -10    4.30    7.40
   5   1  -9  139.29   12.30
   5  -1  -9  130.09   12.50
   5   1  -8    5.70    4.50
   5  -1  -8   10.80    5.10
   5   1  -7  168.88   10.80
   5  -1  -7  164.68   11.00
   5   1  -6    8.20    3.10
   5   1  -6    8.50    3.60
   5  -1  -6    8.10    3.60
   5  -1  -6   10.10    1.10
  -5  -1   6    7.70    3.50
   5   1  -5   12.30    1.70
   5   1  -5   20.50    3.50
  -5  -1   5   12.90    3.10
   5  -1  -5   15.20    1.60
   5  -1  -5   17.90    3.60
  -5   1   4   -1.10    2.50
   5   1  -4    0.20    2.20
   5   1  -4    0.80    0.90
  -5   1   4    5.80    2.40
  -5  -1   4    1.20    2.20
  -5  -1   4    1.40    1.20
   5  -1  -4    1.00    0.80
   5  -1  -4    3.40    1.90
  -5   1   3   -1.40    1.70
   5   1  -3   -1.10    1.90
   5   1  -3    0.90    0.80
  -5   1   3    1.80    1.40
  -5  -1   3    1.00    1.70
  -5  -1   3    0.50    1.00
   5  -1  -3    1.00    0.80
   5  -1  -3   -1.40    1.70
  -5   1   2 1044.60   37.70
   5   1  -2 1017.40   37.10
   5   1  -2  969.10   38.20
  -5   1   2  994.50   38.10
  -5  -1   2  864.71   37.80
  -5  -1   2  955.30   37.10
   5  -1  -2 1015.60   37.10
   5  -1  -2 1052.49   38.00
  -5   1   1 1145.99   47.00
  -5   1   1 1109.09   46.80
   5   1  -1 1352.96   47.10
   5   1  -1 1298.67   46.60
  -5  -1   1 1281.97   46.70
  -5  -1   1 1268.17   47.30
   5  -1  -1 1269.67   47.30
   5  -1  -1 1255.17   46.60
  -5   1   0   43.80    3.40
   5   1   0   43.40    3.20
   5   1   0   51.29    3.00
  -5   1   0   48.60    3.50
   5  -1   0   48.80    3.20
  -5  -1   0   48.70    3.90
  -5  -1   0   44.80    3.20
   5  -1   0   50.99    3.40
   5   1   1   17.70    2.40
   5   1   1   14.00    1.90
  -5   1  -1   14.90    2.10
  -5   1  -1   23.60    3.50
  -5  -1  -1   17.80    2.40
  -5  -1  -1   17.00    2.30
   5  -1   1   13.70    1.90
   5  -1   1   17.30    1.70
  -5   1  -2 1378.16   51.49
  -5   1  -2 1438.56   52.09
   5   1   2 1349.56   52.09
   5   1   2 1395.06   51.79
  -5  -1  -2 1312.47   51.29
   5  -1   2 1438.86   51.89
  -5  -1  -2 1336.77   51.79
   5   1   3  139.29    7.90
  -5   1  -3  152.68    7.70
  -5   1  -3  158.78    7.10
   5   1   3  148.49    7.80
   5  -1   3  149.29    7.60
  -5  -1  -3  145.49    6.50
   5  -1   3  161.08    7.40
  -5  -1  -3  139.79    7.40
  -5   1  -4   53.99    3.60
   5   1   4   47.60    5.00
   5   1   4   48.30    5.00
  -5   1  -4   55.79    4.60
   5  -1   4   53.19    4.50
   5  -1   4   55.09    4.70
  -5  -1  -4   52.49    3.10
  -5  -1  -4   51.99    4.20
  -5   1  -5   47.70    3.30
  -5   1  -5   50.19    4.70
   5   1   5   54.19    6.10
  -5  -1  -5   51.39    4.50
  -5  -1  -5   51.69    3.20
   5  -1   5   46.70    5.00
   5   1   6  115.49    8.60
  -5   1  -6  133.79    6.20
  -5   1  -6  131.79    8.20
   5  -1   6  126.59    7.30
  -5  -1  -6  126.99    6.10
  -5  -1  -6  137.49    8.00
  -5   1  -7   -1.20    2.90
  -5  -1  -7   -0.40    1.70
  -5  -1  -7   -3.10    2.40
  -5   1  -8    1.50    4.00
  -5  -1  -8   -2.50    3.30
  -5   1  -9    7.60    5.10
  -5  -1  -9    7.10    4.40
   5   2 -10    4.30    7.40
   5  -2 -10   -1.60    7.80
   5   2  -9   12.20    6.10
   5  -2  -9   17.50    6.80
   5   2  -8   44.40    6.40
   5   2  -7   -1.20    3.20
   5  -2  -7    5.20    4.30
   5   2  -6    8.70    3.80
   5  -2  -6    5.90    3.30
   5  -2  -6    5.20    1.00
  -5  -2   6    4.80    3.40
   5   2  -5  406.96   15.90
   5   2  -5  376.76   17.70
   5  -2  -5  385.26   17.40
  -5  -2   5  439.06   18.30
   5  -2  -5  418.86   18.50
   5  -2  -5  412.86   15.70
   5   2  -4  210.58    8.80
  -5   2   4  206.08    9.50
  -5   2   4  198.18   10.70
   5   2  -4  206.68   10.50
   5  -2  -4  216.28   10.80
  -5  -2   4  213.68    8.60
  -5  -2   4  212.28   10.40
   5  -2  -4  199.68    9.90
  -5   2   3    4.50    1.90
   5   2  -3   -1.40    0.80
  -5   2   3   -3.10    1.30
   5   2  -3    3.80    2.20
   5  -2  -3    0.60    1.70
   5  -2  -3    1.10    0.90
  -5  -2   3    0.60    1.60
  -5  -2   3    0.60    0.90
  -5   2   2  325.27   14.30
  -5   2   2  335.07   14.00
   5   2  -2  332.27   13.40
   5   2  -2  328.47   14.10
  -5  -2   2  353.86   13.30
   5  -2  -2  323.27   13.80
  -5  -2   2  305.87   14.10
   5  -2  -2  332.57   13.20
   5   2  -1  727.03   28.30
   5   2  -1  783.52   28.20
  -5   2   1  725.03   28.70
  -5   2   1  712.33   28.60
  -5  -2   1  763.72   29.10
  -5  -2   1  721.03   28.00
   5  -2  -1  725.73   28.00
   5  -2  -1  732.43   28.50
  -5   2   0    1.60    1.30
   5   2   0    0.40    0.90
  -5   2   0   -0.30    1.30
   5   2   0    0.10    1.20
   5  -2   0    1.30    1.50
  -5  -2   0   -0.50    1.40
   5  -2   0    0.20    1.00
  -5  -2   0   -0.80    1.00
   5   2   1  925.71   36.10
   5   2   1  920.11   35.60
  -5   2  -1  905.11   35.30
  -5   2  -1  931.01   36.10
  -5  -2  -1  903.71   35.50
   5  -2   1 1010.70   35.70
  -5  -2  -1  959.70   35.60
  -5   2  -2  104.89    5.90
   5   2   2  103.59    6.20
   5   2   2  117.19    6.10
  -5   2  -2   88.39    6.00
  -5  -2  -2  101.49    4.90
   5  -2   2   91.79    4.80
   5  -2   2  114.29    5.60
  -5  -2  -2   97.89    5.50
   5   2   3  472.75   20.70
   5   2   3  512.35   20.60
  -5   2  -3  479.75   20.40
  -5   2  -3  514.85   19.30
  -5  -2  -3  472.25   19.90
  -5  -2  -3  475.75   19.00
   5  -2   3  505.05   19.50
   5  -2   3  532.85   20.10
  -5   2  -4   59.19    3.80
   5   2   4   50.59    5.70
   5   2   4   61.09    5.80
  -5   2  -4   60.69    4.90
  -5  -2  -4   57.69    3.50
  -5  -2  -4   61.09    4.50
   5  -2   4   58.79    4.70
   5  -2   4   59.89    4.20
   5   2   5  413.26   18.20
  -5   2  -5  388.36   15.70
  -5   2  -5  400.36   17.80
  -5  -2  -5  416.16   16.10
  -5  -2  -5  408.46   17.20
   5  -2   5  399.06   16.10
  -5   2  -6   79.69    6.70
  -5   2  -6   74.39    4.00
   5   2   6   75.79    7.80
  -5  -2  -6   76.49    5.80
   5  -2   6   68.79    4.40
  -5  -2  -6   73.69    4.60
  -5   2  -7   38.80    5.40
  -5  -2  -7   41.50    5.00
  -5  -2  -7   37.10    3.80
  -5   2  -8   31.60    5.60
  -5  -2  -8   37.80    5.20
  -5   2  -9    4.80    5.40
  -5  -2  -9    4.70    4.10
   5   3 -10   79.29   10.10
   5  -3 -10   82.39   11.40
   5   3  -9   98.29   10.30
   5  -3  -9   96.39   12.00
   5   3  -8   32.30    5.90
   5  -3  -8   27.50    6.60
   5   3  -7  132.29    9.20
   5  -3  -7  136.79   10.60
  -5  -3   7  144.69    9.80
   5  -3  -7  136.39    7.10
   5  -3  -7  129.79    5.70
   5   3  -6  738.33   27.90
   5   3  -6  668.83   30.10
   5  -3  -6  728.93   31.20
   5  -3  -6  764.32   27.70
  -5  -3   6  776.32   30.60
   5   3  -5 1344.97   49.40
   5   3  -5 1269.07   51.09
   5  -3  -5 1305.17   51.79
   5  -3  -5 1331.87   49.10
  -5  -3   5 1381.76   51.29
   5  -3  -5 1307.17   50.79
   5   3  -4   22.80    3.60
   5   3  -4   18.40    2.30
  -5   3   4   15.90    2.70
   5  -3  -4   10.70    3.00
   5  -3  -4   14.10    3.00
   5  -3  -4   18.80    2.20
  -5  -3   4   15.80    1.80
  -5  -3   4   15.50    2.90
   5   3  -3   13.60    2.00
  -5   3   3   10.80    2.60
  -5   3   3   14.30    2.50
   5   3  -3    6.70    2.30
  -5  -3   3   11.70    1.50
   5  -3  -3   17.00    3.20
   5  -3  -3   10.30    1.50
   5  -3  -3   10.90    2.40
  -5  -3   3   10.40    2.50
  -5   3   2    1.40    1.70
  -5   3   2    2.00    1.60
   5   3  -2    0.20    1.00
   5   3  -2    3.10    1.50
  -5  -3   2    2.00    1.00
   5  -3  -2   -2.10    1.40
   5  -3  -2    1.30    1.00
  -5  -3   2    1.00    1.80
  -5   3   1  340.07   14.50
  -5   3   1  347.17   14.70
   5   3  -1  357.36   13.80
   5   3  -1  347.17   14.30
  -5  -3   1  335.77   14.90
   5  -3  -1  329.67   13.80
   5  -3  -1  340.07   14.00
  -5  -3   1  331.37   13.60
  -5   3   0   15.10    2.40
   5   3   0   14.80    2.00
  -5   3   0   14.50    2.10
   5   3   0    8.90    1.80
   5  -3   0   11.60    2.00
  -5  -3   0   19.20    2.60
   5  -3   0   17.10    2.10
  -5  -3   0   14.60    1.90
   5   3   1  600.84   23.20
  -5   3  -1  573.04   22.60
   5   3   1  614.34   23.80
  -5   3  -1  540.75   23.40
  -5  -3  -1  584.54   22.60
   5  -3   1  590.14   22.70
  -5  -3  -1  592.34   22.80
   5   3   2   79.59    5.60
   5   3   2   77.49    5.50
  -5   3  -2   78.09    4.30
  -5   3  -2  102.19    6.90
  -5  -3  -2   77.59    4.10
   5  -3   2   77.19    3.90
   5  -3   2   85.29    4.90
  -5  -3  -2   73.09    4.60
  -5   3  -3  142.09    6.70
  -5   3  -3  138.89    8.30
   5   3   3  168.78    8.80
   5   3   3  147.59    8.80
   5  -3   3  158.88    7.70
  -5  -3  -3  166.98    7.10
   5  -3   3  167.78    7.00
  -5  -3  -3  161.08    7.70
  -5   3  -4  149.99    6.40
  -5   3  -4  143.69    8.60
   5   3   4  164.28    9.30
   5   3   4  156.68    9.60
   5  -3   4  165.98    8.00
   5  -3   4  157.88    6.90
  -5  -3  -4  147.29    7.80
  -5  -3  -4  150.78    7.10
   5   3   5  219.08   12.30
  -5   3  -5  211.08   11.40
  -5  -3  -5  218.08   10.50
  -5  -3  -5  229.38    9.80
   5   3   6  115.19   11.50
  -5   3  -6  102.69    8.10
  -5  -3  -6  104.39    6.00
  -5  -3  -6   97.09    6.70
  -5   3  -7    3.30    3.80
  -5  -3  -7    9.20    2.60
  -5  -3  -7   11.70    3.30
  -5   3  -8  183.58   12.90
  -5  -3  -8  218.48   11.50
  -5  -3  -8  197.68    9.90
   5   4 -10    6.20    7.10
   5  -4 -10    7.40    8.80
   5   4  -9    0.20    5.10
   5  -4  -9    5.10    7.30
   5   4  -8   73.19    8.20
   5  -4  -8   94.89   10.60
   5  -4  -8   82.69    4.90
   5  -4  -8   79.99    3.90
  -5  -4   7    9.60    4.20
   5  -4  -7   21.90    5.30
   5  -4  -7   13.70    1.90
   5  -4  -7   12.10    2.80
   5   4  -6   29.20    3.20
   5   4  -6   22.20    4.20
   5  -4  -6   31.80    2.90
  -5  -4   6   42.40    5.30
   5  -4  -6   30.90    4.00
   5  -4  -6   29.00    5.10
   5   4  -5 1316.97   52.39
   5   4  -5 1377.06   50.99
   5  -4  -5 1273.87   51.99
   5  -4  -5 1379.76   50.79
  -5  -4   5 1429.76   52.59
   5  -4  -5 1373.06   53.49
   5   4  -4  422.26   16.70
   5   4  -4  420.56   17.60
  -5   4   4  413.76   17.30
   5  -4  -4  414.96   16.40
   5  -4  -4  412.36   18.40
  -5  -4   4  371.66   17.40
  -5  -4   4  394.96   16.00
   5  -4  -4  411.26   17.50
   5   4  -3    2.30    1.50
   5   4  -3    0.60    1.70
  -5   4   3    2.60    2.00
  -5  -4   3    3.70    2.20
   5  -4  -3   -1.70    2.20
   5  -4  -3    2.90    1.20
  -5  -4   3    3.60    1.10
   5  -4  -3    3.10    1.90
   5   4  -2  945.11   36.10
   5   4  -2  966.20   35.60
  -5  -4   2  926.51   35.10
   5  -4  -2  907.51   35.60
  -5  -4   2  958.10   36.80
   5  -4  -2  933.51   36.60
   5  -4  -2  928.91   35.90
   5   4  -1  340.37   14.90
  -5   4   1  353.96   15.40
   5   4  -1  349.77   14.30
  -5   4   1  368.86   15.10
   5  -4  -1  358.26   14.40
  -5  -4   1  337.87   15.30
   5  -4  -1  359.06   14.50
  -5  -4   1  353.36   14.10
   5   4   0   56.89    4.40
  -5   4   0   58.59    4.10
   5   4   0   54.19    3.90
  -5   4   0   53.89    4.60
  -5  -4   0   54.89    3.50
   5  -4   0   66.29    3.80
   5  -4   0   58.99    3.80
  -5  -4   0   57.79    3.80
  -5   4  -1    4.50    1.80
   5   4   1    7.90    2.30
  -5   4  -1   11.80    1.90
   5   4   1    6.10    2.00
  -5  -4  -1    5.60    1.40
  -5  -4  -1    5.80    1.30
   5  -4   1    7.10    1.60
   5  -4   1    7.20    2.20
   5   4   2  725.83   29.20
  -5   4  -2  722.73   29.40
   5   4   2  735.73   29.70
  -5   4  -2  742.13   27.70
  -5  -4  -2  727.13   27.80
   5  -4   2  746.53   27.20
   5  -4   2  743.03   28.40
  -5  -4  -2  699.93   28.20
   5   4   3  220.48   11.40
  -5   4  -3  190.38   10.50
  -5   4  -3  205.78    8.50
   5   4   3  225.08   11.00
  -5  -4  -3  197.58    9.40
  -5  -4  -3  212.98    9.10
   5  -4   3  216.88    8.60
   5  -4   3  210.28    9.70
   5   4   4  234.28   12.50
   5   4   4  231.48   12.10
  -5   4  -4  224.58   11.70
   5  -4   4  215.08   10.30
  -5  -4  -4  223.98    9.90
  -5  -4  -4  219.28   10.30
   5   4   5   46.90    6.40
  -5   4  -5   42.70    5.40
  -5  -4  -5   55.19    4.60
  -5  -4  -5   44.10    4.10
   5   4   6   -2.80    5.70
  -5  -4  -6    3.00    2.50
  -5  -4  -6    5.00    2.30
  -5   4  -7  296.87   16.30
  -5  -4  -7  317.27   14.60
  -5  -4  -7  321.27   13.90
  -5   4  -8   11.30    5.50
  -5  -4  -8   18.60    4.10
  -5  -4  -8   19.10    3.60
   5   5 -10   19.80    7.70
   5  -5 -10   15.30    8.90
   5   5  -9   -7.70    5.80
   5  -5  -9   -5.50    6.60
   5   5  -8   11.40    4.70
   5  -5  -8    5.80    5.90
   5  -5  -8    6.90    1.90
   5  -5  -8    9.20    2.70
   5  -5  -7    2.10    4.80
  -5  -5   7   -2.50    3.60
   5  -5  -7   -0.60    1.70
   5  -5  -7    3.80    3.50
   5   5  -6   27.30    4.50
   5   5  -6   30.30    3.80
   5  -5  -6   33.10    3.50
   5  -5  -6   37.50    5.10
   5  -5  -6   40.60    6.20
  -5  -5   6   44.50    5.70
   5   5  -5  136.49    8.00
   5   5  -5  132.79    7.30
  -5  -5   5  134.89    8.40
  -5  -5   5  134.09    6.30
   5  -5  -5  147.39    9.80
  -5  -5   5  128.89    5.60
   5  -5  -5  142.19    7.10
   5  -5  -5  146.19   10.70
   5   5  -4  293.17   12.80
  -5   5   4  292.17   13.30
   5   5  -4  301.27   12.70
   5  -5  -4  300.07   12.40
   5  -5  -4  282.87   14.10
   5  -5  -4  286.27   13.30
  -5  -5   4  237.38   12.90
   5   5  -3  542.95   20.70
  -5   5   3  512.05   21.80
   5   5  -3  523.25   21.20
   5  -5  -3  530.95   20.80
  -5  -5   3  503.65   21.70
   5  -5  -3  522.35   21.30
  -5  -5   3  524.75   19.90
   5  -5  -3  502.65   22.00
   5   5  -2   16.00    2.10
   5   5  -2   20.20    3.00
   5  -5  -2   12.90    2.90
   5  -5  -2   18.00    2.60
   5  -5  -2   17.10    2.40
  -5  -5   2   15.00    1.90
  -5  -5   2   12.00    3.10
  -5   5   1    2.40    1.90
   5   5  -1   -1.40    1.40
   5   5  -1   -1.50    1.70
   5  -5  -1    1.00    1.50
  -5  -5   1    0.00    0.90
  -5  -5   1    0.30    1.60
   5  -5  -1   -0.80    1.60
   5  -5  -1    1.30    1.10
  -5   5   0   52.29    5.00
   5   5   0   50.49    4.10
   5   5   0   52.59    4.70
   5  -5   0   53.19    4.10
   5  -5   0   57.69    3.80
   5  -5   0   52.79    3.60
  -5  -5   0   51.89    3.50
  -5  -5   0   53.79    3.60
   5   5   1  176.28    9.40
  -5   5  -1  171.98    9.40
   5   5   1  188.78    9.10
  -5  -5  -1  165.78    7.60
   5  -5   1  179.18    8.10
  -5  -5  -1  167.68    8.00
   5  -5   1  167.68    7.80
  -5   5  -2    0.80    2.20
   5   5   2    2.00    2.60
   5   5   2    3.50    2.70
  -5  -5  -2    0.50    1.30
   5  -5   2    2.90    0.90
   5  -5   2   -0.40    1.40
  -5  -5  -2    1.60    1.30
   5  -5   2    3.30    1.40
   5   5   3   55.39    6.00
  -5   5  -3   41.70    5.10
   5   5   3   46.70    5.40
  -5  -5  -3   45.40    3.60
  -5  -5  -3   41.50    3.80
   5  -5   3   45.90    2.70
   5  -5   3   47.40    2.70
   5  -5   3   40.80    3.80
   5   5   4   -0.70    3.90
   5   5   4    3.60    3.70
  -5   5  -4   -0.90    2.50
  -5  -5  -4    0.00    1.50
   5  -5   4   -0.40    1.90
  -5  -5  -4    1.80    1.70
   5   5   5   70.69    8.90
  -5   5  -5   54.49    6.90
  -5  -5  -5   58.69    4.90
  -5  -5  -5   65.29    5.00
   5   5   6   29.90    7.60
  -5  -5  -6   33.00    5.40
  -5  -5  -6   42.30    4.80
  -5   5  -7   59.39    7.70
  -5  -5  -7   60.49    5.80
  -5  -5  -7   74.59    6.10
  -5   5  -8   24.10    6.60
  -5  -5  -8   28.00    4.40
  -5  -5  -8   13.80    3.90
   5   6 -10   13.20    7.50
   5  -6 -10   10.50    9.30
   5   6  -9   38.90    7.90
   5  -6  -9   57.89   10.40
   5  -6  -9   36.80    4.40
   5  -6  -9   42.90    4.40
   5   6  -8    7.30    4.20
   5  -6  -8    2.60    2.20
  -5  -6   8   -3.10    4.50
   5  -6  -8    6.00    3.10
   5  -6  -8    8.60    6.70
   5  -6  -7   64.79    5.00
  -5  -6   7   58.79    7.60
   5  -6  -7   58.39    6.20
   5   6  -6  114.89    8.00
   5   6  -6  124.49    7.30
   5  -6  -6  138.59    8.70
   5  -6  -6  133.49   10.00
  -5  -6   6  144.79    9.10
   5  -6  -6  135.79    7.30
   5   6  -5  183.38    9.00
   5   6  -5  188.48    9.40
  -5  -6   5  182.38    7.30
   5  -6  -5  177.18    9.00
  -5  -6   5  170.08    8.30
  -5  -6   5  175.48    9.80
   5  -6  -5  170.68   11.10
  -5   6   4  145.89    8.60
   5   6  -4  146.39    7.30
  -5  -6   4  140.69    8.50
  -5  -6   4  144.69    6.30
   5  -6  -4  152.58    7.70
   5  -6  -4  144.59    9.50
   5  -6  -4  143.19    8.60
   5   6  -3  146.39    7.10
  -5   6   3  148.99    8.60
   5   6  -3  144.09    8.10
   5  -6  -3  153.38    9.10
  -5  -6   3  139.69    8.50
   5  -6  -3  136.79    8.00
  -5  -6   3  145.09    6.50
   5  -6  -3  151.78    7.60
  -5   6   2   13.20    3.10
   5   6  -2   13.40    2.80
   5   6  -2   12.20    2.20
   5  -6  -2   11.60    2.40
   5  -6  -2   11.50    3.10
  -5  -6   2    9.10    1.50
   5  -6  -2   11.60    2.60
  -5  -6   2   13.60    2.80
   5   6  -1  242.78   12.00
   5   6  -1  259.67   11.20
  -5   6   1  237.78   12.30
   5  -6  -1  241.78   11.10
   5  -6  -1  250.97   11.80
   5  -6  -1  255.57   11.10
  -5  -6   1  256.27   10.80
  -5  -6   1  258.47   11.30
   5   6   0   53.79    5.00
   5   6   0   51.79    4.50
   5  -6   0   51.09    3.90
   5  -6   0   51.09    3.60
   5  -6   0   43.50    4.10
  -5  -6   0   44.60    3.60
  -5  -6   0   49.99    3.40
  -5   6  -1   75.29    6.20
   5   6   1   69.19    5.70
   5  -6   1   70.59    4.70
   5  -6   1   63.99    4.40
  -5  -6  -1   80.19    4.10
  -5  -6  -1   69.09    4.60
   5  -6   1   52.29    4.30
   5   6   2  415.56   18.70
   5   6   2  417.36   18.10
  -5   6  -2  379.56   18.10
   5  -6   2  398.16   16.10
   5  -6   2  396.66   16.80
   5  -6   2  414.26   15.70
  -5  -6  -2  414.16   16.40
  -5  -6  -2  412.36   16.90
  -5   6  -3   11.60    3.20
   5   6   3    7.70    3.50
   5   6   3   12.40    3.80
  -5  -6  -3   12.70    2.30
   5  -6   3    7.20    1.80
  -5  -6  -3   11.20    2.10
   5   6   4   95.59    8.90
   5   6   4  105.69    9.40
  -5   6  -4  109.59    8.50
  -5  -6  -4  115.29    6.60
  -5  -6  -4  114.19    6.40
   5  -6   4  102.39    6.60
  -5   6  -5   26.20    4.90
   5   6   5   16.50    6.10
  -5  -6  -5   13.60    2.70
  -5  -6  -5   20.50    3.20
  -5  -6  -6   12.70    3.20
  -5   6  -7   68.19    9.50
  -5  -6  -7   66.69    6.30
  -5  -6  -7   70.19    6.70
  -5   6  -8   -2.80    5.40
  -5  -6  -8   -1.20    4.00
  -5  -6  -8   -3.60    3.10
   5   7 -10  115.99   13.10
   5  -7 -10  122.39    6.20
   5  -7 -10  127.89   14.40
   5  -7 -10  116.79    5.90
   5   7  -9   29.70    6.80
   5  -7  -9   33.90    4.80
   5  -7  -9   46.00    9.80
   5  -7  -9   40.30    4.40
   5  -7  -8   -0.70    3.30
  -5  -7   8    2.80    4.90
   5  -7  -8   10.50    6.60
   5  -7  -8    1.00    2.70
   5  -7  -7  419.76   18.20
   5  -7  -7  422.76   19.40
   5  -7  -7  408.26   22.00
  -5  -7   7  467.25   20.40
   5   7  -6  511.25   21.80
  -5  -7   6  567.14   23.10
   5  -7  -6  512.75   21.70
   5  -7  -6  527.85   23.00
   5  -7  -6  508.55   24.40
   5   7  -5   26.20    3.60
   5   7  -5   35.30    4.90
  -5  -7   5   35.70    4.50
   5  -7  -5   38.20    4.50
  -5  -7   5   30.40    4.40
  -5  -7   5   33.10    2.40
   5  -7  -5   31.10    5.70
   5   7  -4    0.10    2.50
   5   7  -4    1.80    1.90
  -5  -7   4    0.90    1.00
   5  -7  -4    2.10    2.00
   5  -7  -4    3.70    3.30
  -5  -7   4    2.90    2.80
   5  -7  -4    1.60    3.30
   5   7  -3  430.26   18.90
   5   7  -3  436.96   17.70
  -5   7   3  423.96   19.40
  -5  -7   3  428.36   17.20
   5  -7  -3  439.86   19.70
   5  -7  -3  429.86   18.70
   5  -7  -3  440.86   18.50
  -5  -7   3  454.15   19.30
   5   7  -2  244.68   12.20
   5   7  -2  240.18   11.00
  -5   7   2  241.08   12.50
  -5  -7   2  240.08   11.80
  -5  -7   2  241.18   10.60
   5  -7  -2  253.87   11.50
   5  -7  -2  256.17   12.30
   5  -7  -2  240.28   11.40
  -5   7   1  508.15   22.30
   5   7  -1  498.45   21.80
   5   7  -1  524.35   20.90
   5  -7  -1  528.75   21.00
   5  -7  -1  508.45   20.60
  -5  -7   1  518.95   20.50
  -5  -7   1  506.95   20.50
   5  -7  -1  487.05   21.30
  -5   7   0    4.60    2.70
   5   7   0    3.50    2.70
   5   7   0    6.30    2.60
  -5  -7   0    9.50    1.80
   5  -7   0    5.10    2.30
   5  -7   0    5.20    1.70
   5  -7   0    5.30    1.70
  -5  -7   0    6.60    1.90
  -5   7  -1   63.59    6.30
   5   7   1   74.39    6.00
   5   7   1   54.79    6.20
   5  -7   1   63.99    4.70
  -5  -7  -1   63.59    4.70
   5  -7   1   62.49    4.20
  -5  -7  -1   61.89    4.00
   5  -7   1   63.59    4.60
   5   7   2   19.90    4.10
   5   7   2   20.90    4.30
  -5   7  -2   20.90    4.30
   5  -7   2   17.50    2.40
   5  -7   2   25.00    3.10
  -5  -7  -2   23.50    2.90
  -5  -7  -2   16.60    2.70
   5  -7   2   15.20    2.00
   5   7   3  269.27   14.80
   5   7   3  274.47   15.10
  -5   7  -3  307.47   15.10
  -5  -7  -3  306.67   12.90
   5  -7   3  294.07   12.80
  -5  -7  -3  281.27   12.90
  -5   7  -4  574.34   25.40
   5   7   4  566.04   26.50
   5   7   4  550.94   25.70
  -5  -7  -4  573.44   23.30
  -5  -7  -4  593.04   23.30
  -5   7  -5  135.99   10.30
  -5  -7  -5  134.59    7.80
  -5  -7  -5  124.99    7.80
  -5   7  -6   14.00    7.60
  -5  -7  -6   14.10    3.60
  -5   7  -7    5.60    6.00
  -5  -7  -7    4.40    3.80
  -5  -7  -7   15.40    3.30
  -5   7  -8   14.40    6.60
  -5  -7  -8   19.70    4.50
  -5  -7  -8   18.40    5.00
   5   8 -10    3.00    7.00
   5  -8 -10    3.10    2.90
   5  -8 -10   16.90   10.60
   5  -8 -10    4.50    3.10
   5   8  -9   45.80    7.10
   5  -8  -9   19.50    9.10
   5  -8  -9   38.50    5.00
   5  -8  -9   39.90    4.80
   5  -8  -8   82.39    7.10
   5  -8  -8   93.29   11.20
   5  -8  -8   92.39    8.10
  -5  -8   8   93.99    9.90
   5  -8  -7  138.59   12.40
  -5  -8   7  142.19   10.10
   5  -8  -7  118.29    8.30
   5   8  -6   70.29    6.30
  -5  -8   6   66.29    7.20
   5  -8  -6   69.79    8.50
  -5  -8   6   63.59    3.10
   5  -8  -6   64.99    6.40
   5   8  -5   40.50    5.50
   5   8  -5   38.90    4.10
  -5  -8   5   36.90    4.90
  -5  -8   5   44.40    2.80
   5  -8  -5   48.40    7.00
   5  -8  -5   41.10    5.40
   5   8  -4 1200.08   47.60
   5   8  -4 1196.48   46.10
   5  -8  -4 1303.37   49.99
  -5  -8   4 1223.98   47.70
   5  -8  -4 1218.08   48.70
  -5  -8   4 1202.18   45.40
   5  -8  -4 1178.18   47.00
   5   8  -3  669.93   27.90
  -5   8   3  653.13   28.30
   5   8  -3  658.33   26.40
  -5  -8   3  687.63   26.10
  -5  -8   3  677.93   28.00
   5  -8  -3  655.43   27.40
   5  -8  -3  677.93   27.30
   5  -8  -3  672.53   28.40
   5   8  -2   72.09    6.50
   5   8  -2   85.59    5.50
  -5   8   2   81.19    7.10
   5  -8  -2   84.99    6.00
   5  -8  -2   80.29    6.60
   5  -8  -2   80.39    5.90
  -5  -8   2   76.09    5.70
   5   8  -1  104.09    6.70
  -5   8   1  108.59    8.30
   5   8  -1  106.79    7.80
   5  -8  -1  107.19    6.70
  -5  -8   1  107.09    5.80
  -5  -8   1  107.99    6.10
   5  -8  -1  104.59    7.10
   5  -8  -1  106.29    6.40
  -5   8   0  467.25   21.20
   5   8   0  475.35   20.10
   5   8   0  476.75   21.10
  -5  -8   0  470.85   19.40
  -5  -8   0  460.85   18.50
   5  -8   0  479.35   18.80
   5  -8   0  440.06   20.10
   5  -8   0  454.55   19.50
  -5   8  -1    7.30    3.70
   5   8   1    8.20    3.90
   5   8   1    7.10    3.40
   5  -8   1    7.70    2.50
  -5  -8  -1    6.00    2.30
   5  -8   1    9.90    2.50
  -5  -8  -1    9.60    2.00
   5  -8   1    8.50    1.80
   5   8   2  717.43   30.40
   5   8   2  701.43   29.40
   5  -8   2  691.33   27.00
  -5  -8  -2  693.53   28.00
  -5  -8  -2  691.33   27.40
   5  -8   2  687.43   26.50
   5  -8   2  715.63   27.80
   5   8   3  889.71   37.70
  -5   8  -3  954.50   38.20
   5   8   3  911.41   38.50
  -5  -8  -3  938.31   35.70
   5  -8   3  873.81   35.50
  -5  -8  -3  928.11   36.00
  -5   8  -4    0.30    3.90
   5   8   4    7.50    5.60
  -5  -8  -4   -1.70    2.40
  -5  -8  -4    5.10    2.60
  -5   8  -5   13.10    9.00
  -5  -8  -5   25.00    4.00
  -5  -8  -5   28.60    3.90
  -5   8  -6  157.78   12.90
  -5  -8  -6  170.88   10.00
  -5   8  -7  130.79   12.60
  -5  -8  -7  141.59    8.80
  -5  -8  -7  116.89   10.40
  -5   8  -8    5.70    6.80
  -5  -8  -8    9.20    3.70
   5   9  -9    3.90    5.90
   5  -9  -9   -8.80    8.60
   5  -9  -9    7.10    4.20
   5  -9  -9    1.90    3.90
   5  -9  -8    1.50    3.90
   5  -9  -8   -0.30    7.20
  -5  -9   8    4.10    5.10
   5  -9  -8   -0.20    4.10
   5  -9  -7  263.27   13.90
  -5  -9   7  291.77   14.90
   5  -9  -7  273.77   17.80
   5  -9  -6   43.60    5.30
  -5  -9   6   41.70    5.60
  -5  -9   6   43.10    2.80
   5   9  -5  168.58   10.30
   5   9  -5  181.58    9.60
  -5  -9   5  169.38    7.40
   5  -9  -5  193.48   11.50
   5  -9  -5  165.78   11.80
   5  -9  -5  162.08    9.90
  -5  -9   5  129.19    9.60
   5   9  -4   24.90    3.50
   5   9  -4   22.50    4.40
  -5  -9   4   19.70    4.30
  -5  -9   4   23.60    2.80
   5  -9  -4   20.30    3.70
   5  -9  -4   15.50    4.70
   5   9  -3  777.22   31.20
   5   9  -3  812.22   32.80
   5  -9  -3  816.42   32.10
  -5  -9   3  795.72   32.40
  -5  -9   3  782.92   30.70
   5  -9  -3  768.22   32.00
   5  -9  -3  781.82   33.00
   5   9  -2  140.19    8.10
   5   9  -2  134.49    9.20
  -5   9   2  150.18    9.90
   5  -9  -2  139.19    8.50
   5  -9  -2  148.89    8.60
   5  -9  -2  147.99    9.20
  -5  -9   2  142.39    7.90
   5   9  -1   48.40    6.10
   5   9  -1   57.39    5.70
  -5   9   1   60.09    7.00
   5  -9  -1   57.69    5.10
  -5  -9   1   55.99    4.00
  -5  -9   1   52.89    4.60
   5  -9  -1   54.09    5.10
   5  -9  -1   60.79    5.70
   5   9   0   20.30    4.10
  -5   9   0    4.70    3.70
   5   9   0    7.40    4.00
   5  -9   0    9.20    2.70
  -5  -9   0    8.00    2.40
   5  -9   0   13.90    3.00
   5  -9   0   10.10    2.40
  -5  -9   0   11.30    2.10
   5   9   1   -1.80    3.50
   5   9   1   -0.80    3.90
  -5   9  -1   -4.90    3.10
   5  -9   1    3.50    2.40
  -5  -9  -1    1.00    1.50
   5  -9   1    1.00    2.30
   5  -9   1    1.80    1.60
  -5  -9  -1    3.70    2.30
   5   9   2  501.15   23.70
  -5   9  -2  535.05   24.40
   5   9   2  565.14   25.10
  -5  -9  -2  535.05   22.50
   5  -9   2  533.15   20.50
   5  -9   2  523.45   21.30
  -5  -9  -2  552.24   21.80
   5  -9   2  548.55   22.20
   5   9   3  390.06   20.30
  -5   9  -3  403.66   19.70
  -5  -9  -3  398.86   17.40
   5  -9   3  369.66   16.80
  -5  -9  -3  406.06   17.00
  -5   9  -4  149.59   11.40
  -5  -9  -4  168.48    9.20
  -5  -9  -4  154.28    9.00
  -5   9  -5   10.50    4.70
  -5  -9  -5   10.70    3.60
  -5  -9  -5    6.60    3.40
  -5   9  -6   51.79    8.10
  -5  -9  -6   29.70    4.50
  -5   9  -7   79.59   10.00
  -5  -9  -7   82.49    8.30
  -5  -9  -7   75.79    7.30
  -5   9  -8   -0.70    7.20
  -5  -9  -8    4.50    5.20
  -5  -9  -8    1.80    3.60
   5 -10  -9    7.10    4.90
   5 -10  -9   -3.50    9.70
   5 -10  -8    1.50    4.60
  -5 -10   8   -0.80    5.20
   5 -10  -8    4.50    7.70
   5 -10  -8   -6.60    4.10
  -5 -10   7   89.69    8.90
   5 -10  -7   65.19    7.80
   5 -10  -7   78.59   10.70
   5 -10  -6   35.70    5.90
  -5 -10   6   33.30    5.50
  -5 -10   6   27.10    2.60
   5  10  -5  256.77   13.80
  -5 -10   5  228.48   13.30
  -5 -10   5  265.97   10.90
   5 -10  -5  244.68   14.60
   5 -10  -5  257.17   13.30
   5  10  -4   -1.40    3.30
   5  10  -4    1.60    3.20
   5 -10  -4    3.10    3.90
  -5 -10   4   -1.90    1.80
  -5 -10   4    2.40    3.60
   5 -10  -4   -1.90    2.90
   5  10  -3   79.99    7.50
   5  10  -3   71.89    6.10
  -5  10   3   53.99    7.60
  -5 -10   3   79.79    6.90
   5 -10  -3   74.59    6.70
   5 -10  -3   81.39    7.60
  -5 -10   3   79.89    5.40
   5 -10  -3   86.99    7.50
   5  10  -2  170.88    9.70
   5  10  -2  172.38   10.90
  -5  10   2  161.18   11.10
   5 -10  -2  178.38   10.60
   5 -10  -2  185.58   10.10
  -5 -10   2  181.68    9.00
   5 -10  -2  160.88    9.60
  -5  10   1    1.90    4.50
   5  10  -1    0.20    3.40
   5  10  -1    4.00    3.40
   5 -10  -1   -1.40    2.80
  -5 -10   1    2.80    2.00
   5 -10  -1    1.00    3.00
  -5 -10   1    1.80    1.60
   5 -10  -1   -1.60    2.70
  -5  10   0    0.50    3.20
   5  10   0    2.80    3.50
   5  10   0    5.40    3.80
   5 -10   0    3.50    2.80
   5 -10   0    5.00    2.30
  -5 -10   0    3.40    3.30
   5 -10   0    2.50    2.40
  -5 -10   0    2.00    1.50
  -5  10  -1    0.40    4.00
   5  10   1    0.90    3.60
   5 -10   1    2.00    2.10
  -5 -10  -1    4.70    1.80
   5 -10   1    7.00    1.90
  -5 -10  -1    5.00    2.90
   5 -10   1    3.30    2.50
   5  10   2  203.08   13.50
  -5  10  -2  198.78   13.20
  -5 -10  -2  217.38   11.10
   5 -10   2  212.98    8.80
   5 -10   2  199.28   10.40
  -5 -10  -2  203.98   10.00
   5 -10   2  197.18   10.90
   5  10   3   69.59    9.70
  -5  10  -3   63.79    8.60
  -5 -10  -3   59.19    5.50
   5 -10   3   54.39    5.20
  -5 -10  -3   56.79    5.90
  -5  10  -4  145.09   11.90
  -5 -10  -4  144.79    9.00
  -5 -10  -4  161.28    9.20
  -5 -10  -5   37.90    5.40
  -5  10  -6    3.70    6.00
  -5 -10  -6    4.10    4.00
  -5 -10  -6   -1.40    3.10
  -5  10  -7    1.30    6.90
  -5 -10  -7    6.50    3.80
  -5 -10  -7    7.70    4.80
  -5 -10  -8   31.00    4.90
  -5 -10  -8   25.00    6.50
   5 -11  -9   42.10    6.60
   5 -11  -9   57.09   12.00
   5 -11  -8    7.70    5.20
   5 -11  -8    1.90    8.70
   5 -11  -7  221.38   17.50
   5 -11  -7  225.48   14.80
   5 -11  -7  226.38   13.60
  -5 -11   7  264.97   14.00
  -5 -11   6  112.19    5.60
   5 -11  -6  119.69   10.00
  -5 -11   6   96.99    9.10
   5  11  -5   38.00    6.00
  -5 -11   5   34.00    5.50
  -5 -11   5   28.00    3.70
   5 -11  -5   24.70    4.60
   5  11  -4   24.70    4.90
   5 -11  -4   21.60    5.60
   5 -11  -4   17.60    3.80
  -5 -11   4   21.00    4.90
  -5 -11   4   20.20    3.20
  -5  11   3    3.00    3.90
   5  11  -3    7.40    4.00
  -5 -11   3   16.10    3.10
   5 -11  -3   10.40    3.50
   5 -11  -3   14.80    4.50
  -5 -11   3   12.70    3.90
   5  11  -2   15.30    4.20
  -5  11   2   12.40    4.60
  -5 -11   2   18.40    3.10
  -5 -11   2   16.30    3.00
   5 -11  -2   12.10    3.80
   5 -11  -2   18.30    3.70
   5 -11  -2   27.80    5.10
  -5  11   1   89.89    9.50
   5  11  -1   85.29    8.60
  -5 -11   1   85.59    6.50
   5 -11  -1   86.19    7.30
   5 -11  -1   87.59    6.90
   5 -11  -1   98.39    7.60
  -5 -11   1   91.79    5.40
  -5  11   0   71.79    8.50
   5  11   0   66.09    8.30
  -5 -11   0   63.59    6.20
   5 -11   0   69.49    6.30
  -5 -11   0   62.19    4.50
   5 -11   0   50.69    5.50
   5  11   1  477.95   22.70
  -5  11  -1  459.85   22.60
  -5 -11  -1  465.95   19.10
   5 -11   1  446.16   20.20
   5 -11   1  464.35   19.60
   5 -11   1  468.75   18.80
  -5 -11  -1  448.46   20.30
   5  11   2    1.50    5.20
  -5  11  -2    2.70    4.30
  -5 -11  -2    4.00    2.30
   5 -11   2   -0.30    2.80
   5 -11   2    4.70    2.40
   5 -11   2    5.40    2.30
  -5 -11  -2    6.80    3.10
   5  11   3   -3.80    6.30
  -5  11  -3    0.90    4.70
  -5 -11  -3    5.80    2.70
   5 -11   3    4.40    1.20
  -5 -11  -3    1.70    2.80
   5 -11   3    4.80    1.30
  -5  11  -4   62.59    8.30
  -5 -11  -4   78.99    7.20
  -5 -11  -4   78.89    6.90
  -5 -11  -5    7.20    3.90
  -5 -11  -5    8.70    4.00
  -5  11  -6  281.57   18.80
  -5 -11  -6  263.67   14.50
  -5 -11  -6  268.57   14.10
  -5  11  -7   10.30    7.70
  -5 -11  -7   24.80    5.60
  -5 -11  -7   16.10    4.80
   5 -12  -9   11.70   10.50
  -5 -12   9   26.30    9.10
   5 -12  -9   11.00    5.80
   5 -12  -8   92.49   12.40
   5 -12  -8   74.99   10.20
  -5 -12   7   57.89    7.50
   5 -12  -7   44.80    9.50
   5 -12  -7   53.29    8.20
   5 -12  -6   54.99    8.00
  -5 -12   6   38.10    6.20
  -5 -12   6   44.90    4.20
   5 -12  -6   49.90    6.70
   5  12  -5   89.99   10.40
  -5 -12   5  101.79    6.60
   5 -12  -5  104.79   11.00
   5 -12  -5  106.49    9.10
  -5 -12   5  110.99    9.90
   5  12  -4  422.16   20.70
   5 -12  -4  397.16   19.50
  -5 -12   4  427.86   18.10
   5 -12  -4  394.66   20.90
  -5 -12   4  446.96   20.20
   5 -12  -4  400.06   21.40
   5  12  -3   33.10    6.60
   5 -12  -3   31.90    5.80
  -5 -12   3   40.10    5.20
   5 -12  -3   25.20    4.60
  -5 -12   3   37.40    4.60
  -5  12   2   24.10    5.90
   5  12  -2   14.30    4.60
  -5  12   2   24.20    4.60
   5 -12  -2   23.30    5.10
   5 -12  -2   18.90    4.30
  -5 -12   2   20.90    3.20
   5 -12  -2   26.00    4.70
  -5 -12   2   17.00    3.60
   5  12  -1  213.78   13.70
  -5  12   1  217.28   14.00
  -5  12   1  208.58   11.20
   5 -12  -1  221.18   12.00
   5 -12  -1  177.38   11.00
  -5 -12   1  198.08   11.10
  -5 -12   1  207.98    9.70
   5 -12  -1  211.48   12.00
  -5  12   0  344.67   18.90
   5  12   0  355.66   19.10
  -5 -12   0  343.57   14.90
   5 -12   0  348.27   16.40
   5 -12   0  349.17   16.80
   5 -12   0  342.37   15.50
  -5 -12   0  360.46   16.70
   5  12   1   38.80    6.90
  -5  12  -1   64.89    8.80
   5 -12   1   28.80    4.70
   5 -12   1   39.50    4.70
   5 -12   1   43.00    5.30
  -5 -12  -1   51.19    6.20
  -5 -12  -1   50.19    4.60
   5  12   2  130.69   12.50
  -5  12  -2  139.39   12.00
  -5 -12  -2  160.88   10.00
   5 -12   2  154.08    8.00
   5 -12   2  148.59    7.40
  -5 -12  -2  155.18    8.80
   5 -12   2  164.78    9.70
   5  12   3  632.64   31.90
  -5  12  -3  694.43   31.40
   5 -12   3  650.83   25.10
  -5 -12  -3  712.23   27.90
   5 -12   3  663.03   25.10
  -5  12  -4   11.40    6.20
  -5 -12  -4    7.60    3.80
  -5 -12  -4    8.70    3.80
  -5  12  -5   -3.40    5.90
  -5 -12  -5    4.10    6.40
  -5 -12  -5   -1.60    3.90
  -5  12  -6   12.60    7.50
  -5 -12  -6    6.20    4.10
  -5 -12  -6   -1.10    4.50
  -5  12  -7    1.00    8.00
  -5 -12  -7    1.00    5.40
  -5 -12  -7    7.00    4.50
   5 -13  -8    9.80    6.00
   5 -13  -8   12.40    9.50
   5 -13  -7   20.00    6.90
   5 -13  -7    6.50    7.80
   5 -13  -6  265.17   17.10
   5 -13  -6  276.17   18.40
   5  13  -5  575.14   30.30
  -5 -13   5  642.04   27.40
  -5 -13   5  610.34   24.70
   5 -13  -5  582.14   27.10
   5  13  -4  116.59   10.70
   5 -13  -4  128.39   10.00
  -5 -13   4  117.39    8.20
   5 -13  -4  133.49   12.30
  -5 -13   4  126.29   10.20
   5 -13  -4  133.89   12.30
   5  13  -3  802.42   36.40
  -5 -13   3  860.71   34.20
   5 -13  -3  840.02   36.10
   5 -13  -3  859.11   35.60
  -5 -13   3  850.91   34.20
  -5  13   2   44.60    7.80
   5  13  -2   28.10    6.30
   5 -13  -2   33.30    5.40
  -5 -13   2   27.40    3.70
   5 -13  -2   44.20    6.50
  -5 -13   2   27.00    4.10
  -5  13   1   -3.80    3.60
  -5  13   1    1.00    4.90
   5  13  -1    8.30    5.00
  -5 -13   1    0.50    3.20
   5 -13  -1    6.50    3.80
   5 -13  -1    5.50    3.70
   5 -13  -1    1.30    3.70
  -5 -13   1    2.60    1.90
   5  13   0  247.38   16.20
  -5  13   0  259.97   16.40
   5 -13   0  258.37   13.50
   5 -13   0  240.28   12.60
   5 -13   0  265.27   14.10
  -5 -13   0  265.27   11.90
  -5 -13   0  253.97   13.70
   5  13   1   39.90    7.20
  -5  13  -1   55.29    8.50
  -5 -13  -1   51.99    6.50
   5 -13   1   43.70    5.10
   5 -13   1   40.20    5.50
   5  13   2   44.20    8.20
  -5  13  -2   71.59    9.60
   5 -13   2   65.29    7.50
   5 -13   2   63.89    5.40
  -5 -13  -2   69.29    5.80
   5 -13   2   69.39    5.10
  -5 -13  -2   54.19    7.40
  -5  13  -3   91.29   11.60
   5 -13   3   74.79    4.30
   5 -13   3   81.69    4.30
  -5 -13  -3   79.69    8.30
  -5 -13  -3   91.29    7.30
  -5  13  -4  308.37   19.90
  -5 -13  -4  321.77   15.90
  -5 -13  -4  334.57   16.60
  -5  13  -5    8.00    7.60
  -5 -13  -5    8.30    4.90
  -5  13  -6    6.30    7.70
  -5 -13  -6    4.60    4.60
  -5 -13  -6    8.00    5.30
  -5  13  -7   52.49   11.00
  -5 -13  -7   86.29    9.10
  -5 -13  -7   71.29    9.00
   5 -14  -8   21.90    6.90
  -5 -14   8    9.90    7.90
   5 -14  -8    3.10    9.60
   5 -14  -7   15.00    8.70
   5 -14  -7   -1.50    6.60
   5 -14  -6   95.69   12.00
   5 -14  -6  101.19   12.30
  -5 -14   5   49.30    7.60
   5 -14  -5   46.70    8.60
   5 -14  -5   47.40    9.00
   5 -14  -5   28.60    7.40
   5  14  -4  208.78   14.50
   5 -14  -4  215.98   16.20
   5 -14  -4  214.28   13.70
  -5 -14   4  213.08   13.30
  -5 -14   4  212.48   11.80
   5  14  -3  145.79   12.00
  -5 -14   3  112.49    9.00
   5 -14  -3  135.59   10.90
   5 -14  -3  148.69   13.30
  -5 -14   3  138.19    9.10
   5 -14  -3  129.79   11.40
   5  14  -2   73.89   10.50
  -5 -14   2   85.99    6.00
   5 -14  -2   81.39    9.00
  -5 -14   2   70.49    7.50
  -5  14   1   18.30    5.10
  -5  14   1   21.10    7.00
   5  14  -1   23.60    7.00
   5 -14  -1   22.90    5.10
  -5 -14   1   25.00    4.90
  -5 -14   1   22.50    3.20
   5 -14  -1   33.70    6.00
   5  14   0    6.60    6.60
  -5  14   0    1.20    3.60
  -5  14   0   12.30    5.70
   5 -14   0   11.80    4.10
  -5 -14   0    9.10    3.80
  -5 -14   0    7.30    2.90
   5 -14   0   10.90    4.80
   5 -14   0    8.10    4.00
  -5  14  -1  128.09   12.70
   5  14   1  115.29   12.70
  -5 -14  -1   94.39    8.80
   5 -14   1   99.19    7.80
   5 -14   1  118.89    8.10
   5 -14   1  104.39    9.50
  -5  14  -2   25.70    7.50
   5  14   2   21.80    7.60
   5 -14   2   25.60    3.50
  -5 -14  -2   21.40    4.90
   5 -14   2   20.70    3.70
  -5 -14  -2   16.60    3.60
  -5  14  -3  155.68   14.30
   5 -14   3  117.39    7.10
  -5 -14  -3  147.79    9.50
  -5 -14  -3  154.88   11.00
  -5 -14  -4    5.50    4.20
  -5 -14  -4    4.40    4.30
  -5  14  -5   46.30    9.90
  -5 -14  -5   36.60    6.20
  -5 -14  -5   49.90    7.20
  -5  14  -6   16.30    9.20
  -5 -14  -6   22.60    6.10
  -5 -14  -6   24.00    5.20
   5 -15  -8    9.40   10.70
  -5 -15   8   12.50    7.20
   5 -15  -8    4.40    7.00
  -5 -15   7    5.30   10.10
   5 -15  -7   -0.80    9.20
   5 -15  -7   12.80    7.00
   5 -15  -6   26.80    8.70
   5 -15  -6   13.80    7.50
  -5 -15   5   40.70    8.20
   5 -15  -5   40.30    9.00
   5 -15  -5   27.80    7.80
   5  15  -4   -4.80    5.30
   5 -15  -4    5.40    6.10
   5 -15  -4    2.60    7.30
   5  15  -3    4.90    5.40
  -5 -15   3    7.00    3.90
  -5 -15   3    2.20    4.10
   5 -15  -3    5.20    6.30
   5 -15  -3    3.20    5.10
   5  15  -2    2.60    6.40
  -5 -15   2    1.40    3.70
   5 -15  -2    4.60    4.80
   5 -15  -2   -1.50    5.00
  -5 -15   2    4.20    3.00
   5 -15  -2    2.80    6.40
  -5  15   1  124.89   13.00
   5  15  -1  137.29   15.80
   5 -15  -1  131.49   10.40
   5 -15  -1  105.29   10.60
  -5 -15   1  115.59   11.30
  -5  15   0   24.70    5.10
   5  15   0    3.60    7.30
  -5  15   0   10.90    6.90
   5 -15   0   15.30    6.40
   5 -15   0   10.90    4.40
  -5 -15   0    9.70    4.90
  -5  15  -1   21.40    7.20
   5  15   1   26.00    9.30
   5 -15   1   23.10    4.60
  -5 -15  -1   25.60    5.70
   5 -15   1   17.20    5.20
   5 -15   1   15.80    4.80
   5  15   2   21.60   10.20
  -5  15  -2    3.80    7.20
  -5 -15  -2    4.70    4.60
   5 -15   2    2.70    3.10
   5 -15   2    3.60    3.00
  -5  15  -3   20.50    8.70
  -5 -15  -3   33.60    6.40
   5 -15   3   25.50    3.40
  -5 -15  -3   28.90    5.20
  -5  15  -4   68.39   13.90
  -5 -15  -4   58.09    9.70
  -5 -15  -4   72.89    8.30
  -5  15  -5   -4.90    8.40
  -5 -15  -5  -10.60    5.00
  -5 -15  -5    5.60    5.50
  -5  15  -6   61.29   11.10
  -5 -15  -6   60.59   11.20
  -5 -15  -6   70.09    9.30
   5 -16  -7    4.50    7.70
   5 -16  -7   20.20    9.50
  -5 -16   7   16.20    6.90
  -5 -16   6   19.10    7.50
   5 -16  -6   28.50    9.60
   5 -16  -6   14.50    8.70
   5 -16  -5   94.09   12.40
   5 -16  -5   76.29   11.30
   5 -16  -4   80.79   10.40
   5  16  -3   60.79   11.80
   5  16  -2   45.90    9.10
   5 -16  -2   39.40    7.10
  -5 -16   2   36.50    5.80
   5 -16  -2   31.90    6.50
   5 -16  -2   66.39   10.70
   5  16  -1   22.80    8.10
  -5 -16   1   39.10    6.80
   5 -16  -1   36.00    6.70
   5 -16  -1   29.50    6.70
  -5  16   0   80.49   10.60
   5  16   0   51.59   10.20
  -5  16   0   62.99    8.10
   5 -16   0   57.89    7.10
  -5 -16   0   37.00    6.70
   5 -16   0   68.39    8.70
  -5  16  -1   22.50    8.00
   5  16   1   25.40    8.70
   5 -16   1   22.20    4.70
   5 -16   1   24.50    6.70
  -5 -16  -1   18.70    5.30
   5 -16   1   11.50    4.70
   5  16   2   59.39   13.20
  -5  16  -2   52.59    9.70
  -5 -16  -2   61.09    6.90
  -5 -16  -2   45.60    7.20
   5 -16   2   51.19    5.90
  -5  16  -3   91.89   12.80
  -5 -16  -3   81.49   10.70
  -5 -16  -3   89.49    8.30
  -5  16  -4    7.00    9.00
  -5 -16  -4    1.40    6.90
  -5 -16  -4    1.90    4.90
  -5  16  -5    8.20    9.70
  -5 -16  -5   10.30    6.00
  -5 -16  -5   10.80    5.60
  -5 -16  -6   -8.30    6.10
   5 -17  -7   86.39   11.80
   5 -17  -7   96.09   14.20
  -5 -17   7   97.49   13.00
  -5 -17   6   79.59   10.00
   5 -17  -6   92.59   12.80
   5 -17  -6   85.09   12.00
   5 -17  -5    2.30    8.20
   5 -17  -5   24.70    8.50
  -5 -17   5    3.40    6.90
   5 -17  -4    9.10    8.30
  -5 -17   4    7.00    6.10
   5 -17  -4    4.50    7.40
  -5 -17   3   34.60    5.60
   5 -17  -3   33.90    9.30
   5 -17  -3   30.40    7.50
   5 -17  -2  117.59   15.90
  -5 -17   2  131.29    8.20
  -5 -17   1   16.10    6.10
   5 -17  -1   25.70    7.90
   5 -17  -1   24.90    6.40
  -5 -17   1   27.90    4.10
   5 -17  -1   32.30    9.90
  -5  17   0   48.00   10.30
   5  17   0   52.89   11.50
  -5 -17   0   42.40    5.50
   5 -17   0   40.40    6.50
   5 -17   0   22.30    7.20
  -5 -17   0   49.00    7.70
   5 -17   0   55.79   11.40
  -5  17  -1  126.89   11.00
   5  17   1  146.59   17.60
  -5  17  -1  165.68   17.10
   5 -17   1  162.48   10.60
  -5 -17  -1  139.49   12.40
  -5 -17  -1  156.38    9.70
  -5  17  -2   19.80    7.90
  -5 -17  -2   28.40    5.40
   5 -17   2   24.10    4.20
  -5 -17  -2   18.30    5.90
  -5 -17  -3   15.60    6.60
  -5 -17  -3   19.80    5.10
  -5  17  -4   96.19   13.30
  -5 -17  -4   68.39    9.40
  -5  17  -5   43.40   11.00
  -5 -17  -5   39.50    8.00
  -5 -17  -5   28.80    7.20
  -5 -18   6    0.60    7.60
   5 -18  -6   -3.60    9.10
   5 -18  -6    6.50    9.50
   5 -18  -5   37.80   10.00
   5 -18  -5   45.30   10.30
  -5 -18   5   50.89    9.40
   5 -18  -4   31.20    9.90
   5 -18  -4   51.59    9.30
  -5 -18   4   66.59    8.60
  -5 -18   3   40.10    5.70
   5 -18  -3   35.30    8.80
  -5 -18   2  175.88   10.10
   5 -18  -2  185.88   23.00
   5 -18  -1   10.10    7.00
   5 -18  -1   21.90    9.70
  -5 -18   1   11.50    3.70
   5 -18   0   34.10   10.60
  -5 -18   0   13.90    3.90
  -5 -18   0   28.50    6.50
   5 -18   0   22.00    6.10
  -5  18  -1   65.59   11.90
   5 -18   1   63.69   13.10
  -5 -18  -1   54.59    6.70
   5 -18   1   65.29    7.20
  -5 -18  -1   66.89    9.00
   5 -18   2   10.50    3.80
  -5 -18  -2    4.80    6.60
  -5 -18  -2   10.60    4.80
  -5  18  -3   34.80    9.60
  -5 -18  -3   43.80    6.50
  -5 -18  -3   44.60    9.10
  -5  18  -4    1.50    8.70
  -5 -18  -4    0.30    5.50
  -5 -18  -4    4.20    7.00
  -5 -19   5   44.50    9.00
   5 -19  -5   34.60   10.50
   5 -19  -5   25.90   11.50
   5 -19  -4    9.70    9.40
  -5 -19   4   11.10    6.90
   5 -19  -4   16.00    8.30
   5 -19  -3   67.99   13.50
   5 -19  -3   55.39   10.00
  -5 -19   3   68.39    8.60
   5 -19  -2   48.60   12.00
  -5 -19   2   33.00    5.00
   5 -19  -2   47.00    8.60
   5 -19  -1  134.39   18.40
  -5 -19   1  101.89    7.80
  -5 -19   0   88.49    7.60
   5 -19   0   87.69   10.60
   5 -19   1   16.70    5.40
  -5 -19  -1   17.70    4.40
   5 -19   1   15.60   11.30
  -5 -19  -1    8.80    7.30
  -5 -19  -2   -0.50    6.60
  -5 -19  -2   16.80    5.30
  -5  19  -3   29.90   11.20
  -5 -19  -3   35.80    8.60
  -5 -19  -3   24.60    5.60
  -5  19  -4    8.10   10.50
  -5 -19  -4   12.20    7.90
  -5 -19  -4    5.40    5.70
   5 -20  -5   22.90   10.30
  -5 -20   5   18.40    8.90
   5 -20  -4   20.00    9.30
  -5 -20   4   30.30    8.10
   5 -20  -4   30.40   12.40
  -5 -20   3    4.30    5.20
   5 -20  -3   -4.00   11.00
   5 -20  -3    2.90    8.10
  -5 -20   2    4.60    4.00
   5 -20  -2   15.00    7.90
   5 -20  -1   29.20    8.20
   5 -20  -1   36.30   11.60
  -5 -20   1   25.60    4.70
   5 -20   0   43.50   12.90
  -5 -20   0   39.70    5.60
  -5 -20  -1   66.79    8.10
   5 -20   1   65.69    7.70
  -5 -20  -2    8.00    5.10
  -5  20  -3    6.80   11.90
  -5 -20  -3    4.60    5.70
   5 -21  -3   21.30    9.20
  -5 -21   3   16.70    6.20
   5 -21  -3   27.70   12.60
   5 -21  -2   -0.40    8.30
  -5 -21   2    2.50    4.60
   5 -21  -1    7.50    7.50
   5 -21  -1   11.30   12.10
  -5 -21   1    5.20    4.30
  -5 -21   0    1.90    4.10
   5 -21   0    0.80    7.60
  -5 -21  -1    3.30    4.70
  -5 -21  -2   -2.40    5.00
  -5 -22   1   18.50    5.20
   5 -22  -1    6.10    8.60
   5 -22   0   15.00    7.30
  -5 -22   0   -5.40    4.20
   6   0 -10    4.70    8.10
   6   0  -9    1.20    6.10
   6   0  -8  125.19   11.00
   6   0  -7   -2.30    3.80
  -6   0   6   34.90    5.50
   6   0  -6   33.70    2.50
   6   0  -6   28.30    4.80
  -6   0   5    0.90    1.80
  -6   0   5    6.20    3.10
   6   0  -5    4.30    3.70
   6   0  -4  277.57   13.50
  -6   0   4  282.37   12.20
  -6   0   4  297.37   14.00
   6   0  -3   -0.10    2.30
  -6   0   3    1.40    1.50
   6   0  -3   -0.50    1.00
   6   0  -2 2089.89   76.89
   6   0  -2 2180.18   75.69
  -6   0   2 2002.40   76.09
  -6   0   2 1914.71   76.59
  -6   0   1   -0.90    1.70
   6   0  -1   -1.00    1.70
  -6   0   1    0.90    1.20
   6   0  -1   -0.30    1.00
  -6   0   0    8.20    2.00
  -6   0   0   10.10    1.90
   6   0   0   11.60    2.00
   6   0   0   11.70    1.80
  -6   0  -1   -2.30    1.20
  -6   0  -1    2.30    1.80
   6   0   1   -2.50    2.30
   6   0   1   -0.60    1.20
  -6   0  -2   43.20    3.90
  -6   0  -2   51.79    4.30
   6   0   2   45.40    3.90
   6   0   2   47.80    4.10
   6   0   3    3.70    2.00
  -6   0  -3   -0.90    1.80
   6   0   3    2.20    2.30
  -6   0  -3    0.30    1.70
   6   0   4  431.96   19.60
  -6   0  -4  487.85   19.40
   6   0   4  453.35   19.10
  -6   0  -4  436.96   18.20
   6   0   5    3.10    3.60
  -6   0  -5    0.90    1.90
  -6   0  -5   -1.80    2.20
  -6   0  -6  291.47   12.30
  -6   0  -7   -0.50    3.60
  -6   0  -8  120.29    9.90
   6   1 -10   23.20    8.50
   6  -1 -10    6.20    8.10
   6   1  -9   -2.10    6.20
   6  -1  -9   -8.40    6.30
   6   1  -8  217.38   13.60
   6  -1  -8  190.58   13.80
   6   1  -7   44.00    5.90
   6  -1  -7   36.10    6.20
   6  -1  -7   38.10    2.40
   6   1  -6   -0.30    1.20
   6  -1  -6    1.20    1.00
  -6  -1   6    1.10    3.70
   6  -1  -6   -1.00    3.40
  -6   1   5  515.05   23.20
   6   1  -5  486.35   22.60
  -6   1   5  538.85   20.90
   6   1  -5  542.15   20.60
  -6  -1   5  542.85   23.20
  -6  -1   5  539.65   20.50
   6  -1  -5  553.84   20.40
   6  -1  -5  524.35   24.40
  -6   1   4  276.17   12.00
   6   1  -4  255.07   11.80
  -6   1   4  284.37   13.50
   6   1  -4  270.27   13.20
   6  -1  -4  258.87   11.60
   6  -1  -4  269.17   12.80
  -6  -1   4  290.27   13.30
  -6  -1   4  276.37   12.20
   6   1  -3 1088.69   44.00
  -6   1   3 1200.48   44.40
  -6   1   3 1202.58   43.40
   6   1  -3 1186.78   42.60
  -6  -1   3 1050.09   42.70
   6  -1  -3 1163.78   42.50
  -6  -1   3 1011.40   43.70
   6  -1  -3 1166.68   43.80
  -6   1   2   20.10    2.60
  -6   1   2   17.70    2.90
   6   1  -2   14.50    2.70
   6   1  -2   17.60    2.30
  -6  -1   2   16.60    2.20
   6  -1  -2   19.30    2.40
   6  -1  -2   17.60    3.10
  -6  -1   2   17.40    3.00
   6   1  -1  167.68    7.70
   6   1  -1  174.58    7.90
  -6   1   1  137.29    8.10
  -6   1   1  145.49    7.90
  -6  -1   1  186.08    8.60
   6  -1  -1  179.08    7.70
  -6  -1   1  174.18    7.80
   6  -1  -1  159.48    8.30
   6   1   0 1136.59   41.30
   6   1   0 1106.39   41.80
  -6   1   0 1069.29   42.00
  -6   1   0 1050.09   41.80
  -6  -1   0 1108.49   41.80
  -6  -1   0 1109.89   42.30
   6  -1   0 1115.99   41.50
   6  -1   0 1099.39   41.60
  -6   1  -1    0.40    1.20
   6   1   1    1.50    2.50
   6   1   1   -0.70    1.30
  -6   1  -1    1.80    1.60
  -6  -1  -1   -1.20    1.80
   6  -1   1    2.10    1.00
   6  -1   1    1.60    1.40
  -6  -1  -1    0.60    1.40
   6   1   2    9.30    2.40
  -6   1  -2    3.10    1.50
  -6   1  -2    4.70    1.90
   6   1   2    9.10    2.30
   6  -1   2    4.30    1.70
  -6  -1  -2    4.80    1.80
   6  -1   2    8.80    2.30
  -6  -1  -2    1.80    1.90
  -6   1  -3    8.50    2.30
   6   1   3    9.10    2.90
   6   1   3   15.80    3.30
  -6   1  -3   14.70    2.60
   6  -1   3   17.40    2.90
   6  -1   3   13.10    2.60
  -6  -1  -3   12.40    2.20
  -6  -1  -3   13.10    2.40
  -6   1  -4  548.85   22.30
   6   1   4  546.35   22.30
   6   1   4  494.55   22.60
  -6   1  -4  505.35   20.90
   6  -1   4  545.95   22.30
  -6  -1  -4  517.55   20.70
  -6  -1  -4  542.75   21.90
   6  -1   4  530.45   21.50
  -6   1  -5   55.19    4.70
   6   1   5   60.79    7.40
  -6   1  -5   65.29    5.80
  -6  -1  -5   65.29    4.10
   6  -1   5   64.29    6.10
  -6  -1  -5   72.99    5.80
  -6   1  -6  191.98    8.60
   6   1   6  144.19   13.50
  -6  -1  -6  190.68    8.30
  -6   1  -7   19.50    4.80
  -6  -1  -7   14.40    3.60
  -6  -1  -7   12.20    2.40
  -6   1  -8    5.10    4.80
  -6  -1  -8    5.10    4.10
   6   2 -10   48.00    9.50
   6  -2 -10   28.60    9.50
   6   2  -9   13.10    6.20
   6  -2  -9   12.80    7.20
   6   2  -8   41.40    7.20
   6  -2  -8   51.19    8.10
   6   2  -7   58.19    7.50
  -6  -2   7   66.09    8.30
   6  -2  -7   61.09    3.10
   6  -2  -7   61.19    8.00
   6  -2  -7   59.09    4.90
   6   2  -6   38.20    3.20
   6  -2  -6   35.40    2.60
   6  -2  -6   32.40    5.20
  -6  -2   6   36.90    5.50
  -6   2   5   71.09    5.10
   6   2  -5   66.19    4.20
   6   2  -5   56.89    6.60
  -6  -2   5   69.59    4.00
  -6  -2   5   80.49    6.70
   6  -2  -5   71.59    6.90
   6  -2  -5   69.09    3.80
   6   2  -4  227.58   12.10
  -6   2   4  247.18   11.20
  -6   2   4  252.77   12.40
   6   2  -4  237.88   11.10
   6  -2  -4  226.58   11.30
  -6  -2   4  217.48   11.80
  -6  -2   4  251.77   12.10
   6  -2  -4  253.77   10.10
  -6   2   3  139.19    8.30
   6   2  -3  140.09    8.10
   6   2  -3  128.39    6.60
  -6   2   3  143.49    7.50
  -6  -2   3  149.29    6.70
   6  -2  -3  130.59    7.60
   6  -2  -3  134.09    6.40
  -6  -2   3  151.28    8.10
   6   2  -2   29.40    2.90
  -6   2   2   40.40    4.20
   6   2  -2   36.90    3.70
   6  -2  -2   35.40    4.00
  -6  -2   2   31.20    2.80
  -6  -2   2   38.20    4.10
   6  -2  -2   31.50    2.70
   6   2  -1  721.03   27.00
   6   2  -1  710.43   27.40
  -6   2   1  688.23   27.80
  -6   2   1  632.84   27.60
   6  -2  -1  693.63   27.70
  -6  -2   1  747.03   28.20
  -6  -2   1  691.63   27.10
   6  -2  -1  718.03   27.10
   6   2   0  103.49    5.10
  -6   2   0   88.59    5.80
  -6   2   0   84.39    5.50
   6   2   0   93.49    5.50
  -6  -2   0   89.99    6.10
   6  -2   0   95.29    5.40
  -6  -2   0   89.39    5.20
   6  -2   0   97.59    5.30
  -6   2  -1  107.89    5.70
   6   2   1   86.99    6.80
   6   2   1   97.59    5.70
  -6   2  -1  100.19    6.30
   6  -2   1  111.69    5.00
   6  -2   1  107.69    5.80
  -6  -2  -1  103.59    6.20
   6   2   2  742.03   29.50
  -6   2  -2  799.62   28.70
   6   2   2  747.53   29.90
  -6   2  -2  769.82   29.80
  -6  -2  -2  709.93   28.80
   6  -2   2  677.13   28.30
   6  -2   2  768.62   29.10
  -6   2  -3   19.80    3.50
   6   2   3   14.60    3.40
  -6   2  -3   16.60    2.20
   6   2   3   16.70    3.50
   6  -2   3   16.10    2.80
  -6  -2  -3   13.40    2.10
  -6  -2  -3   19.50    2.90
   6  -2   3   15.50    2.60
   6   2   4   55.89    6.20
  -6   2  -4   49.99    3.70
  -6   2  -4   58.19    5.40
   6   2   4   52.79    6.20
   6  -2   4   42.70    5.00
   6  -2   4   40.10    4.50
  -6  -2  -4   45.90    3.50
  -6  -2  -4   45.70    4.40
   6   2   5    0.50    4.40
  -6   2  -5    2.80    2.00
  -6   2  -5    1.30    2.40
   6  -2   5    3.20    2.90
  -6  -2  -5    2.20    1.50
  -6  -2  -5    1.10    1.90
  -6   2  -6   -0.10    1.50
   6   2   6    3.80    6.00
  -6  -2  -6    3.30    1.70
  -6   2  -7   15.20    4.80
  -6  -2  -7   14.30    3.80
  -6  -2  -7   11.10    2.30
  -6   2  -8   14.70    5.20
  -6  -2  -8   19.00    4.60
   6   3 -10    1.60    7.60
   6  -3 -10    5.70    8.30
   6   3  -9   25.40    6.80
   6  -3  -9   35.80    8.40
   6   3  -8   20.20    5.70
   6  -3  -8    8.50    6.20
  -6  -3   7   39.60    6.30
   6  -3  -7   30.20    7.00
   6  -3  -7   34.40    4.80
   6  -3  -7   32.80    2.60
   6   3  -6    0.00    1.70
   6  -3  -6    2.50    3.80
  -6  -3   6    1.40    3.30
   6  -3  -6   -0.10    1.10
   6   3  -5  200.38    9.20
  -6   3   5  205.58    9.80
   6   3  -5  176.68   11.10
  -6  -3   5  201.88   11.10
   6  -3  -5  205.48    8.60
  -6  -3   5  204.78    8.50
   6  -3  -5  203.28   11.70
  -6   3   4  110.39    7.10
   6   3  -4  111.59    7.10
   6   3  -4  114.09    7.80
  -6  -3   4  105.69    7.40
   6  -3  -4  128.79    5.80
   6  -3  -4  130.29    7.40
   6  -3  -4  120.29    8.10
  -6   3   3  146.99    8.60
   6   3  -3  148.89    8.00
  -6   3   3  142.79    7.90
   6   3  -3  144.89    7.30
   6  -3  -3  142.89    7.90
  -6  -3   3  132.79    8.10
  -6  -3   3  152.88    6.80
   6  -3  -3  142.79    6.70
   6   3  -2   19.80    2.70
   6   3  -2   15.70    2.30
  -6   3   2   14.70    2.90
   6  -3  -2   12.30    2.50
  -6  -3   2   23.50    3.50
   6  -3  -2   10.60    1.60
  -6  -3   2   17.40    2.10
   6   3  -1  541.35   20.90
   6   3  -1  507.05   21.50
  -6   3   1  539.55   22.10
  -6   3   1  506.25   21.70
  -6  -3   1  569.14   22.40
  -6  -3   1  530.45   21.00
   6  -3  -1  520.05   21.50
   6  -3  -1  548.45   21.10
   6   3   0    2.80    1.60
   6   3   0    1.70    1.60
  -6   3   0    4.30    1.90
  -6   3   0    6.50    2.50
   6  -3   0    4.40    1.50
   6  -3   0    5.20    2.00
  -6  -3   0    0.90    2.00
  -6  -3   0    5.20    1.70
  -6   3  -1   60.09    4.40
   6   3   1   67.29    4.80
   6   3   1   68.79    5.50
  -6   3  -1   61.79    5.20
   6  -3   1   85.29    5.70
  -6  -3  -1   64.09    4.70
  -6  -3  -1   69.59    4.50
   6  -3   1   69.99    3.90
  -6   3  -2  485.55   20.50
   6   3   2  473.35   20.70
  -6   3  -2  478.65   19.00
   6   3   2  491.45   20.40
  -6  -3  -2  477.45   19.10
   6  -3   2  488.35   19.60
   6  -3   2  479.15   18.60
  -6  -3  -2  475.45   19.60
   6   3   3  165.08   10.00
   6   3   3  180.48   10.00
  -6   3  -3  171.08    9.60
  -6   3  -3  176.38    8.00
  -6  -3  -3  174.78    7.90
   6  -3   3  182.98    8.80
  -6  -3  -3  175.58    8.80
   6  -3   3  184.18    8.20
  -6   3  -4    3.20    1.60
  -6   3  -4    2.60    2.70
   6   3   4   -1.20    3.60
   6   3   4    2.60    4.20
   6  -3   4    0.80    2.10
   6  -3   4   -0.60    2.50
  -6  -3  -4   -1.00    2.00
  -6  -3  -4    0.80    1.40
   6   3   5  139.59   10.70
  -6   3  -5  136.09    9.20
  -6  -3  -5  154.48    8.30
  -6  -3  -5  148.89    7.00
   6  -3   5  139.39    6.50
   6   3   6   17.70    6.40
  -6   3  -7   -5.90    4.40
  -6  -3  -7    0.90    2.20
  -6  -3  -7    4.40    3.20
  -6   3  -8   17.50    5.80
  -6  -3  -8   21.60    4.70
   6   4 -10   66.59   10.20
   6  -4 -10   52.39   11.20
   6   4  -9   76.09   10.20
   6  -4  -9   74.99   10.80
   6   4  -8   71.29    9.10
   6  -4  -8   74.89    3.90
   6  -4  -8   84.89    5.80
   6  -4  -8   82.69   11.10
  -6  -4   7    0.60    4.20
   6  -4  -7    0.40    5.60
   6  -4  -7    0.20    1.30
   6  -4  -7    0.80    2.80
   6   4  -6  122.89    6.90
   6  -4  -6  123.69    6.00
  -6  -4   6  125.59    9.20
   6  -4  -6  140.39   10.40
   6   4  -5  491.95   19.90
  -6   4   5  494.05   20.40
   6   4  -5  441.16   21.90
   6  -4  -5  479.65   22.00
  -6  -4   5  484.05   21.40
   6  -4  -5  496.55   19.20
  -6  -4   5  515.45   18.80
  -6   4   4  671.43   26.10
   6   4  -4  659.63   25.90
   6  -4  -4  610.04   25.70
  -6  -4   4  604.84   24.80
  -6  -4   4  556.24   25.90
   6  -4  -4  672.63   27.20
   6  -4  -4  671.93   24.70
   6   4  -3    3.50    1.80
   6   4  -3    3.10    1.90
  -6   4   3    7.30    2.50
   6  -4  -3    1.70    2.60
  -6  -4   3    1.20    1.10
  -6  -4   3   14.50    3.20
   6  -4  -3    1.10    1.10
   6  -4  -3    4.20    2.20
   6   4  -2 1181.08   45.90
  -6   4   2 1245.28   46.60
   6   4  -2 1240.68   45.20
  -6  -4   2 1237.28   46.60
   6  -4  -2 1141.79   45.50
  -6  -4   2 1184.18   44.90
   6  -4  -2 1156.98   45.10
  -6   4   1  239.38   11.00
  -6   4   1  218.98   11.20
   6   4  -1  229.98   10.00
   6   4  -1  232.08   10.90
   6  -4  -1  223.18   10.30
  -6  -4   1  222.68   11.20
   6  -4  -1  222.78    9.90
  -6  -4   1  215.28    9.70
   6   4   0  130.39    7.10
  -6   4   0  121.89    8.80
  -6   4   0  138.59    7.30
   6   4   0  141.69    7.90
  -6  -4   0  132.79    7.50
   6  -4   0  141.69    7.20
   6  -4   0  140.69    6.90
  -6  -4   0  137.29    6.70
   6   4   1  747.23   30.40
  -6   4  -1  760.52   31.20
  -6   4  -1  750.52   29.80
   6   4   1  789.52   31.30
   6  -4   1  778.72   30.00
  -6  -4  -1  767.32   29.80
   6  -4   1  814.12   29.50
  -6  -4  -1  748.53   29.80
   6   4   2    5.70    2.80
   6   4   2    3.60    2.50
  -6   4  -2    6.90    2.80
  -6   4  -2    5.20    1.90
   6  -4   2    7.00    2.10
  -6  -4  -2    6.00    1.70
  -6  -4  -2    1.80    2.50
   6   4   3   35.10    5.10
  -6   4  -3   33.00    3.30
   6   4   3   47.00    5.80
   6  -4   3   36.80    4.00
   6  -4   3   43.10    3.40
  -6  -4  -3   38.60    3.20
  -6  -4  -3   39.60    4.00
   6   4   4   33.10    5.60
  -6   4  -4   26.90    4.00
  -6   4  -4   35.50    2.60
   6   4   4   22.00    4.50
  -6  -4  -4   36.90    3.30
  -6  -4  -4   32.10    4.10
   6  -4   4   32.10    3.10
   6   4   5  176.98   12.50
  -6   4  -5  171.58   11.10
  -6  -4  -5  177.98    8.40
  -6  -4  -5  181.78    9.40
  -6   4  -6   -1.30    4.90
   6   4   6    1.40    6.50
  -6  -4  -6   -1.90    2.10
  -6   4  -7   -3.90    5.10
  -6  -4  -7   -1.10    3.00
  -6  -4  -7    0.50    2.50
  -6   4  -8   30.60    7.20
  -6  -4  -8   38.80    5.50
   6   5 -10   16.70    7.40
   6  -5 -10    3.40    9.30
   6   5  -9   30.70    7.80
   6  -5  -9   45.00    9.20
   6  -5  -8   60.89    6.20
   6  -5  -8   58.99    3.70
   6  -5  -8   57.19    9.20
   6   5  -7   39.20    4.10
   6  -5  -7   33.80    4.80
  -6  -5   7   44.40    6.40
   6  -5  -7   32.10    3.20
   6  -5  -7   33.60    6.80
   6   5  -6   27.80    3.50
  -6  -5   6   27.80    5.10
   6  -5  -6   22.70    3.10
   6  -5  -6   25.20    5.30
   6   5  -5   10.60    2.60
   6  -5  -5    7.80    3.80
  -6  -5   5    5.50    1.50
  -6  -5   5    6.40    3.40
   6  -5  -5    9.60    2.20
  -6   5   4    0.10    2.70
   6   5  -4    6.40    3.00
   6   5  -4    6.20    2.30
   6  -5  -4    7.60    3.50
  -6  -5   4    6.80    1.40
  -6  -5   4    5.60    2.90
   6  -5  -4    4.30    1.70
   6  -5  -4    4.30    3.00
   6   5  -3  799.02   31.20
  -6   5   3  765.62   31.70
   6   5  -3  795.82   30.40
   6  -5  -3  774.02   32.10
   6  -5  -3  748.83   30.90
  -6  -5   3  795.42   29.80
  -6  -5   3  809.62   31.80
   6  -5  -3  784.92   30.30
   6   5  -2   -0.20    1.80
  -6   5   2   -0.30    2.10
   6   5  -2   -1.70    1.40
  -6  -5   2    1.10    2.40
   6  -5  -2    0.40    2.20
   6  -5  -2   -1.90    2.00
  -6  -5   2    0.00    1.00
   6  -5  -2    0.20    1.30
   6   5  -1 1231.58   46.20
   6   5  -1 1262.97   47.40
  -6   5   1 1226.48   47.70
  -6  -5   1 1206.78   45.80
  -6  -5   1 1191.68   47.20
   6  -5  -1 1164.88   46.10
   6  -5  -1 1265.07   47.10
   6  -5  -1 1210.38   46.20
  -6   5   0   73.69    5.20
  -6   5   0   70.69    7.50
   6   5   0   80.59    6.20
   6   5   0   75.89    5.30
   6  -5   0   77.29    4.80
   6  -5   0   80.19    5.40
   6  -5   0   76.99    5.00
  -6  -5   0   71.89    4.60
  -6  -5   0   75.09    5.20
   6   5   1  785.02   31.10
  -6   5  -1  777.82   31.00
  -6   5  -1  761.32   29.30
   6   5   1  760.02   30.20
   6  -5   1  722.73   29.00
   6  -5   1  713.33   29.30
  -6  -5  -1  773.52   29.10
  -6  -5  -1  729.93   29.20
  -6   5  -2  535.55   23.60
  -6   5  -2  524.75   21.40
   6   5   2  553.04   23.30
   6   5   2  556.24   24.00
  -6  -5  -2  534.25   21.40
  -6  -5  -2  531.75   21.90
   6  -5   2  544.65   21.50
   6  -5   2  584.94   21.00
   6  -5   2  549.74   22.10
  -6   5  -3  370.56   17.60
   6   5   3  370.76   18.20
   6   5   3  382.36   17.90
  -6  -5  -3  376.56   15.20
  -6  -5  -3  380.76   15.90
   6  -5   3  362.66   14.70
   6  -5   3  358.16   14.80
   6  -5   3  387.96   16.10
  -6   5  -4  249.78   13.40
   6   5   4  238.48   14.90
   6   5   4  226.68   14.00
  -6  -5  -4  262.27   11.00
  -6  -5  -4  249.58   11.60
   6   5   5   45.30    7.80
  -6   5  -5   46.70    6.50
  -6  -5  -5   50.19    5.20
  -6  -5  -5   49.50    4.30
  -6   5  -6   13.90    5.10
  -6  -5  -6   18.70    3.10
  -6   5  -7  111.49   11.70
  -6  -5  -7  115.89    7.20
  -6  -5  -7  113.39    8.20
  -6   5  -8    8.80    6.60
  -6  -5  -8   10.40    4.00
   6   6 -10    4.20    7.40
   6  -6 -10   -4.40    9.60
   6   6  -9   40.90    7.50
   6  -6  -9   29.60    4.10
   6  -6  -9   25.90    9.50
   6  -6  -9   34.60    4.00
   6  -6  -8  207.58   11.20
   6  -6  -8  205.78    9.20
   6  -6  -8  192.98   15.60
   6  -6  -7   35.30    5.00
  -6  -6   7   39.80    6.10
   6  -6  -7   34.20    7.20
   6  -6  -7   27.00    3.70
   6   6  -6    3.70    2.70
   6  -6  -6    6.50    4.60
   6  -6  -6    0.70    1.90
  -6  -6   6    1.40    3.50
   6   6  -5   69.99    6.00
   6  -6  -5   58.69    7.60
  -6  -6   5   76.19    4.00
   6  -6  -5   78.39    5.90
  -6  -6   5   64.59    6.50
   6   6  -4  129.99    7.20
  -6   6   4  132.49    8.90
   6   6  -4  135.99    8.30
   6  -6  -4  141.59    7.30
   6  -6  -4  140.29    9.70
  -6  -6   4  139.49    8.70
  -6  -6   4  140.89    6.40
   6   6  -3   34.60    4.40
   6   6  -3   31.40    3.50
  -6   6   3   32.40    4.40
  -6  -6   3   33.50    2.70
  -6  -6   3   45.00    5.40
   6  -6  -3   30.90    4.10
   6  -6  -3   32.90    5.00
   6  -6  -3   30.90    3.50
  -6   6   2   21.80    3.90
   6   6  -2   14.20    2.80
   6   6  -2   22.50    2.90
  -6  -6   2   16.30    2.20
   6  -6  -2   21.50    2.90
  -6  -6   2   15.60    3.30
   6  -6  -2   21.50    3.50
   6  -6  -2   13.50    2.70
  -6   6   1    7.10    2.70
   6   6  -1    3.30    2.10
   6   6  -1    6.90    2.10
   6  -6  -1    6.80    2.10
  -6  -6   1    5.10    2.30
   6  -6  -1    5.70    2.10
   6  -6  -1    8.10    2.70
  -6  -6   1   12.40    2.00
   6   6   0   64.39    5.30
  -6   6   0   59.29    6.40
   6   6   0   53.79    5.90
  -6  -6   0   58.79    4.30
  -6  -6   0   59.59    4.40
   6  -6   0   60.19    5.00
   6  -6   0   69.19    4.60
   6  -6   0   61.09    4.40
  -6   6  -1 1474.65   56.99
   6   6   1 1501.65   57.09
   6   6   1 1492.45   56.29
   6  -6   1 1464.95   55.19
   6  -6   1 1400.06   54.59
  -6  -6  -1 1478.45   54.69
   6  -6   1 1413.16   55.09
   6   6   2   18.60    4.00
   6   6   2   27.60    4.70
  -6   6  -2   35.20    4.90
   6  -6   2   33.40    3.80
   6  -6   2   31.20    2.30
  -6  -6  -2   24.40    3.00
   6  -6   2   33.10    3.80
  -6  -6  -2   31.40    3.00
  -6   6  -3    0.70    2.90
   6   6   3    4.40    3.90
   6   6   3    1.30    4.20
  -6  -6  -3    4.60    1.70
   6  -6   3    0.60    1.30
  -6  -6  -3    2.70    2.10
   6  -6   3    0.50    1.60
  -6   6  -4  112.99    9.30
   6   6   4  106.59   10.20
  -6  -6  -4  114.99    7.10
  -6  -6  -4  130.79    6.70
  -6  -6  -5  813.42   31.20
  -6  -6  -5  781.52   31.80
  -6   6  -6  114.09   10.80
  -6  -6  -6  115.09    8.20
  -6  -6  -6  133.59    7.40
  -6   6  -7    3.50    6.10
  -6  -6  -7    9.40    3.30
  -6  -6  -7    4.80    3.20
  -6   6  -8    6.50    7.20
  -6  -6  -8   10.30    3.90
   6   7 -10   10.30    7.70
   6  -7 -10    1.80   10.30
   6   7  -9   -4.00    6.00
   6  -7  -9    8.90    8.60
   6  -7  -9   -0.90    2.60
   6  -7  -9    0.10    3.50
   6  -7  -8   60.89   10.00
   6  -7  -8   75.29    7.60
   6  -7  -8   69.39    5.40
  -6  -7   7  172.58   11.40
   6  -7  -7  141.09   10.20
   6  -7  -7  148.49    8.20
   6  -7  -7  152.38   13.00
   6   7  -6  253.07   12.70
  -6  -7   6  269.97   14.00
   6  -7  -6  260.37   12.10
   6   7  -5  138.99    8.70
  -6  -7   5  113.29    8.80
   6  -7  -5  144.59   10.70
  -6  -7   5  148.49    6.30
   6  -7  -5  140.49    7.90
   6   7  -4  341.37   16.20
   6   7  -4  343.27   16.20
  -6   7   4  352.16   16.90
   6  -7  -4  334.17   17.30
   6  -7  -4  331.67   15.10
  -6  -7   4  380.96   16.70
  -6  -7   4  349.57   13.90
   6   7  -3  193.78   10.50
  -6   7   3  173.68   10.80
   6   7  -3  188.38    9.00
   6  -7  -3  188.88    9.40
  -6  -7   3  187.28    8.30
  -6  -7   3  199.78   10.90
   6  -7  -3  175.18    9.90
   6  -7  -3  178.18   10.80
   6   7  -2  639.24   26.70
  -6   7   2  679.23   27.50
   6   7  -2  605.44   25.30
  -6  -7   2  639.74   26.70
   6  -7  -2  617.84   25.60
   6  -7  -2  647.94   26.80
   6  -7  -2  630.04   25.50
   6   7  -1   11.80    3.00
   6   7  -1   13.90    3.10
  -6   7   1   19.60    4.30
   6  -7  -1    5.50    1.80
  -6  -7   1    7.10    2.30
  -6  -7   1   10.80    1.90
   6  -7  -1   15.30    3.40
   6  -7  -1   12.20    2.50
   6   7   0  375.56   17.60
  -6   7   0  392.36   18.10
   6   7   0  357.06   16.60
  -6  -7   0  380.06   15.80
   6  -7   0  370.16   16.40
   6  -7   0  369.16   15.40
  -6  -7   0  380.16   15.70
  -6   7  -1  108.89    8.40
   6   7   1   92.49    7.60
   6   7   1   94.09    8.00
   6  -7   1  101.09    6.40
   6  -7   1  103.29    6.10
   6  -7   1   87.89    5.50
  -6  -7  -1   94.79    5.40
  -6  -7  -1   97.09    6.00
  -6   7  -2  212.98   12.40
   6   7   2  203.48   12.10
   6   7   2  202.98   12.20
  -6  -7  -2  210.48    9.40
   6  -7   2  192.18    9.90
   6  -7   2  202.88    9.80
   6  -7   2  212.08    8.70
  -6  -7  -2  209.98   10.10
  -6   7  -3  264.37   13.90
   6   7   3  213.28   13.80
   6   7   3  240.98   14.20
   6  -7   3  202.28    9.20
   6  -7   3  247.88    9.70
   6  -7   3  238.38   11.30
  -6  -7  -3  242.28   10.70
  -6  -7  -3  244.88   11.30
  -6   7  -4    6.50    3.90
  -6  -7  -4    7.70    2.40
  -6  -7  -4    5.60    2.70
  -6   7  -5  137.69   11.40
  -6  -7  -5  153.88    8.30
  -6  -7  -5  142.39    8.70
  -6   7  -6  200.08   14.10
  -6  -7  -6  200.78   10.10
  -6  -7  -6  174.58   10.40
  -6   7  -7   -5.00    6.10
  -6  -7  -7   10.10    6.20
  -6  -7  -7    4.80    3.60
  -6   7  -8   58.49    9.50
  -6  -7  -8   83.09    7.60
  -6  -7  -8   71.49    7.60
   6   8  -9   90.09   10.90
  -6  -8   9   64.99    9.30
   6  -8  -9   62.19    5.70
   6  -8  -9   56.29    7.30
   6  -8  -9   55.89   11.70
   6  -8  -8    1.90    3.00
   6  -8  -8    2.00    4.50
   6  -8  -8    3.00    7.20
   6  -8  -7    4.30    6.50
   6  -8  -7    2.10    4.20
  -6  -8   7    7.00    4.70
   6  -8  -7    0.80    2.90
   6   8  -6  158.68    9.70
  -6  -8   6  142.79   10.20
   6  -8  -6  162.08    9.00
  -6  -8   6  148.69    6.50
   6   8  -5   -0.40    3.20
  -6  -8   5   -2.60    3.20
   6  -8  -5   -1.80    2.50
  -6  -8   5    0.80    1.40
   6  -8  -5   -5.60    4.40
  -6   8   4  492.05   22.30
   6   8  -4  474.35   21.70
  -6  -8   4  527.25   22.20
   6  -8  -4  486.05   22.90
   6  -8  -4  493.15   20.80
  -6  -8   4  483.65   19.30
   6   8  -3   35.60    4.80
   6   8  -3   49.90    6.00
  -6   8   3   44.00    5.90
   6  -8  -3   37.40    4.50
   6  -8  -3   50.29    6.30
  -6  -8   3   40.10    3.30
   6  -8  -3   43.50    5.10
  -6  -8   3   47.70    6.20
   6   8  -2  136.29    8.90
  -6   8   2  139.09    9.60
   6   8  -2  113.99    7.50
   6  -8  -2  138.59    7.80
   6  -8  -2  134.49    7.80
   6  -8  -2  146.89    9.00
  -6  -8   2  113.39    8.00
   6   8  -1  378.46   17.90
  -6   8   1  373.96   18.20
   6   8  -1  349.27   16.40
   6  -8  -1  363.06   16.80
  -6  -8   1  365.76   16.00
   6  -8  -1  373.66   16.10
  -6  -8   1  375.06   15.60
   6  -8  -1  366.36   15.70
   6   8   0  216.58   12.40
  -6   8   0  227.08   12.80
  -6  -8   0  206.28    9.70
   6  -8   0  219.48   10.50
   6  -8   0  200.28    9.70
   6  -8   0  199.58   10.80
   6   8   1  387.76   18.70
  -6   8  -1  418.56   19.60
   6   8   1  407.96   19.60
   6  -8   1  389.86   17.10
   6  -8   1  387.06   17.00
   6  -8   1  385.56   16.10
  -6  -8  -1  412.06   16.50
  -6  -8  -1  409.36   17.10
   6   8   2   56.19    7.40
  -6   8  -2   52.99    6.80
   6  -8   2   48.60    3.80
  -6  -8  -2   49.50    4.00
   6  -8   2   44.50    4.50
   6  -8   2   42.70    4.30
  -6  -8  -2   43.30    4.60
   6   8   3   99.69   11.10
  -6   8  -3  113.49    9.90
  -6  -8  -3  115.19    6.60
   6  -8   3  113.09    5.20
  -6  -8  -3  110.89    7.00
  -6   8  -4  202.28   13.40
  -6  -8  -4  190.78   10.20
  -6  -8  -4  199.78    9.90
  -6   8  -5   -1.00    5.40
  -6  -8  -5    2.30    2.80
  -6   8  -6   22.30    7.20
  -6  -8  -6   14.20    4.10
  -6  -8  -6   20.60    4.10
  -6   8  -7   -3.70    7.00
  -6  -8  -7   -2.50    3.60
  -6  -8  -7    0.60    3.80
   6  -9  -9   86.29   12.80
  -6  -9   9   93.69   10.70
   6  -9  -9   74.89    8.60
   6  -9  -8   79.29    7.20
   6  -9  -8   68.19   10.60
   6  -9  -8   87.89    9.50
   6  -9  -7   -0.70    5.10
   6  -9  -7   -3.60    3.20
   6  -9  -7    0.00    6.50
   6   9  -6  264.27   13.70
  -6  -9   6  210.58   13.60
   6  -9  -6  273.47   13.10
  -6  -9   6  261.47   10.30
   6   9  -5   50.39    7.10
  -6  -9   5   62.69    7.20
   6  -9  -5   42.90    7.80
  -6  -9   5   55.99    3.70
   6  -9  -5   58.59    6.00
   6   9  -4  628.94   27.70
  -6   9   4  629.74   28.10
  -6  -9   4  626.84   24.90
   6  -9  -4  623.84   26.60
   6  -9  -4  654.43   28.70
  -6  -9   4  705.93   28.00
   6   9  -3  621.74   27.70
   6  -9  -3  654.63   28.30
  -6  -9   3  651.93   25.40
  -6  -9   3  655.53   27.70
   6  -9  -3  649.64   26.70
  -6   9   2  134.29    9.90
   6   9  -2  132.69    9.50
   6  -9  -2  137.79    8.20
   6  -9  -2  121.09    8.90
   6  -9  -2  123.89    8.10
  -6  -9   2  122.59    8.20
   6   9  -1  540.35   23.60
  -6   9   1  479.15   23.60
  -6  -9   1  522.55   21.10
   6  -9  -1  523.95   21.70
   6  -9  -1  512.05   22.30
  -6  -9   1  509.75   21.10
   6  -9  -1  491.45   21.00
  -6   9   0  432.86   21.50
   6   9   0  474.85   21.70
   6  -9   0  452.55   18.50
   6  -9   0  471.25   19.50
  -6  -9   0  444.86   19.40
  -6  -9   0  438.06   18.30
   6  -9   0  439.86   19.60
  -6   9  -1  209.78   13.00
   6   9   1  222.98   13.70
  -6  -9  -1  204.78   10.40
  -6  -9  -1  201.98    9.50
   6  -9   1  203.88   10.30
   6  -9   1  210.18   10.40
   6  -9   1  198.28    9.30
  -6   9  -2  474.85   22.50
   6   9   2  468.65   22.80
  -6  -9  -2  446.26   18.80
   6  -9   2  482.95   19.00
   6  -9   2  444.36   19.40
  -6  -9  -2  446.16   19.60
  -6   9  -3  145.69   11.50
   6   9   3  153.68   13.30
  -6  -9  -3  137.29    8.40
  -6  -9  -3  140.09    7.80
  -6   9  -4  302.17   17.50
  -6  -9  -4  289.27   13.60
  -6  -9  -4  301.97   14.20
  -6  -9  -5   41.60    5.60
  -6  -9  -5   47.60    6.10
  -6   9  -6   85.49   11.10
  -6  -9  -6   81.69    7.20
  -6  -9  -6   81.09    7.60
  -6   9  -7   16.70    7.90
  -6  -9  -7    7.40    4.20
  -6  -9  -7   15.40    4.60
   6 -10  -9   -3.30    9.40
   6 -10  -9   -3.80    4.90
  -6 -10   9   -1.60    7.40
   6 -10  -8   16.50    8.50
  -6 -10   8  -10.30    6.60
   6 -10  -8    4.30    5.20
   6 -10  -7   20.70    4.50
   6 -10  -7   24.60    6.00
  -6 -10   7   18.00    6.50
   6 -10  -7   11.40    7.10
   6  10  -6    2.80    4.00
  -6 -10   6    7.00    4.40
   6 -10  -6    2.10    3.60
   6 -10  -6   -1.60    6.10
   6  10  -5   23.20    5.00
   6 -10  -5   20.10    3.90
  -6 -10   5   21.10    2.90
  -6 -10   5   23.40    5.20
   6  10  -4   12.70    4.70
  -6 -10   4   17.80    2.50
   6 -10  -4   15.30    3.50
  -6 -10   4   22.80    4.70
   6 -10  -4   12.20    5.20
   6  10  -3  163.28   11.00
  -6  10   3  163.68   11.60
  -6 -10   3  176.38   10.90
   6 -10  -3  170.48    9.90
   6 -10  -3  167.18   11.30
  -6 -10   3  169.18    8.50
  -6  10   2  162.08   11.80
   6  10  -2  174.28   11.20
  -6 -10   2  171.58    9.80
   6 -10  -2  170.08    9.90
   6 -10  -2  174.78   10.90
  -6 -10   2  159.18    8.70
   6 -10  -2  182.98   10.10
  -6  10   1    5.80    4.40
   6  10  -1   13.10    4.60
   6 -10  -1   13.10    3.70
   6 -10  -1    4.80    3.10
  -6 -10   1   11.40    2.70
   6 -10  -1    9.30    3.10
   6  10   0  305.67   19.40
  -6  10   0  311.67   17.30
   6 -10   0  312.17   15.10
  -6 -10   0  328.07   14.70
   6 -10   0  312.27   14.70
   6 -10   0  318.67   13.90
  -6 -10   0  316.77   13.60
  -6  10  -1   20.00    5.60
   6  10   1   19.50    5.70
   6 -10   1   19.90    2.80
  -6 -10  -1   15.90    2.70
   6 -10   1   27.00    5.20
  -6 -10  -1   17.90    3.60
   6 -10   1   16.70    3.60
  -6  10  -2  324.17   18.20
   6  10   2  345.17   19.20
   6 -10   2  326.87   14.30
  -6 -10  -2  332.37   15.30
   6 -10   2  327.67   15.00
  -6 -10  -2  322.37   14.30
   6 -10   2  326.87   13.90
  -6  10  -3   -3.80    5.30
   6  10   3    1.80    6.10
  -6 -10  -3    4.00    2.40
  -6 -10  -3   -4.90    2.50
  -6  10  -4    1.50    5.40
  -6 -10  -4    8.60    3.30
  -6 -10  -4    7.40    3.10
  -6 -10  -5  179.28   10.20
  -6 -10  -5  172.48   11.00
  -6  10  -6  151.68   15.80
  -6 -10  -6  167.28   10.60
  -6 -10  -6  163.68   10.30
  -6  10  -7   13.80    8.80
  -6 -10  -7   18.10    4.80
  -6 -10  -7   12.00    4.90
   6 -11  -9   -0.60    5.40
   6 -11  -9    5.50   10.10
  -6 -11   9   -1.00    7.90
  -6 -11   8   41.40    7.50
   6 -11  -8   27.90    6.70
   6 -11  -8   32.20   10.30
   6 -11  -7   12.80    5.80
   6 -11  -7    3.20    6.90
   6  11  -6   84.39    9.10
   6 -11  -6   83.89    8.80
  -6 -11   6   55.99   10.70
   6 -11  -6   89.59   10.40
  -6 -11   6   84.59    4.80
   6  11  -5   50.49    6.80
   6 -11  -5   43.60    5.60
  -6 -11   5   44.30    3.90
  -6 -11   5   59.49    7.30
   6  11  -4  258.37   15.10
  -6 -11   4  285.97   15.10
   6 -11  -4  274.27   16.00
  -6 -11   4  262.87   11.90
   6 -11  -4  252.57   13.60
   6  11  -3   23.90    5.30
  -6  11   3   23.40    5.60
  -6 -11   3   23.40    4.80
  -6 -11   3   30.20    3.90
   6 -11  -3   29.60    5.80
   6 -11  -3   21.00    4.10
  -6  11   2  125.49   11.00
   6  11  -2  151.08   10.70
  -6 -11   2  136.79    8.40
   6 -11  -2  121.79    9.20
   6 -11  -2  132.69    9.80
   6 -11  -2  126.49    8.80
  -6 -11   2  130.39    7.80
   6  11  -1   18.50    4.80
  -6  11   1   26.60    6.40
   6 -11  -1   28.30    4.40
   6 -11  -1   22.00    4.70
  -6 -11   1   23.40    3.20
   6 -11  -1   14.50    4.00
  -6 -11   1   23.50    3.80
  -6  11   0  637.54   29.70
   6  11   0  657.33   30.00
   6 -11   0  695.43   27.50
   6 -11   0  654.23   27.40
  -6 -11   0  621.24   25.70
  -6 -11   0  650.33   26.90
   6 -11   0  633.64   26.00
  -6  11  -1   90.49   10.20
   6  11   1   95.39   10.50
  -6 -11  -1   79.29    6.80
   6 -11   1   85.59    6.90
  -6 -11  -1   87.39    5.70
   6 -11   1   89.39    6.90
   6 -11   1   80.69    5.70
   6  11   2  280.97   17.70
  -6  11  -2  302.97   17.60
   6 -11   2  274.27   11.70
  -6 -11  -2  291.67   12.90
   6 -11   2  257.07   13.40
   6 -11   2  280.87   12.70
  -6 -11  -2  272.97   13.70
   6  11   3  395.06   23.80
  -6  11  -3  422.96   22.40
  -6 -11  -3  411.46   18.90
  -6 -11  -3  425.46   18.90
  -6 -11  -4  169.78   10.40
  -6 -11  -4  171.68    9.90
  -6  11  -5   57.99   10.30
  -6 -11  -5   65.29    7.00
  -6  11  -6   63.09   10.80
  -6 -11  -6   54.09    7.40
  -6 -11  -6   54.29    7.40
  -6  11  -7   43.60   10.30
  -6 -11  -7   51.99    6.70
  -6 -11  -7   46.70    6.20
  -6 -12   8    4.60    6.80
   6 -12  -8    6.40    6.00
   6 -12  -8    2.80    9.00
   6 -12  -7   13.40    6.30
   6 -12  -7   17.20    8.30
   6  12  -6   -1.10    5.10
   6 -12  -6    3.50    5.70
   6 -12  -6    3.20    5.50
   6 -12  -6    4.10    6.90
   6  12  -5    5.80    5.40
   6 -12  -5    5.20    3.90
  -6 -12   5    3.30    2.30
  -6 -12   5   14.60    5.70
   6  12  -4   64.39    9.00
   6 -12  -4   57.49    8.60
  -6 -12   4   75.39    8.90
  -6 -12   4   68.29    5.50
   6 -12  -4   68.19    7.80
  -6  12   3   87.29   10.20
   6  12  -3   91.39   10.00
  -6 -12   3   93.89    6.40
   6 -12  -3   92.69    9.70
   6 -12  -3   92.09    8.20
  -6 -12   3   78.49    8.20
   6  12  -2   22.00    6.00
  -6  12   2   18.80    5.50
  -6 -12   2   26.40    3.90
   6 -12  -2   23.80    5.60
  -6 -12   2   21.50    3.80
   6 -12  -2   25.60    4.80
   6  12  -1  363.36   19.30
  -6  12   1  349.77   19.60
  -6 -12   1  365.76   15.40
   6 -12  -1  342.87   16.30
   6 -12  -1  350.66   17.50
   6 -12  -1  362.16   17.20
  -6 -12   1  331.57   16.20
  -6  12   0   29.00    6.90
   6  12   0   34.80    7.20
   6 -12   0   19.80    3.80
  -6 -12   0   20.80    3.80
   6 -12   0   29.70    4.90
   6 -12   0   33.60    5.20
  -6  12  -1   16.30    5.40
   6  12   1   18.70    6.50
   6 -12   1   31.10    6.30
  -6 -12  -1   19.00    3.10
   6 -12   1   21.20    4.20
   6 -12   1   25.00    3.40
  -6 -12  -1   25.10    4.50
  -6  12  -2  426.36   22.40
   6  12   2  411.76   22.90
   6 -12   2  385.86   16.10
   6 -12   2  400.16   17.10
  -6 -12  -2  392.16   18.50
  -6  12  -3  190.48   15.00
  -6 -12  -3  170.08   10.60
   6 -12   3  170.48    7.00
  -6 -12  -3  169.18    9.70
  -6  12  -4   24.80    8.30
  -6 -12  -4    4.80    3.70
  -6 -12  -4   13.90    4.20
  -6  12  -5   47.60    9.10
  -6 -12  -5   42.00    5.50
  -6  12  -6    5.70    8.20
  -6 -12  -6    8.40    4.60
  -6 -12  -6    4.90    4.50
  -6 -13   8   56.89    9.20
   6 -13  -8   30.50    7.90
   6 -13  -8   44.40   11.90
  -6 -13   7   -5.80    5.80
   6 -13  -7   -4.30    6.10
   6 -13  -7    9.20    8.20
   6 -13  -6    1.80    6.80
   6 -13  -6    7.70    6.50
   6 -13  -5   92.79   12.20
   6 -13  -5   83.49   11.70
   6 -13  -5   79.19    9.00
   6  13  -4   53.59    7.50
  -6 -13   4   51.69    5.50
   6 -13  -4   49.10    6.60
   6  13  -3    8.90    5.60
  -6  13   3    8.30    5.70
  -6 -13   3   11.40    3.60
   6 -13  -3   11.50    5.30
  -6 -13   3    8.70    4.50
   6 -13  -3    8.30    4.60
   6  13  -2  182.58   13.70
  -6  13   2  170.88   14.30
   6 -13  -2  172.68   12.50
  -6 -13   2  183.48   10.40
  -6 -13   2  185.88   10.20
   6 -13  -2  195.88   12.00
  -6  13   1   83.09   11.10
   6  13  -1   84.89   10.20
  -6 -13   1   63.29    5.40
  -6 -13   1   50.99    6.70
   6 -13  -1   58.89    7.90
   6 -13  -1   76.99    8.10
   6 -13  -1   70.69    8.10
   6  13   0   96.89   11.60
  -6  13   0   86.99   11.60
  -6 -13   0   99.39    8.20
   6 -13   0   83.19    8.20
   6 -13   0   74.69    7.30
   6 -13   0   97.49    8.20
   6  13   1   12.20    6.00
  -6  13  -1   19.00    6.80
   6 -13   1    5.40    3.60
   6 -13   1    9.20    3.70
  -6 -13  -1    7.10    2.70
  -6 -13  -1    6.10    3.80
   6 -13   1    6.30    3.20
  -6  13  -2   -3.10    6.20
   6  13   2  -10.80    7.60
   6 -13   2   -1.50    2.40
  -6 -13  -2    2.50    2.80
  -6 -13  -2   -6.30    3.00
   6 -13   2   -1.60    2.80
  -6  13  -3    2.10    7.00
  -6 -13  -3   24.80    5.20
   6 -13   3   16.60    2.00
  -6 -13  -3   14.10    3.90
  -6 -13  -4   -1.80    3.50
  -6 -13  -4    4.80    4.10
  -6  13  -5   -1.40    8.00
  -6 -13  -5   -0.10    4.50
  -6 -13  -5   -4.90    4.00
  -6  13  -6   37.40   10.70
  -6 -13  -6   45.40    6.70
  -6 -13  -6   55.49    6.90
  -6 -14   8    3.90    7.60
   6 -14  -8   -5.80    7.10
   6 -14  -8   13.10   10.40
   6 -14  -7   10.80    8.80
   6 -14  -7   10.60    7.30
  -6 -14   7   -2.00    6.20
   6 -14  -6   12.90    8.50
   6 -14  -6   11.80    9.70
  -6 -14   6    6.30    6.00
   6  14  -5  103.69   14.90
   6 -14  -5   76.59   10.50
   6 -14  -5   87.49   11.00
   6  14  -4    4.50    5.50
   6 -14  -4    5.50    5.40
   6  14  -3  313.07   18.80
   6 -14  -3  350.26   20.50
   6 -14  -3  316.57   17.00
  -6 -14   3  304.57   15.20
  -6  14   2   -1.50    6.80
   6  14  -2    5.60    6.20
   6 -14  -2    6.40    4.60
  -6 -14   2    2.10    3.10
   6 -14  -2   -4.50    4.80
  -6  14   1   57.19    8.40
   6  14  -1   84.79   11.00
  -6 -14   1   62.49    7.60
   6 -14  -1   66.39    8.70
   6 -14  -1   73.89    8.20
   6  14   0   54.19    8.60
  -6  14   0   53.89    9.20
   6 -14   0   53.69    6.10
   6 -14   0   62.99    7.10
   6 -14   0   50.09    6.70
  -6 -14   0   48.80    5.90
   6  14   1  269.67   18.60
  -6  14  -1  236.08   17.90
   6 -14   1  244.38   12.10
   6 -14   1  252.97   13.20
   6 -14   1  228.78   13.90
  -6 -14  -1  264.27   14.10
  -6  14  -2  169.28   15.80
   6  14   2  182.78   17.80
   6 -14   2  170.98   11.20
  -6 -14  -2  172.18   10.00
  -6 -14  -2  189.48   11.70
  -6  14  -3   22.00    8.60
  -6 -14  -3   18.80    4.60
  -6 -14  -3   28.80    4.80
  -6  14  -4  134.69   18.60
  -6 -14  -4  141.19   11.10
  -6 -14  -4  147.89   10.10
  -6  14  -5   40.90   10.40
  -6 -14  -5   32.70    5.90
  -6 -14  -5   39.20    6.40
  -6  14  -6    7.00    9.60
  -6 -14  -6    4.50    5.20
  -6 -14  -6   -4.70    5.10
   6 -15  -7    8.70    7.50
   6 -15  -7   -4.30    9.40
  -6 -15   7    1.30    6.90
   6 -15  -6   26.70    8.30
  -6 -15   6   34.00    7.50
   6 -15  -6   35.00   10.00
   6 -15  -5  102.19   12.40
  -6 -15   5  104.99   12.10
   6 -15  -5   93.29   11.70
   6 -15  -4   22.00    7.90
  -6 -15   4    7.50    6.50
   6 -15  -4    7.90    9.00
   6  15  -3  236.88   19.10
   6  15  -2  244.58   17.70
  -6  15   2  231.38   18.00
   6 -15  -2  234.88   15.70
  -6 -15   2  248.58   13.60
   6 -15  -2  267.07   15.20
   6  15  -1   -0.90    8.80
  -6  15   1  -14.60    6.90
   6 -15  -1   -1.20    5.40
   6 -15  -1    1.50    4.80
  -6  15   0   30.90    8.00
   6  15   0   57.69    9.40
   6 -15   0   53.79    6.60
  -6 -15   0   43.90    6.00
   6 -15   0   63.79    8.10
   6 -15   0   45.70    6.90
  -6  15  -1   62.29   10.00
   6  15   1   86.69   12.40
   6 -15   1   65.79    7.20
  -6 -15  -1   77.69    8.60
   6 -15   1   73.49    7.90
   6 -15   1   85.99    9.80
   6  15   2   42.20   10.90
  -6  15  -2   82.69   12.10
  -6 -15  -2   58.29    6.30
   6 -15   2   53.79    6.30
  -6 -15  -2   78.09    8.90
  -6  15  -3  151.88   17.30
  -6 -15  -3  190.68   12.60
  -6 -15  -3  206.28   11.40
  -6  15  -4    0.00    9.20
  -6 -15  -4   -0.20    4.10
  -6 -15  -4   -2.90    7.50
  -6  15  -5    0.70    9.10
  -6 -15  -5   11.40    5.10
  -6 -15  -5    7.40    4.90
  -6 -16   7   43.00    8.50
   6 -16  -7   72.39   13.00
   6 -16  -7   58.99   10.90
  -6 -16   6   26.70    7.60
   6 -16  -6   19.70    9.60
   6 -16  -6   30.90   10.00
   6 -16  -5   37.90    9.30
   6 -16  -5   27.50    9.50
  -6 -16   5   35.00    7.90
  -6 -16   4   46.50    7.80
   6 -16  -4   56.79    9.20
   6 -16  -4   45.20   10.40
   6 -16  -3    0.50    6.80
  -6 -16   3   -0.70    4.50
  -6 -16   2  137.19    9.00
  -6  16   1  139.89   16.20
  -6 -16   1  150.88   11.40
  -6 -16   1  157.58    9.10
   6 -16  -1  155.28   13.00
   6 -16  -1  165.58   12.50
  -6  16   0    6.40    7.90
   6 -16   0   13.90    5.50
  -6 -16   0    6.20    5.10
  -6 -16   0   10.30    3.30
   6 -16   0    4.70    5.50
   6  16   1  237.38   28.10
  -6  16  -1  185.88   18.00
  -6 -16  -1  174.08   12.00
  -6 -16  -1  197.08   13.20
   6 -16   1  198.28   11.80
  -6  16  -2   -3.10    8.60
  -6 -16  -2    4.60    3.50
   6 -16   2    7.00    3.60
  -6 -16  -2   11.20    5.20
  -6 -16  -3   19.40    6.30
  -6 -16  -3   14.90    4.70
  -6  16  -4   61.29   12.60
  -6 -16  -4   84.19    8.90
  -6  16  -5  172.18   20.90
  -6 -16  -5  183.48   13.00
  -6 -16  -5  169.58   12.40
   6 -17  -6   45.80   10.70
  -6 -17   6   52.99    9.70
   6 -17  -6   52.79   11.60
   6 -17  -5    1.10    9.10
   6 -17  -5   -3.80    8.10
  -6 -17   5   10.00    7.20
   6 -17  -4   32.80   10.70
  -6 -17   4   23.50    7.30
   6 -17  -4   11.30    8.20
  -6 -17   3    9.20    4.90
   6 -17  -3   12.20    7.00
  -6 -17   2   67.89    7.30
  -6  17   1   51.49    9.60
   6 -17  -1   44.70    8.00
  -6 -17   1   54.69    5.90
  -6  17   0   27.00    9.80
   6 -17   0   24.40    6.30
  -6 -17   0   31.70    5.90
  -6 -17   0   30.60    4.50
  -6  17  -1   67.19   11.50
   6 -17   1   66.59    8.90
  -6 -17  -1   68.99    6.80
  -6 -17  -1   77.79    9.00
  -6  17  -2    1.90   11.20
  -6 -17  -2    7.10    4.20
  -6 -17  -2    6.50    5.40
  -6  17  -3   14.70   11.00
  -6 -17  -3    2.80    4.30
  -6 -17  -3   -1.20    5.60
  -6  17  -4   18.00   11.60
  -6 -17  -4    9.80    4.90
  -6 -17  -4    2.20    5.60
  -6 -18   6   18.10    8.80
   6 -18  -6   46.20   11.50
   6 -18  -6   34.00   10.40
   6 -18  -5   -6.00    8.80
   6 -18  -5   10.60    8.80
  -6 -18   5    5.60    7.90
   6 -18  -4   15.60    8.30
   6 -18  -4   22.90   10.60
  -6 -18   4    7.60    7.10
   6 -18  -3   13.00   10.30
  -6 -18   3    5.60    5.70
   6 -18  -3    1.40    7.70
  -6 -18   2    8.40    4.10
   6 -18  -2   10.70   15.30
   6 -18  -2    7.10    7.30
   6 -18  -1   17.70   10.80
  -6 -18   1   25.30    4.40
   6 -18  -1   30.60    9.50
  -6  18   0   89.59   13.30
   6 -18   0  115.29   11.30
  -6 -18   0  115.19    8.10
  -6  18  -1    8.40    9.60
   6 -18   1   14.60    5.30
  -6 -18  -1    4.50    4.10
  -6 -18  -1   17.80    8.00
  -6  18  -2   -7.40   10.30
  -6 -18  -2    1.10    5.90
  -6 -18  -2    3.00    3.80
  -6  18  -3   19.10   10.20
  -6 -18  -3   14.70    6.40
  -6 -18  -3    3.20    4.50
  -6  18  -4   12.20   11.30
  -6 -18  -4   -3.60    5.70
  -6 -18  -4    3.00    5.00
   6 -19  -5    1.00    9.80
  -6 -19   5   -3.80    8.40
   6 -19  -5    7.50   11.10
  -6 -19   4   71.89   10.60
   6 -19  -4   71.69   14.30
   6 -19  -4   72.39   12.00
   6 -19  -3   34.00    9.50
   6 -19  -3   39.00   12.80
  -6 -19   3   27.30    6.70
   6 -19  -2   -0.30    7.40
  -6 -19   2    6.80    4.40
  -6 -19   1    5.40    3.90
  -6 -19   0   35.10    5.40
   6 -19   0   36.90    7.80
   6 -19   0   24.30   12.60
  -6  19  -1  196.98   22.10
   6 -19   1  202.98   13.40
  -6 -19  -1  190.68   11.70
  -6 -19  -2   19.60    4.80
  -6  19  -3    0.00   10.60
  -6 -19  -3    6.40    5.00
   6 -20  -4   44.30   11.40
   6 -20  -4    8.50   11.00
  -6 -20   4   42.20    9.30
  -6 -20   3   87.09   11.70
   6 -20  -3   83.79   12.50
   6 -20  -3  100.19   16.90
  -6 -20   2   11.90    5.00
   6 -20  -2    1.50    8.20
   6 -20  -2    5.70   11.30
  -6 -20   1    6.50    4.40
   6 -20  -1    6.50    7.80
  -6 -20   0   44.80    5.70
  -6 -20  -1   12.00    4.70
  -6  20  -2  145.09   19.10
  -6 -20  -2  228.28   13.00
   6 -21  -2    3.30   13.20
  -6 -21   2    6.40    5.40
   6 -21  -2   -5.30    8.80
   6 -21  -1    8.00   18.00
  -6 -21   1    6.40    4.70
   6 -21  -1   12.60    8.90
  -6 -21   0  143.69   10.30
   6 -21   0  140.89   14.30
   7   0 -10    9.20    8.60
   7   0  -9   -5.20    6.60
   7   0  -8  456.65   23.10
   7   0  -7   -1.00    1.60
   7   0  -7   -7.00    4.30
   7   0  -6 1021.10   38.60
  -7   0   6 1031.50   42.20
  -7   0   5    2.10    2.40
  -7   0   5    3.90    3.30
   7   0  -5    0.00    1.30
   7   0  -4  262.47   10.70
  -7   0   4  249.68   11.50
  -7   0   4  236.68   12.80
   7   0  -3   -1.50    1.10
   7   0  -3   -2.80    2.90
  -7   0   3    7.30    2.00
  -7   0   3    6.60    2.80
   7   0  -2   13.90    2.00
   7   0  -2   15.10    3.20
  -7   0   2   13.90    2.90
   7   0  -1    2.00    2.00
   7   0  -1   -0.50    1.40
  -7   0   1    7.40    2.50
  -7   0   1   -0.50    1.50
   7   0   0  239.98   10.90
   7   0   0  240.88   10.30
  -7   0   0  238.08   11.30
  -7   0   0  242.18   11.30
  -7   0  -1    2.10    2.00
   7   0   1    0.10    1.60
   7   0   1    1.60    1.90
  -7   0  -1   -0.40    1.50
  -7   0  -2 2290.37   82.49
  -7   0  -2 2401.76   82.99
   7   0   2 1863.51   81.99
   7   0   2 2282.07   82.89
   7   0   3   -5.50    2.90
  -7   0  -3   -0.20    2.30
   7   0   3   -0.30    2.50
  -7   0  -3    1.50    1.90
  -7   0  -4   32.20    4.10
   7   0   4   33.10    4.60
  -7   0  -4   37.20    4.60
  -7   0  -5   -0.40    2.60
   7   0   5    2.30    4.30
  -7   0  -5    2.20    4.10
  -7   0  -6   23.10    3.60
  -7   0  -6   18.80    4.10
  -7   0  -7   -1.10    3.80
   7   1 -10   93.69   12.00
   7  -1 -10  105.19   13.00
   7   1  -9   79.59   10.20
   7  -1  -9   73.99    9.90
   7   1  -8   60.99    8.90
   7  -1  -8   73.99    9.30
   7   1  -7  326.77   13.10
   7   1  -7  304.57   16.90
   7  -1  -7  312.77   17.40
   7  -1  -7  322.37   12.80
   7   1  -6  333.97   14.40
  -7   1   6  352.06   17.90
  -7  -1   6  339.27   17.90
   7  -1  -6  375.16   18.20
   7  -1  -6  366.36   14.10
  -7   1   5  148.79    8.10
  -7   1   5  149.79   10.30
   7   1  -5  139.39    7.00
  -7  -1   5  147.19    7.50
  -7  -1   5  145.19    9.90
   7  -1  -5  149.39    6.80
  -7   1   4    1.70    2.30
  -7   1   4   -1.20    3.00
   7   1  -4    3.00    1.60
  -7  -1   4    6.20    2.10
   7  -1  -4    2.20    1.40
  -7  -1   4    7.10    3.00
  -7   1   3  173.38    9.80
  -7   1   3  182.08    9.20
   7   1  -3  175.28    9.80
   7   1  -3  190.68    8.30
   7  -1  -3  183.78    8.10
  -7  -1   3  163.78    9.60
   7  -1  -3  177.88    9.90
  -7  -1   3  166.98    8.50
  -7   1   2  549.05   25.20
   7   1  -2  656.83   24.40
   7   1  -2  602.94   24.90
   7  -1  -2  581.04   25.30
   7  -1  -2  661.33   24.20
  -7  -1   2  643.84   25.40
  -7   1   1  864.21   36.40
  -7   1   1  876.41   36.30
   7   1  -1  951.40   35.70
   7   1  -1  977.10   36.00
   7  -1  -1  947.01   35.70
  -7  -1   1  973.90   36.00
   7  -1  -1  883.11   36.20
  -7  -1   1  986.50   36.70
   7   1   0  393.26   16.60
  -7   1   0  396.66   16.70
  -7   1   0  367.96   17.80
   7   1   0  387.96   15.90
   7  -1   0  405.96   16.30
  -7  -1   0  396.76   16.90
  -7  -1   0  390.46   16.60
   7  -1   0  399.06   15.90
   7   1   1   40.80    3.90
  -7   1  -1   44.50    4.20
  -7   1  -1   49.70    4.70
   7   1   1   45.80    4.50
   7  -1   1   51.09    4.30
  -7  -1  -1   47.60    4.30
  -7  -1  -1   43.20    4.70
   7  -1   1   52.69    3.60
  -7   1  -2   98.29    5.70
   7   1   2   83.19    6.10
  -7   1  -2   93.89    6.40
   7   1   2   78.89    6.30
   7  -1   2   86.99    5.50
  -7  -1  -2   89.29    6.20
   7  -1   2   85.79    5.90
  -7  -1  -2   87.59    6.00
   7   1   3  495.15   21.50
  -7   1  -3  558.74   21.70
  -7   1  -3  511.15   20.30
   7   1   3  495.55   21.80
  -7  -1  -3  518.95   21.20
  -7  -1  -3  458.95   20.70
   7  -1   3  507.35   21.30
   7  -1   3  478.25   20.80
   7   1   4   12.30    4.50
  -7   1  -4   14.40    2.70
  -7   1  -4    5.80    2.60
   7  -1   4   12.40    3.50
  -7  -1  -4   13.00    3.00
  -7  -1  -4   12.50    2.90
  -7   1  -5   54.79    4.80
   7   1   5   56.59    6.60
  -7  -1  -5   51.69    5.20
   7  -1   5   45.80    5.50
  -7   1  -6    8.80    4.40
  -7  -1  -6   15.80    4.10
  -7  -1  -6    8.80    3.30
  -7   1  -7    7.90    4.60
  -7  -1  -7    4.50    3.80
   7   2 -10    6.40    8.70
   7  -2 -10   27.60   10.10
   7   2  -9   12.60    6.60
   7  -2  -9    0.90    7.50
   7   2  -8   18.80    6.10
   7  -2  -8   18.40    6.80
   7  -2  -8   31.90    4.20
   7   2  -7   22.60    2.90
   7  -2  -7   21.90    6.10
   7  -2  -7   19.50    2.40
   7   2  -6  116.29    6.90
   7  -2  -6  141.89   10.60
   7  -2  -6  138.29    6.20
  -7  -2   6  135.09   10.30
  -7   2   5  306.47   15.90
   7   2  -5  301.57   13.00
  -7   2   5  311.57   13.80
   7  -2  -5  315.37   15.80
  -7  -2   5  311.67   12.90
  -7  -2   5  269.67   15.00
   7  -2  -5  295.67   12.40
  -7   2   4   -2.10    2.40
   7   2  -4    0.50    1.70
  -7   2   4   -0.40    3.00
  -7  -2   4    1.10    1.90
   7  -2  -4    0.00    1.30
  -7  -2   4    3.80    2.80
   7   2  -3   -1.60    2.80
  -7   2   3    3.90    2.90
  -7   2   3    0.60    2.00
   7   2  -3   -0.30    1.40
  -7  -2   3   -2.40    2.30
   7  -2  -3    2.60    1.40
   7  -2  -3   -2.90    2.80
  -7   2   2    8.30    2.80
   7   2  -2   12.10    2.40
   7   2  -2   16.10    2.70
   7  -2  -2   16.70    2.30
  -7  -2   2   11.80    2.90
  -7  -2   2   11.40    2.10
   7  -2  -2    5.60    2.70
   7   2  -1   67.99    4.20
  -7   2   1   52.99    5.20
  -7   2   1   58.09    5.10
   7   2  -1   62.09    4.70
  -7  -2   1   61.49    5.40
   7  -2  -1   52.59    5.00
  -7  -2   1   63.89    4.30
   7  -2  -1   63.09    4.30
   7   2   0  120.39    6.40
  -7   2   0  128.29    7.20
   7   2   0  127.59    7.20
  -7  -2   0  132.99    7.80
  -7  -2   0  123.29    6.80
   7  -2   0  126.99    6.60
   7  -2   0  128.59    6.80
   7   2   1  651.73   26.50
  -7   2  -1  641.74   26.50
  -7   2  -1  651.63   25.70
   7   2   1  617.04   25.70
  -7  -2  -1  629.04   26.30
   7  -2   1  667.23   24.90
   7  -2   1  652.83   25.70
  -7  -2  -1  664.03   25.90
  -7   2  -2    8.40    2.20
  -7   2  -2    6.90    2.60
   7   2   2    3.70    3.10
   7   2   2    6.50    3.10
  -7  -2  -2    1.80    2.40
  -7  -2  -2    3.40    1.60
   7  -2   2    6.00    1.90
   7  -2   2    4.90    2.30
  -7   2  -3   13.60    2.50
  -7   2  -3   15.10    3.60
   7   2   3   12.40    4.10
   7   2   3   14.30    3.30
  -7  -2  -3   19.00    3.20
  -7  -2  -3    9.50    2.80
   7  -2   3    9.60    2.80
   7  -2   3   10.60    2.90
  -7   2  -4  200.38    9.00
   7   2   4  188.88   11.70
  -7   2  -4  202.68   11.20
  -7  -2  -4  197.38   10.30
   7  -2   4  197.98   10.10
  -7  -2  -4  194.18    9.60
  -7   2  -5   20.00    2.70
   7   2   5   25.40    6.00
  -7  -2  -5   20.20    3.20
  -7   2  -6    8.70    4.10
  -7  -2  -6   19.50    4.40
  -7  -2  -6   12.60    3.10
  -7   2  -7  236.08   14.80
  -7  -2  -7  239.08   13.30
   7   3 -10   20.70    8.80
   7  -3 -10   14.00    9.40
   7   3  -9    5.50    6.40
   7  -3  -9   -2.30    7.80
   7   3  -8    4.90    5.50
   7  -3  -8    7.70    3.10
   7  -3  -8    3.40    6.00
  -7  -3   8   13.10    6.50
   7  -3  -8    6.50    1.50
   7   3  -7   10.60    2.70
   7  -3  -7    7.00    5.40
   7  -3  -7   10.20    1.80
   7   3  -6  179.88    8.70
  -7  -3   6  172.68   11.50
   7  -3  -6  168.48   12.00
   7  -3  -6  166.98    7.70
  -7   3   5   42.40    5.40
   7   3  -5   43.50    4.40
  -7  -3   5   44.40    4.00
   7  -3  -5   43.40    3.40
   7  -3  -5   54.29    6.80
  -7  -3   5   40.80    5.50
   7   3  -4  271.87   12.20
  -7   3   4  290.87   14.40
  -7   3   4  267.47   13.00
  -7  -3   4  265.87   11.50
  -7  -3   4  236.08   13.20
   7  -3  -4  278.47   14.10
   7  -3  -4  270.47   11.40
  -7   3   3  441.36   19.00
   7   3  -3  438.86   18.20
   7   3  -3  424.56   18.40
  -7   3   3  452.95   19.70
  -7  -3   3  432.06   19.10
   7  -3  -3  410.66   18.70
   7  -3  -3  428.76   17.50
  -7  -3   3  448.46   17.60
   7   3  -2  420.46   18.10
  -7   3   2  430.26   19.00
   7   3  -2  433.46   17.60
   7  -3  -2  410.46   18.40
  -7  -3   2  472.95   19.00
   7  -3  -2  414.46   17.40
   7   3  -1  687.03   26.90
  -7   3   1  586.54   27.00
   7   3  -1  712.83   26.00
  -7   3   1  623.24   26.90
  -7  -3   1  726.73   27.50
   7  -3  -1  628.74   26.70
   7  -3  -1  662.33   26.00
  -7  -3   1  677.03   26.10
  -7   3   0  291.67   14.00
  -7   3   0  307.37   15.10
   7   3   0  326.27   13.70
   7   3   0  316.07   14.50
  -7  -3   0  321.57   14.80
   7  -3   0  325.57   13.90
   7  -3   0  340.87   13.80
  -7  -3   0  316.17   13.70
  -7   3  -1   21.30    3.10
   7   3   1   34.20    4.40
   7   3   1   21.70    3.50
  -7   3  -1   20.60    3.80
  -7  -3  -1   28.70    3.40
   7  -3   1   27.00    3.60
   7  -3   1   22.50    2.40
  -7  -3  -1   24.60    3.90
  -7   3  -2 1045.90   37.50
  -7   3  -2  977.10   39.00
   7   3   2  897.21   38.40
   7   3   2  990.70   39.30
   7  -3   2 1014.70   37.90
   7  -3   2 1030.70   37.00
  -7  -3  -2  933.21   37.90
  -7  -3  -2  920.01   37.80
  -7   3  -3  112.69    7.80
  -7   3  -3  116.29    6.00
   7   3   3  104.39    8.60
   7   3   3  108.29    8.60
  -7  -3  -3   99.39    6.30
  -7  -3  -3  106.49    6.70
   7  -3   3  103.79    6.80
   7  -3   3   89.59    6.20
  -7   3  -4   21.10    4.50
   7   3   4   16.40    5.10
  -7   3  -4   20.60    2.70
  -7  -3  -4   25.00    3.90
  -7  -3  -4   14.20    2.70
   7   3   5    4.90    5.80
  -7   3  -5   -1.90    1.80
  -7   3  -5   -0.50    4.00
  -7  -3  -5    1.20    2.30
  -7   3  -6  124.19   10.50
  -7  -3  -6  124.79    8.60
  -7  -3  -6  119.49    6.90
  -7   3  -7   13.90    5.80
  -7  -3  -7   17.40    4.60
   7   4 -10    3.40    7.90
   7  -4 -10   17.20    9.90
   7   4  -9   27.00    7.40
   7  -4  -9    9.30    8.20
   7   4  -8  110.19   10.80
   7  -4  -8  125.09   12.80
   7  -4  -8  113.29    7.80
   7  -4  -8  115.19    5.50
  -7  -4   8  116.39   12.00
   7   4  -7  132.19    7.60
   7  -4  -7  136.89    6.40
   7  -4  -7  130.79   12.00
   7   4  -6  489.15   20.90
   7  -4  -6  523.05   30.30
   7  -4  -6  501.25   19.90
  -7  -4   6  526.55   23.50
  -7   4   5  794.02   31.00
   7   4  -5  786.82   30.40
   7  -4  -5  810.32   32.90
  -7  -4   5  733.23   29.20
  -7  -4   5  655.13   31.40
   7  -4  -5  799.62   29.40
  -7   4   4   13.00    3.70
   7   4  -4   13.50    3.10
   7  -4  -4   14.10    3.90
  -7  -4   4   17.50    2.30
   7  -4  -4   13.20    2.10
  -7  -4   4   17.50    4.00
  -7   4   3   26.10    4.00
   7   4  -3   19.70    2.80
  -7   4   3   27.60    4.60
   7   4  -3   30.30    4.00
  -7  -4   3   23.60    2.90
   7  -4  -3   28.70    2.90
   7  -4  -3   29.90    4.90
  -7  -4   3   29.50    4.40
   7  -4  -3   24.20    4.10
  -7   4   2  421.76   18.60
  -7   4   2  416.96   18.50
   7   4  -2  405.06   16.90
   7   4  -2  408.76   17.80
  -7  -4   2  424.76   18.50
   7  -4  -2  410.66   16.90
   7  -4  -2  400.66   17.70
  -7   4   1  600.14   26.30
   7   4  -1  667.03   26.20
  -7   4   1  632.24   26.00
   7   4  -1  637.84   24.90
  -7  -4   1  619.04   24.80
   7  -4  -1  593.54   25.40
   7  -4  -1  612.24   24.90
  -7  -4   1  688.43   26.60
   7   4   0   43.80    4.30
  -7   4   0   43.30    5.40
   7   4   0   39.40    4.80
  -7   4   0   40.50    4.40
   7  -4   0   36.00    4.30
  -7  -4   0   44.60    4.00
   7  -4   0   40.40    3.90
  -7  -4   0   41.80    5.10
  -7   4  -1   48.10    5.70
   7   4   1   53.79    5.80
  -7   4  -1   53.59    4.70
   7   4   1   49.40    5.40
   7  -4   1   58.79    3.70
  -7  -4  -1   57.39    4.40
  -7  -4  -1   51.29    5.10
   7  -4   1   58.79    4.60
  -7   4  -2   44.50    4.30
   7   4   2   49.60    6.60
   7   4   2   48.60    5.90
  -7   4  -2   41.00    5.80
  -7  -4  -2   46.30    4.50
   7  -4   2   48.50    4.70
   7  -4   2   53.19    3.50
  -7  -4  -2   49.30    4.50
  -7   4  -3  304.97   13.00
  -7   4  -3  322.07   15.70
   7   4   3  331.97   16.10
   7   4   3  301.87   16.10
  -7  -4  -3  326.17   13.50
   7  -4   3  267.57   12.90
  -7  -4  -3  318.77   14.00
   7  -4   3  308.57   14.00
  -7   4  -4   29.10    4.90
   7   4   4   38.30    6.50
  -7   4  -4   31.60    3.60
   7  -4   4   32.20    4.20
  -7  -4  -4   36.20    4.70
  -7  -4  -4   37.50    3.80
  -7   4  -5   51.39    7.00
   7   4   5   40.20    7.80
  -7  -4  -5   46.10    4.30
  -7   4  -6    2.40    5.10
  -7  -4  -6    0.10    2.30
  -7  -4  -6    2.50    2.90
  -7   4  -7   20.10    6.70
  -7  -4  -7   14.60    4.30
  -7  -4  -7   11.00    3.10
   7   5  -9  259.07   17.60
   7  -5  -9  283.47   20.10
   7  -5  -9  300.37   12.70
   7  -5  -9  283.77   11.20
  -7  -5   8  149.39   13.50
   7  -5  -8  151.18    9.60
   7  -5  -8  151.08    7.00
   7  -5  -8  148.59   14.10
   7   5  -7  366.66   15.80
   7  -5  -7  362.76   14.70
   7  -5  -7  349.47   20.00
   7   5  -6   61.59    5.70
   7  -5  -6   59.99    4.30
  -7  -5   6   58.29    7.60
  -7   5   5    5.40    3.80
   7   5  -5   -1.70    2.50
   7  -5  -5   -6.10    3.60
   7  -5  -5    2.20    1.70
  -7  -5   5    0.90    3.60
  -7  -5   5    1.10    1.80
  -7   5   4  211.68   11.90
   7   5  -4  225.28   11.40
  -7  -5   4  222.78   12.00
   7  -5  -4  211.48    9.90
   7  -5  -4  205.38   12.50
  -7  -5   4  232.38    9.70
   7   5  -3  471.35   20.60
  -7   5   3  477.45   21.30
   7  -5  -3  453.05   20.30
  -7  -5   3  533.95   21.40
  -7  -5   3  479.05   19.10
   7  -5  -3  482.95   21.50
   7  -5  -3  465.25   19.40
  -7   5   2  182.78   10.80
   7   5  -2  187.28    9.10
   7   5  -2  188.48   10.20
  -7  -5   2  203.38   10.90
   7  -5  -2  195.18    9.00
   7  -5  -2  196.18   10.70
   7  -5  -2  185.58    9.80
  -7   5   1    2.00    2.70
   7   5  -1   -3.90    2.80
   7   5  -1    0.30    2.10
  -7   5   1   -0.20    2.50
   7  -5  -1   -0.70    2.50
   7  -5  -1    3.60    2.50
  -7  -5   1    0.90    1.50
   7  -5  -1    4.60    1.80
  -7  -5   1    6.20    3.10
  -7   5   0   71.79    5.50
   7   5   0   56.89    5.40
  -7   5   0   62.09    6.30
   7   5   0   65.09    6.30
  -7  -5   0   61.39    5.20
   7  -5   0   53.99    5.00
  -7  -5   0   60.19    5.70
  -7   5  -1  119.39    8.80
  -7   5  -1  118.79    7.10
   7   5   1  121.29    8.20
   7   5   1  129.49    9.10
   7  -5   1  129.19    7.10
  -7  -5  -1  120.39    6.80
   7  -5   1  133.19    6.50
  -7  -5  -1  121.99    7.30
   7   5   2   21.60    4.70
  -7   5  -2   21.90    3.00
  -7   5  -2   14.40    3.70
   7   5   2   21.70    4.90
  -7  -5  -2   20.50    3.00
   7  -5   2   19.70    3.20
  -7  -5  -2   21.10    3.40
   7  -5   2   25.10    2.50
  -7   5  -3   42.60    6.10
   7   5   3   34.70    5.70
   7   5   3   28.00    5.80
   7  -5   3   31.00    3.50
  -7  -5  -3   41.50    3.90
   7  -5   3   40.60    4.60
  -7  -5  -3   35.80    4.40
   7  -5   3   34.80    4.10
   7   5   4    3.00    5.70
  -7   5  -4    0.60    4.00
  -7  -5  -4    0.70    2.00
  -7  -5  -4    2.20    2.60
   7  -5   4    4.90    2.00
   7  -5   4    3.40    1.80
  -7   5  -5  100.69   11.30
  -7  -5  -5   75.79    6.80
  -7  -5  -5   83.49    5.60
  -7   5  -6   11.60    5.80
  -7  -5  -6    1.10    2.50
  -7  -5  -6    5.50    3.50
  -7   5  -7    2.80    6.30
  -7  -5  -7   -0.40    3.70
  -7  -5  -7   -1.40    2.80
   7   6  -9   -1.50    6.40
  -7  -6   9   -1.90    7.60
   7  -6  -9    1.20    1.80
   7  -6  -9    1.30    3.70
   7  -6  -9    8.50    8.60
   7  -6  -8   46.30    5.90
   7  -6  -8   51.39    8.80
  -7  -6   8   53.59    8.50
   7  -6  -8   44.40    4.00
   7   6  -7   33.30    4.60
   7  -6  -7   37.80    3.80
   7  -6  -7   36.60    8.00
   7   6  -6   11.90    3.50
  -7  -6   6   13.90    4.70
  -7  -6   6   12.60    2.20
   7  -6  -6   12.70    2.40
  -7   6   5  178.18   10.90
   7   6  -5  175.88   10.00
  -7  -6   5  153.38   10.70
  -7  -6   5  182.48    8.00
   7  -6  -5  191.78   14.00
   7   6  -4   55.39    6.20
  -7   6   4   54.19    6.90
  -7  -6   4   53.69    3.70
   7  -6  -4   44.40    4.10
  -7  -6   4   48.60    6.10
   7  -6  -4   50.99    6.60
  -7   6   3   37.80    5.50
   7   6  -3   30.40    4.50
  -7  -6   3   37.10    5.00
   7  -6  -3   35.20    4.90
  -7  -6   3   34.40    3.20
   7  -6  -3   40.30    3.80
   7  -6  -3   39.30    5.40
   7   6  -2   -2.40    2.40
  -7   6   2    2.80    3.30
   7  -6  -2    0.00    2.90
  -7  -6   2   -0.80    1.30
   7  -6  -2    1.00    2.70
   7  -6  -2   -1.30    1.30
  -7  -6   2    4.00    3.10
   7   6  -1  784.32   31.90
   7   6  -1  683.93   30.30
  -7   6   1  830.22   32.60
   7  -6  -1  794.42   30.20
   7  -6  -1  768.22   30.30
  -7  -6   1  743.33   31.50
  -7  -6   1  765.92   29.80
   7  -6  -1  779.02   31.40
  -7   6   0   66.29    7.50
   7   6   0   51.49    6.00
   7   6   0   58.39    6.50
   7  -6   0   63.29    5.80
   7  -6   0   56.09    5.10
   7  -6   0   66.09    4.80
  -7  -6   0   65.99    5.80
   7   6   1   47.50    6.40
  -7   6  -1   34.70    5.60
   7   6   1   42.90    5.90
   7  -6   1   43.30    4.30
   7  -6   1   41.70    4.80
  -7  -6  -1   36.30    4.20
   7  -6   1   34.80    4.00
  -7  -6  -1   38.70    3.90
   7   6   2 1193.78   47.80
   7   6   2 1141.09   48.00
  -7   6  -2 1101.99   47.60
   7  -6   2 1291.57   44.20
   7  -6   2 1175.18   45.30
   7  -6   2 1134.19   45.60
  -7  -6  -2 1212.38   45.60
  -7  -6  -2 1249.57   45.30
   7   6   3   99.29   10.30
  -7   6  -3   88.59    9.00
   7  -6   3   94.59    7.10
  -7  -6  -3   99.29    6.60
   7  -6   3   85.09    6.10
  -7  -6  -3  110.39    5.90
  -7   6  -4   41.50    6.70
  -7  -6  -4   36.00    4.00
  -7  -6  -4   26.10    3.70
  -7  -6  -5   51.09    5.80
  -7  -6  -5   44.20    4.60
  -7   6  -6   47.10    7.70
  -7  -6  -6   80.39    7.10
  -7  -6  -6   72.09    5.80
  -7   6  -7    2.50    7.30
  -7  -6  -7   -2.90    3.40
  -7  -6  -7   -1.10    3.10
   7   7  -9    0.30    6.40
   7  -7  -9    0.30    4.30
   7  -7  -9  -11.70    8.90
   7  -7  -9    0.30    3.70
  -7  -7   9   -1.40    7.60
   7  -7  -8   23.40    3.20
   7  -7  -8   27.80    8.60
  -7  -7   8   28.80    7.40
   7  -7  -8   22.50    5.20
   7   7  -7    4.00    3.60
   7  -7  -7    6.80    6.80
   7  -7  -7    3.60    4.30
   7  -7  -7    6.40    2.40
   7   7  -6  113.59    8.30
  -7  -7   6   98.89   14.40
   7  -7  -6  115.59    6.90
   7   7  -5   26.10    4.60
   7  -7  -5   30.20    7.50
  -7  -7   5   19.90    4.80
   7  -7  -5   34.00    4.00
  -7  -7   5   26.30    3.10
  -7   7   4    4.30    4.00
   7   7  -4    1.60    3.30
  -7  -7   4    2.40    3.30
   7  -7  -4   -2.70    3.90
   7  -7  -4    1.70    2.00
  -7  -7   4    1.30    1.60
   7   7  -3    7.20    3.30
  -7   7   3    7.80    3.70
  -7  -7   3   14.60    4.10
   7  -7  -3    7.30    4.10
   7  -7  -3    9.40    2.30
  -7  -7   3   13.70    2.10
  -7   7   2   16.80    4.30
   7   7  -2   14.70    3.70
  -7  -7   2   14.10    3.80
   7  -7  -2   25.60    4.60
   7  -7  -2   16.90    2.70
   7  -7  -2   17.10    3.70
   7   7  -1 1392.26   54.89
  -7   7   1 1448.66   55.59
  -7  -7   1 1305.67   53.99
   7  -7  -1 1416.96   53.09
  -7  -7   1 1419.96   52.59
   7  -7  -1 1375.66   52.89
   7  -7  -1 1396.56   54.19
  -7   7   0   56.69    7.90
   7   7   0   68.39    7.50
  -7  -7   0   54.99    5.60
  -7  -7   0   67.19    5.50
   7  -7   0   64.59    5.10
   7  -7   0   59.89    4.90
   7  -7   0   62.39    6.00
  -7   7  -1  203.38   12.70
   7   7   1  208.18   12.60
   7  -7   1  214.08   10.20
  -7  -7  -1  209.88   10.00
   7  -7   1  202.98   10.50
  -7  -7  -1  206.38   10.00
   7  -7   1  197.98    9.80
  -7   7  -2  386.56   19.70
   7   7   2  407.86   20.30
  -7  -7  -2  400.16   17.20
   7  -7   2  384.56   16.90
   7  -7   2  423.36   15.70
  -7  -7  -2  420.16   16.80
   7  -7   2  372.96   17.10
   7   7   3  269.37   17.00
  -7   7  -3  294.27   16.30
  -7  -7  -3  297.77   12.60
   7  -7   3  264.47   13.60
   7  -7   3  278.27   12.10
  -7  -7  -3  294.47   13.20
  -7   7  -4  105.19   10.80
  -7  -7  -4  124.69    6.90
  -7  -7  -4  122.19    7.80
  -7  -7  -5  161.18    8.40
  -7  -7  -5  145.29    9.40
  -7   7  -6  102.09   11.40
  -7  -7  -6   90.39    7.90
  -7  -7  -6   92.19    7.70
  -7   7  -7   17.40    8.00
  -7  -7  -7   23.50    4.60
  -7  -7  -7   18.00    4.10
  -7  -8   9   46.00    9.40
   7  -8  -9   44.10    6.50
   7  -8  -9   34.00   10.10
   7  -8  -9   44.80    5.30
   7  -8  -8   37.30    9.40
   7  -8  -8   26.90    5.80
   7  -8  -8   38.80    4.90
  -7  -8   8   30.60    7.70
   7   8  -7    0.30    4.00
   7  -8  -7    1.60    6.20
   7  -8  -7    5.40    2.90
   7  -8  -7    9.60    4.90
   7   8  -6    4.50    3.70
   7  -8  -6    2.80    2.70
  -7  -8   6    4.00    2.00
   7   8  -5  199.48   12.20
  -7  -8   5  208.28   12.60
  -7  -8   5  217.08    9.40
   7  -8  -5  225.18   10.90
   7   8  -4  181.78   11.40
  -7   8   4  190.78   12.40
  -7  -8   4  182.18    8.50
   7  -8  -4  178.28   12.40
  -7  -8   4  197.18   11.60
   7  -8  -4  184.98    9.70
   7   8  -3   81.19    7.50
   7  -8  -3   81.99    5.90
  -7  -8   3   74.99    4.70
  -7  -8   3   83.49    7.70
   7  -8  -3   72.19    8.00
  -7   8   2   27.60    5.70
   7   8  -2   23.70    4.60
   7  -8  -2   21.40    3.80
   7  -8  -2   30.10    5.10
  -7  -8   2   33.60    5.30
   7  -8  -2   26.40    3.60
  -7   8   1  121.29   10.30
   7   8  -1  118.29    9.30
  -7  -8   1  119.09    8.20
   7  -8  -1  123.19    8.60
  -7  -8   1  118.69    6.60
   7  -8  -1  106.69    7.20
  -7   8   0  245.98   14.70
   7   8   0  267.27   15.10
  -7  -8   0  254.67   11.70
   7  -8   0  234.28   11.40
  -7  -8   0  252.57   12.00
   7  -8   0  247.68   12.70
   7   8   1  370.36   18.60
  -7   8  -1  349.57   18.40
  -7  -8  -1  352.56   15.10
   7  -8   1  355.86   15.50
   7  -8   1  354.26   15.90
   7  -8   1  326.07   14.90
  -7  -8  -1  352.16   15.40
  -7   8  -2   32.80    6.00
   7   8   2   30.20    6.40
   7  -8   2   32.70    4.10
   7  -8   2   27.40    3.00
  -7  -8  -2   29.10    3.70
  -7  -8  -2   39.80    4.50
   7   8   3   -0.30    6.40
  -7   8  -3   -6.00    4.50
  -7  -8  -3    2.80    2.50
  -7  -8  -3    0.20    2.10
   7  -8   3    0.70    1.50
   7  -8   3    0.70    2.20
  -7   8  -4    5.10    5.10
  -7  -8  -4    0.20    2.80
  -7  -8  -4    5.00    2.50
  -7   8  -5   13.10   10.80
  -7   8  -6    9.60    7.40
  -7  -8  -6    9.10    3.70
  -7  -8  -6   15.90    4.20
  -7   8  -7   19.90    8.70
  -7  -8  -7   44.20    5.30
  -7  -8  -7   25.30    4.40
  -7  -9   9   45.80    9.60
   7  -9  -9   40.60   11.80
   7  -9  -9   35.70    6.50
   7  -9  -8    7.50    5.30
  -7  -9   8    9.50    7.10
   7  -9  -8   14.70    8.90
   7   9  -7   66.69    8.00
   7  -9  -7   58.49   10.00
   7  -9  -7   63.09    8.00
  -7  -9   7   55.59    8.10
   7  -9  -7   62.39    6.40
   7   9  -6  749.53   32.60
   7  -9  -6  802.42   31.50
  -7  -9   6  782.52   29.50
   7   9  -5   37.20    6.10
   7  -9  -5   40.10    4.80
  -7  -9   5   40.20    3.70
  -7  -9   5   44.90    6.60
  -7   9   4  214.48   13.80
   7   9  -4  212.18   12.70
  -7  -9   4  194.68    9.40
   7  -9  -4  211.98   11.00
  -7  -9   4  220.88   12.80
   7  -9  -4  227.28   13.90
   7   9  -3   68.89    8.10
   7  -9  -3   66.99    5.90
  -7  -9   3   71.49    4.80
  -7  -9   3   80.09    8.00
   7  -9  -3   70.99    8.20
  -7   9   2  121.69   10.90
   7   9  -2  135.69   10.40
   7  -9  -2  153.38    8.50
   7  -9  -2  135.39   10.00
  -7  -9   2  140.69    9.80
   7  -9  -2  129.49    8.80
  -7  -9   2  127.19    7.10
  -7   9   1  170.78   15.10
   7   9  -1  159.78   11.70
  -7  -9   1  152.28    8.30
  -7  -9   1  148.39    9.10
   7  -9  -1  163.98    8.90
   7  -9  -1  173.58    9.30
   7  -9  -1  162.88   10.50
   7   9   0    1.60    5.70
  -7   9   0   -1.00    4.70
   7  -9   0    3.40    2.50
  -7  -9   0    3.90    2.60
   7  -9   0    4.80    3.50
   7  -9   0    3.30    2.30
  -7  -9   0    2.20    2.50
  -7   9  -1   -1.80    4.80
   7   9   1    6.10    5.80
   7  -9   1    6.00    3.30
   7  -9   1    9.80    2.80
  -7  -9  -1    7.90    2.80
  -7  -9  -1    9.90    2.50
   7  -9   1    7.90    2.50
  -7   9  -2    1.70    5.20
   7   9   2   -2.70    6.50
  -7  -9  -2    0.20    2.40
   7  -9   2    1.00    2.00
  -7  -9  -2   -0.30    2.00
   7  -9   2    5.10    2.90
   7  -9   2   -2.20    2.70
  -7   9  -3   29.10    6.40
   7   9   3   31.70    9.00
   7  -9   3   28.40    2.60
  -7  -9  -3   41.10    4.80
   7  -9   3   26.30    3.40
  -7  -9  -3   34.90    4.50
  -7   9  -4   25.30    8.60
  -7  -9  -4   18.40    3.90
  -7   9  -5    7.40    6.80
  -7  -9  -5   -0.10    3.10
  -7   9  -6   57.89   10.30
  -7  -9  -6   75.79    7.80
  -7  -9  -6   72.79    7.00
  -7  -9  -7   14.80    4.40
  -7  -9  -7    7.40    4.40
   7 -10  -9   -3.20    5.60
  -7 -10   9    0.60    8.40
   7 -10  -9   -1.10   10.50
   7 -10  -8   13.90    6.30
  -7 -10   8   20.70    7.50
   7 -10  -8   21.20   10.50
   7  10  -7    2.30    4.60
   7 -10  -7   10.60    8.30
  -7 -10   7    9.10    5.70
   7 -10  -7    5.60    5.30
   7  10  -6   77.49    9.00
   7 -10  -6   75.59    7.20
  -7 -10   6   66.89    4.70
   7 -10  -6   76.69   10.60
   7  10  -5   53.99    7.20
  -7 -10   5   52.49    4.20
   7 -10  -5   59.19    6.60
   7  10  -4    5.30    4.60
  -7  10   4    9.60    5.50
   7 -10  -4    9.60    5.00
  -7 -10   4    9.70    4.80
  -7 -10   4    7.60    2.20
   7 -10  -4   11.60    3.90
  -7  10   3    4.40    4.90
   7  10  -3    2.60    4.10
  -7 -10   3    2.40    4.20
  -7 -10   3    5.30    2.00
   7 -10  -3    9.90    3.30
   7 -10  -3    5.10    4.60
   7  10  -2  184.58   12.70
  -7  10   2  165.78   12.70
   7 -10  -2  188.48   12.00
  -7 -10   2  175.88   11.20
   7 -10  -2  183.68   10.20
  -7 -10   2  174.38    9.00
   7  10  -1  144.79   11.80
  -7  10   1  169.48   12.90
  -7 -10   1  138.19    9.80
   7 -10  -1  152.88   10.30
   7 -10  -1  132.69    9.40
  -7 -10   1  146.89    8.20
   7 -10  -1  145.19    8.90
   7  10   0  298.17   17.70
  -7  10   0  316.27   17.90
  -7 -10   0  297.17   13.60
   7 -10   0  290.17   14.80
  -7 -10   0  300.47   13.90
   7 -10   0  294.67   13.50
   7  10   1   54.39    8.20
  -7  10  -1   73.79    9.90
  -7 -10  -1   49.60    5.40
   7 -10   1   44.50    4.90
   7 -10   1   55.19    6.20
  -7 -10  -1   56.19    4.80
   7 -10   1   52.59    5.50
  -7  10  -2   43.10    7.80
   7  10   2   49.50    9.20
   7 -10   2   31.70    4.40
  -7 -10  -2   43.40    4.50
  -7 -10  -2   42.80    5.30
   7 -10   2   40.10    5.40
  -7  10  -3   21.60    7.40
  -7 -10  -3   26.40    4.50
   7 -10   3   16.20    2.30
   7 -10   3   21.50    2.40
  -7 -10  -3   18.20    5.40
  -7  10  -4    1.10    7.00
  -7 -10  -4   -3.20    3.20
  -7 -10  -4    2.60    2.90
  -7  10  -5   12.10    7.90
  -7 -10  -5   -4.20    3.10
  -7  10  -6    9.70    8.90
  -7 -10  -6    1.20    3.80
  -7 -10  -6    3.80    4.30
   7 -11  -8    0.60    6.20
  -7 -11   8    6.90    7.30
   7 -11  -8   38.20   10.40
   7 -11  -7   -0.60    5.80
  -7 -11   7    1.70    5.90
   7 -11  -7   -6.20    8.00
   7  11  -6  256.17   15.50
  -7 -11   6  281.87   15.80
   7 -11  -6  251.57   16.60
   7 -11  -6  273.37   17.70
   7  11  -5    4.30    5.10
   7 -11  -5    1.20    3.80
  -7 -11   5    3.60    2.20
   7 -11  -5    3.00    5.90
   7  11  -4   14.10    5.00
  -7  11   4    7.70    5.90
   7 -11  -4   15.40    4.10
  -7 -11   4   16.70    2.80
   7  11  -3   68.59    9.30
  -7  11   3   70.19    9.60
  -7 -11   3   60.19    5.00
  -7 -11   3   75.59    9.40
   7 -11  -3   61.89    8.20
   7 -11  -3   56.19    6.70
   7  11  -2   37.50    6.20
  -7  11   2   48.10    7.80
   7 -11  -2   61.99    8.00
  -7 -11   2   58.09    5.20
  -7 -11   2   67.09    8.90
   7 -11  -2   64.39    6.70
   7  11  -1  241.28   15.70
  -7  11   1  241.78   16.20
   7 -11  -1  228.58   12.10
   7 -11  -1  246.78   12.70
   7 -11  -1  226.18   13.60
  -7 -11   1  235.38   11.80
   7  11   0  229.18   15.80
  -7  11   0  198.28   15.20
  -7 -11   0  229.98   11.70
   7 -11   0  213.78   11.00
   7 -11   0  219.38   12.50
  -7 -11   0  233.98   11.10
   7 -11   0  223.58   11.90
  -7  11  -1   27.60    7.00
   7  11   1   28.40    6.90
   7 -11   1   26.20    3.60
  -7 -11  -1   31.80    4.70
   7 -11   1   30.90    4.70
  -7 -11  -1   31.50    6.60
  -7  11  -2   14.50    5.90
   7  11   2   15.30    8.20
   7 -11   2   12.60    3.00
  -7 -11  -2   19.10    3.80
  -7 -11  -2   18.60    3.30
   7 -11   2   14.60    4.10
   7 -11   2   17.20    3.80
  -7  11  -3  191.28   15.70
  -7 -11  -3  197.68   10.20
  -7 -11  -3  190.38   11.00
  -7 -11  -4   46.70    5.80
  -7 -11  -4   42.00    5.60
  -7  11  -5   38.10    8.30
  -7 -11  -5   39.50    5.70
  -7 -11  -5   29.80    5.00
  -7  11  -6   14.50    8.20
  -7 -11  -6    3.30    4.60
  -7 -11  -6    3.30    4.20
  -7 -12   8    7.90    7.30
   7 -12  -8   -2.00    9.50
   7 -12  -8    4.50    6.70
   7 -12  -7   -9.30    5.90
   7 -12  -7    4.70    8.60
  -7 -12   7   -3.20    6.00
   7  12  -6   11.50    5.70
   7 -12  -6    0.80    7.60
  -7 -12   6    3.80    5.50
   7 -12  -6    0.40    6.40
   7  12  -5   27.10    6.80
   7 -12  -5   34.80    7.80
  -7 -12   5   35.30    8.90
   7  12  -4  167.28   13.40
  -7 -12   4  175.98    9.30
   7 -12  -4  198.08   11.40
  -7  12   3    3.80    6.10
   7  12  -3    4.90    5.40
   7 -12  -3    3.00    3.50
  -7 -12   3    2.80    2.50
   7 -12  -3   12.60    5.40
  -7  12   2   71.29    8.80
   7  12  -2   72.89    9.80
   7 -12  -2   73.39    9.20
  -7 -12   2   55.19    5.70
   7 -12  -2   67.59    7.50
  -7  12   1   28.60    7.20
   7  12  -1   30.70    7.50
   7 -12  -1   41.80    6.90
   7 -12  -1   38.80    6.40
  -7 -12   1   32.20    4.30
   7 -12  -1   42.90    5.70
  -7  12   0  506.15   26.10
   7  12   0  547.15   26.60
  -7 -12   0  524.95   22.20
   7 -12   0  502.65   22.50
   7 -12   0  482.45   21.30
   7 -12   0  502.45   22.90
  -7  12  -1   24.90    7.70
   7  12   1    7.40    7.80
   7 -12   1   28.20    4.70
  -7 -12  -1   22.30    3.90
   7 -12   1   22.40    4.70
  -7 -12  -1   20.80    3.40
   7 -12   1   21.80    3.50
  -7  12  -2  355.76   20.80
   7  12   2  348.77   22.40
   7 -12   2  320.77   14.60
   7 -12   2  271.77   14.10
  -7 -12  -2  323.47   15.80
  -7 -12  -2  330.97   14.60
  -7  12  -3   20.70    8.40
  -7 -12  -3    8.90    3.30
  -7 -12  -3   17.60    4.40
  -7 -12  -4  196.08   10.90
  -7  12  -5    1.40    8.30
  -7 -12  -5   10.60    4.10
  -7 -12  -5    8.20    4.80
  -7  12  -6   72.79   12.40
  -7 -12  -6   92.49    9.80
  -7 -12  -6   77.79    8.50
  -7 -13   8   10.40    8.30
   7 -13  -8    6.70    7.70
   7 -13  -8    4.70   10.80
   7 -13  -7   13.50    9.40
  -7 -13   7    7.40    6.70
   7 -13  -7   21.10    7.40
   7 -13  -6    4.50    7.80
  -7 -13   6   11.10    6.40
   7 -13  -6    4.70    6.90
   7 -13  -5   43.60    8.60
   7 -13  -5   35.60    8.80
  -7 -13   5   66.29    8.50
   7  13  -4   25.50    6.90
  -7 -13   4   33.60    6.60
   7 -13  -4   40.40    9.70
  -7  13   3   39.20    8.20
   7  13  -3   35.00    6.90
   7 -13  -3   59.99    7.00
  -7 -13   3   45.80    6.00
   7  13  -2   68.59    9.70
  -7 -13   2   46.30    6.10
   7 -13  -2   64.09    8.30
  -7  13   1   68.29    9.80
   7  13  -1   41.40    7.50
   7 -13  -1   64.29    7.70
   7 -13  -1   54.09    7.50
  -7 -13   1   55.69    6.30
  -7  13   0   18.60    7.50
   7  13   0    7.30    5.90
   7 -13   0   22.30    4.40
   7 -13   0   18.50    4.70
   7 -13   0   12.70    5.00
  -7 -13   0   17.00    4.30
   7  13   1  158.08   16.10
  -7  13  -1  133.09   14.30
   7 -13   1  128.59   10.10
   7 -13   1  129.49    8.30
  -7 -13  -1  150.78    9.70
   7 -13   1  142.99   10.00
  -7 -13  -1  145.69    8.40
  -7  13  -2    2.80    7.80
   7  13   2   -4.10    9.50
   7 -13   2    2.60    3.50
  -7 -13  -2    4.00    3.10
  -7 -13  -2    9.70    3.80
  -7  13  -3  188.88   19.40
  -7 -13  -3  169.48    9.90
  -7 -13  -3  165.68   11.30
  -7  13  -4   20.80    9.40
  -7 -13  -4   12.20    5.00
  -7 -13  -4    7.30    3.80
  -7  13  -5   48.40   10.90
  -7 -13  -5   43.80    5.90
  -7 -13  -5   44.10    6.60
  -7 -14   7   74.49   10.00
   7 -14  -7   75.49   11.00
   7 -14  -7  107.59   13.80
   7 -14  -6    0.30    8.50
  -7 -14   6    1.80    6.30
   7 -14  -6   -3.10    7.20
   7 -14  -5   12.60    7.90
   7 -14  -5   19.30    8.60
  -7 -14   5   10.00    6.50
   7 -14  -4   23.70    7.30
  -7 -14   4   14.20    6.20
  -7  14   3    4.20   15.30
  -7 -14   3   15.10    6.00
  -7  14   2   16.50    7.70
   7  14  -2    8.30    6.90
   7 -14  -2   17.90    4.90
  -7 -14   2   13.40    4.50
  -7 -14   2   10.50    3.80
   7 -14  -2   10.80    6.10
   7  14  -1   49.10   12.40
  -7  14   1   30.50    8.60
  -7 -14   1   22.10    6.00
   7 -14  -1   48.70    7.20
  -7 -14   1   24.30    4.60
   7 -14  -1   34.70    6.00
   7  14   0   36.90    8.50
  -7  14   0   37.30    8.60
  -7 -14   0   30.40    5.20
   7 -14   0   23.40    4.90
   7 -14   0   32.10    5.10
   7 -14   0   34.30    6.40
  -7  14  -1    4.70    8.00
   7  14   1   15.90    9.70
   7 -14   1   -2.00    4.20
  -7 -14  -1    4.90    4.30
   7 -14   1   -5.50    5.20
  -7 -14  -1   -1.70    2.80
  -7  14  -2   44.90   10.20
   7  14   2   40.50   14.50
  -7 -14  -2   57.59    7.60
   7 -14   2   38.10    4.90
  -7 -14  -2   46.70    5.80
  -7  14  -3  -11.60    8.10
  -7 -14  -3   -3.30    3.50
  -7 -14  -3   -2.10    4.50
  -7  14  -4   15.60    9.40
  -7 -14  -4   20.30    5.00
  -7  14  -5   -4.80    9.60
  -7 -14  -5    8.20    5.40
  -7 -14  -5   -4.30    4.40
   7 -15  -7   25.20   11.30
  -7 -15   7   35.60    8.40
   7 -15  -7   14.90    8.50
   7 -15  -6    9.60    8.40
   7 -15  -6    1.10    9.70
  -7 -15   6    1.00    6.70
   7 -15  -5   45.20    9.80
  -7 -15   5   44.50    8.40
   7 -15  -5   23.00    9.20
   7 -15  -4    3.80    7.10
  -7 -15   4   -4.10    5.50
  -7 -15   3   63.89    8.10
   7 -15  -3   79.09   11.80
  -7  15   2   33.50    9.40
  -7 -15   2   39.80    6.00
  -7  15   1   -6.30    8.20
  -7 -15   1   -3.20    3.40
  -7 -15   1   -6.00    5.10
   7 -15  -1   -2.90    5.60
  -7  15   0   56.59   10.50
  -7 -15   0   56.09    7.00
   7 -15   0   56.99    7.70
  -7  15  -1   80.69   11.70
  -7 -15  -1   63.79    8.60
   7 -15   1   83.09    9.00
  -7 -15  -1   85.99    6.80
  -7  15  -2    4.70    9.00
  -7 -15  -2    1.60    3.50
   7 -15   2   -1.90    4.50
  -7 -15  -2    6.50    4.90
  -7 -15  -3   -0.90    3.70
  -7 -15  -3    2.70    4.70
  -7  15  -4   16.70   10.00
  -7 -15  -4   13.60    4.70
  -7 -15  -5   13.50    5.30
   7 -16  -6  -10.90    9.30
   7 -16  -6    4.60    9.00
  -7 -16   6   13.10    7.70
   7 -16  -5  102.79   13.10
  -7 -16   5  105.79   13.00
   7 -16  -5   79.49   12.50
   7 -16  -4   41.00    9.40
   7 -16  -4   33.80    9.10
  -7 -16   4   17.10    7.50
   7 -16  -3    5.90    7.30
  -7 -16   3    5.80    6.10
  -7 -16   2   20.00    5.30
  -7  16   1  119.89   16.20
   7 -16  -1  139.49   12.80
  -7 -16   1  135.89    9.20
  -7  16   0   15.80    8.30
  -7 -16   0   26.20    4.50
   7 -16   0   32.60    6.80
  -7  16  -1   12.70    9.80
   7 -16   1    9.10    5.20
  -7 -16  -1    7.10    4.80
  -7 -16  -1    4.50    3.60
  -7  16  -2    8.70    9.90
  -7 -16  -2   13.90    5.50
  -7 -16  -2   10.20    4.10
  -7  16  -3   54.29   11.90
  -7 -16  -3   53.99    7.40
  -7 -16  -3   71.29    9.60
  -7  16  -4   34.60   13.50
  -7 -16  -4   21.90    5.50
  -7 -16  -4   25.10    6.20
  -7 -17   6   15.80    8.30
   7 -17  -6    6.10   10.30
   7 -17  -6    7.20    9.20
  -7 -17   5   16.60    7.80
   7 -17  -5   16.90    9.30
   7 -17  -5   -4.10    9.10
   7 -17  -4   24.20    9.80
   7 -17  -4   28.80   11.10
  -7 -17   4   46.30    9.30
   7 -17  -3   10.90    9.40
   7 -17  -3    7.20    8.00
  -7 -17   3    7.00    6.40
   7 -17  -2   56.89    9.60
  -7 -17   2   46.40    6.80
  -7 -17   1    8.60    4.50
  -7  17   0   51.59   10.50
  -7 -17   0   68.09    7.00
   7 -17   0   76.29    9.00
  -7  17  -1   17.20    9.80
   7 -17   1   32.20    6.20
  -7 -17  -1   32.00    5.30
  -7  17  -2   -5.10   11.30
  -7 -17  -2    6.40    4.10
  -7 -17  -2    4.00    6.80
  -7  17  -3   14.70   12.80
  -7 -17  -3   -3.30    4.80
  -7 -17  -3    5.10    4.60
   7 -18  -5  -19.30    9.80
  -7 -18   5   -3.00    7.90
   7 -18  -5    1.90    9.70
  -7 -18   4   75.39   11.00
   7 -18  -4   56.39   13.70
   7 -18  -4   84.69   12.30
   7 -18  -3   81.49   11.30
   7 -18  -3   74.39   13.20
  -7 -18   3   78.39    9.40
   7 -18  -2   -5.00    9.50
  -7 -18   2    7.30    5.60
   7 -18  -2   10.60    8.00
  -7 -18   1   -4.90    4.00
   7 -18   0   66.09    8.90
  -7 -18   0   65.99    7.50
  -7  18  -1   41.90   11.10
  -7 -18  -1   54.59    6.40
  -7 -18  -2   -4.90    4.10
  -7 -18  -3    5.40    4.60
   7 -19  -4   16.50   11.10
   7 -19  -4    0.10    9.80
  -7 -19   4   -7.20    7.90
   7 -19  -3   47.70   11.00
   7 -19  -3   33.20   12.30
  -7 -19   3   43.50    9.20
  -7 -19   2    3.30    5.60
   7 -19  -2    3.00    8.50
   7 -19  -2   14.10   11.90
   7 -19  -1    0.90    7.70
  -7 -19   1    2.50    4.70
  -7 -19   0    5.50    4.30
  -7 -19  -1    1.50    4.20
  -7 -19  -2    2.80    4.40
  -7 -20   2   47.70    8.10
   7 -20  -2   49.30   11.00
   7 -20  -2   51.09   14.30
  -7 -20   1    4.70    5.20
   7 -20  -1   22.10    8.80
   7 -20  -1   -6.60   11.40
  -7 -20   0   16.60    5.20
   8   0  -9   -8.50    7.30
   8   0  -8   75.19    9.70
   8   0  -8   74.49    6.70
   8   0  -7   -1.60    4.90
   8   0  -7    0.90    2.20
   8   0  -6   83.29    5.20
  -8   0   6   84.79    6.50
  -8   0   5    2.80    2.90
   8   0  -5    0.40    1.70
  -8   0   4   13.10    4.10
  -8   0   4    1.10    2.70
   8   0  -4    1.80    1.70
  -8   0   3   16.90    2.90
   8   0  -2  217.88    9.80
   8   0  -2  183.28   10.50
  -8   0   2  223.28   11.20
   8   0  -1    1.90    2.00
  -8   0   1    0.10    2.10
  -8   0   1    2.30    2.40
   8   0  -1   -0.60    1.50
  -8   0   0    4.30    2.50
   8   0   0    9.10    2.30
   8   0   0    5.60    1.90
  -8   0   0    5.10    2.60
   8   0   1    0.00    2.00
  -8   0  -1   -2.60    2.10
  -8   0  -1   -0.30    2.30
   8   0   1   -1.70    2.10
  -8   0  -2   14.80    3.10
   8   0   2   13.70    3.30
   8   0   2   13.20    3.50
  -8   0  -2   13.80    3.30
   8   0   3   -2.60    3.80
   8   0   3    5.40    3.80
  -8   0  -3   -0.10    2.30
  -8   0  -3    0.00    2.60
  -8   0  -4  431.46   18.50
  -8   0  -4  404.66   17.10
   8   0   4  359.46   18.50
  -8   0  -5    4.30    3.20
  -8   0  -6   32.80    5.10
  -8   0  -7   -7.10    4.60
   8   1  -9   -1.70    7.40
   8  -1  -9   11.60    8.40
   8   1  -8   50.59    8.70
   8  -1  -8   52.79    9.20
   8  -1  -8   58.59    4.40
   8   1  -7   22.10    6.10
   8   1  -7   20.20    3.20
  -8  -1   7   16.70    6.30
   8  -1  -7   12.80    6.00
   8  -1  -7   16.00    2.50
  -8   1   6   48.40    6.20
   8   1  -6   53.99    4.50
  -8  -1   6   48.30    5.50
   8  -1  -6   57.39    3.90
   8  -1  -6   44.20    7.00
   8   1  -5   13.70    2.60
  -8   1   5   15.50    3.80
   8  -1  -5   10.40    2.10
  -8  -1   5   13.90    3.30
   8   1  -4  303.07   12.80
  -8   1   4  289.67   13.90
  -8   1   4  293.67   15.20
   8  -1  -4  307.67   12.40
  -8  -1   4  269.17   13.20
  -8  -1   4  261.67   14.60
  -8   1   3  374.96   18.40
   8   1  -3  428.56   16.90
  -8   1   3  371.56   17.60
  -8  -1   3  414.26   18.60
   8  -1  -3  416.36   16.50
  -8  -1   3  399.46   17.20
   8   1  -2   58.19    4.50
   8   1  -2   59.49    5.70
  -8   1   2   60.49    6.00
  -8   1   2   52.09    5.10
   8  -1  -2   52.89    4.20
   8  -1  -2   43.20    5.90
  -8  -1   2   67.49    5.90
  -8   1   1   19.00    3.50
   8   1  -1   14.10    2.60
   8   1  -1   14.90    2.50
  -8   1   1   10.00    2.60
  -8  -1   1   13.40    2.60
   8  -1  -1   12.10    2.70
   8  -1  -1   12.10    2.50
  -8  -1   1   18.20    3.60
   8   1   0   63.59    4.50
  -8   1   0   65.49    5.90
   8   1   0   71.19    5.40
  -8   1   0   62.19    5.30
   8  -1   0   61.99    4.30
  -8  -1   0   65.09    5.40
  -8  -1   0   71.69    5.70
   8  -1   0   58.09    5.60
   8   1   1  353.56   15.80
   8   1   1  338.17   15.00
  -8   1  -1  344.27   15.90
  -8   1  -1  364.56   15.30
   8  -1   1  337.57   15.20
  -8  -1  -1  346.77   15.60
   8  -1   1  335.07   14.40
  -8  -1  -1  351.06   15.40
  -8   1  -2  343.87   14.80
   8   1   2  292.37   15.20
  -8   1  -2  372.56   16.00
   8   1   2  341.67   15.90
  -8  -1  -2  361.36   15.50
  -8  -1  -2  352.66   15.40
   8  -1   2  319.77   14.80
   8  -1   2  319.67   15.20
  -8   1  -3  670.33   25.80
   8   1   3  559.74   25.80
  -8   1  -3  621.74   24.00
   8  -1   3  551.84   25.10
  -8  -1  -3  616.34   25.10
  -8  -1  -3  570.44   24.60
  -8   1  -4   19.90    3.10
   8   1   4   14.60    5.60
  -8   1  -4   18.40    3.70
  -8  -1  -4   15.20    3.30
  -8  -1  -4   20.40    4.00
   8  -1   4   13.10    4.60
  -8   1  -5    8.60    2.80
  -8  -1  -5    6.50    3.60
  -8   1  -6    2.50    4.30
  -8  -1  -6    6.00    3.90
  -8   1  -7  106.69   10.70
  -8  -1  -7   79.39    9.40
   8   2  -9    3.50    7.30
   8  -2  -9    8.80    7.80
   8   2  -8   13.10    6.40
   8  -2  -8   11.50    7.30
   8  -2  -8    9.40    2.20
   8   2  -7   40.10    4.40
  -8  -2   7   40.40    7.50
   8  -2  -7   43.90    3.50
   8  -2  -7   43.60    7.40
   8   2  -6   -2.30    2.30
  -8   2   6    3.30    3.70
  -8  -2   6   -3.50    3.00
   8  -2  -6   -0.20    1.50
  -8   2   5  283.37   13.60
   8   2  -5  268.97   12.40
   8  -2  -5  272.57   11.60
  -8  -2   5  266.17   12.50
  -8   2   4  145.49   10.80
   8   2  -4  121.79    7.10
  -8   2   4  120.69    8.30
   8  -2  -4  127.59    6.50
  -8  -2   4  108.39    7.10
  -8  -2   4  133.29    9.20
  -8   2   3  169.88   10.90
   8   2  -3  188.18    9.30
  -8   2   3  173.68   10.30
  -8  -2   3  207.68   10.90
  -8  -2   3  192.78    9.30
   8  -2  -3  180.58    8.70
  -8   2   2  328.27   16.40
  -8   2   2  342.57   16.70
   8   2  -2  391.26   16.00
   8  -2  -2  381.36   15.40
  -8  -2   2  417.96   17.10
   8  -2  -2  320.67   16.50
   8   2  -1  226.98   10.70
   8   2  -1  262.27   11.70
  -8   2   1  228.18   12.10
  -8   2   1  232.38   11.90
   8  -2  -1  222.58   11.50
  -8  -2   1  251.57   12.10
  -8  -2   1  244.88   11.10
   8  -2  -1  243.58   11.00
   8   2   0  145.79    8.30
  -8   2   0  141.69    8.20
  -8   2   0  139.49    8.70
   8   2   0  132.39    7.30
  -8  -2   0  137.79    7.80
   8  -2   0  131.39    7.00
  -8  -2   0  141.89    8.50
  -8   2  -1  205.98   11.30
   8   2   1  217.08   10.70
  -8   2  -1  204.88   10.40
   8   2   1  217.48   11.40
  -8  -2  -1  201.58   11.00
   8  -2   1  207.88    9.30
   8  -2   1  216.68   10.40
  -8  -2  -1  201.78   10.30
   8   2   2    0.30    3.20
   8   2   2    5.20    3.50
  -8   2  -2   -1.30    2.10
  -8   2  -2    4.60    3.90
   8  -2   2    2.50    2.50
  -8  -2  -2    1.80    2.50
   8  -2   2    4.10    2.70
  -8  -2  -2    3.50    2.90
   8   2   3  303.97   16.40
  -8   2  -3  360.76   14.00
   8   2   3  256.47   15.80
  -8   2  -3  358.66   16.10
  -8  -2  -3  295.47   14.80
  -8  -2  -3  339.17   15.10
   8  -2   3  299.07   14.90
  -8   2  -4  151.58    9.90
   8   2   4  114.49   11.30
  -8   2  -4  144.79    7.40
  -8  -2  -4  129.79    8.60
   8  -2   4  123.09    9.00
  -8  -2  -4  135.49    8.60
  -8   2  -5  127.19    6.90
  -8  -2  -5  128.89    8.80
  -8   2  -6   49.50    7.20
  -8  -2  -6   40.00    5.90
  -8  -2  -6   59.09    7.00
  -8   2  -7    4.70    5.60
  -8  -2  -7   -0.20    4.30
   8   3  -9   -9.50    6.70
   8  -3  -9   -8.40    8.60
   8   3  -8    4.70    6.00
   8  -3  -8   -0.90    6.50
  -8  -3   8   -1.10    6.70
   8  -3  -8    0.80    1.70
   8   3  -7   47.00    5.60
  -8  -3   7   64.59    8.60
   8  -3  -7   64.59    4.10
   8  -3  -7   54.59    8.50
   8   3  -6    1.00    2.60
  -8   3   6   -7.10    3.70
  -8  -3   6   -0.80    2.90
   8  -3  -6    2.40    1.70
  -8   3   5   14.20    4.40
   8   3  -5    9.50    3.00
   8  -3  -5   16.80    2.50
  -8  -3   5   13.50    4.40
  -8  -3   5   13.40    2.90
  -8   3   4  491.85   22.60
  -8   3   4  479.05   21.50
   8   3  -4  476.75   20.50
  -8  -3   4  499.65   19.90
   8  -3  -4  479.25   19.60
  -8  -3   4  491.55   22.00
   8   3  -3  251.77   12.00
  -8   3   3  232.78   13.30
  -8   3   3  232.08   12.70
   8  -3  -3  244.88   11.10
  -8  -3   3  252.67   13.00
  -8  -3   3  275.77   11.50
  -8   3   2  192.58   11.10
   8   3  -2  200.08   10.40
  -8   3   2  185.58   11.20
   8  -3  -2  211.08    9.70
   8  -3  -2  204.28   11.30
  -8  -3   2  235.08   11.40
  -8   3   1  246.08   12.80
   8   3  -1  273.17   12.80
  -8   3   1  218.48   12.80
   8  -3  -1  244.38   12.60
  -8  -3   1  301.47   13.30
  -8  -3   1  260.77   11.80
   8  -3  -1  281.47   12.00
  -8   3   0 1380.86   54.59
   8   3   0 1440.26   54.29
  -8   3   0 1360.76   53.59
   8   3   0 1323.77   53.09
   8  -3   0 1349.66   52.79
   8  -3   0 1432.86   53.39
  -8  -3   0 1448.76   53.39
  -8  -3   0 1458.85   54.29
   8   3   1  706.83   30.20
  -8   3  -1  759.62   31.20
   8   3   1  761.52   31.20
  -8   3  -1  736.73   29.80
   8  -3   1  792.92   29.90
  -8  -3  -1  724.73   30.60
   8  -3   1  764.52   28.80
  -8   3  -2   62.69    6.40
   8   3   2   42.40    5.90
  -8   3  -2   57.69    5.00
   8  -3   2   61.69    5.50
   8  -3   2   56.49    4.60
  -8  -3  -2   51.29    6.20
   8   3   3  294.17   16.60
  -8   3  -3  359.06   13.70
   8   3   3  261.87   15.90
  -8  -3  -3  292.07   14.60
  -8  -3  -3  322.17   14.50
   8  -3   3  298.07   14.50
  -8   3  -4    3.20    3.40
  -8   3  -4    0.00    2.40
   8   3   4    9.40    6.50
  -8  -3  -4    6.00    3.40
  -8  -3  -4    3.40    2.30
   8  -3   4    2.30    7.30
  -8  -3  -5   18.00    4.20
  -8   3  -6   47.80    7.30
  -8  -3  -6   54.79    6.90
  -8  -3  -6   51.69    6.90
  -8   3  -7   31.60    7.60
  -8  -3  -7   54.69    7.10
   8   4  -9   16.90    8.00
   8  -4  -9   24.40    9.90
   8  -4  -9   16.10    2.20
   8   4  -8   20.50    3.70
  -8  -4   8   35.60    8.20
   8  -4  -8   20.30    2.50
   8  -4  -8   17.40    7.20
   8  -4  -8   22.00    4.90
   8   4  -7  193.48   10.20
   8  -4  -7  182.68    8.60
  -8  -4   7  185.08   13.90
   8  -4  -7  195.98   14.70
   8   4  -6    5.40    3.10
   8  -4  -6    7.40    2.10
  -8  -4   6    5.30    2.80
   8   4  -5  449.36   19.20
  -8   4   5  468.25   20.30
  -8  -4   5  381.86   17.80
   8  -4  -5  459.95   17.90
  -8  -4   5  422.86   20.90
  -8   4   4  104.19    8.60
   8   4  -4  103.29    7.40
   8  -4  -4  100.89    5.90
   8  -4  -4  109.39    9.30
  -8  -4   4  101.19    6.10
  -8  -4   4   97.99    7.90
  -8   4   3   87.39    7.80
  -8   4   3   71.09    7.30
   8   4  -3   84.99    6.40
   8  -4  -3   76.09    7.60
  -8  -4   3   94.29    7.50
  -8  -4   3   86.29    5.40
   8  -4  -3   87.49    5.40
   8   4  -2  809.12   32.30
  -8   4   2  781.22   32.90
  -8   4   2  788.22   33.10
   8  -4  -2  813.22   31.20
  -8  -4   2  863.91   32.80
   8  -4  -2  726.23   32.00
  -8   4   1   29.30    4.50
   8   4  -1   28.50    4.20
  -8   4   1   27.90    4.60
   8  -4  -1   24.30    3.10
  -8  -4   1   29.90    3.50
  -8  -4   1   25.80    4.30
   8  -4  -1   15.60    3.60
   8   4   0    3.30    2.60
  -8   4   0   16.10    4.50
  -8   4   0    9.10    3.10
  -8  -4   0   14.40    2.90
  -8  -4   0    2.20    3.00
   8  -4   0    2.50    2.30
   8  -4   0    6.20    2.70
  -8   4  -1  208.88   10.90
   8   4   1  221.28   12.40
   8   4   1  203.98   11.90
  -8   4  -1  206.88   12.20
   8  -4   1  235.48    9.70
   8  -4   1  233.18   11.00
  -8  -4  -1  218.48   11.80
  -8  -4  -1  227.38   10.80
   8   4   2  275.67   17.10
  -8   4  -2  325.17   14.60
   8   4   2  309.87   16.70
  -8   4  -2  369.36   17.10
  -8  -4  -2  322.77   15.40
   8  -4   2  335.77   14.90
  -8  -4  -2  317.07   14.80
   8  -4   2  371.26   13.90
  -8   4  -3    7.70    4.10
   8   4   3   15.60    6.20
  -8   4  -3    1.40    2.50
  -8  -4  -3    4.90    2.80
   8  -4   3    6.40    4.20
  -8  -4  -3    6.40    3.20
   8  -4   3    3.20    2.80
  -8   4  -4  143.39    7.70
  -8   4  -4  166.18   11.50
  -8  -4  -4  153.28    9.10
  -8  -4  -4  141.89    8.80
  -8  -4  -5    3.40    3.40
  -8   4  -6    4.10    5.70
  -8  -4  -6   13.00    4.10
  -8  -4  -6   13.00    3.90
  -8   4  -7   17.80    8.10
  -8  -4  -7   14.20    5.00
   8   5  -9    9.60    7.60
   8  -5  -9    9.60    4.40
   8  -5  -9    6.30    9.50
   8   5  -8   26.20    5.00
   8  -5  -8   29.40    3.60
  -8  -5   8   22.10    8.00
   8  -5  -8   25.60    8.30
   8  -5  -8   32.20    5.60
   8   5  -7   20.50    4.10
  -8  -5   7   17.00    6.20
   8  -5  -7    9.70    6.60
   8  -5  -7   16.10    2.60
   8   5  -6  141.19    8.90
  -8  -5   6  133.89    7.40
   8  -5  -6  144.09    7.30
  -8   5   5    8.70    4.60
   8   5  -5   15.10    3.90
  -8  -5   5   13.00    2.70
   8   5  -4    2.20    3.10
  -8   5   4    8.40    4.40
  -8  -5   4    6.70    2.30
   8  -5  -4    5.80    4.50
   8  -5  -4    7.70    2.20
  -8  -5   4   10.20    4.50
   8   5  -3    0.40    2.90
  -8   5   3    0.50    3.50
   8  -5  -3    2.00    1.70
   8  -5  -3   -3.20    3.30
  -8  -5   3    1.50    1.70
  -8  -5   3   -0.90    2.90
  -8   5   2   57.39    6.80
   8   5  -2   58.39    6.20
  -8   5   2   41.70    5.70
   8  -5  -2   46.50    6.00
  -8  -5   2   58.79    6.40
   8  -5  -2   46.20    6.20
   8  -5  -2   50.49    4.40
  -8   5   1  143.19    9.10
   8   5  -1  140.29    9.40
  -8   5   1  138.69   10.00
   8  -5  -1  142.49    8.80
   8  -5  -1  154.88    8.00
  -8  -5   1  151.78    9.60
  -8  -5   1  143.89    7.60
  -8   5   0  110.59    7.50
  -8   5   0   93.29    8.40
   8  -5   0  102.79    6.60
  -8  -5   0  101.19    6.30
  -8  -5   0  100.19    8.00
   8  -5   0   92.89    6.80
   8   5   1   19.30    5.00
  -8   5  -1   13.00    3.30
  -8   5  -1    8.40    4.30
  -8  -5  -1   10.40    2.50
   8  -5   1   17.10    3.30
  -8  -5  -1   23.10    4.40
   8  -5   1   19.10    2.50
   8   5   2   73.39    8.50
  -8   5  -2   60.69    5.50
  -8   5  -2   58.99    7.60
  -8  -5  -2   60.89    6.20
   8  -5   2   55.79    6.00
  -8  -5  -2   61.49    5.30
   8  -5   2   64.99    4.30
  -8   5  -3    0.10    4.30
   8   5   3   -2.50    5.70
   8  -5   3    4.10    2.70
   8  -5   3    6.90    2.90
  -8  -5  -3    6.90    2.50
  -8  -5  -3    1.80    2.80
  -8   5  -4   50.49    7.80
   8  -5   4   31.80    3.70
  -8  -5  -4   49.90    5.50
  -8  -5  -4   39.20    5.30
  -8   5  -5  339.27   21.90
  -8  -5  -5  352.06   15.60
  -8   5  -6   47.10    8.70
  -8  -5  -6   33.60    4.70
  -8  -5  -6   25.70    4.40
   8   6  -9   18.10    7.60
  -8  -6   9    3.40    8.90
   8  -6  -9   17.30    5.20
   8  -6  -9   28.60   10.00
  -8  -6   8   11.40    7.70
   8  -6  -8    3.70    2.30
   8  -6  -8    1.10    8.00
   8  -6  -8   10.90    5.20
   8   6  -7  228.68   12.40
   8  -6  -7  238.38   16.80
   8  -6  -7  234.48   10.50
  -8  -6   7  208.48   14.90
   8   6  -6   57.79    6.50
   8  -6  -6   63.99    4.80
  -8  -6   6   48.10    5.10
   8   6  -5   86.59    7.40
  -8   6   5   81.49    9.20
  -8  -6   5   85.99   10.70
   8  -6  -5   63.99    5.40
  -8  -6   5   75.29    5.10
   8   6  -4  210.48   12.00
  -8   6   4  205.58   13.10
  -8  -6   4  223.28    9.80
   8  -6  -4  203.28   13.30
  -8  -6   4  236.38   13.90
   8  -6  -4  198.58   10.00
  -8   6   3   -2.90    3.80
   8   6  -3   -3.60    2.60
  -8  -6   3    3.80    4.20
   8  -6  -3    3.20    3.60
  -8  -6   3    2.30    1.70
   8  -6  -3   -1.00    1.70
   8   6  -2  154.68    9.80
  -8   6   2  135.19   10.00
   8  -6  -2  140.69    9.80
   8  -6  -2  126.99   10.70
  -8  -6   2  144.59    9.80
   8  -6  -2  139.19    7.70
  -8   6   1    2.00    3.60
   8   6  -1   -2.50    3.50
  -8  -6   1   -1.80    3.10
   8  -6  -1    1.10    3.20
   8  -6  -1    0.40    1.90
   8  -6  -1   -1.50    3.20
  -8  -6   1    2.10    1.90
  -8   6   0    7.80    3.70
   8   6   0    1.20    4.80
   8  -6   0    3.20    3.10
   8  -6   0    4.20    3.10
  -8  -6   0   -0.10    3.30
   8  -6   0    4.40    2.50
  -8  -6   0   10.30    2.70
   8   6   1  398.96   19.50
  -8   6  -1  351.46   18.90
   8  -6   1  398.86   17.30
   8  -6   1  382.86   16.90
  -8  -6  -1  383.66   16.80
   8  -6   1  392.46   15.90
  -8  -6  -1  382.36   17.70
  -8   6  -2   29.90    5.50
   8   6   2   45.20    7.20
   8  -6   2   34.50    4.40
  -8  -6  -2   25.70    4.10
   8  -6   2   37.70    3.20
   8  -6   2   38.50    4.60
  -8  -6  -2   36.80    4.50
  -8   6  -3    5.50    5.30
   8   6   3    5.00    5.90
  -8  -6  -3    7.50    3.00
   8  -6   3    6.40    2.60
  -8  -6  -3   10.60    3.30
   8  -6   3    7.80    3.00
  -8   6  -4  157.88   13.20
  -8  -6  -4  177.18    9.30
  -8  -6  -4  169.08    9.80
  -8   6  -5   13.60    7.00
  -8  -6  -5    4.70    3.10
  -8   6  -6    8.10    7.00
  -8  -6  -6   10.30    4.20
   8  -7  -9   -5.40    9.40
  -8  -7   9   -4.70    8.60
   8  -7  -9   16.40    5.50
   8  -7  -8   62.69    5.10
   8  -7  -8   65.09    7.90
  -8  -7   8   65.69    9.90
   8  -7  -8   83.49   12.30
   8   7  -7  100.49    8.80
  -8  -7   7   89.59   11.30
   8  -7  -7  101.69    6.50
   8  -7  -7  127.39   13.80
   8   7  -6   45.40    6.00
  -8  -7   6   32.40    4.60
   8  -7  -6   52.19    4.70
  -8  -7   6   22.40    5.70
   8   7  -5   47.10    6.40
   8  -7  -5   53.49    4.90
  -8  -7   5   45.20    4.20
   8   7  -4  534.95   23.50
  -8   7   4  504.25   24.20
   8  -7  -4  510.65   21.30
  -8  -7   4  502.45   20.80
  -8  -7   4  555.44   26.40
   8  -7  -4  524.35   24.70
   8   7  -3  469.55   21.00
  -8  -7   3  432.36   18.30
   8  -7  -3  438.56   21.40
   8  -7  -3  454.35   18.90
   8   7  -2  359.16   17.70
  -8   7   2  370.06   18.50
   8  -7  -2  367.66   15.50
  -8  -7   2  365.66   17.30
  -8  -7   2  298.07   14.70
   8  -7  -2  357.56   17.60
  -8   7   1   37.80    7.10
   8   7  -1   33.30    6.10
   8  -7  -1   36.10    4.40
  -8  -7   1   32.80    5.50
  -8  -7   1   29.60    3.80
   8  -7  -1   31.20    4.30
   8  -7  -1   30.10    5.00
  -8   7   0  142.19   11.20
   8   7   0  139.69   10.80
  -8  -7   0  149.09    9.60
   8  -7   0  139.19    8.00
  -8  -7   0  141.49    7.90
   8  -7   0  130.39    8.40
   8  -7   0  144.79    9.40
   8   7   1   71.89    9.00
  -8   7  -1   55.59    7.50
   8  -7   1   62.09    6.40
   8  -7   1   56.49    5.60
  -8  -7  -1   56.99    6.00
  -8  -7  -1   54.59    5.20
   8  -7   1   63.49    5.20
  -8   7  -2   77.69    9.60
   8   7   2   86.19   10.00
   8  -7   2   70.79    6.90
   8  -7   2   81.69    6.80
  -8  -7  -2   79.09    6.30
  -8  -7  -2   83.19    6.60
   8  -7   2   91.49    4.70
  -8   7  -3  181.68   13.70
  -8  -7  -3  206.98   10.10
   8  -7   3  174.68    9.50
  -8  -7  -3  194.28   10.50
  -8  -7  -4   51.09    5.40
  -8  -7  -4   53.89    6.40
  -8   7  -5    1.20    6.70
  -8  -7  -5   10.20    3.80
  -8  -7  -5    3.90    4.20
  -8   7  -6   44.70    9.20
  -8  -7  -6   47.60    6.30
  -8  -7  -6   34.60    5.00
   8  -8  -9   -1.20   10.80
  -8  -8   9    2.10    9.20
   8  -8  -9    8.60    5.80
  -8  -8   8   24.20    7.70
   8  -8  -8   10.80    9.60
   8  -8  -8   15.50    5.60
   8   8  -7    4.30    4.70
   8  -8  -7    2.10    7.90
   8  -8  -7    2.60    2.70
  -8  -8   7    5.90    6.00
   8   8  -6   38.00    5.90
  -8  -8   6   30.10    4.20
   8  -8  -6   39.60    8.70
  -8  -8   6   35.60    6.50
   8  -8  -6   37.50    4.40
  -8   8   5  189.88   13.30
   8   8  -5  192.68   12.30
  -8  -8   5  176.68    8.70
   8  -8  -5  177.38    9.60
   8   8  -4    6.10    4.30
  -8   8   4    7.20    5.40
   8  -8  -4    6.40    2.40
  -8  -8   4    2.60    2.10
   8  -8  -4    4.40    5.20
   8   8  -3   58.19    7.70
   8  -8  -3   58.89    7.70
  -8  -8   3   48.10    4.40
   8  -8  -3   57.39    5.20
   8   8  -2   31.50    5.80
  -8   8   2   27.10    6.20
   8  -8  -2   26.70    3.90
  -8  -8   2   20.70    8.10
  -8  -8   2   25.40    3.50
   8  -8  -2   27.80    5.60
   8   8  -1  610.34   27.50
  -8   8   1  563.84   30.80
  -8  -8   1  575.14   24.20
  -8  -8   1  597.14   26.40
   8  -8  -1  578.74   24.80
   8  -8  -1  676.63   26.50
   8  -8  -1  620.84   26.60
  -8   8   0    4.10    5.10
   8   8   0    5.50    5.20
  -8  -8   0    5.70    2.70
   8  -8   0    6.20    3.70
   8  -8   0    5.60    2.50
   8  -8   0    7.00    3.40
  -8  -8   0    3.90    3.40
   8   8   1  447.76   22.30
  -8   8  -1  431.76   22.30
  -8  -8  -1  431.76   18.50
   8  -8   1  422.86   18.80
   8  -8   1  430.26   19.40
  -8  -8  -1  465.65   19.30
   8  -8   1  409.56   18.20
   8   8   2  925.21   41.70
  -8   8  -2  957.60   41.50
   8  -8   2  923.91   38.20
  -8  -8  -2  962.40   38.00
   8  -8   2 1010.40   36.30
  -8  -8  -2 1020.50   38.00
   8  -8   2  947.21   37.90
  -8   8  -3   42.30    7.70
  -8  -8  -3   55.79    6.20
  -8  -8  -3   51.19    5.90
  -8   8  -4   91.29   12.40
  -8  -8  -4   92.39    7.70
  -8  -8  -4   99.49    7.00
  -8   8  -5  306.07   20.70
  -8  -8  -5  320.07   14.60
  -8  -8  -5  320.57   15.90
  -8   8  -6    9.50    8.20
  -8  -8  -6   16.30    4.00
  -8  -8  -6    8.40    3.80
   8  -9  -8  119.99   12.20
  -8  -9   8  114.29   14.20
   8  -9  -8  140.79   17.20
   8   9  -7   59.69    7.50
   8  -9  -7   62.19    8.50
   8  -9  -7   71.19   10.50
  -8  -9   7   48.30    8.70
   8   9  -6  176.48   12.10
  -8  -9   6  169.88   12.70
   8  -9  -6  162.08   15.10
   8  -9  -6  173.28    9.70
   8   9  -5    2.60    4.50
  -8   9   5   -5.70   19.50
   8  -9  -5    6.30    3.10
   8  -9  -5    2.50    5.80
  -8  -9   5    6.90    5.80
  -8  -9   5    1.50    2.20
  -8   9   4  229.98   15.70
   8   9  -4  252.07   14.90
   8  -9  -4  250.97   12.40
   8  -9  -4  270.97   20.90
  -8  -9   4  249.48   11.20
   8   9  -3  473.45   22.90
  -8   9   3  406.16   22.90
   8  -9  -3  505.05   23.30
   8  -9  -3  500.45   20.50
  -8  -9   3  470.95   19.30
  -8   9   2    5.00    5.80
   8   9  -2    6.80    5.00
   8  -9  -2    8.70    4.60
  -8  -9   2    1.70    2.00
   8  -9  -2    3.60    3.00
  -8   9   1   64.69    9.00
   8   9  -1   72.79    9.50
  -8  -9   1   72.59    5.60
   8  -9  -1   68.49    6.00
   8  -9  -1   70.99    7.10
  -8  -9   1   66.29    7.80
   8  -9  -1   75.69    8.40
   8   9   0  128.79   11.90
  -8   9   0  129.49   12.20
   8  -9   0  127.09    9.40
  -8  -9   0  125.29    7.70
  -8  -9   0  132.69    8.90
   8  -9   0  117.99    8.10
   8  -9   0  112.59    7.80
   8   9   1   21.10    7.00
  -8   9  -1   15.20    5.60
  -8  -9  -1    6.20    3.80
   8  -9   1    8.50    3.30
  -8  -9  -1   13.30    3.20
   8  -9   1   15.30    4.30
   8  -9   1   14.20    3.80
  -8   9  -2   98.69   11.50
   8   9   2   70.69    9.80
  -8  -9  -2   77.29    6.70
   8  -9   2   72.09    6.90
  -8  -9  -2   75.19    9.10
   8  -9   2   58.69    6.90
   8  -9   2   83.09    4.60
  -8   9  -3   79.29   10.70
  -8  -9  -3   66.99    5.90
  -8  -9  -3   61.49    6.50
   8  -9   3   55.59    6.20
  -8  -9  -4   19.20    3.70
  -8  -9  -4   19.40    4.70
  -8   9  -5   38.10   10.20
  -8  -9  -5   47.50    6.40
  -8  -9  -5   48.90    6.20
  -8   9  -6   17.90    9.20
  -8  -9  -6    2.80    4.20
  -8  -9  -6   10.30    4.10
   8 -10  -8   13.70    9.10
   8 -10  -8   28.10    7.10
  -8 -10   8   24.90    8.80
   8  10  -7   12.30    6.10
   8 -10  -7   20.20    9.00
   8 -10  -7   25.60    7.10
  -8 -10   7   18.70    6.80
   8  10  -6   -3.80    5.20
   8 -10  -6   -6.40    6.60
  -8 -10   6    6.50    5.30
   8  10  -5   35.30    6.80
  -8 -10   5   26.80    5.90
   8 -10  -5   25.90    4.20
   8 -10  -5   22.00    7.60
   8  10  -4  203.18   13.40
  -8  10   4  177.78   14.70
  -8 -10   4  171.88    8.90
   8 -10  -4  175.98   10.20
   8  10  -3   31.60    6.40
  -8  10   3   27.10    6.70
   8 -10  -3   20.00    5.90
  -8 -10   3   34.50    4.00
   8 -10  -3   28.30    4.70
   8  10  -2   17.90    5.90
  -8  10   2   13.50    6.10
   8 -10  -2    8.70    5.30
   8 -10  -2   11.50    3.70
  -8 -10   2    7.70    2.50
   8  10  -1   56.69    8.70
  -8  10   1   38.40    7.80
   8 -10  -1   28.10    7.10
   8 -10  -1   46.20    6.70
  -8 -10   1   40.30    6.10
   8 -10  -1   49.40    5.70
  -8 -10   1   46.00    4.90
   8  10   0    4.30    6.80
  -8  10   0    3.20    5.80
  -8 -10   0    4.10    2.70
   8 -10   0    2.60    3.40
   8 -10   0    6.10    3.60
   8 -10   0    2.90    3.90
  -8 -10   0    1.90    3.70
   8  10   1   33.90    8.80
  -8  10  -1   34.30    7.90
   8 -10   1   27.20    5.10
   8 -10   1   28.80    4.10
  -8 -10  -1   28.00    4.30
   8 -10   1   22.40    4.50
  -8 -10  -1   17.70    3.50
  -8  10  -2   -5.10    6.30
   8  10   2    7.80    9.00
   8 -10   2   -1.40    5.40
  -8 -10  -2    3.40    3.00
  -8 -10  -2    4.60    3.20
   8 -10   2    2.20    3.70
  -8  10  -3    5.90    6.00
  -8 -10  -3   12.60    3.20
  -8 -10  -3    9.30    3.70
  -8 -10  -4   11.40    5.40
  -8 -10  -4   26.70    4.20
  -8  10  -5   16.80    9.70
  -8 -10  -5    3.10    3.50
  -8 -10  -5    3.20    4.20
  -8 -10  -6    1.80    3.90
   8 -11  -8   71.89    9.80
   8 -11  -8   69.29   13.90
  -8 -11   8   72.79   10.60
   8 -11  -7   25.90    7.70
  -8 -11   7   23.50    7.20
   8 -11  -7   22.20   10.00
   8 -11  -6  111.89   13.30
  -8 -11   6   99.49   11.10
   8  11  -5   12.60    6.40
  -8 -11   5    7.70    5.30
   8 -11  -5   16.40    7.90
   8  11  -4   52.99    7.60
   8 -11  -4   68.39    7.80
  -8 -11   4   77.29    9.70
  -8  11   3   88.19   11.90
   8  11  -3  115.59   11.20
  -8 -11   3   98.99    6.50
  -8 -11   3  118.49   12.80
   8 -11  -3   94.79    8.00
   8 -11  -3  110.69   12.30
  -8  11   2   82.49   10.30
   8  11  -2   85.89   11.70
   8 -11  -2   94.79   10.20
   8 -11  -2   82.59    7.50
  -8 -11   2   87.59    6.30
   8  11  -1  173.98   14.70
  -8  11   1  136.09   14.20
   8 -11  -1  146.49   11.30
  -8 -11   1  151.68    8.90
   8  11   0  134.29   14.50
  -8  11   0  135.09   14.00
   8 -11   0  133.99    8.90
   8 -11   0  132.09   10.30
  -8 -11   0  137.99    8.70
  -8 -11   0  134.49    9.00
  -8  11  -1  116.29   13.60
   8  11   1  100.29   11.80
  -8 -11  -1   74.39    7.20
   8 -11   1   90.09    7.50
   8 -11   1   83.39    7.10
   8 -11   1   99.89    8.70
  -8 -11  -1   95.39    7.20
  -8  11  -2    5.60    7.50
   8  11   2   -0.60   10.10
   8 -11   2    0.80    3.80
  -8 -11  -2   -0.60    3.50
  -8 -11  -2    1.90    3.20
  -8  11  -3   11.00    7.70
  -8 -11  -3    6.20    4.10
  -8 -11  -3    6.50    3.30
  -8  11  -4   48.30   10.70
  -8 -11  -4   72.89    6.90
  -8 -11  -4   82.49    8.30
  -8  11  -5    8.40   10.30
  -8 -11  -5    3.20    3.80
  -8 -11  -5   10.40    5.00
  -8 -12   8    9.50    8.50
   8 -12  -8   11.10   11.30
   8 -12  -7   -0.50    7.10
  -8 -12   7   -1.70    6.90
   8 -12  -7   -5.10    9.30
  -8 -12   6   64.39    8.90
   8 -12  -6   58.29   10.50
  -8 -12   5   33.70    6.90
   8 -12  -5   30.90    8.50
  -8 -12   4   55.99    7.90
   8 -12  -4   64.09    9.70
  -8  12   3   12.50   11.60
   8  12  -3   18.20    6.20
  -8 -12   3   25.70    6.60
  -8  12   2  596.74   30.60
   8  12  -2  611.94   29.70
  -8 -12   2  604.24   25.00
   8 -12  -2  612.04   28.30
  -8  12   1  185.28   16.20
   8  12  -1  178.38   15.80
  -8 -12   1  174.98   10.10
   8 -12  -1  167.68   10.80
   8 -12  -1  173.48   12.60
  -8  12   0    6.70    7.90
   8  12   0   13.50    8.10
   8 -12   0   -1.80    4.80
   8 -12   0    5.20    4.10
  -8 -12   0    3.00    3.40
   8 -12   0    2.60    3.50
  -8 -12   0    6.90    3.50
   8  12   1   57.79   10.80
  -8  12  -1   57.19   10.50
  -8 -12  -1   47.50    6.00
   8 -12   1   52.79    6.60
  -8 -12  -1   57.29    6.60
   8 -12   1   50.09    6.70
   8  12   2   16.10   11.40
  -8  12  -2   -6.60    8.30
   8 -12   2    4.20    3.90
  -8 -12  -2    5.50    3.90
  -8 -12  -2    5.50    3.10
  -8  12  -3   24.10   14.20
  -8 -12  -3   39.50    5.10
  -8 -12  -3   33.70    5.60
  -8  12  -4    8.30    9.20
  -8 -12  -4   20.90    4.50
  -8  12  -5   13.60   11.10
  -8 -12  -5   27.40    6.00
  -8 -12  -5   27.00    5.10
   8 -13  -7   81.19   13.60
  -8 -13   7   94.69   10.80
   8 -13  -7   66.19   10.60
   8 -13  -6   30.50   10.40
  -8 -13   6   31.00    7.60
   8 -13  -6   22.30    8.10
   8 -13  -5   -4.20    7.80
  -8 -13   5   -6.70    5.80
   8 -13  -4   16.90    7.60
  -8 -13   4   33.00    7.40
  -8 -13   3  182.38   13.40
  -8  13   2  115.59   15.40
  -8 -13   2  100.49   10.60
   8 -13  -2  108.49   11.90
  -8  13   1  132.39   15.40
   8 -13  -1  125.79   11.80
  -8 -13   1  131.29    9.50
  -8  13   0  200.28   17.80
   8 -13   0  189.58   13.10
   8 -13   0  205.08   14.30
  -8 -13   0  205.18   11.50
  -8 -13   0  195.98   11.50
  -8  13  -1   62.49   10.60
   8 -13   1   62.79    8.70
  -8 -13  -1   49.99    6.40
   8 -13   1   69.59    8.70
  -8 -13  -1   69.99    7.40
  -8  13  -2   28.50   10.20
  -8 -13  -2   15.70    4.90
  -8 -13  -2   16.40    4.20
  -8  13  -3  244.78   23.00
  -8 -13  -3  212.08   11.60
  -8 -13  -3  203.28   12.80
  -8  13  -4   94.09   13.30
  -8 -13  -4  107.29    8.50
  -8 -13  -5   12.20    4.80
  -8 -14   7   12.00    8.10
   8 -14  -7   11.90    8.60
   8 -14  -7   12.40   11.30
   8 -14  -6   39.50    9.70
   8 -14  -6   50.59   10.90
  -8 -14   6   52.39    8.90
  -8 -14   5   16.10    7.70
   8 -14  -5    0.20    8.60
   8 -14  -4    7.30    8.00
  -8 -14   4   13.80    7.00
   8 -14  -3   48.00    8.80
  -8 -14   3   37.90    7.50
   8 -14  -2   34.70    9.10
  -8 -14   2   30.60    6.80
  -8  14   1   -5.00    8.70
  -8 -14   1   -7.10    4.30
   8 -14  -1   -2.00    5.90
  -8  14   0   12.00    8.80
  -8 -14   0   29.60    4.90
  -8 -14   0   18.50    4.70
   8 -14   0   35.40    6.90
  -8  14  -1   -0.50    8.70
  -8 -14  -1    7.10    3.90
  -8 -14  -1    5.40    4.30
   8 -14   1    9.30    5.20
  -8  14  -2  127.69   17.40
  -8 -14  -2  110.39    8.30
  -8 -14  -2  107.49    9.50
  -8 -14  -3    7.90    4.20
  -8 -14  -3   12.80    5.00
  -8  14  -4   51.49   13.60
  -8 -14  -4   37.40    8.40
  -8 -14  -4   40.30    6.60
   8 -15  -6   64.39   11.80
   8 -15  -6   28.60   10.30
  -8 -15   6   51.49    9.20
  -8 -15   5    8.50    7.50
   8 -15  -5    5.10    9.00
   8 -15  -5    8.70    8.60
   8 -15  -4   18.80    9.10
  -8 -15   4   10.30    7.20
  -8 -15   3   13.80    7.20
   8 -15  -3   27.50    8.60
  -8 -15   2   10.30    6.10
   8 -15  -1   26.60    7.30
  -8 -15   1   23.90    5.50
  -8  15   0   -2.10    9.50
   8 -15   0    7.30    6.10
  -8 -15   0    6.20    4.00
  -8  15  -1   35.50   11.40
   8 -15   1   33.60    6.20
  -8 -15  -1   35.70    5.40
  -8  15  -2   11.00   11.80
  -8 -15  -2   13.10    4.30
  -8 -15  -2   19.80    5.70
  -8  15  -3   -8.70   11.30
  -8 -15  -3    3.90    4.10
  -8 -15  -4    0.20    4.50
  -8 -16   6   12.60    8.30
   8 -16  -6   30.50   11.70
  -8 -16   5   10.10    8.10
   8 -16  -5   -6.80    9.80
   8 -16  -5   17.60   10.50
  -8 -16   4   52.19    9.50
   8 -16  -4   77.19   12.00
   8 -16  -3   -9.70    7.70
  -8 -16   3   13.70    7.30
  -8 -16   2   30.90    7.30
   8 -16  -2   25.00    8.30
  -8 -16   1   21.40    5.70
   8 -16   0   45.90    7.80
  -8 -16   0   65.29    7.70
  -8  16  -1   20.20   10.60
  -8  16  -2  -13.40   11.70
  -8 -16  -2   -5.10    4.00
  -8  16  -3   -2.90   11.70
  -8 -16  -3    5.50    4.80
   8 -17  -5   12.40   10.30
   8 -17  -5   10.70   11.40
  -8 -17   5   11.20    8.80
   8 -17  -4  129.09   17.30
   8 -17  -4  159.68   20.30
  -8 -17   4  151.88   15.70
   8 -17  -3   50.99   10.70
  -8 -17   3   52.89    9.30
  -8 -17   2   21.70    7.30
   8 -17  -2   24.50    8.80
  -8 -17   1    3.40    5.30
  -8 -17   0   83.99    8.80
   8 -17   0   74.89    9.70
  -8 -17  -1    8.30    4.60
  -8 -17  -2    0.00    4.20
   8 -18  -4    8.80   10.30
  -8 -18   4   12.50    8.40
   8 -18  -4    5.30   11.20
   8 -18  -3   15.00   12.20
  -8 -18   3   -2.60    7.80
   8 -18  -3   13.70    9.90
   8 -18  -2   26.00    9.30
  -8 -18   2   21.50    7.20
   8 -18  -1   64.29   10.50
  -8 -18   1   65.69    7.90
  -8 -18   0   26.80    6.00
  -8 -18  -1   26.30    5.70
   8 -19  -2    2.50    9.40
  -8 -19   2   17.10    7.80
  -8 -19   1   83.59   10.30
   8 -19  -1   69.29   10.80
   9   0  -9    1.60    8.70
   9   0  -8    7.10    7.30
   9   0  -8    1.90    3.10
   9   0  -7    0.80    2.60
  -9   0   7    4.90    6.30
   9   0  -7   -3.60    5.80
   9   0  -6  300.57   13.10
  -9   0   6  260.57   17.50
  -9   0   6  308.47   14.70
   9   0  -5    1.60    2.10
  -9   0   5   -3.10    3.70
   9   0  -4    1.40    2.00
  -9   0   4    3.60    4.70
  -9   0   4    7.60    3.60
  -9   0   3   -1.20    2.90
   9   0  -3   -1.00    1.90
  -9   0   3   -1.20    3.40
   9   0  -2   95.59    6.30
  -9   0   2  121.69    8.40
  -9   0   2  102.19    7.10
  -9   0   1    2.30    2.90
   9   0  -1    3.00    2.40
  -9   0   1    2.60    3.10
   9   0   0  273.27   13.20
  -9   0   0  275.47   13.40
  -9   0   0  290.07   13.90
   9   0   1    2.10    2.80
  -9   0  -1    1.60    2.90
   9   0   1   -2.90    2.70
  -9   0  -1    4.30    3.20
   9   0   2   14.50    4.20
  -9   0  -2    6.90    3.00
  -9   0  -2    7.40    3.30
   9   0   2    9.40    3.60
   9   0   3    3.50    5.00
  -9   0  -3   -1.40    3.40
  -9   0  -3    0.00    2.80
  -9   0  -4  379.96   18.50
  -9   0  -4  381.56   16.70
  -9   0  -5   -1.20    4.50
  -9   0  -6    9.40    4.80
   9   1  -9    3.50    8.70
   9  -1  -9    8.90    8.60
   9   1  -8   21.20    5.40
   9   1  -8   18.10    7.00
   9  -1  -8   16.80    3.20
   9  -1  -8    7.70    6.90
   9   1  -7   -3.80    2.90
  -9  -1   7   -3.20    6.70
   9  -1  -7    0.40    2.30
   9  -1  -7   -2.30    6.30
   9   1  -6    4.40    2.70
  -9   1   6   10.60    4.90
   9  -1  -6    5.60    2.30
  -9  -1   6    5.50    4.10
  -9  -1   6    6.60    5.90
   9   1  -5  144.89    8.20
  -9   1   5  162.28   10.30
   9  -1  -5  149.49    7.60
  -9  -1   5  135.69    9.20
   9   1  -4   65.99    5.10
  -9   1   4   46.40    7.30
  -9   1   4   45.40    5.90
  -9  -1   4   82.29   12.60
  -9  -1   4   45.60    6.10
   9  -1  -4   58.39    4.50
   9   1  -3   15.70    3.00
  -9   1   3    9.90    4.20
  -9   1   3   15.00    3.70
  -9  -1   3   16.10    4.30
  -9  -1   3   11.90    3.10
   9  -1  -3   10.50    2.40
  -9   1   2  218.98   12.00
  -9   1   2  216.88   11.50
   9   1  -2  231.08   10.80
   9  -1  -2  203.28   10.20
  -9  -1   2  204.78   11.70
  -9  -1   2  205.88   10.90
   9   1  -1   35.10    4.60
  -9   1   1   43.20    5.50
   9  -1  -1   34.40    4.30
  -9  -1   1   34.70    4.30
  -9  -1   1   29.30    4.60
  -9   1   0   87.39    7.10
   9   1   0   89.19    6.90
  -9   1   0   88.69    6.90
   9  -1   0   78.69    6.10
  -9  -1   0   88.09    6.80
   9  -1   0   73.09    5.40
  -9  -1   0   81.79    6.40
  -9   1  -1   20.50    4.00
   9   1   1   29.70    6.00
   9   1   1   17.30    4.30
  -9   1  -1   19.20    3.50
  -9  -1  -1   23.30    4.00
  -9  -1  -1   24.30    4.10
   9  -1   1   24.10    3.80
   9  -1   1   28.40    3.50
   9   1   2    8.10    4.40
   9   1   2    8.30    4.50
  -9   1  -2    3.60    3.40
  -9   1  -2   14.30    3.30
   9  -1   2   13.40    3.70
  -9  -1  -2   11.10    3.40
  -9  -1  -2   10.90    3.00
   9  -1   2   11.80    3.90
  -9   1  -3   33.50    4.10
   9   1   3    8.80    5.80
  -9   1  -3   26.70    5.10
   9  -1   3   21.50    5.30
  -9  -1  -3   28.30    4.80
  -9  -1  -3   22.90    4.30
  -9   1  -4   93.09    9.20
  -9   1  -4  100.39    7.00
  -9  -1  -4   97.09    7.90
  -9  -1  -4  107.39    8.50
  -9   1  -5   -4.80    4.20
  -9  -1  -5    0.10    3.50
  -9  -1  -5   -0.70    3.70
  -9   1  -6  154.38   12.60
  -9  -1  -6  154.68   11.90
   9   2  -9  125.69   16.10
   9  -2  -9  175.78   17.10
   9   2  -8   54.29    9.30
   9  -2  -8   59.49    5.00
   9  -2  -8   57.89   10.30
  -9  -2   8   67.89   10.50
   9   2  -7    7.70    3.50
  -9  -2   7   -2.80    6.20
   9  -2  -7    5.40    2.30
   9  -2  -7   -3.20    6.30
   9   2  -6   23.00    3.90
  -9   2   6    7.60    5.00
   9  -2  -6   19.70    2.80
  -9  -2   6    7.00    5.80
  -9  -2   6   24.50    4.60
  -9   2   5   43.30    6.10
   9   2  -5   43.80    5.20
  -9  -2   5   35.10    4.80
   9  -2  -5   42.60    4.00
   9   2  -4  107.89    7.10
  -9   2   4  117.49    9.10
  -9   2   4  101.89   11.20
   9  -2  -4  103.19    6.10
  -9  -2   4  110.99    7.60
  -9   2   3    5.20    3.30
   9   2  -3    2.30    2.60
  -9   2   3   19.40    4.60
  -9  -2   3    5.40    2.60
  -9  -2   3    3.20    3.70
   9  -2  -3    2.90    2.20
  -9   2   2   29.60    4.50
  -9   2   2   30.00    5.10
   9   2  -2   37.80    4.70
  -9  -2   2   37.00    4.50
  -9  -2   2   44.60    5.80
   9  -2  -2   37.30    4.10
  -9   2   1   40.50    5.50
   9   2  -1   38.00    4.70
  -9   2   1   37.90    5.20
  -9  -2   1   37.80    5.00
  -9  -2   1   36.80    4.60
   9  -2  -1   31.90    4.20
  -9   2   0   31.40    4.80
   9   2   0   26.80    4.00
  -9   2   0   30.70    4.80
   9  -2   0   38.70    4.70
  -9  -2   0   44.20    5.50
   9  -2   0   32.70    3.90
  -9  -2   0   31.20    4.10
  -9   2  -1  114.79    8.20
   9   2   1  106.19    8.30
  -9   2  -1  109.69    7.50
  -9  -2  -1  111.69    7.30
   9  -2   1  102.09    6.30
  -9  -2  -1  109.89    7.90
   9  -2   1   90.79    7.10
  -9   2  -2   78.89    6.30
  -9   2  -2   71.39    7.30
   9   2   2   62.39    8.30
  -9  -2  -2   70.89    7.00
  -9  -2  -2   75.99    6.50
   9  -2   2   70.99    6.70
   9  -2   2   72.49    6.40
  -9   2  -3  119.69    9.40
  -9   2  -3  132.59    7.60
  -9  -2  -3  109.69    8.20
  -9  -2  -3  119.79    8.70
   9  -2   3  100.69    9.00
  -9   2  -4  138.59   13.70
  -9   2  -4  141.29    7.90
  -9  -2  -4  124.89    9.20
  -9  -2  -4  129.69    9.40
  -9   2  -5    3.00    4.70
  -9  -2  -5    8.40    4.40
  -9  -2  -5    7.30    3.90
  -9   2  -6    2.00    5.50
  -9  -2  -6   -2.70    4.40
   9   3  -9   47.00   10.20
   9  -3  -9   48.20   10.40
   9  -3  -9   48.90    6.80
   9  -3  -9   48.30    4.70
   9   3  -8   15.10    7.40
   9  -3  -8   12.60    7.70
  -9  -3   8    5.10    7.80
   9   3  -7    9.30    3.80
   9  -3  -7    4.60    6.80
   9  -3  -7    6.40    2.30
  -9  -3   7    2.40    6.40
   9   3  -6  395.86   17.50
  -9   3   6  390.66   18.60
   9  -3  -6  387.26   15.80
  -9  -3   6  377.36   16.90
  -9  -3   6  343.27   20.10
  -9   3   5   17.40    5.10
   9   3  -5   12.70    3.70
  -9   3   5   15.10    6.40
   9  -3  -5   14.90    2.70
  -9  -3   5    5.70    3.50
  -9   3   4    5.30    4.30
   9   3  -4    0.50    2.80
  -9   3   4    3.00    6.90
  -9  -3   4    3.40    2.60
   9  -3  -4    1.50    1.90
  -9   3   3  233.28   14.40
  -9   3   3  269.07   14.60
   9   3  -3  277.47   13.40
  -9  -3   3  277.27   12.80
   9  -3  -3  275.17   12.30
  -9  -3   3  301.97   14.60
  -9   3   2    4.00    3.10
   9   3  -2   10.20    3.50
  -9   3   2    7.30    3.70
   9  -3  -2   10.80    2.50
  -9  -3   2   11.10    3.60
  -9  -3   2   14.40    2.90
  -9   3   1   28.40    4.60
  -9   3   1   15.50    3.90
   9   3  -1   19.40    3.60
  -9  -3   1   25.60    4.40
   9  -3  -1   25.70    3.40
  -9  -3   1   20.20    3.00
  -9   3   0   18.90    4.90
  -9   3   0   17.40    3.80
   9   3   0   15.10    4.10
  -9  -3   0   22.30    3.80
   9  -3   0   14.20    2.70
  -9  -3   0   13.80    4.00
   9  -3   0   16.30    3.00
   9   3   1  106.89    9.00
  -9   3  -1  117.69    9.20
  -9   3  -1  116.79    7.80
   9  -3   1  123.79    7.70
  -9  -3  -1  123.89    8.70
  -9  -3  -1  113.79    7.50
   9  -3   1  110.29    6.30
   9   3   2  374.26   19.40
  -9   3  -2  408.46   19.20
  -9   3  -2  406.86   17.30
   9  -3   2  382.46   17.60
   9  -3   2  390.16   17.50
  -9  -3  -2  379.76   18.20
  -9  -3  -2  392.86   17.60
  -9   3  -3    3.40    3.90
  -9   3  -3    0.30    2.90
  -9  -3  -3    5.10    4.20
   9  -3   3    1.20    6.70
  -9  -3  -3   -2.40    4.80
  -9   3  -4    5.90    3.00
  -9  -3  -4    3.70    4.10
  -9  -3  -4   11.40    4.50
  -9   3  -5   -3.10    5.00
  -9  -3  -5    2.10    4.30
  -9  -3  -5   -4.50    4.70
  -9   3  -6   12.50    7.40
  -9  -3  -6   10.40    4.50
   9   4  -9    5.60    8.00
   9  -4  -9    3.80    2.50
   9  -4  -9    9.00    4.70
   9  -4  -9   17.10   10.30
   9  -4  -8   56.89   10.20
  -9  -4   8   65.29   10.20
   9  -4  -8   75.49    5.10
   9   4  -7  154.18    9.80
   9  -4  -7  152.18   14.30
  -9  -4   7  129.59   13.00
   9  -4  -7  151.38    7.60
  -9   4   6    4.00   11.90
   9   4  -6    0.20    3.40
  -9  -4   6    6.70    5.70
   9  -4  -6    1.60    2.10
  -9  -4   6    3.30    3.70
  -9   4   5   73.89    9.10
   9   4  -5   57.29    7.20
  -9  -4   5   75.79    6.40
  -9   4   4   55.09    7.00
   9   4  -4   48.90    6.50
  -9  -4   4   56.49    5.30
   9  -4  -4   48.90    4.50
  -9   4   3   64.29    7.90
   9   4  -3   58.29    6.20
  -9   4   3   59.49    7.30
   9  -4  -3   57.19    4.90
  -9  -4   3   65.69    7.30
  -9  -4   3   62.29    5.10
  -9   4   2   66.59    7.90
   9   4  -2   88.59    7.30
  -9   4   2   81.99    8.10
  -9  -4   2   89.19    5.90
   9  -4  -2   83.39    6.00
  -9  -4   2   95.39    7.80
   9   4  -1    2.70    2.80
  -9   4   1   13.60    4.70
  -9   4   1    7.70    3.60
  -9  -4   1   11.30    3.80
   9  -4  -1    9.60    3.00
  -9  -4   1    6.70    2.40
  -9   4   0  319.27   16.70
  -9   4   0  313.17   15.30
   9   4   0  335.67   16.30
   9  -4   0  315.57   14.50
   9  -4   0  300.67   13.80
  -9  -4   0  323.87   15.80
  -9  -4   0  310.37   14.40
  -9   4  -1   32.00    4.60
  -9   4  -1   36.30    6.40
   9   4   1   32.70    5.30
   9  -4   1   30.30    3.60
  -9  -4  -1   35.70    5.60
   9  -4   1   36.70    5.00
  -9   4  -2   13.20    5.10
  -9   4  -2   11.40    3.40
   9   4   2    2.30    4.20
  -9  -4  -2    9.10    4.30
   9  -4   2   14.90    3.00
  -9  -4  -2   10.00    3.00
   9  -4   2   11.90    3.70
  -9   4  -3   22.40    6.20
  -9   4  -3   17.00    3.60
  -9  -4  -3   17.80    4.60
  -9  -4  -3   13.60    3.90
  -9   4  -4   -0.60    4.80
  -9  -4  -4    2.20    3.30
  -9  -4  -4    4.00    4.70
  -9   4  -5   60.99    9.20
  -9  -4  -5   54.49    6.80
  -9  -4  -5   58.59    7.20
  -9   4  -6   -9.30    7.00
  -9  -4  -6    4.30    4.30
   9   5  -9   22.30    8.70
   9  -5  -9   27.60    5.60
  -9  -5   9   22.80   10.10
   9  -5  -9   19.00    2.90
   9  -5  -9   16.40   10.90
   9   5  -8   33.00    7.20
   9  -5  -8   60.89   10.90
   9  -5  -8   43.20    4.20
  -9  -5   8   43.00    9.60
   9   5  -7   18.00    4.90
   9  -5  -7   21.60    3.10
   9  -5  -7   14.60    7.30
  -9  -5   7   19.40    7.30
   9   5  -6   45.10    5.90
  -9  -5   6   22.40    4.30
   9  -5  -6   20.70    7.10
   9  -5  -6   34.20    4.30
  -9  -5   6   37.50    7.30
  -9   5   5   34.10    6.80
   9   5  -5   27.00    5.10
  -9  -5   5   36.50    4.10
   9  -5  -5   40.80    8.30
   9  -5  -5   29.70    3.70
  -9  -5   5   25.50    5.90
  -9   5   4   22.50    6.10
   9   5  -4   21.10    4.60
   9  -5  -4   15.70    2.80
   9  -5  -4   14.10    7.30
  -9  -5   4   16.00    3.10
  -9   5   3   16.50    5.00
   9   5  -3   20.70    4.40
  -9  -5   3   23.50    3.40
   9  -5  -3   15.40    4.90
   9  -5  -3   12.90    2.70
   9   5  -2    2.70    3.40
  -9   5   2   -1.00    3.80
  -9   5   2    3.50    3.90
  -9  -5   2    0.00    2.10
   9  -5  -2   -0.30    3.70
  -9  -5   2    2.20    3.40
   9  -5  -2    0.10    2.50
   9   5  -1  687.23   29.10
  -9   5   1  631.64   29.40
  -9   5   1  641.74   28.40
  -9  -5   1  665.63   26.90
  -9  -5   1  716.73   28.80
   9  -5  -1  662.33   27.00
  -9   5   0    2.50    4.50
  -9   5   0   -2.50    3.30
   9   5   0   -1.80    3.90
   9  -5   0   -1.50    3.00
   9  -5   0    4.30    3.10
  -9  -5   0   -1.10    2.00
  -9  -5   0   -0.20    3.80
  -9   5  -1   86.69    7.20
  -9   5  -1   92.59    9.40
   9   5   1   96.09    9.70
   9  -5   1   79.49    7.00
   9  -5   1   74.79    5.00
  -9  -5  -1   78.19    8.10
  -9  -5  -1   78.89    6.30
  -9   5  -2   30.00    5.80
  -9   5  -2   42.20    5.60
   9   5   2   48.60    8.40
   9  -5   2   34.60    5.00
  -9  -5  -2   47.80    6.30
  -9  -5  -2   32.70    4.50
   9  -5   2   41.60    4.50
  -9   5  -3  506.25   23.90
  -9  -5  -3  465.55   20.70
  -9  -5  -3  443.66   21.30
   9  -5   3  472.15   20.00
  -9   5  -4   58.19    8.40
  -9  -5  -4   48.50    6.50
  -9   5  -5   52.69    9.80
  -9  -5  -5   50.29    6.80
  -9  -5  -5   35.90    5.30
  -9   5  -6    6.00    8.20
  -9  -5  -6    0.60    4.80
   9   6  -8   14.10    6.60
  -9  -6   8   13.40    8.50
   9  -6  -8    5.20    8.90
   9   6  -7   45.90    6.40
   9  -6  -7   46.90    5.30
  -9  -6   7   42.90    8.60
   9  -6  -7   36.00    8.70
   9   6  -6    4.50    4.30
  -9  -6   6    4.70   11.30
   9  -6  -6    1.00    6.10
  -9  -6   6    0.90    5.30
   9  -6  -6    2.70    2.50
   9   6  -5  173.68   11.70
  -9  -6   5  194.18   12.70
   9  -6  -5  174.78    9.30
   9  -6  -5  175.08   14.10
  -9  -6   5  186.08    9.80
  -9   6   4   -0.10    5.30
   9   6  -4    3.10    3.90
   9  -6  -4    6.30    2.60
  -9  -6   4    1.50    2.40
  -9   6   3   30.30    6.40
   9   6  -3   31.70    5.60
   9  -6  -3   33.00    6.40
   9  -6  -3   31.10    3.80
  -9  -6   3   46.80    4.50
  -9   6   2    1.50    4.20
   9   6  -2    1.40    3.90
   9  -6  -2    1.50    2.70
   9  -6  -2   -1.20    4.20
  -9  -6   2    2.00    2.10
   9   6  -1   -7.30    4.40
   9  -6  -1    5.40    4.00
  -9  -6   1   -0.80    2.30
   9  -6  -1    2.70    3.40
  -9  -6   1    3.80    3.90
  -9   6   0   46.70    7.50
   9   6   0   52.19    7.80
   9  -6   0   42.70    5.20
  -9  -6   0   53.79    7.10
   9  -6   0   41.20    4.60
  -9  -6   0   43.20    5.10
   9  -6   0   52.79    6.20
  -9   6  -1   93.19   10.00
   9   6   1  111.39   11.10
   9  -6   1   99.49    7.90
   9  -6   1  105.89    6.00
  -9  -6  -1  104.19    9.30
  -9  -6  -1  101.89    7.30
   9  -6   1  114.09    8.30
  -9   6  -2   31.80    7.00
   9   6   2   15.00    6.30
  -9  -6  -2   25.00    4.40
  -9  -6  -2   39.40    5.80
   9  -6   2   24.10    4.80
   9  -6   2   21.30    2.90
   9  -6   2   23.90    4.40
  -9   6  -3   -3.60    6.20
   9  -6   3    2.10    3.60
  -9  -6  -3    3.40    4.30
  -9  -6  -3   -0.10    3.40
  -9   6  -4    1.80   11.50
  -9   6  -5  108.29   12.20
  -9  -6  -5   89.39    8.50
  -9  -6  -5   84.89    9.10
  -9  -6  -6    7.90    5.80
   9   7  -8   14.10    7.40
   9  -7  -8   11.30    6.30
  -9  -7   8    2.40    8.10
   9  -7  -8   10.60    9.30
   9   7  -7    3.70    5.10
   9  -7  -7   19.20    8.20
  -9  -7   7    1.80    6.50
   9   7  -6   42.50    6.90
  -9  -7   6   26.60    6.70
   9  -7  -6   53.39    5.90
   9  -7  -6   41.00    8.70
   9   7  -5  201.58   13.30
   9  -7  -5  206.98   10.60
   9  -7  -5  203.68   15.50
  -9  -7   5  241.28   14.00
  -9   7   4   84.29   11.30
   9   7  -4   82.99    9.20
  -9  -7   4   93.99    6.10
   9  -7  -4   84.69    6.30
   9   7  -3    9.30    4.80
   9  -7  -3   24.60    6.20
   9  -7  -3   12.60    2.80
  -9  -7   3   17.40    3.10
  -9   7   2   48.20    7.40
   9   7  -2   42.50    6.20
   9  -7  -2   45.30    5.20
  -9  -7   2   40.80    4.50
  -9  -7   2   42.90    6.20
   9  -7  -2   43.80    6.90
  -9   7   1   13.70    6.10
   9   7  -1    9.50    4.40
   9  -7  -1    4.90    4.30
   9  -7  -1    3.70    2.70
  -9  -7   1    6.50    2.50
  -9  -7   1    9.40    6.90
  -9   7   0    2.50    6.00
   9   7   0   -3.50    5.60
   9  -7   0   -1.70    4.00
   9  -7   0   -1.40    3.70
   9  -7   0   -0.50    2.70
  -9  -7   0    0.50    2.60
   9   7   1  231.38   15.90
  -9   7  -1  240.38   15.90
  -9  -7  -1  240.68   12.00
   9  -7   1  231.98   10.70
   9  -7   1  232.18   12.30
   9  -7   1  238.78   13.00
  -9   7  -2    2.10    5.20
   9   7   2    2.50    7.50
   9  -7   2   -0.20    4.60
  -9  -7  -2   -1.10    2.90
  -9  -7  -2   -5.20    6.30
   9  -7   2    6.00    4.00
   9  -7   2    0.00    6.00
  -9   7  -3  108.39   12.50
  -9  -7  -3  129.39    9.30
  -9  -7  -3  110.99    8.20
   9  -7   3   90.59    7.60
  -9  -7  -4   29.90    4.80
  -9  -7  -4   40.80    5.80
  -9   7  -5    7.60    8.70
  -9  -7  -5    8.00    3.70
  -9  -7  -5    8.80    4.90
  -9  -8   8   17.80    8.90
   9  -8  -8   13.10    9.70
   9  -8  -8   20.00    7.10
   9   8  -7    5.90    5.50
  -9  -8   7   -4.30    6.90
   9  -8  -7   16.60    9.30
   9   8  -6    3.80    5.00
   9  -8  -6   -1.40    7.30
  -9  -8   6    5.00    6.10
   9   8  -5  160.08   12.30
  -9  -8   5  155.78   11.90
   9  -8  -5  152.48   13.70
   9   8  -4  112.99   10.80
  -9  -8   4  121.39   10.40
   9  -8  -4  130.39    7.90
  -9   8   3   -0.10    6.80
   9   8  -3    3.50    4.60
   9  -8  -3   10.60    5.90
   9  -8  -3    3.30    2.40
  -9  -8   3    3.90    2.30
   9   8  -2  392.26   20.50
  -9   8   2  391.26   21.50
   9  -8  -2  390.76   17.50
  -9  -8   2  380.66   16.90
   9  -8  -2  393.66   20.20
  -9  -8   2  419.86   19.90
   9   8  -1   15.00    6.20
  -9   8   1   20.00    7.00
   9  -8  -1    9.20    4.90
  -9  -8   1   10.00    5.00
  -9  -8   1   12.00    3.10
   9  -8  -1   14.10    3.50
   9   8   0   56.09    9.10
  -9   8   0   41.00    6.80
   9  -8   0   58.09    7.10
  -9  -8   0   51.89    7.20
  -9  -8   0   49.50    5.70
   9  -8   0   47.10    5.70
   9  -8   0   53.69    6.10
   9   8   1   33.00    6.90
  -9   8  -1   63.99    9.50
  -9  -8  -1   39.10    4.80
  -9  -8  -1   39.10    5.80
   9  -8   1   42.50    5.20
   9  -8   1   58.79    6.70
   9  -8   1   49.20    6.20
  -9   8  -2   54.79    9.50
   9   8   2   32.80    8.70
  -9  -8  -2   47.40    5.60
  -9  -8  -2   53.39    7.20
   9  -8   2   51.69    6.00
  -9   8  -3   24.10    7.20
  -9  -8  -3   33.40    5.00
  -9  -8  -3   31.40    5.60
  -9  -8  -4   29.60    4.60
  -9   8  -5    1.70    9.20
  -9  -8  -5    4.90    3.90
  -9  -8  -5    2.50    4.50
   9  -9  -8   20.50   11.30
   9  -9  -8    9.40    6.80
  -9  -9   8   11.10    8.90
   9  -9  -7   -0.40    9.60
  -9  -9   7    4.50    7.10
   9  -9  -6    1.00    7.30
  -9  -9   6    2.70    5.70
   9   9  -5   22.90    7.70
   9  -9  -5   15.60    7.10
  -9  -9   5   14.60    6.20
   9   9  -4  368.06   20.10
   9  -9  -4  367.96   21.30
  -9  -9   4  396.36   19.40
  -9   9   3   -0.20    6.40
   9   9  -3    8.40    5.40
  -9  -9   3    3.10    5.30
   9  -9  -3    3.90    3.00
   9   9  -2  190.28   14.00
  -9   9   2  180.08   15.40
  -9  -9   2  178.18    9.60
   9  -9  -2  188.58   10.40
   9  -9  -2  204.68   13.70
  -9   9   1  384.96   21.90
   9   9  -1  353.86   20.30
  -9  -9   1  348.37   16.10
  -9  -9   1  362.56   18.80
   9  -9  -1  369.16   18.90
  -9   9   0   30.70    8.20
   9   9   0   39.30    8.30
  -9  -9   0   34.80    5.90
   9  -9   0   29.60    6.00
   9  -9   0   26.70    5.30
  -9  -9   0   41.50    4.90
   9  -9   0   20.90    3.70
  -9   9  -1   -0.80    5.40
   9   9   1    2.90    7.90
   9  -9   1   -2.20    4.30
  -9  -9  -1    4.00    3.00
  -9  -9  -1    4.80    4.70
   9  -9   1    3.60    3.50
   9  -9   1   -0.70    3.60
  -9   9  -2  346.87   21.90
   9   9   2  325.57   22.90
  -9  -9  -2  372.06   17.40
   9  -9   2  347.57   16.80
  -9  -9  -2  368.16   16.80
  -9   9  -3   18.10    8.40
  -9  -9  -3   26.90    4.80
  -9  -9  -3   37.60    5.70
  -9   9  -4    1.10    8.90
  -9  -9  -4   -2.70    4.30
  -9   9  -5   -5.30    9.70
  -9  -9  -5   -4.30    4.40
  -9  -9  -5   -7.50    4.50
   9 -10  -8   44.90   12.30
  -9 -10   8   43.40   10.10
  -9 -10   7   12.10    7.10
   9 -10  -7   -5.00    9.10
  -9 -10   6   65.49    8.70
   9 -10  -6   72.79   11.60
  -9 -10   5   24.70    6.30
   9 -10  -5   14.40    7.50
   9 -10  -4   -1.00    6.60
  -9 -10   4    7.40    5.10
  -9 -10   3   39.10    8.60
   9  10  -2   20.30    8.60
  -9  10   2    5.90    7.50
  -9 -10   2   11.20    4.10
   9 -10  -2   10.40    5.80
   9 -10  -2   15.20    5.10
  -9  10   1   69.39   10.50
   9  10  -1   95.49   12.60
  -9 -10   1   79.59    9.30
   9 -10  -1   73.29    8.60
  -9 -10   1   58.99    6.00
   9  10   0  159.38   17.90
  -9  10   0  162.28   16.00
   9 -10   0  172.78   12.10
  -9 -10   0  162.48    9.40
   9 -10   0  160.48   10.00
   9 -10   0  159.28   10.90
  -9 -10   0  162.58   11.80
  -9  10  -1    8.30    7.90
   9 -10   1    2.60    4.80
  -9 -10  -1    4.50    4.20
  -9 -10  -1    9.50    3.10
   9 -10   1    9.10    4.80
  -9  10  -2   36.80    9.40
  -9 -10  -2   50.49    5.90
  -9 -10  -2   61.99    7.50
   9 -10   2   48.50    5.80
  -9 -10  -3   24.00    5.00
  -9 -10  -3   23.50    4.80
  -9  10  -4   40.80   11.50
  -9 -10  -4   40.20    5.70
  -9 -10  -5    7.00    4.80
  -9 -10  -5    0.90    4.60
  -9 -11   7   28.60    8.30
   9 -11  -7   24.10    8.40
   9 -11  -7   50.59   11.80
  -9 -11   6   73.89    9.30
   9 -11  -6   75.19   11.50
   9 -11  -5   13.60    7.70
  -9 -11   5    7.60    5.90
   9 -11  -4  248.48   18.30
  -9 -11   4  279.97   16.30
  -9 -11   3    8.60    5.80
  -9  11   2   54.19   16.40
   9 -11  -2   86.19   11.20
  -9  11   1   12.40    8.20
  -9 -11   1    3.50    5.30
  -9 -11   1    4.80    5.40
   9 -11  -1    8.40    5.80
  -9  11   0   62.79   10.70
  -9 -11   0   71.59    9.00
   9 -11   0   67.79    8.10
  -9 -11   0   63.29    6.70
  -9  11  -1   -2.60    8.60
   9 -11   1    1.20    4.90
  -9 -11  -1    1.50    3.40
  -9 -11  -1    0.10    4.20
  -9  11  -2  268.07   21.20
  -9 -11  -2  268.07   14.00
  -9 -11  -2  272.87   14.40
  -9  11  -3   17.40    9.20
  -9 -11  -3   19.80    4.70
  -9 -11  -3   11.20    4.60
  -9  11  -4   13.50   11.70
  -9 -11  -4   14.00    4.70
   9 -12  -7    5.90    8.20
   9 -12  -7   -8.10   10.20
  -9 -12   7    1.00    8.10
   9 -12  -6   23.60   10.30
  -9 -12   6    7.60    6.90
   9 -12  -5   67.39   11.20
  -9 -12   5  107.89   11.50
  -9 -12   4   65.79    9.00
   9 -12  -4   54.89   10.10
   9 -12  -3   15.10    7.80
  -9 -12   3   28.50    6.60
  -9 -12   2   11.60    6.40
  -9  12   1    0.00    7.70
   9 -12  -1    1.10    5.90
  -9 -12   1    9.30    5.70
  -9  12   0   53.09   10.30
   9 -12   0   72.89    8.60
  -9 -12   0   70.69    8.70
  -9  12  -1   70.49   12.60
  -9 -12  -1  103.19    8.10
  -9 -12  -1   94.79    9.00
   9 -12   1   96.79   10.10
  -9  12  -2    6.30    9.10
  -9 -12  -2   16.60    5.00
  -9 -12  -2   12.10    4.40
  -9 -12  -3   15.40    4.90
  -9 -12  -3   20.80    5.10
  -9  12  -4   30.20   10.70
  -9 -12  -4   65.49    8.80
  -9 -12  -4   60.69    8.10
  -9 -13   6   39.30    8.60
   9 -13  -6   35.00   10.30
  -9 -13   5   31.20    7.60
   9 -13  -5   28.60    9.90
   9 -13  -4   45.80    9.90
  -9 -13   4   32.50    7.50
  -9 -13   3   87.09   11.60
   9 -13  -3   74.29   10.70
  -9 -13   2    8.00    6.00
   9 -13  -1   12.20    6.60
  -9 -13   1    2.60    5.70
  -9  13   0   53.99   11.90
  -9 -13   0   51.69    7.60
   9 -13   0   47.80    7.70
  -9  13  -1   32.20   10.90
  -9 -13  -1   50.19    6.80
   9 -13   1   51.29    7.20
  -9  13  -2   40.20   12.20
  -9 -13  -2    3.50    5.20
  -9 -13  -2   20.40    5.00
  -9  13  -3  -11.70   14.50
  -9 -13  -3    9.40    4.80
   9 -14  -6   22.20   10.10
   9 -14  -6   37.30   11.80
  -9 -14   6   43.50    8.80
   9 -14  -5   12.00    9.70
  -9 -14   5    5.80    6.80
   9 -14  -4   27.10    9.50
  -9 -14   4   32.90    8.20
   9 -14  -3  161.08   15.60
  -9 -14   3  130.29   13.50
  -9 -14   2   13.30    7.00
   9 -14  -2   12.90   13.60
  -9 -14   1  -10.90    5.60
   9 -14  -1    3.60    7.80
  -9 -14   0    7.50    5.20
   9 -14   0   12.90    6.90
  -9  14  -1   69.49   14.10
  -9 -14  -1   69.19    8.80
  -9 -14  -2   11.80    5.20
  -9  14  -3   16.70   12.60
  -9 -14  -3    5.30    4.80
   9 -15  -5  136.99   18.70
  -9 -15   5  146.29   14.80
  -9 -15   4    9.00    7.50
   9 -15  -4    0.00    8.80
   9 -15  -3   20.60    9.10
  -9 -15   3   19.40    7.70
  -9 -15   2   15.50    7.50
   9 -15  -2   25.50    8.80
  -9 -15   1   15.70    7.10
   9 -15   0   30.90    7.80
  -9 -15   0   21.40    6.30
  -9 -15  -1   56.29    7.30
  -9  15  -2   15.20   17.80
  -9 -15  -2    5.80    5.20
   9 -16  -4   31.90   10.80
  -9 -16   4   38.50    8.70
  -9 -16   3   66.69   10.00
   9 -16  -3  124.89   16.10
  -9 -16   2   21.60    8.40
   9 -16  -2   20.90    9.10
  -9 -16   1    8.20    7.00
  -9 -16   0   83.49   10.10
   9 -16   0   77.99   10.10
  -9 -16  -1  115.89   10.60
   9 -17  -3   11.20   10.50
  -9 -17   3    5.90    8.00
  -9 -17   2   18.50    8.40
   9 -17  -2    6.70    9.00
  -9 -17   1    9.70    7.30
   9 -17  -1    1.70    8.60
  -9 -17   0   16.30    6.60
  10   0  -8  117.19    8.70
  10   0  -8  106.49   14.60
 -10   0   7    5.80    8.00
  10   0  -7    0.30    3.20
  10   0  -7    8.60    7.10
 -10   0   6  214.38   16.30
  10   0  -6  250.67   11.90
 -10   0   5   -9.30    5.40
  10   0  -5   -0.50    2.70
 -10   0   4   32.10    6.10
 -10   0   4   41.90    6.70
  10   0  -4   48.10    5.00
 -10   0   3   -1.70    4.00
  10   0  -3   -2.90    2.40
 -10   0   3   -1.00    3.60
 -10   0   2   56.19    6.90
 -10   0   2   50.79    6.00
  10   0  -2   43.50    5.10
  10   0  -1    3.40    3.20
 -10   0   1    1.80    3.60
 -10   0   1    2.90    3.50
 -10   0   0  120.29    8.50
 -10   0   0  107.69    8.70
  10   0   0  105.89    8.10
 -10   0  -1    0.30    3.20
  10   0   1    5.30    4.00
 -10   0  -1    2.00    3.50
  10   0   2  173.68   12.10
 -10   0  -2  212.08   10.90
 -10   0  -2  168.68   11.50
 -10   0  -3    2.70    3.60
 -10   0  -3  -10.40    3.90
 -10   0  -4   18.60    4.10
 -10   0  -5   -1.50    4.80
  10   1  -8   13.30    6.30
  10   1  -8   16.50    7.90
  10  -1  -8    3.90    8.30
  10  -1  -8    9.00    3.50
  10   1  -7   18.30    4.40
  10  -1  -7   19.90    3.60
 -10  -1   7   26.80    8.30
  10  -1  -7   19.30    7.50
 -10   1   6    4.80    6.90
  10   1  -6    0.90    3.20
 -10  -1   6    1.60    6.50
  10  -1  -6    2.40    6.00
  10  -1  -6    2.90    2.60
  10   1  -5  122.39    8.00
 -10   1   5  110.69   11.40
 -10  -1   5  110.19   11.30
  10  -1  -5  126.49    7.40
  10   1  -4  223.68   11.10
 -10   1   4  208.58   13.80
 -10   1   4  160.98   14.90
 -10  -1   4  194.58   13.80
  10  -1  -4  221.48   10.50
 -10  -1   4  240.38   14.30
  10   1  -3    9.20    3.00
 -10   1   3   10.20    4.10
 -10   1   3   13.70    4.90
 -10  -1   3   10.40    3.90
  10  -1  -3   11.70    2.80
 -10  -1   3    3.20    4.30
 -10   1   2   74.99    7.60
  10   1  -2   86.09    6.70
 -10   1   2   74.29    8.10
  10  -1  -2   70.39    5.90
 -10  -1   2   68.69    6.50
  10   1  -1    6.70    3.50
 -10   1   1   13.20    4.10
 -10   1   1   11.30    4.20
 -10  -1   1   14.20    3.70
 -10  -1   1   13.20    3.90
  10  -1  -1   16.90    3.70
  10   1   0 1091.79   43.50
 -10   1   0 1039.90   43.70
 -10   1   0 1156.08   43.60
  10  -1   0 1045.60   42.80
 -10  -1   0 1093.99   43.40
 -10  -1   0 1118.79   43.30
  10   1   1  171.38   11.40
 -10   1  -1  170.18   11.00
 -10   1  -1  179.48   10.40
 -10  -1  -1  174.28   10.30
 -10  -1  -1  164.08   10.40
  10  -1   1  166.58   10.30
 -10   1  -2   36.10    4.90
  10   1   2   31.00    6.50
 -10   1  -2   33.80    5.50
  10  -1   2   20.80    5.10
 -10  -1  -2   32.80    4.90
 -10  -1  -2   26.90    5.10
 -10   1  -3   11.60    4.60
 -10   1  -3   12.40    3.90
 -10  -1  -3   11.80    4.20
 -10  -1  -3    8.70    3.90
 -10   1  -4   79.99    8.50
 -10  -1  -4   80.59    7.70
 -10   1  -5   23.30    6.50
 -10  -1  -5   10.00    4.80
  10   2  -8   10.10    8.10
  10  -2  -8   11.80    8.60
 -10  -2   8   20.50    9.30
  10   2  -7   14.10    4.60
  10  -2  -7   17.10    7.30
  10  -2  -7   10.80    3.30
 -10  -2   7   14.90    8.20
  10   2  -6   15.80    4.20
  10  -2  -6   -6.80    5.90
 -10  -2   6    6.70    6.60
  10  -2  -6   14.40    3.00
  10   2  -5   15.20    3.80
 -10   2   5   11.00    6.50
  10  -2  -5   15.90    3.50
 -10  -2   5   15.40   10.00
 -10   2   4    3.80    4.80
  10   2  -4   -1.70    2.90
 -10   2   4   -1.00   10.00
  10  -2  -4    2.40    2.30
 -10  -2   4   -4.10    6.60
 -10  -2   4   -4.00    4.40
  10   2  -3   23.10    3.90
 -10   2   3   26.10    5.70
 -10   2   3   18.30    4.80
  10  -2  -3   29.70    3.80
 -10  -2   3   23.50    3.90
 -10  -2   3   36.20    6.00
 -10   2   2   69.19    8.10
 -10   2   2   63.39    7.80
  10   2  -2   82.09    7.00
 -10  -2   2   70.49    6.40
  10  -2  -2   68.09    5.80
 -10  -2   2   78.49    8.50
 -10   2   1   73.59    8.40
 -10   2   1   83.69    7.90
  10   2  -1   83.09    7.60
 -10  -2   1   85.89    7.70
 -10  -2   1   82.29    7.00
  10  -2  -1   77.29    6.50
  10   2   0    1.70    3.40
 -10   2   0    2.10    3.60
 -10   2   0    2.80    4.10
  10  -2   0   -2.40    2.90
 -10  -2   0    0.20    2.90
 -10  -2   0    5.00    3.50
  10   2   1  369.26   18.90
 -10   2  -1  408.86   17.90
 -10   2  -1  381.46   18.90
  10  -2   1  372.56   17.50
 -10  -2  -1  364.36   17.70
 -10  -2  -1  396.16   17.90
 -10   2  -2    5.40    5.60
 -10   2  -2   -2.40    3.30
  10   2   2  -10.40    5.50
  10  -2   2   -2.00    4.40
  10  -2   2   -2.40    4.10
 -10  -2  -2   -2.60    3.10
 -10  -2  -2   -1.80    3.60
 -10   2  -3  199.68   13.00
 -10   2  -3  188.98   10.50
 -10  -2  -3  177.98   11.50
 -10  -2  -3  185.68   11.20
 -10  -2  -4    1.70    4.40
 -10   2  -5   20.80    7.70
 -10  -2  -5   10.90    4.60
  10  -3  -8   16.60    9.00
 -10  -3   8    4.40    9.10
  10   3  -7   19.40    5.00
  10  -3  -7    6.80    7.30
 -10  -3   7   19.90    8.00
  10   3  -6   32.10    5.50
  10  -3  -6   19.90    6.90
 -10  -3   6   28.40    7.30
  10  -3  -6   40.60    4.90
 -10   3   5   33.50    7.60
  10   3  -5   37.90    5.40
  10  -3  -5   50.79    8.40
  10   3  -4   25.60    4.40
 -10   3   4   24.10    6.00
  10  -3  -4   31.60    4.00
 -10  -3   4   30.30    5.90
 -10   3   3   66.49    8.20
  10   3  -3   56.99    6.50
 -10   3   3   42.10    6.80
 -10  -3   3   70.39    7.80
 -10  -3   3   52.39    5.90
  10  -3  -3   51.89    4.90
 -10   3   2   11.40    4.30
 -10   3   2   20.60    5.40
  10   3  -2   15.00    4.50
  10  -3  -2   19.60    3.60
 -10  -3   2   25.20    4.00
 -10  -3   2   33.20    5.40
 -10   3   1    5.90    4.00
  10   3  -1   -5.20    3.80
 -10   3   1    2.40    4.50
 -10  -3   1    4.40    3.30
  10  -3  -1   -2.60    3.40
 -10   3   0  111.29   10.00
  10   3   0  110.69    9.70
 -10   3   0  104.49    8.80
  10  -3   0  110.49    7.90
 -10  -3   0  121.39    8.80
 -10  -3   0  114.89    8.00
  10   3   1   61.99    8.40
 -10   3  -1   54.89    6.70
 -10   3  -1   61.19    8.50
 -10  -3  -1   58.99    6.50
  10  -3   1   56.39    6.80
 -10  -3  -1   69.19    7.30
 -10   3  -2  306.47   14.70
  10   3   2  277.87   17.80
 -10   3  -2  312.57   17.30
  10  -3   2  301.27   16.00
 -10  -3  -2  324.17   15.30
 -10  -3  -2  300.47   15.50
 -10   3  -3    0.40    5.40
 -10   3  -3    3.90    3.70
 -10  -3  -3    6.70    4.50
 -10  -3  -3   11.70    4.10
 -10  -3  -4   38.10    6.00
 -10   3  -5   64.49    9.30
 -10  -3  -5   49.99    7.20
  10   4  -8    8.60    6.70
 -10  -4   8    1.00    9.40
  10  -4  -8  -10.30    8.50
  10   4  -7   10.50    5.00
  10  -4  -7   14.90    8.00
 -10  -4   7   17.50    7.50
  10   4  -6    9.60    4.60
  10  -4  -6   18.50    8.00
 -10  -4   6    6.80    6.60
  10   4  -5   46.60    6.40
  10  -4  -5   50.49    6.10
  10  -4  -5   42.00    7.90
 -10  -4   5   44.90    7.60
  10   4  -4   73.49    7.90
 -10   4   4   68.79    8.80
  10  -4  -4   72.09    9.40
 -10  -4   4   74.49    9.20
  10  -4  -4   71.29    5.70
  10   4  -3   33.00    5.10
 -10   4   3   37.20    6.80
 -10   4   3   32.50    6.60
  10  -4  -3   42.50    4.80
 -10  -4   3   34.70    5.60
 -10  -4   3   32.90    4.40
 -10   4   2  123.19   10.90
  10   4  -2  137.59    9.90
 -10   4   2  139.39   11.00
 -10  -4   2  156.28   10.40
  10  -4  -2  142.19    8.40
 -10  -4   2  148.29    8.60
  10   4  -1  473.75   20.90
 -10   4   1  412.36   20.30
  10  -4  -1  360.86   19.30
 -10  -4   1  485.15   20.50
 -10  -4   1  419.96   18.70
 -10   4   0  184.18   13.30
  10   4   0  200.78   13.10
 -10   4   0  200.98   11.90
 -10  -4   0  206.58   11.10
  10  -4   0  209.88   11.10
 -10   4  -1  218.48   14.00
  10   4   1  200.98   14.00
 -10   4  -1  213.58   11.90
 -10  -4  -1  207.58   11.50
 -10  -4  -1  175.08   14.90
  10  -4   1  208.08   11.40
  10  -4   1  199.08   10.50
 -10   4  -2   73.29   10.00
  10   4   2   91.79   12.60
 -10   4  -2   77.29    7.50
 -10  -4  -2   78.79    7.50
 -10  -4  -2   71.99   10.20
 -10   4  -3   -6.50    5.10
 -10   4  -3    3.10    3.80
 -10  -4  -3    3.00    6.60
 -10  -4  -3    0.70    3.80
 -10   4  -5    5.40    7.70
 -10  -4  -5    5.00    8.20
 -10  -4  -5    5.10    4.50
  10  -5  -8   -5.90    9.20
 -10  -5   8   16.80    9.30
 -10  -5   7  175.88   15.80
  10  -5  -7  152.08   16.00
  10  -5  -6   34.20    8.80
 -10  -5   6   47.60    8.80
  10   5  -5  119.19   10.20
  10  -5  -5   93.19   12.10
 -10  -5   5  142.89   11.60
  10   5  -4   35.70    5.90
 -10  -5   4   38.90    8.20
  10  -5  -4   27.30    7.10
  10  -5  -4   40.00    5.40
  10   5  -3  350.26   18.30
  10  -5  -3  336.37   15.90
 -10  -5   3  407.96   18.60
 -10   5   2  144.99   12.10
  10   5  -2  158.68   11.80
 -10   5   2  166.78   12.00
  10  -5  -2  191.48   12.40
  10  -5  -2  162.78    9.30
 -10  -5   2  158.28    9.10
 -10  -5   2  180.28   11.30
 -10   5   1   75.09    8.40
 -10   5   1   41.60    7.10
  10   5  -1   82.89    9.30
 -10  -5   1   58.59    7.80
 -10  -5   1   68.09    6.30
  10  -5  -1   64.69    6.40
 -10   5   0   62.89    8.20
  10   5   0   55.99    7.40
 -10   5   0   81.69    8.30
 -10  -5   0   73.79    8.40
 -10  -5   0   64.29    6.40
  10  -5   0   68.49    6.80
  10   5   1   28.30    7.70
 -10   5  -1   27.50    5.10
 -10   5  -1   19.90    6.10
  10  -5   1   23.70    4.70
  10  -5   1   23.50    3.40
 -10  -5  -1   29.90    6.00
 -10  -5  -1   19.30    3.80
  10   5   2  -21.80   10.20
 -10   5  -2   -1.40    3.90
 -10   5  -2   -8.90    5.00
 -10  -5  -2    3.10    5.00
 -10  -5  -2    0.30    3.00
 -10   5  -3   19.20    6.70
 -10  -5  -3   23.20    6.20
 -10  -5  -3   20.50    4.90
 -10   5  -4   -4.40   12.20
 -10  -5  -4    2.00    6.00
 -10   5  -5    2.00    8.10
 -10  -5  -5   -3.70    6.50
 -10  -5  -5    3.80    5.20
  10  -6  -8   -1.40    9.50
 -10  -6   8    8.50    8.80
  10  -6  -7   15.40    8.50
 -10  -6   7   -3.50    7.30
 -10  -6   6  103.39   12.30
  10  -6  -6   67.19   10.50
  10  -6  -5    5.10    6.40
 -10  -6   5    4.70    6.10
  10   6  -4   18.20    6.40
 -10  -6   4    9.10    8.10
  10  -6  -4    3.90    5.90
  10   6  -3   41.30    6.40
  10  -6  -3   50.69    8.20
 -10  -6   3   50.79    6.60
 -10   6   2  186.08   14.30
  10   6  -2  194.28   13.70
  10  -6  -2  208.08   11.00
 -10  -6   2  204.68   12.60
 -10  -6   2  202.88   11.20
  10  -6  -2  227.08   14.00
 -10   6   1  311.37   18.90
  10   6  -1  332.37   18.60
 -10  -6   1  356.86   17.30
 -10  -6   1  296.27   14.80
  10  -6  -1  328.17   17.40
  10  -6  -1  337.77   15.50
 -10   6   0    1.20    5.80
  10   6   0   16.10    6.60
  10  -6   0   11.20    4.80
  10  -6   0   11.70    4.00
 -10  -6   0   10.90    3.40
 -10  -6   0   22.10    5.40
 -10   6  -1   80.39    9.90
  10  -6   1   88.59    8.20
 -10  -6  -1  115.49   10.00
  10  -6   1   74.59    6.40
  10  -6   1   87.59    8.80
 -10  -6  -1   81.59    6.90
 -10   6  -2   53.59    8.10
 -10  -6  -2   69.89    7.10
 -10  -6  -2   83.39   10.00
  10  -6   2   75.59    8.30
 -10   6  -3   -3.80    6.10
 -10  -6  -3   -0.90    2.70
 -10  -6  -3    6.90    5.80
 -10   6  -4   73.09   10.70
 -10  -6  -4   71.29    8.50
 -10  -6  -5   11.10    6.80
 -10  -7   8   -0.10    8.90
  10  -7  -8   14.30   10.90
  10  -7  -7   19.30    9.50
 -10  -7   7   20.40    8.40
 -10  -7   6   15.60    6.60
  10  -7  -6   15.40    8.40
  10  -7  -5   67.89    9.90
 -10  -7   5   86.99    9.80
  10  -7  -4   48.20    8.90
 -10  -7   4   63.39    8.60
 -10  -7   3    3.40    4.80
 -10   7   2   15.80    8.40
 -10  -7   2   16.30    5.10
  10  -7  -2   13.90    6.60
 -10   7   1    7.70    5.80
  10  -7  -1    7.20    5.50
 -10  -7   1    7.00    5.10
 -10  -7   1    6.10    3.30
 -10   7   0    7.10    6.60
 -10  -7   0    2.80    5.10
  10  -7   0    5.00    5.00
 -10  -7   0    6.40    3.30
 -10   7  -1   28.80    8.20
  10  -7   1   27.40    5.70
 -10  -7  -1   14.90    3.70
 -10  -7  -1   16.90    6.30
 -10   7  -2  225.08   17.40
 -10  -7  -2  241.18   15.10
  10  -7   2  238.18   13.30
 -10  -7  -2  225.88   12.60
 -10   7  -3   -4.40   11.80
 -10  -7  -3    2.80    3.70
 -10  -7  -3    8.00    6.20
 -10   7  -4    4.50    7.60
 -10  -7  -4    7.20    6.50
  10  -8  -7   -3.50    8.60
 -10  -8   7   13.00    8.10
  10  -8  -6    9.00    8.40
 -10  -8   6   29.80    7.70
 -10  -8   5   34.30    7.00
  10  -8  -5   40.70    8.80
  10  -8  -4   22.80    7.50
 -10  -8   4   25.40    6.10
 -10  -8   3   -2.60    4.30
 -10  -8   2   15.70    5.30
 -10   8   1  131.89   14.80
 -10  -8   1  131.79   11.60
  10  -8  -1  138.99   11.90
 -10   8   0   36.00    8.20
  10  -8   0   49.99    7.30
 -10  -8   0   52.99    8.10
 -10  -8   0   50.59    6.00
 -10   8  -1   86.59   11.20
  10  -8   1   81.19    8.70
 -10  -8  -1   87.79    7.40
 -10  -8  -1   87.09   10.40
 -10   8  -2   13.60    7.50
 -10  -8  -2   14.50    4.10
  10  -8   2    3.20    5.20
 -10  -8  -2   13.70    6.10
 -10   8  -3  142.99   17.10
 -10  -8  -3  158.68   12.80
 -10  -8  -3  139.69   10.30
 -10   8  -4    6.30   10.20
 -10  -8  -4   18.20    5.40
 -10  -8  -4   16.70    6.80
 -10  -9   7   18.80    8.80
  10  -9  -7   10.60    9.70
  10  -9  -6   11.70    9.20
 -10  -9   6   12.10    7.00
  10  -9  -5   -4.50    7.50
 -10  -9   5   -1.70    5.60
 -10  -9   4  208.38   13.60
  10  -9  -4  152.58   15.60
  10  -9  -3   31.60    8.30
 -10  -9   3   48.60    7.40
  10  -9  -2   -3.60    6.80
 -10  -9   2   -2.50    5.30
  10  -9  -1  108.29   11.40
 -10  -9   1   97.59   11.10
 -10   9   0   56.49    9.80
 -10  -9   0   44.90    7.40
  10  -9   0   58.99    8.10
 -10   9  -1   22.30    8.70
 -10  -9  -1   23.00    4.60
  10  -9   1   25.00    6.20
 -10  -9  -1   39.00    7.60
 -10   9  -2   24.40    7.80
 -10  -9  -2   34.00    6.90
 -10  -9  -2   27.60    4.70
 -10   9  -3   14.40   12.70
 -10  -9  -3   14.00    6.20
 -10   9  -4   17.30   11.10
 -10  -9  -4   15.10    6.50
 -10  -9  -4    8.60    4.20
  10 -10  -7    8.20   10.40
 -10 -10   7   19.90    8.70
  10 -10  -6    8.10    9.10
 -10 -10   6    7.30    7.00
  10 -10  -5   -9.90    8.40
 -10 -10   5   -2.90    6.30
  10 -10  -4    1.90    7.30
 -10 -10   4    3.90    6.00
  10 -10  -3    8.10    7.40
 -10 -10   3    9.60    6.00
 -10 -10   2  385.06   20.60
 -10 -10   1   21.20    6.80
  10 -10  -1   21.50    7.00
 -10  10   0   21.70    9.40
  10 -10   0   10.30    6.50
 -10 -10   0   20.30    6.30
 -10  10  -1   13.20    9.20
  10 -10   1    6.30    5.80
 -10 -10  -1   18.40    6.80
 -10  10  -2   12.30    9.30
 -10 -10  -2    5.80    6.40
 -10 -10  -3   27.50    6.30
 -10 -10  -3   26.20    6.70
 -10 -11   6  208.28   15.60
  10 -11  -6  183.38   19.40
  10 -11  -5   30.20   10.60
 -10 -11   5   44.20    8.00
  10 -11  -4   29.50    9.30
 -10 -11   4   29.50    7.50
  10 -11  -3   26.40    8.70
 -10 -11   3   20.60    6.70
 -10 -11   2   23.70    6.60
  10 -11  -1   25.70    7.50
 -10 -11   1    5.10    5.90
 -10 -11   0  127.69   12.80
  10 -11   0  127.89   12.70
 -10  11  -1    5.70   10.10
  10 -11   1   -8.50    6.00
 -10 -11  -1   -0.10    6.30
 -10  11  -2    9.00   10.80
 -10 -11  -2   20.00    6.50
 -10  11  -3   13.70   12.90
 -10 -11  -3    0.60    5.90
 -10 -12   6   -5.60    6.90
  10 -12  -6    2.00   10.20
  10 -12  -5   10.50    9.80
 -10 -12   5   -3.00    6.60
  10 -12  -4   14.00    9.20
 -10 -12   4    7.40    6.80
 -10 -12   3   23.10    7.90
  10 -12  -3   25.50    8.70
  10 -12  -2  153.48   15.60
 -10 -12   2  163.38   14.30
 -10 -12   1    3.10    6.80
  10 -12   0    0.00    6.70
 -10 -12   0    0.00    6.50
 -10 -12  -1   23.10    7.20
 -10 -12  -2   60.69    8.20
 -10 -12  -3   71.99    9.00
  10 -13  -5   33.50   11.80
 -10 -13   5   44.80    8.60
 -10 -13   4    3.70    7.30
  10 -13  -4    9.40    9.40
 -10 -13   3   64.09    9.70
  10 -13  -3   58.89   10.60
  10 -13  -2   80.99   11.30
 -10 -13   2   48.50    9.60
 -10 -13   1    9.60    7.20
 -10 -13   0    6.80    7.40
  10 -13   0    3.60    7.10
 -10 -13  -1   31.50    7.90
 -10 -13  -2   28.70    7.30
 -10 -14   5    8.80    7.30
  10 -14  -5    0.50   11.00
  10 -14  -4   58.39   11.90
 -10 -14   4   48.90    9.20
 -10 -14   3   37.70    8.90
  10 -14  -3   27.80   10.10
  10 -14  -2   11.40    9.10
 -10 -14   2    3.00    7.30
 -10 -14   1   13.80    7.50
 -10 -14   0   31.40    8.10
  10 -14   0   15.20    8.30
 -10 -14  -1    7.40    6.70
  10 -15  -4   16.10   12.00
 -10 -15   4    7.50    8.20
 -10 -15   3   45.60    9.30
  10 -15  -3   56.89   11.50
 -10 -15   2   -1.50    7.90
  10 -15  -2   11.40    9.50
  10 -15  -1   63.09   11.60
 -10 -15   1  105.49   12.50
 -10 -15   0   32.50    8.80
  11   0  -7    5.20    8.10
 -11   0   7   13.70    8.50
 -11   0   6    5.50    8.00
 -11   0   5    1.40    6.60
 -11   0   4   -2.70    5.20
 -11   0   3   -3.50    4.90
 -11   0   2  199.98   13.10
 -11   0   1   11.10    4.50
 -11   0   0  144.09   11.10
 -11   0   0  148.19   10.50
 -11   0  -1   -1.20    4.40
 -11   0  -1   -0.90    4.00
 -11   0  -2   81.49    8.20
 -11   0  -2   97.79    9.60
 -11   0  -3   -2.70    4.20
 -11   0  -3   -1.70    4.60
 -11   0  -4   14.20    6.70
  11  -1  -7   27.40    8.40
 -11  -1   7   44.00   10.30
 -11   1   6   37.30    9.50
  11  -1  -6   45.20    9.00
 -11  -1   6   41.30    8.90
 -11   1   5   25.40    7.80
 -11  -1   5   50.59    8.70
 -11   1   4   38.90    8.00
 -11  -1   4   53.19    8.20
 -11   1   3   20.80    6.20
 -11  -1   3    9.70    5.10
 -11   1   2  106.59    9.80
 -11  -1   2   94.89    9.30
 -11   1   1  370.66   17.80
 -11  -1   1  330.47   17.60
 -11   1   0   -6.90    3.60
 -11  -1   0    4.10    4.30
 -11  -1   0    0.70    4.00
 -11   1  -1   30.80    5.90
 -11   1  -1   47.50    6.20
 -11  -1  -1   42.80    6.10
 -11  -1  -1   34.60    6.60
 -11   1  -2    7.70    4.70
 -11   1  -2   11.30    4.50
 -11  -1  -2    7.30    5.50
 -11  -1  -2    5.30    4.90
 -11   1  -3   75.99    8.00
 -11   1  -3   77.29    9.80
 -11  -1  -3   50.99    7.00
 -11  -1  -3   81.69    8.60
 -11   1  -4   -7.60    5.80
 -11  -1  -4  -13.80    5.80
  11  -2  -7   30.40    9.20
 -11  -2   7   43.90   10.60
  11  -2  -6   25.10    8.60
 -11  -2   6   29.20    8.70
 -11   2   5  112.09   13.70
 -11  -2   5  132.89   12.50
 -11   2   4   14.40    6.30
 -11  -2   4    9.30    5.80
 -11   2   3  540.05   25.70
 -11  -2   3  530.15   24.80
 -11   2   2  202.78   13.10
 -11  -2   2  164.48   12.10
 -11   2   1   45.60    6.80
 -11  -2   1   73.99    8.20
 -11   2   0   50.19    6.90
 -11   2   0   47.40    7.20
 -11  -2   0   45.50    6.30
 -11  -2   0   34.10    5.80
 -11   2  -1   72.69    8.30
 -11   2  -1   73.19    9.50
 -11  -2  -1   87.09    8.20
 -11  -2  -1   77.89    8.50
 -11   2  -2   -3.40    4.20
 -11   2  -2    0.40    5.60
 -11  -2  -2    0.00    4.40
 -11  -2  -2    6.40    4.70
 -11   2  -3   50.89    6.60
 -11   2  -3   54.09    9.90
 -11  -2  -3   40.70    6.10
 -11  -2  -3   41.30    6.40
 -11   2  -4   -3.50    6.90
 -11  -2  -4    4.60    5.10
  11  -3  -7   11.20    8.70
 -11  -3   7   -9.20    8.40
 -11  -3   6   11.10    7.70
  11  -3  -6   21.40    8.30
 -11   3   5   48.00    9.30
 -11  -3   5   50.79    8.90
  11  -3  -5   44.80    9.20
 -11   3   4  177.48   14.70
 -11  -3   4  218.28   14.10
 -11   3   3    0.30    5.30
 -11  -3   3    3.90    5.00
 -11   3   2  514.25   24.80
 -11  -3   2  537.05   24.10
 -11   3   1   25.10    5.70
 -11  -3   1   33.60    6.10
 -11   3   0  321.37   18.20
 -11   3   0  323.27   16.90
 -11  -3   0  335.97   16.70
 -11   3  -1   29.30    5.50
 -11   3  -1   20.70    6.20
 -11  -3  -1   28.60    5.50
 -11  -3  -1   28.90    4.70
 -11   3  -2  178.48   13.70
 -11   3  -2  177.18   11.40
 -11  -3  -2  174.38   11.40
 -11  -3  -2  159.98   11.50
 -11  -3  -3   17.50    5.50
 -11  -3  -3   13.90    5.10
 -11   3  -4   15.00    8.10
 -11  -3  -4    4.30    4.60
 -11  -3  -4    1.70    5.40
  11  -4  -7   30.50    9.80
 -11  -4   7   36.70   10.00
  11  -4  -6   39.60    9.70
 -11  -4   6   61.19    9.60
 -11  -4   5   -2.70    5.50
  11  -4  -5    1.70    6.30
 -11   4   4   28.10    7.20
 -11  -4   4   15.50    6.20
  11  -4  -4    3.20    6.30
 -11   4   3   14.70    6.50
 -11  -4   3   11.00    5.30
  11  -4  -3   12.40    6.20
 -11   4   2  147.29   12.10
 -11  -4   2  141.09   11.20
 -11   4   1   -3.40    5.40
 -11  -4   1    3.50    4.80
 -11   4   0   47.70    7.90
 -11   4   0   45.30    6.90
 -11  -4   0   52.99    6.70
 -11   4  -1   22.30    5.40
 -11   4  -1   28.70    7.50
 -11  -4  -1   22.10    4.20
 -11  -4  -1   31.30    5.90
 -11   4  -2    5.90    7.00
 -11   4  -2    3.50    4.70
 -11  -4  -2    6.50    5.00
 -11  -4  -2    6.20    3.80
 -11   4  -3    2.30    8.50
 -11  -4  -3    5.10    3.90
 -11  -4  -3   10.40    5.70
 -11  -4  -4   13.00    5.10
 -11  -4  -4   15.50    6.30
 -11  -5   7   42.10    9.90
  11  -5  -7   48.30   11.20
  11  -5  -6   35.60    9.40
 -11  -5   6   34.50    9.00
  11  -5  -5   20.90   12.00
 -11  -5   5   19.40    6.40
  11  -5  -4    7.50    6.50
 -11  -5   4   10.30    5.70
  11  -5  -3    9.00    6.20
 -11  -5   3    3.20    4.90
 -11   5   2    7.20    6.00
 -11  -5   2   -0.60    4.60
 -11   5   1   18.50    6.60
 -11  -5   1   15.80    5.40
 -11   5   0   -1.00    4.90
 -11  -5   0    4.00    4.80
 -11   5  -1   21.40    5.90
 -11   5  -1   14.80    7.00
 -11  -5  -1   29.60    6.20
 -11   5  -2    0.00    4.80
 -11   5  -2    2.50    7.30
 -11  -5  -2   -0.20    4.60
  11  -5   2   -2.70    5.00
 -11  -5  -2   -1.60    5.60
 -11   5  -3   19.20    8.20
 -11  -5  -3   17.20    6.50
 -11  -5  -3   16.70    6.30
  11  -6  -7    3.40    9.80
 -11  -6   7   18.70    9.40
 -11  -6   6  119.09   13.70
  11  -6  -6  114.69   15.60
  11  -6  -5   69.79   11.30
 -11  -6   5   88.79   11.00
  11  -6  -4   15.10    7.40
 -11  -6   4    2.00    5.50
  11  -6  -3   31.70    8.20
 -11  -6   3   49.00    7.40
 -11  -6   2   11.40    5.50
 -11  -6   1   17.10    5.50
  11  -6  -1    4.30    7.00
  11  -6   0  172.58   13.00
 -11  -6   0  180.38   12.60
 -11   6  -1   11.40    6.80
 -11  -6  -1   21.40    6.30
  11  -6   1   31.30    6.50
 -11   6  -2   -4.80    6.40
 -11  -6  -2   -3.50    6.10
 -11  -6  -3   11.90    7.00
  11  -7  -7   -5.40   10.30
 -11  -7   7    7.50    8.50
  11  -7  -6   56.69   11.40
 -11  -7   6   30.80    8.50
 -11  -7   5   43.40    8.50
  11  -7  -5   35.90    8.90
 -11  -7   4  106.29   11.20
  11  -7  -4  100.39   12.00
 -11  -7   3   22.50    6.30
  11  -7  -3   14.20    7.70
 -11  -7   2   83.29    9.80
  11  -7  -2   69.29   10.10
  11  -7  -1  232.78   17.50
 -11  -7   1  217.38   14.40
  11  -7   0   68.39    8.80
 -11  -7   0   71.79    9.10
  11  -7   1  121.39   11.80
 -11  -7  -1  116.19   12.20
 -11   7  -2   17.10    9.60
 -11  -7  -2   22.40    7.60
 -11  -7  -3   17.90    7.20
  11  -8  -6   67.89   12.40
 -11  -8   6   78.39   10.20
 -11  -8   5   47.00    8.30
  11  -8  -5   46.10   10.90
  11  -8  -4    0.20    8.30
 -11  -8   4   12.40    6.00
  11  -8  -3  191.98   16.60
 -11  -8   3  191.88   13.70
 -11  -8   2   -1.70    5.20
  11  -8  -2    2.40    7.00
 -11  -8   1   27.20    7.00
  11  -8   0   -1.10    6.50
 -11  -8   0   -0.20    6.10
  11  -8   1   82.59    9.20
 -11  -8  -1   98.89   12.20
 -11  -8  -2   68.89    9.80
 -11  -8  -3  -13.80    7.30
  11  -9  -6   60.29   12.30
 -11  -9   6  102.19   12.90
  11  -9  -5   80.99   13.20
 -11  -9   5  112.19   12.50
  11  -9  -4   18.00    9.20
 -11  -9   4   23.30    7.00
 -11  -9   3   27.70    6.50
  11  -9  -3   19.50    8.90
  11  -9  -2   14.10    7.90
 -11  -9   2   10.10    6.30
 -11  -9   1   26.40    7.40
 -11  -9   0    0.60    6.50
  11  -9   0   -5.80    6.60
  11  -9   1   -3.00    7.20
 -11  -9  -1    3.40    6.90
 -11  -9  -2   -3.50    7.30
 -11 -10   6   40.20    8.70
 -11 -10   5    5.90    6.70
  11 -10  -5   -3.60   10.00
  11 -10  -4   10.00    9.30
 -11 -10   4   15.00    6.50
  11 -10  -3   37.80    9.80
 -11 -10   3   28.40    7.30
  11 -10  -2   -2.30    7.70
 -11 -10   2    5.40    6.00
 -11 -10   1    8.80    7.30
  11 -10   0   84.89   10.30
 -11 -10   0   62.19    9.30
 -11 -10  -1    4.10    7.80
 -11 -10  -2   12.50    8.30
  11 -11  -5   11.60   10.20
 -11 -11   5    3.10    7.30
  11 -11  -4   -4.90    9.50
 -11 -11   4    2.30    6.80
  11 -11  -3    4.90    9.00
 -11 -11   3   -6.60    6.40
  11 -11  -2   12.40    8.60
 -11 -11   2   -7.90    7.00
 -11 -11   1  112.79   13.20
  11 -11   0   11.00    7.70
 -11 -11   0   -1.90    7.60
 -11 -11  -1   19.10    8.30
 -11 -12   4   13.10    7.40
  11 -12  -4   23.50   10.50
 -11 -12   3   11.80    7.30
  11 -12  -3   14.10   10.10
  11 -12  -2   59.09   11.30
 -11 -12   2   48.20    8.80
 -11 -12   1   11.10    7.90
  11 -12  -1   10.70    8.80
 -11 -12   0   35.40    9.00
 -11 -12  -1   48.20   10.50
  11 -13  -3   -1.50   10.00
 -11 -13   3    4.70    7.30
 -11 -13   2    0.40    7.30
  11 -13  -2   17.80    9.80
 -11 -13   1   23.90    8.70
  11 -13  -1   36.90   10.00
 -11 -13   0    2.90    8.50
 -12   0   6   23.80    8.90
 -12   0   5   11.00    7.90
 -12   0   4  214.58   15.90
 -12   0   3   -0.40    5.70
 -12   0   2   60.59    8.00
 -12   0   1   -1.40    4.90
 -12   0   0   65.49    7.90
 -12   0  -1   10.70    5.00
 -12   0  -2   -3.20    5.20
 -12   1   6   15.00    9.60
  12  -1  -6   -0.30    8.00
 -12  -1   6    5.40    8.60
 -12   1   5    7.90    7.90
 -12  -1   5   -7.80    7.00
 -12   1   4    4.60    7.30
 -12  -1   4    6.50    7.00
 -12   1   3   53.29    8.70
 -12  -1   3   45.20    8.30
 -12   1   2   14.60    6.00
 -12  -1   2    5.20    5.90
 -12   1   1    5.80    5.10
 -12  -1   1   -0.90    4.90
 -12   1   0    0.30    5.20
 -12  -1   0    6.60    5.30
 -12   1  -1   11.60    5.40
 -12  -1  -1   16.20    5.60
 -12   1  -2   53.29    7.10
 -12  -1  -2   69.49    9.10
 -12  -2   6   12.40    8.70
  12  -2  -6    9.00    8.90
 -12   2   5   13.60    8.60
  12  -2  -5   10.00    7.80
 -12  -2   5    9.00    7.50
 -12   2   4   95.69   13.00
 -12  -2   4  113.89   12.70
 -12   2   3   27.10    7.20
 -12  -2   3   32.50    7.60
 -12   2   2    8.90    5.70
 -12  -2   2    9.60    5.60
 -12   2   1   10.30    5.80
 -12  -2   1    0.20    5.20
 -12   2   0    6.80    5.50
 -12  -2   0   -3.20    4.70
 -12   2  -1   52.29    7.30
 -12  -2  -1   49.40    7.10
 -12  -2  -2   12.80    5.40
 -12  -3   6  147.89   16.10
  12  -3  -6  118.59   15.80
  12  -3  -5   15.30    8.30
 -12  -3   5   14.00    7.30
 -12   3   4   53.89    9.90
 -12  -3   4   46.30    8.10
  12  -3  -4   32.60    8.90
 -12   3   3  217.68   15.70
 -12  -3   3  189.48   14.30
 -12   3   2    7.10    6.10
 -12  -3   2    7.80    5.70
 -12   3   1    1.20    5.50
 -12  -3   1   10.40    5.10
 -12   3   0   39.00    7.00
 -12  -3   0   22.80    5.70
 -12   3  -1    5.70    5.40
 -12  -3  -1    4.60    5.40
 -12  -3  -2   38.10    7.10
  12  -4  -6   51.19   10.70
 -12  -4   6   61.59   10.90
  12  -4  -5   -0.90    8.00
 -12  -4   5    3.10    7.00
  12  -4  -4   36.30    8.60
 -12  -4   4   32.20    7.10
 -12   4   3   -2.20    7.00
 -12  -4   3   -2.50    5.90
  12  -4  -3    2.40    6.80
 -12   4   2   90.69   11.50
 -12  -4   2   98.19   10.30
 -12   4   1   -1.20    5.80
 -12  -4   1   10.10    5.50
 -12   4   0    6.90    5.90
 -12  -4   0   -3.60    4.90
 -12   4  -1   -4.10    5.70
 -12  -4  -1    6.40    5.60
 -12  -4  -2    2.60    5.50
 -12  -5   6    1.30    8.30
  12  -5  -6    6.20    9.30
 -12  -5   5   68.79    9.60
  12  -5  -5   83.89   11.70
 -12  -5   4   10.50    6.20
  12  -5  -4    4.60    7.90
  12  -5  -3   82.99   10.50
 -12  -5   3   77.69    9.40
 -12  -5   2   33.70    6.90
  12  -5  -2   21.10    7.60
 -12   5   1   70.39    9.40
 -12  -5   1   59.29    7.90
  12  -5  -1   63.09    9.20
 -12   5   0    3.40    6.20
 -12  -5   0    3.90    5.50
 -12  -5  -1   77.79   10.10
 -12  -5  -2   27.10    6.80
 -12  -6   6    3.80    8.00
  12  -6  -5    3.90    9.70
 -12  -6   5    0.30    7.30
 -12  -6   4    3.60    6.50
  12  -6  -4    7.50    8.40
  12  -6  -3  124.19   14.80
 -12  -6   3  116.59   11.80
  12  -6  -2   52.09    9.30
 -12  -6   2   60.19    8.30
 -12  -6   1    4.60    5.80
  12  -6  -1    1.00    7.20
 -12  -6   0   15.30    6.00
 -12  -6  -1   65.09    8.50
  12  -6   1   66.59   10.50
 -12  -6  -2   65.09    9.20
 -12  -7   5    4.60    6.60
  12  -7  -5    1.10    8.90
 -12  -7   4  115.19   12.40
  12  -7  -4  111.49   13.80
  12  -7  -3   -8.80    8.30
 -12  -7   3    3.20    5.90
  12  -7  -2    1.90    7.90
 -12  -7   2    3.90    6.30
 -12  -7   1   11.70    6.10
  12  -7  -1    0.20    7.80
 -12  -7   0   21.10    6.80
 -12  -7  -1   75.99    9.60
  12  -8  -5  129.19   15.90
 -12  -8   5  149.59   14.50
 -12  -8   4   -1.10    6.80
  12  -8  -4   12.50    9.80
 -12  -8   3    8.50    6.70
  12  -8  -3   -0.10    8.70
 -12  -8   2  101.49   11.60
  12  -8  -2  117.79   15.10
 -12  -8   1   83.49   10.00
  12  -8  -1   73.79   10.60
 -12  -8   0    8.10    8.70
 -12  -8  -1   20.10    8.10
 -12  -9   4   13.10    7.20
  12  -9  -4   11.70   10.70
  12  -9  -3    5.10    9.40
 -12  -9   3    8.90    6.90
 -12  -9   2   -3.50    6.00
  12  -9  -2    6.90    9.00
  12  -9  -1   72.19   11.40
 -12  -9   1   71.09    9.90
 -12  -9   0   31.20    8.60
 -12 -10   3   60.49    9.50
  12 -10  -3   48.60   11.60
 -12 -10   2   80.49   10.20
  12 -10  -2  109.79   13.30
 -12 -10   1    5.30    7.70
  12 -10  -1   -2.80    9.20
 -13   0   4    2.40    7.80
 -13   0   3    8.30    7.30
 -13   0   2   45.50    8.20
 -13   0   1   -6.00    6.20
 -13   0   0  103.69   11.70
 -13   1   4    7.00    7.80
 -13  -1   4    2.50    8.00
 -13   1   3   18.50   11.00
 -13  -1   3   11.20    7.10
 -13   1   2   67.99    9.70
 -13  -1   2   64.99    8.90
 -13   1   1    4.00    6.80
 -13  -1   1    9.10    6.40
 -13   1   0   43.50    7.60
 -13  -1   0   32.10    7.20
 -13   2   4   16.80    8.50
 -13  -2   4    9.60    7.50
 -13   2   3   28.10    8.20
 -13  -2   3   48.10    8.80
 -13   2   2   11.20    7.20
 -13  -2   2    5.50    6.20
 -13   2   1   72.19    9.70
 -13  -2   1   57.59    8.30
 -13   2   0    7.90    6.50
 -13  -2   0   13.30    6.30
 -13   3   4   18.30    9.40
  13  -3  -4   31.00    9.60
 -13  -3   4   22.80    8.20
 -13   3   3    8.40    8.50
 -13  -3   3   -1.10    6.80
 -13   3   2   -7.40    7.00
 -13  -3   2    2.80    6.30
 -13   3   1   -4.30    6.60
 -13  -3   1   -8.00    5.80
 -13   3   0    0.60    6.60
 -13  -3   0    0.70    6.10
  13  -4  -4    4.20    8.70
 -13  -4   4   17.30    7.50
 -13   4   3   16.40    8.30
 -13  -4   3    8.10    6.70
  13  -4  -3   35.30    9.20
 -13   4   2   18.40    8.30
  13  -4  -2    3.70    8.10
 -13  -4   2    5.90    6.50
 -13   4   1    4.10    7.70
 -13  -4   1   22.80    6.90
 -13   4   0   31.60    8.30
 -13  -4   0   30.00    7.10
 -13  -5   3   -1.10    6.30
  13  -5  -3   17.80    8.80
  13  -5  -2   29.40    9.30
 -13  -5   2   11.70    6.50
 -13  -5   1   91.49   11.80
  13  -5  -1  101.59   11.90
 -13  -6   2   -8.50    6.30
  13  -6  -2  -16.00    8.90
   0   0   0    0.00    0.00

_computing_structure_solution     'SHELXT 2014/5 (Sheldrick, 2014)'
;
_shelx_hkl_checksum              78097
loop_
_space_group_symop_operation_xyz
'x, y, z'
'-x, y+1/2, -z+1/2'
'-x, -y, -z'
'x, -y-1/2, z-1/2'
loop_
_atom_site_label
_atom_site_type_symbol
_atom_site_fract_x
_atom_site_fract_y
_atom_site_fract_z
_atom_site_U_iso_or_equiv
_atom_site_adp_type
_atom_site_occupancy
_atom_site_site_symmetry_order
_atom_site_calc_flag
_atom_site_refinement_flags_posn
_atom_site_refinement_flags_adp
_atom_site_refinement_flags_occupancy
_atom_site_disorder_assembly
_atom_site_disorder_group
C1 C 0.36703(16) 0.43811(9) 0.25141(19) 0.0250(4) Uani 1 1 d . . . . .
C2 C 0.49329(16) 0.40701(9) 0.28067(19) 0.0251(4) Uani 1 1 d . . . . .
C3 C 0.52359(16) 0.39574(9) 0.4479(2) 0.0245(3) Uani 1 1 d . . . . .
C4 C 0.39302(17) 0.41407(9) 0.66839(19) 0.0261(4) Uani 1 1 d . . . . .
H4B H 0.475948 0.425565 0.746016 0.039 Uiso 1 1 d R U . . .
H4A H 0.326148 0.452765 0.672116 0.039 Uiso 1 1 d R U . . .
C5 C 0.34666(16) 0.33924(9) 0.69904(19) 0.0235(3) Uani 1 1 d . . . . .
C6 C 0.22522(16) 0.24803(9) 0.6869(2) 0.0265(4) Uani 1 1 d . . . . .
K1 K -0.28284(4) 0.20087(3) 0.38314(5) 0.04055(13) Uani 1 1 d . . . . .
K2 K 0.03693(4) 0.39669(2) 0.40841(5) 0.03742(13) Uani 1 1 d . . . . .
N1 N 0.31873(13) 0.44512(8) 0.38342(16) 0.0260(3) Uani 1 1 d . . . . .
N2 N 0.41663(13) 0.41992(8) 0.50269(15) 0.0233(3) Uani 1 1 d . . . . .
N3 N 0.22523(13) 0.31404(8) 0.62708(17) 0.0264(3) Uani 1 1 d . . . . .
N4 N 0.42061(14) 0.29470(8) 0.79655(19) 0.0339(4) Uani 1 1 d . . . . .
N5 N 0.28108(15) 0.45687(10) 0.09840(18) 0.0363(4) Uani 1 1 d . . . . .
N6 N 0.56984(14) 0.38460(8) 0.16598(17) 0.0297(3) Uani 1 1 d . . . . .
N7 N 0.62458(14) 0.36606(9) 0.55913(17) 0.0318(3) Uani 1 1 d . . . . .
N8 N 0.74439(14) 0.37960(9) 0.53294(19) 0.0332(4) Uani 1 1 d . . . . .
N9 N 0.13921(15) 0.19194(8) 0.6766(2) 0.0355(4) Uani 1 1 d . . . . .
N10 N 0.02656(16) 0.19853(9) 0.5693(2) 0.0387(4) Uani 1 1 d . . . . .
O1 O 0.20339(18) 0.50590(11) 0.0977(2) 0.0722(6) Uani 1 1 d . . . . .
O2 O 0.29193(16) 0.42154(10) -0.01957(16) 0.0554(4) Uani 1 1 d . . . . .
O3 O 0.57075(14) 0.42271(8) 0.04733(16) 0.0442(3) Uani 1 1 d . . . . .
O4 O 0.63043(15) 0.32706(8) 0.19055(17) 0.0457(4) Uani 1 1 d . . . . .
O5 O 0.76700(12) 0.41987(8) 0.42312(16) 0.0415(3) Uani 1 1 d . . . . .
O6 O 0.83673(14) 0.34956(10) 0.63013(19) 0.0569(4) Uani 1 1 d . . . . .
O7 O 0.33948(12) 0.23226(7) 0.79129(17) 0.0375(3) Uani 1 1 d . . . . .
O8 O -0.05643(16) 0.14997(10) 0.5782(2) 0.0680(5) Uani 1 1 d . . . . .
O9 O 0.00235(14) 0.24665(8) 0.46565(18) 0.0518(4) Uani 1 1 d . . . . .
O10 O 0.03895(15) 0.46611(9) 0.71860(18) 0.0527(4) Uani 1 1 d . . . . .
H10A H 0.094546 0.468180 0.804370 0.079 Uiso 1 1 d R U . . .
H10B H -0.020654 0.432880 0.733970 0.079 Uiso 1 1 d R U . . .
loop_
_atom_site_aniso_label
_atom_site_aniso_U_11
_atom_site_aniso_U_22
_atom_site_aniso_U_33
_atom_site_aniso_U_23
_atom_site_aniso_U_13
_atom_site_aniso_U_12
C1 0.0285(9) 0.0238(9) 0.0229(8) 0.0000(7) 0.0056(6) -0.0022(7)
C2 0.0268(8) 0.0243(9) 0.0260(8) -0.0011(7) 0.0093(7) -0.0020(7)
C3 0.0240(8) 0.0232(8) 0.0270(8) 0.0005(7) 0.0067(6) -0.0034(7)
C4 0.0317(9) 0.0266(9) 0.0209(8) -0.0014(7) 0.0078(7) -0.0038(7)
C5 0.0234(8) 0.0270(9) 0.0216(8) -0.0009(7) 0.0080(6) 0.0007(7)
C6 0.0225(8) 0.0279(9) 0.0295(8) 0.0033(7) 0.0063(7) 0.0026(7)
K1 0.0352(2) 0.0525(3) 0.0327(2) 0.00248(19) 0.00398(17) -0.00057(19)
K2 0.0293(2) 0.0380(2) 0.0440(2) -0.00150(18) 0.00515(17) 0.00812(17)
N1 0.0259(7) 0.0267(8) 0.0252(7) -0.0004(6) 0.0045(6) -0.0008(6)
N2 0.0236(7) 0.0257(7) 0.0211(7) 0.0001(5) 0.0055(5) -0.0021(6)
N3 0.0252(7) 0.0258(8) 0.0277(7) 0.0024(6) 0.0041(6) -0.0009(6)
N4 0.0253(7) 0.0311(8) 0.0432(9) 0.0074(7) 0.0019(6) -0.0040(6)
N5 0.0315(8) 0.0503(10) 0.0272(8) 0.0057(7) 0.0065(6) 0.0027(7)
N6 0.0306(8) 0.0323(9) 0.0277(7) -0.0005(6) 0.0094(6) -0.0017(7)
N7 0.0228(7) 0.0408(9) 0.0318(8) 0.0067(7) 0.0057(6) -0.0015(6)
N8 0.0248(8) 0.0390(9) 0.0361(8) 0.0005(7) 0.0067(6) 0.0017(7)
N9 0.0287(8) 0.0314(9) 0.0437(9) 0.0075(7) 0.0005(7) -0.0044(6)
N10 0.0348(9) 0.0347(9) 0.0437(9) 0.0052(7) 0.0004(7) -0.0072(7)
O1 0.0686(11) 0.0984(14) 0.0486(9) 0.0162(9) 0.0088(8) 0.0523(11)
O2 0.0589(10) 0.0801(12) 0.0255(7) -0.0085(7) 0.0041(6) 0.0040(8)
O3 0.0507(8) 0.0529(9) 0.0342(7) 0.0125(6) 0.0210(6) 0.0013(7)
O4 0.0576(9) 0.0399(8) 0.0445(8) 0.0019(6) 0.0218(7) 0.0179(7)
O5 0.0301(7) 0.0519(9) 0.0454(8) 0.0119(7) 0.0148(6) -0.0027(6)
O6 0.0281(7) 0.0808(12) 0.0600(10) 0.0253(9) 0.0046(7) 0.0135(7)
O7 0.0261(6) 0.0298(7) 0.0528(8) 0.0137(6) -0.0015(6) -0.0019(5)
O8 0.0466(9) 0.0632(11) 0.0818(12) 0.0295(9) -0.0172(8) -0.0313(8)
O9 0.0487(8) 0.0464(9) 0.0514(9) 0.0175(7) -0.0118(7) -0.0130(7)
O10 0.0487(9) 0.0585(10) 0.0468(8) 0.0065(7) -0.0001(7) -0.0026(7)
loop_
_atom_type_symbol
_atom_type_description
_atom_type_scat_dispersion_real
_atom_type_scat_dispersion_imag
_atom_type_scat_source
C C 0.0033 0.0016 'International Tables Vol C Tables 4.2.6.8 and 6.1.1.4'
H H 0.0000 0.0000 'International Tables Vol C Tables 4.2.6.8 and 6.1.1.4'
N N 0.0061 0.0033 'International Tables Vol C Tables 4.2.6.8 and 6.1.1.4'
O O 0.0106 0.0060 'International Tables Vol C Tables 4.2.6.8 and 6.1.1.4'
K K 0.2009 0.2494 'International Tables Vol C Tables 4.2.6.8 and 6.1.1.4'
loop_
_geom_angle_atom_site_label_1
_geom_angle_atom_site_label_2
_geom_angle_atom_site_label_3
_geom_angle
_geom_angle_site_symmetry_1
_geom_angle_site_symmetry_3
_geom_angle_publ_flag
N1 C1 C2 112.95(14) . . ?
N1 C1 N5 117.21(15) . . ?
C2 C1 N5 129.58(15) . . ?
C3 C2 C1 104.63(14) . . ?
C3 C2 N6 126.59(15) . . ?
C1 C2 N6 128.51(15) . . ?
N2 C3 N7 117.53(15) . . ?
N2 C3 C2 105.01(14) . . ?
N7 C3 C2 137.40(16) . . ?
N2 C4 C5 110.57(13) . . ?
N2 C4 H4B 108.9 . . ?
C5 C4 H4B 110.3 . . ?
N2 C4 H4A 103.0 . . ?
C5 C4 H4A 113.6 . . ?
H4B C4 H4A 110.1 . . ?
N4 C5 N3 116.37(15) . . ?
N4 C5 C4 121.30(15) . . ?
N3 C5 C4 122.32(15) . . ?
N3 C6 N9 136.76(16) . . ?
N3 C6 O7 112.25(14) . . ?
N9 C6 O7 110.93(14) . . ?
O8 K1 O6 83.62(6) . 4_465 ?
O8 K1 O4 138.37(5) . 1_455 ?
O6 K1 O4 88.49(5) 4_465 1_455 ?
O8 K1 O4 77.81(5) . 4_466 ?
O6 K1 O4 149.40(5) 4_465 4_466 ?
O4 K1 O4 121.39(4) 1_455 4_466 ?
O8 K1 N7 119.33(5) . 4_465 ?
O6 K1 N7 44.13(4) 4_465 4_465 ?
O4 K1 N7 78.90(4) 1_455 4_465 ?
O4 K1 N7 129.40(4) 4_466 4_465 ?
O8 K1 N4 149.56(5) . 4_465 ?
O6 K1 N4 113.89(4) 4_465 4_465 ?
O4 K1 N4 69.61(4) 1_455 4_465 ?
O4 K1 N4 75.13(4) 4_466 4_465 ?
N7 K1 N4 70.21(4) 4_465 4_465 ?
O8 K1 O9 43.62(4) . . ?
O6 K1 O9 73.07(4) 4_465 . ?
O4 K1 O9 95.03(4) 1_455 . ?
O4 K1 O9 107.55(4) 4_466 . ?
N7 K1 O9 116.70(4) 4_465 . ?
N4 K1 O9 162.28(4) 4_465 . ?
O8 K1 O3 85.53(4) . 4_466 ?
O6 K1 O3 114.25(4) 4_465 4_466 ?
O4 K1 O3 134.14(4) 1_455 4_466 ?
O4 K1 O3 40.75(4) 4_466 4_466 ?
N7 K1 O3 90.51(4) 4_465 4_466 ?
N4 K1 O3 64.84(4) 4_465 4_466 ?
O9 K1 O3 128.76(4) . 4_466 ?
O8 K1 N8 99.47(5) . 4_465 ?
O6 K1 N8 21.26(4) 4_465 4_465 ?
O4 K1 N8 86.03(4) 1_455 4_465 ?
O4 K1 N8 141.93(4) 4_466 4_465 ?
N7 K1 N8 23.17(4) 4_465 4_465 ?
N4 K1 N8 93.37(4) 4_465 4_465 ?
O9 K1 N8 94.33(4) . 4_465 ?
O3 K1 N8 101.37(4) 4_466 4_465 ?
O8 K1 N6 82.81(4) . 4_466 ?
O6 K1 N6 133.76(5) 4_465 4_466 ?
O4 K1 N6 128.73(4) 1_455 4_466 ?
O4 K1 N6 20.18(4) 4_466 4_466 ?
N7 K1 N6 109.81(4) 4_465 4_466 ?
N4 K1 N6 67.04(4) 4_465 4_466 ?
O9 K1 N6 121.00(4) . 4_466 ?
O3 K1 N6 20.72(3) 4_466 4_466 ?
N8 K1 N6 122.09(4) 4_465 4_466 ?
O8 K1 K1 74.95(5) . 4_566 ?
O6 K1 K1 154.47(3) 4_465 4_566 ?
O4 K1 K1 98.29(3) 1_455 4_566 ?
O4 K1 K1 37.45(3) 4_466 4_566 ?
N7 K1 K1 161.38(3) 4_465 4_566 ?
N4 K1 K1 91.47(3) 4_465 4_566 ?
O9 K1 K1 81.80(3) . 4_566 ?
O3 K1 K1 78.19(2) 4_466 4_566 ?
N8 K1 K1 174.41(3) 4_465 4_566 ?
N6 K1 K1 57.60(3) 4_466 4_566 ?
O8 K1 K1 121.86(4) . 4_565 ?
O6 K1 K1 49.91(4) 4_465 4_565 ?
O4 K1 K1 38.68(3) 1_455 4_565 ?
O4 K1 K1 158.59(3) 4_466 4_565 ?
N7 K1 K1 51.55(3) 4_465 4_565 ?
N4 K1 K1 87.31(3) 4_465 4_565 ?
O9 K1 K1 85.59(3) . 4_565 ?
O3 K1 K1 139.87(3) 4_466 4_565 ?
N8 K1 K1 49.56(3) 4_465 4_565 ?
N6 K1 K1 153.40(3) 4_466 4_565 ?
K1 K1 K1 133.60(2) 4_566 4_565 ?
O10 K2 O9 155.33(4) 3_566 . ?
O10 K2 N3 146.74(4) 3_566 . ?
O9 K2 N3 57.58(4) . . ?
O10 K2 O5 71.21(4) 3_566 1_455 ?
O9 K2 O5 88.83(4) . 1_455 ?
N3 K2 O5 127.15(4) . 1_455 ?
O10 K2 O8 83.33(5) 3_566 4_565 ?
O9 K2 O8 81.12(5) . 4_565 ?
N3 K2 O8 121.42(4) . 4_565 ?
O5 K2 O8 86.69(4) 1_455 4_565 ?
O10 K2 N9 111.23(5) 3_566 4_565 ?
O9 K2 N9 69.14(5) . 4_565 ?
N3 K2 N9 80.82(4) . 4_565 ?
O5 K2 N9 127.23(4) 1_455 4_565 ?
O8 K2 N9 44.13(4) 4_565 4_565 ?
O10 K2 O10 84.22(5) 3_566 . ?
O9 K2 O10 104.64(5) . . ?
N3 K2 O10 76.72(4) . . ?
O5 K2 O10 74.20(4) 1_455 . ?
O8 K2 O10 159.75(4) 4_565 . ?
N9 K2 O10 156.09(4) 4_565 . ?
O10 K2 N1 84.97(4) 3_566 . ?
O9 K2 N1 116.33(4) . . ?
N3 K2 N1 70.26(4) . . ?
O5 K2 N1 154.71(4) 1_455 . ?
O8 K2 N1 99.20(5) 4_565 . ?
N9 K2 N1 68.91(4) 4_565 . ?
O10 K2 N1 95.54(4) . . ?
O10 K2 O6 107.72(4) 3_566 1_455 ?
O9 K2 O6 61.00(5) . 1_455 ?
N3 K2 O6 85.31(4) . 1_455 ?
O5 K2 O6 41.85(4) 1_455 1_455 ?
O8 K2 O6 110.63(5) 4_565 1_455 ?
N9 K2 O6 127.73(5) 4_565 1_455 ?
O10 K2 O6 58.62(5) . 1_455 ?
N1 K2 O6 148.51(4) . 1_455 ?
O10 K2 N10 100.77(4) 3_566 4_565 ?
O9 K2 N10 69.61(5) . 4_565 ?
N3 K2 N10 100.14(4) . 4_565 ?
O5 K2 N10 104.49(4) 1_455 4_565 ?
O8 K2 N10 21.74(4) 4_565 4_565 ?
N9 K2 N10 23.39(4) 4_565 4_565 ?
O10 K2 N10 174.21(5) . 4_565 ?
N1 K2 N10 87.88(4) . 4_565 ?
O6 K2 N10 116.57(5) 1_455 4_565 ?
O10 K2 N8 90.05(4) 3_566 1_455 ?
O9 K2 N8 73.03(4) . 1_455 ?
N3 K2 N8 106.82(4) . 1_455 ?
O5 K2 N8 20.48(4) 1_455 1_455 ?
O8 K2 N8 96.91(5) 4_565 1_455 ?
N9 K2 N8 128.39(4) 4_565 1_455 ?
O10 K2 N8 67.18(4) . 1_455 ?
N1 K2 N8 162.45(4) . 1_455 ?
O6 K2 N8 21.60(3) 1_455 1_455 ?
N10 K2 N8 109.61(4) 4_565 1_455 ?
O10 K2 K2 43.15(3) 3_566 3_566 ?
O9 K2 K2 140.70(4) . 3_566 ?
N3 K2 K2 113.22(3) . 3_566 ?
O5 K2 K2 66.43(3) 1_455 3_566 ?
O8 K2 K2 124.62(4) 4_565 3_566 ?
N9 K2 K2 150.17(4) 4_565 3_566 ?
O10 K2 K2 41.07(3) . 3_566 ?
N1 K2 K2 90.48(3) . 3_566 ?
O6 K2 K2 80.98(4) 1_455 3_566 ?
N10 K2 K2 143.83(3) 4_565 3_566 ?
N8 K2 K2 74.57(3) 1_455 3_566 ?
O10 K2 H10B 93.3 3_566 . ?
O9 K2 H10B 90.3 . . ?
N3 K2 H10B 76.2 . . ?
O5 K2 H10B 63.4 1_455 . ?
O8 K2 H10B 149.1 4_565 . ?
N9 K2 H10B 155.1 4_565 . ?
O10 K2 H10B 17.4 . . ?
N1 K2 H10B 111.1 . . ?
O6 K2 H10B 41.4 1_455 . ?
N10 K2 H10B 157.4 4_565 . ?
N8 K2 H10B 52.3 1_455 . ?
K2 K2 H10B 51.9 3_566 . ?
C1 N1 N2 103.77(13) . . ?
C1 N1 K2 123.51(10) . . ?
N2 N1 K2 115.29(9) . . ?
C3 N2 N1 113.61(13) . . ?
C3 N2 C4 126.93(14) . . ?
N1 N2 C4 119.11(13) . . ?
C6 N3 C5 102.31(14) . . ?
C6 N3 K2 133.59(11) . . ?
C5 N3 K2 124.10(11) . . ?
C5 N4 O7 102.61(13) . . ?
C5 N4 K1 125.59(11) . 4_666 ?
O7 N4 K1 126.81(9) . 4_666 ?
O1 N5 O2 124.52(17) . . ?
O1 N5 C1 118.12(16) . . ?
O2 N5 C1 117.36(16) . . ?
O3 N6 O4 123.04(15) . . ?
O3 N6 C2 118.95(15) . . ?
O4 N6 C2 118.00(14) . . ?
O3 N6 K1 67.66(9) . 4_665 ?
O4 N6 K1 56.11(9) . 4_665 ?
C2 N6 K1 168.49(11) . 4_665 ?
N8 N7 C3 115.12(14) . . ?
N8 N7 K1 95.04(10) . 4_666 ?
C3 N7 K1 148.73(11) . 4_666 ?
O5 N8 O6 120.96(15) . . ?
O5 N8 N7 123.80(15) . . ?
O6 N8 N7 115.22(15) . . ?
O5 N8 K1 167.51(12) . 4_666 ?
O6 N8 K1 54.62(9) . 4_666 ?
N7 N8 K1 61.79(9) . 4_666 ?
O5 N8 K2 53.58(8) . 1_655 ?
O6 N8 K2 68.43(10) . 1_655 ?
N7 N8 K2 170.29(12) . 1_655 ?
K1 N8 K2 122.99(5) 4_666 1_655 ?
N10 N9 C6 116.83(15) . . ?
N10 N9 K2 96.85(10) . 4_566 ?
C6 N9 K2 135.10(12) . 4_566 ?
O9 N10 O8 120.52(15) . . ?
O9 N10 N9 124.97(15) . . ?
O8 N10 N9 114.49(15) . . ?
O9 N10 K2 161.94(14) . 4_566 ?
O8 N10 K2 58.68(10) . 4_566 ?
N9 N10 K2 59.75(9) . 4_566 ?
N6 O3 K1 91.63(10) . 4_665 ?
N6 O4 K1 152.19(11) . 1_655 ?
N6 O4 K1 103.71(10) . 4_665 ?
K1 O4 K1 103.87(4) 1_655 4_665 ?
N8 O5 K2 105.94(10) . 1_655 ?
N8 O6 K1 104.11(11) . 4_666 ?
N8 O6 K2 89.97(10) . 1_655 ?
K1 O6 K2 165.62(5) 4_666 1_655 ?
C6 O7 N4 106.45(12) . . ?
N10 O8 K1 103.71(11) . . ?
N10 O8 K2 99.58(11) . 4_566 ?
K1 O8 K2 139.47(8) . 4_566 ?
N10 O9 K2 143.45(12) . . ?
N10 O9 K1 90.89(10) . . ?
K2 O9 K1 112.52(5) . . ?
K2 O10 K2 95.78(5) 3_566 . ?
K2 O10 H10A 112.7 3_566 . ?
K2 O10 H10A 133.0 . . ?
K2 O10 H10B 121.4 3_566 . ?
K2 O10 H10B 87.1 . . ?
H10A O10 H10B 106.5 . . ?
loop_
_geom_bond_atom_site_label_1
_geom_bond_atom_site_label_2
_geom_bond_distance
_geom_bond_site_symmetry_2
_geom_bond_publ_flag
C1 N1 1.310(2) . ?
C1 C2 1.401(2) . ?
C1 N5 1.452(2) . ?
C2 C3 1.393(2) . ?
C2 N6 1.424(2) . ?
C3 N2 1.354(2) . ?
C3 N7 1.368(2) . ?
C4 N2 1.464(2) . ?
C4 C5 1.492(2) . ?
C4 H4B 0.9915 . ?
C4 H4A 0.9953 . ?
C5 N4 1.294(2) . ?
C5 N3 1.362(2) . ?
C6 N3 1.310(2) . ?
C6 N9 1.351(2) . ?
C6 O7 1.356(2) . ?
K1 O8 2.7412(16) . ?
K1 O6 2.8188(16) 4_465 ?
K1 O4 2.8625(15) 1_455 ?
K1 O4 2.9424(14) 4_466 ?
K1 N7 2.9660(15) 4_465 ?
K1 N4 3.0090(15) 4_465 ?
K1 O9 3.0116(15) . ?
K1 O3 3.1864(15) 4_466 ?
K1 N8 3.3528(16) 4_465 ?
K1 N6 3.4438(15) 4_466 ?
K1 K1 4.5707(4) 4_566 ?
K1 K1 4.5707(4) 4_565 ?
K2 O10 2.7829(16) 3_566 ?
K2 O9 2.8262(15) . ?
K2 N3 2.8356(14) . ?
K2 O5 2.8504(13) 1_455 ?
K2 O8 2.8803(17) 4_565 ?
K2 N9 2.8927(16) 4_565 ?
K2 O10 2.8966(16) . ?
K2 N1 3.0930(14) . ?
K2 O6 3.1677(15) 1_455 ?
K2 N10 3.3247(17) 4_565 ?
K2 N8 3.4061(16) 1_455 ?
K2 K2 4.2141(9) 3_566 ?
K2 H10B 2.9873 . ?
N1 N2 1.3563(19) . ?
N4 O7 1.4143(19) . ?
N5 O1 1.205(2) . ?
N5 O2 1.208(2) . ?
N6 O3 1.2187(19) . ?
N6 O4 1.223(2) . ?
N7 N8 1.324(2) . ?
N8 O5 1.239(2) . ?
N8 O6 1.254(2) . ?
N9 N10 1.330(2) . ?
N10 O9 1.230(2) . ?
N10 O8 1.249(2) . ?
O10 H10A 0.8287 . ?
O10 H10B 0.8939 . ?
loop_
_geom_hbond_atom_site_label_D
_geom_hbond_atom_site_label_H
_geom_hbond_atom_site_label_A
_geom_hbond_distance_DH
_geom_hbond_distance_HA
_geom_hbond_distance_DA
_geom_hbond_angle_DHA
_geom_hbond_site_symmetry_A
_geom_hbond_publ_flag
C4 H4B O3 0.99 2.53 3.349(2) 140.1 1_556 yes
C4 H4A O5 1.00 2.59 3.476(2) 148.3 3_666 yes
O10 H10A O1 0.83 2.59 3.379(2) 159.1 1_556 yes
O10 H10A O2 0.83 2.43 3.173(2) 150.3 1_556 yes
loop_
_geom_torsion_atom_site_label_1
_geom_torsion_atom_site_label_2
_geom_torsion_atom_site_label_3
_geom_torsion_atom_site_label_4
_geom_torsion
_geom_torsion_site_symmetry_1
_geom_torsion_site_symmetry_2
_geom_torsion_site_symmetry_3
_geom_torsion_site_symmetry_4
_geom_torsion_publ_flag
N1 C1 C2 C3 -1.18(19) . . . . ?
N5 C1 C2 C3 -175.22(17) . . . . ?
N1 C1 C2 N6 173.06(16) . . . . ?
N5 C1 C2 N6 -1.0(3) . . . . ?
C1 C2 C3 N2 0.20(17) . . . . ?
N6 C2 C3 N2 -174.18(15) . . . . ?
C1 C2 C3 N7 177.19(19) . . . . ?
N6 C2 C3 N7 2.8(3) . . . . ?
N2 C4 C5 N4 110.22(18) . . . . ?
N2 C4 C5 N3 -69.89(19) . . . . ?
C2 C1 N1 N2 1.60(19) . . . . ?
N5 C1 N1 N2 176.45(14) . . . . ?
C2 C1 N1 K2 -132.01(12) . . . . ?
N5 C1 N1 K2 42.8(2) . . . . ?
N7 C3 N2 N1 -176.91(14) . . . . ?
C2 C3 N2 N1 0.80(18) . . . . ?
N7 C3 N2 C4 -3.8(2) . . . . ?
C2 C3 N2 C4 173.86(15) . . . . ?
C1 N1 N2 C3 -1.49(18) . . . . ?
K2 N1 N2 C3 136.62(11) . . . . ?
C1 N1 N2 C4 -175.14(14) . . . . ?
K2 N1 N2 C4 -37.04(16) . . . . ?
C5 C4 N2 C3 -79.1(2) . . . . ?
C5 C4 N2 N1 93.60(17) . . . . ?
N9 C6 N3 C5 177.3(2) . . . . ?
O7 C6 N3 C5 0.30(18) . . . . ?
N9 C6 N3 K2 -2.0(3) . . . . ?
O7 C6 N3 K2 -179.06(11) . . . . ?
N4 C5 N3 C6 0.21(19) . . . . ?
C4 C5 N3 C6 -179.69(15) . . . . ?
N4 C5 N3 K2 179.65(12) . . . . ?
C4 C5 N3 K2 -0.2(2) . . . . ?
N3 C5 N4 O7 -0.58(19) . . . . ?
C4 C5 N4 O7 179.31(14) . . . . ?
N3 C5 N4 K1 155.64(11) . . . 4_666 ?
C4 C5 N4 K1 -24.5(2) . . . 4_666 ?
N1 C1 N5 O1 33.9(2) . . . . ?
C2 C1 N5 O1 -152.2(2) . . . . ?
N1 C1 N5 O2 -145.44(17) . . . . ?
C2 C1 N5 O2 28.4(3) . . . . ?
C3 C2 N6 O3 -146.35(17) . . . . ?
C1 C2 N6 O3 40.6(3) . . . . ?
C3 C2 N6 O4 34.7(2) . . . . ?
C1 C2 N6 O4 -138.37(18) . . . . ?
C3 C2 N6 K1 91.0(6) . . . 4_665 ?
C1 C2 N6 K1 -82.0(6) . . . 4_665 ?
N2 C3 N7 N8 -144.45(16) . . . . ?
C2 C3 N7 N8 38.8(3) . . . . ?
N2 C3 N7 K1 19.1(3) . . . 4_666 ?
C2 C3 N7 K1 -157.65(17) . . . 4_666 ?
C3 N7 N8 O5 4.5(3) . . . . ?
K1 N7 N8 O5 -166.96(15) 4_666 . . . ?
C3 N7 N8 O6 -176.70(16) . . . . ?
K1 N7 N8 O6 11.80(17) 4_666 . . . ?
C3 N7 N8 K1 171.50(17) . . . 4_666 ?
N3 C6 N9 N10 7.5(3) . . . . ?
O7 C6 N9 N10 -175.42(16) . . . . ?
N3 C6 N9 K2 -126.65(19) . . . 4_566 ?
O7 C6 N9 K2 50.4(2) . . . 4_566 ?
C6 N9 N10 O9 9.9(3) . . . . ?
K2 N9 N10 O9 159.26(18) 4_566 . . . ?
C6 N9 N10 O8 -171.40(18) . . . . ?
K2 N9 N10 O8 -22.04(19) 4_566 . . . ?
C6 N9 N10 K2 -149.35(18) . . . 4_566 ?
O4 N6 O3 K1 9.39(17) . . . 4_665 ?
C2 N6 O3 K1 -169.53(13) . . . 4_665 ?
O3 N6 O4 K1 177.01(18) . . . 1_655 ?
C2 N6 O4 K1 -4.1(3) . . . 1_655 ?
K1 N6 O4 K1 -172.5(3) 4_665 . . 1_655 ?
O3 N6 O4 K1 -10.47(19) . . . 4_665 ?
C2 N6 O4 K1 168.46(12) . . . 4_665 ?
O6 N8 O5 K2 12.8(2) . . . 1_655 ?
N7 N8 O5 K2 -168.57(14) . . . 1_655 ?
K1 N8 O5 K2 78.3(5) 4_666 . . 1_655 ?
O5 N8 O6 K1 166.03(14) . . . 4_666 ?
N7 N8 O6 K1 -12.76(18) . . . 4_666 ?
K2 N8 O6 K1 177.04(10) 1_655 . . 4_666 ?
O5 N8 O6 K2 -11.01(17) . . . 1_655 ?
N7 N8 O6 K2 170.20(14) . . . 1_655 ?
K1 N8 O6 K2 -177.04(10) 4_666 . . 1_655 ?
N3 C6 O7 N4 -0.65(19) . . . . ?
N9 C6 O7 N4 -178.46(14) . . . . ?
C5 N4 O7 C6 0.71(18) . . . . ?
K1 N4 O7 C6 -155.12(11) 4_666 . . . ?
O9 N10 O8 K1 -12.4(2) . . . . ?
N9 N10 O8 K1 168.89(13) . . . . ?
K2 N10 O8 K1 146.58(13) 4_566 . . . ?
O9 N10 O8 K2 -158.93(16) . . . 4_566 ?
N9 N10 O8 K2 22.30(19) . . . 4_566 ?
O8 N10 O9 K2 142.54(19) . . . . ?
N9 N10 O9 K2 -38.8(3) . . . . ?
K2 N10 O9 K2 60.5(5) 4_566 . . . ?
O8 N10 O9 K1 10.9(2) . . . . ?
N9 N10 O9 K1 -170.47(18) . . . . ?
K2 N10 O9 K1 -71.1(4) 4_566 . . . ?
