#------------------------------------------------------------------------------
#$Date: 2021-10-29 02:38:37 +0300 (Fri, 29 Oct 2021) $
#$Revision: 270121 $
#$URL: file:///home/coder/svn-repositories/cod/cif/7/70/86/7708617.cif $
#------------------------------------------------------------------------------
#
# This file is available in the Crystallography Open Database (COD),
# http://www.crystallography.net/
#
# All data on this site have been placed in the public domain by the
# contributors.
#
data_7708617
loop_
_publ_author_name
'Liu, Jian-Jun'
'Fu, Jia-Jia'
'Liu, Teng'
'He, Chixian'
'Cheng, Feixiang'
_publ_section_title
;
 Photochromism and photoswitchable luminescence in a Zn7 cluster-based
 metal-organic framework with organic guest
;
_journal_name_full               'Dalton Transactions'
_journal_paper_doi               10.1039/D1DT03213E
_journal_year                    2021
_chemical_formula_sum            'C72 H50 N2 O30 Zn7'
_chemical_formula_weight         1880.73
_space_group_crystal_system      triclinic
_space_group_IT_number           2
_space_group_name_Hall           '-P 1'
_space_group_name_H-M_alt        'P -1'
_atom_sites_solution_hydrogens   mixed
_audit_creation_method           SHELXL-2014/7
_audit_update_record
;
2021-09-17 deposited with the CCDC.	2021-10-27 downloaded from the CCDC.
;
_cell_angle_alpha                92.6710(10)
_cell_angle_beta                 107.6110(10)
_cell_angle_gamma                93.6710(10)
_cell_formula_units_Z            1
_cell_length_a                   12.1185(10)
_cell_length_b                   13.4888(11)
_cell_length_c                   13.8929(12)
_cell_measurement_reflns_used    13159
_cell_measurement_temperature    100(2)
_cell_measurement_theta_max      27.63
_cell_measurement_theta_min      3.52
_cell_volume                     2154.9(3)
_computing_cell_refinement       'Bruker SMART'
_computing_data_collection       'Bruker SMART'
_computing_data_reduction        'Bruker SMART'
_computing_structure_refinement  'SHELXL-2014/7 (Sheldrick, 2014)'
_computing_structure_solution    'SHELXS-97 (Sheldrick, 1990)'
_diffrn_ambient_temperature      100(2)
_diffrn_measured_fraction_theta_full 0.992
_diffrn_measured_fraction_theta_max 0.941
_diffrn_measurement_device_type  'CCD area detector'
_diffrn_measurement_method       'phi and omega scans'
_diffrn_radiation_type           MoK\a
_diffrn_radiation_wavelength     0.71073
_diffrn_reflns_av_R_equivalents  0.0163
_diffrn_reflns_av_unetI/netI     0.0365
_diffrn_reflns_Laue_measured_fraction_full 0.992
_diffrn_reflns_Laue_measured_fraction_max 0.941
_diffrn_reflns_limit_h_max       14
_diffrn_reflns_limit_h_min       -15
_diffrn_reflns_limit_k_max       15
_diffrn_reflns_limit_k_min       -17
_diffrn_reflns_limit_l_max       18
_diffrn_reflns_limit_l_min       -17
_diffrn_reflns_number            13153
_diffrn_reflns_point_group_measured_fraction_full 0.992
_diffrn_reflns_point_group_measured_fraction_max 0.941
_diffrn_reflns_theta_full        25.242
_diffrn_reflns_theta_max         27.633
_diffrn_reflns_theta_min         2.500
_exptl_absorpt_coefficient_mu    1.990
_exptl_absorpt_correction_T_max  1.0000
_exptl_absorpt_correction_T_min  0.9562
_exptl_absorpt_correction_type   multi-scan
_exptl_absorpt_process_details   '(SADABS; Bruker, 2004)'
_exptl_crystal_colour            yellow
_exptl_crystal_density_diffrn    1.449
_exptl_crystal_description       block
_exptl_crystal_F_000             946
_exptl_crystal_size_max          0.25
_exptl_crystal_size_mid          0.20
_exptl_crystal_size_min          0.06
_refine_diff_density_max         0.762
_refine_diff_density_min         -0.631
_refine_diff_density_rms         0.083
_refine_ls_extinction_method     none
_refine_ls_goodness_of_fit_ref   1.015
_refine_ls_hydrogen_treatment    mixed
_refine_ls_matrix_type           full
_refine_ls_number_parameters     508
_refine_ls_number_reflns         9445
_refine_ls_number_restraints     2
_refine_ls_restrained_S_all      1.015
_refine_ls_R_factor_all          0.0390
_refine_ls_R_factor_gt           0.0304
_refine_ls_shift/su_max          0.001
_refine_ls_shift/su_mean         0.000
_refine_ls_structure_factor_coef Fsqd
_refine_ls_weighting_details
'w=1/[\s^2^(Fo^2^)+(0.0383P)^2^+1.9151P] where P=(Fo^2^+2Fc^2^)/3'
_refine_ls_weighting_scheme      calc
_refine_ls_wR_factor_gt          0.0760
_refine_ls_wR_factor_ref         0.0793
_reflns_Friedel_coverage         0.000
_reflns_number_gt                7955
_reflns_number_total             9445
_reflns_threshold_expression     'I > 2\s(I)'
_cod_data_source_file            d1dt03213e2.cif
_cod_data_source_block           compound1
_cod_database_code               7708617
_shelx_shelxl_version_number     2014/7
_shelx_space_group_comment
;
The symmetry employed for this shelxl refinement is uniquely defined
by the following loop, which should always be used as a source of
symmetry information in preference to the above space-group names.
They are only intended as comments.
;
_shelx_res_file
;

    ljj3_0m_sq.res created by SHELXL-2014/7


REM Old TITL 210702LJJ3_0m in P-1 #2
REM SHELXT solution in P-1
REM R1 0.073, Rweak 0.005, Alpha 0.064, Orientation as input
REM Formula found by SHELXT: C86 O32 N4 Zn7
REM <olex2.extras>
REM <HklSrc "%.\\210702LJJ3_0m.hkl">
REM </olex2.extras>
REM  210702ljj3_0m_a.res in P-1
REM R1 =  0.0624 for   7959 Fo > 4sig(Fo)  and  0.0738 for all   9449 data
REM    258 parameters refined using      0 restraints
REM Highest difference peak  3.035,  deepest hole -2.027,  1-sigma level  0.196
TITL 210702ljj3_0m_a.res in P-1
CELL 0.71073 12.1185 13.4888 13.8929 92.671 107.611 93.671
ZERR 1.0000 0.0010 0.0011 0.0012 0.001 0.001 0.001
LATT 1
SFAC C H O N ZN
UNIT 72 50 30 2 7
MERG 2
FMAP 2
GRID
ACTA
OMIT  0   1   0
OMIT  3  -1   3
OMIT 0   2   1
OMIT 1   0   1
PLAN 20
TEMP -173
BOND $H
DFIX 0.85 0.01 O1 H1A
DFIX 0.85 0.01 O11 H11A
L.S. 10
ABIN
ACTA
WGHT    0.038300    1.915100
FVAR       0.35942
ZN2   5    0.007711   -0.003286    0.277462    11.00000    0.00933    0.00641 =
         0.00683    0.00106    0.00322   -0.00026
ZN1   5    0.000000    0.000000    0.500000    10.50000    0.01357    0.00710 =
         0.00772    0.00120    0.00580    0.00039
ZN3   5    0.158278    0.183151    0.428465    11.00000    0.00915    0.00725 =
         0.00710    0.00162    0.00215   -0.00082
ZN4   5    0.879609    0.195425    0.619030    11.00000    0.00861    0.00732 =
         0.00863    0.00215    0.00345    0.00105
O1    3    0.014147    0.099414    0.399038    11.00000    0.00780    0.00747 =
         0.00814    0.00113    0.00271    0.00126
H1A   2   -0.042439    0.135488    0.389885    11.00000   -1.50000
O11   3    0.993621    0.103692    0.611215    11.00000    0.00911    0.00739 =
         0.00918    0.00041    0.00434   -0.00100
H11A  2    1.054704    0.141603    0.619956    11.00000   -1.50000
O4    3    0.297913    0.126934    0.510902    11.00000    0.00939    0.01268 =
         0.01340    0.00442    0.00286    0.00003
O3    3    0.160275    0.227592    0.296092    11.00000    0.01700    0.01171 =
         0.00813    0.00204    0.00351   -0.00154
O5    3    0.195174    0.017005    0.573762    11.00000    0.00697    0.01409 =
         0.01320    0.00206    0.00348   -0.00032
O2    3    0.030886    0.110793    0.192813    11.00000    0.01529    0.00993 =
         0.01066    0.00296    0.00385   -0.00046
O12   3    0.868650    0.321479    0.552419    11.00000    0.01883    0.01075 =
         0.01415    0.00546    0.00504    0.00245
O15   3    0.833481    0.742517    0.358913    11.00000    0.01743    0.00810 =
         0.01701    0.00309    0.00543   -0.00138
O10   3   -0.050168    0.254000   -0.237596    11.00000    0.01737    0.01310 =
         0.00794    0.00085    0.00273    0.00186
O8    3    0.807523    0.000790    0.676864    11.00000    0.00876    0.01372 =
         0.02351    0.00532    0.00655    0.00256
O14   3    0.847985    0.683009    0.509431    11.00000    0.02066    0.00896 =
         0.01223   -0.00011    0.00606   -0.00010
O13   3    0.846858    0.219846    0.415695    11.00000    0.01517    0.00823 =
         0.02469    0.00082    0.00618    0.00110
O6    3   -0.176248   -0.006384    0.228383    11.00000    0.01066    0.01986 =
         0.02050    0.00560    0.00378   -0.00016
O9    3    0.003052    0.111219   -0.165747    11.00000    0.02939    0.00912 =
         0.01004   -0.00022    0.00723    0.00005
O7    3    0.724820    0.136926    0.613488    11.00000    0.00921    0.01231 =
         0.01827    0.00546    0.00471    0.00027
N1    4    0.519355    0.657628    0.468522    11.00000    0.01478    0.01400 =
         0.02592   -0.00199    0.00370   -0.00613
C17   1    0.862306    0.304397    0.459031    11.00000    0.00606    0.01072 =
         0.01861    0.00313    0.00305    0.00061
C1    1    0.093972    0.191399    0.210879    11.00000    0.01145    0.01068 =
         0.00887    0.00201    0.00486    0.00263
C24   1    0.845845    0.672760    0.416801    11.00000    0.00856    0.01000 =
         0.01449    0.00202    0.00490   -0.00157
C8    1   -0.006459    0.203258   -0.162863    11.00000    0.01228    0.01315 =
         0.01138    0.00180    0.00753   -0.00148
C22   1    0.860011    0.570252    0.378708    11.00000    0.01123    0.01000 =
         0.01160    0.00016    0.00436   -0.00211
C18   1    0.870924    0.393831    0.400395    11.00000    0.00904    0.00998 =
         0.01278    0.00204    0.00286    0.00034
C23   1    0.857659    0.488891    0.436677    11.00000    0.00953    0.01214 =
         0.01038    0.00269    0.00317    0.00088
AFIX  43
H23   2    0.846934    0.498399    0.501343    11.00000   -1.20000
AFIX   0
C4    1    0.035554    0.258021   -0.060013    11.00000    0.01050    0.01076 =
         0.01069    0.00263    0.00378    0.00030
C3    1    0.052162    0.203569    0.024879    11.00000    0.01259    0.00666 =
         0.01211    0.00089    0.00500    0.00018
AFIX  43
H3    2    0.039104    0.133045    0.017047    11.00000   -1.20000
AFIX   0
C2    1    0.087976    0.251828    0.121823    11.00000    0.01200    0.01157 =
         0.00909    0.00160    0.00403    0.00054
C19   1    0.891259    0.380344    0.307196    11.00000    0.02015    0.01114 =
         0.01824   -0.00070    0.01046    0.00139
AFIX  43
H19   2    0.901533    0.315771    0.282634    11.00000   -1.20000
AFIX   0
C7    1    0.111220    0.354880    0.133128    11.00000    0.01939    0.01196 =
         0.00942   -0.00073    0.00443   -0.00066
AFIX  43
H7    2    0.137844    0.387794    0.198940    11.00000   -1.20000
AFIX   0
C9    1    0.288274    0.054617    0.564150    11.00000    0.01169    0.00877 =
         0.00993   -0.00251    0.00429    0.00006
C5    1    0.055620    0.361709   -0.048134    11.00000    0.02209    0.01101 =
         0.00840    0.00477    0.00668    0.00223
AFIX  43
H5    2    0.041992    0.399533   -0.105997    11.00000   -1.20000
AFIX   0
C10   1    0.400055    0.011424    0.619274    11.00000    0.00851    0.00987 =
         0.00996    0.00100    0.00209    0.00118
C21   1    0.878874    0.556029    0.284981    11.00000    0.02307    0.01143 =
         0.01604    0.00379    0.01089   -0.00174
AFIX  43
H21   2    0.879708    0.610939    0.244728    11.00000   -1.20000
AFIX   0
C6    1    0.095625    0.409669    0.048581    11.00000    0.02719    0.00887 =
         0.01532    0.00099    0.00661   -0.00023
AFIX  43
H6    2    0.112222    0.479900    0.056616    11.00000   -1.20000
AFIX   0
C15   1    0.505481    0.051560    0.610807    11.00000    0.01194    0.00872 =
         0.00927    0.00038    0.00381   -0.00087
AFIX  43
H15   2    0.507091    0.107851    0.572480    11.00000   -1.20000
AFIX   0
C16   1    0.722216    0.051312    0.649041    11.00000    0.00981    0.01158 =
         0.00823   -0.00226    0.00171   -0.00104
C29   1    0.513767    0.607294    0.659669    11.00000    0.01150    0.01701 =
         0.02505   -0.00448    0.00421   -0.00275
C20   1    0.896443    0.461850    0.250301    11.00000    0.02839    0.01622 =
         0.01991   -0.00059    0.01668   -0.00082
AFIX  43
H20   2    0.912044    0.453030    0.187565    11.00000   -1.20000
AFIX   0
C26   1    0.604451    0.606849    0.527055    11.00000    0.01179    0.02364 =
         0.03092   -0.00133    0.00667   -0.00116
AFIX  43
H26   2    0.666002    0.588484    0.502590    11.00000   -1.20000
AFIX   0
C14   1    0.608347    0.009453    0.658299    11.00000    0.01001    0.01010 =
         0.01057   -0.00058    0.00414    0.00040
C31   1    0.509614    0.578156    0.759569    11.00000    0.01169    0.02197 =
         0.02306   -0.00619    0.00319    0.00033
C28   1    0.603244    0.581568    0.620810    11.00000    0.01370    0.02524 =
         0.02843    0.00009    0.00383    0.00293
AFIX  43
H28   2    0.664062    0.545916    0.660478    11.00000   -1.20000
AFIX   0
C11   1    0.397693   -0.071256    0.675810    11.00000    0.01054    0.01316 =
         0.01866    0.00419    0.00555   -0.00105
AFIX  43
H11   2    0.326039   -0.099507    0.680999    11.00000   -1.20000
AFIX   0
C34   1    0.501748    0.516281    0.950163    11.00000    0.01551    0.02476 =
         0.02174   -0.00282    0.00555    0.00028
C13   1    0.605557   -0.073033    0.714721    11.00000    0.01071    0.01425 =
         0.01822    0.00493    0.00334    0.00230
AFIX  43
H13   2    0.675332   -0.102587    0.746500    11.00000   -1.20000
AFIX   0
C12   1    0.501072   -0.111930    0.724469    11.00000    0.01317    0.01423 =
         0.02097    0.00874    0.00498    0.00089
AFIX  43
H12   2    0.500023   -0.166819    0.764708    11.00000   -1.20000
AFIX   0
C30   1    0.428742    0.661415    0.596943    11.00000    0.01755    0.02322 =
         0.02962   -0.00027    0.00782    0.00389
AFIX  43
H30   2    0.367147    0.682199    0.620067    11.00000   -1.20000
AFIX   0
C25   1    0.432509    0.685112    0.502606    11.00000    0.01598    0.02025 =
         0.03414    0.00076    0.00533    0.00419
AFIX  43
H25   2    0.373262    0.721162    0.461316    11.00000   -1.20000
AFIX   0
C27   1    0.523353    0.683111    0.366897    11.00000    0.02294    0.01788 =
         0.02791    0.00150    0.00630   -0.00404
AFIX  33
H27A  2    0.592070    0.657452    0.354560    11.00000   -1.50000
H27B  2    0.453226    0.653098    0.315286    11.00000   -1.50000
H27C  2    0.527404    0.755625    0.363677    11.00000   -1.50000
AFIX   0
C35   1    0.594300    0.502776    0.915166    11.00000    0.03383    0.05525 =
         0.04513    0.02661    0.02166    0.03159
AFIX  43
H35   2    0.658185    0.471425    0.956399    11.00000   -1.20000
AFIX   0
C36   1    0.598939    0.532443    0.823341    11.00000    0.03200    0.05285 =
         0.04636    0.02385    0.02583    0.02716
AFIX  43
H36   2    0.665592    0.521142    0.803201    11.00000   -1.20000
AFIX   0
C32   1    0.414971    0.589761    0.792951    11.00000    0.03035    0.15992 =
         0.03599    0.04186    0.01818    0.05357
AFIX  43
H32   2    0.349945    0.619039    0.750754    11.00000   -1.20000
AFIX   0
C33   1    0.411603    0.560099    0.886083    11.00000    0.02823    0.16976 =
         0.03622    0.04292    0.02040    0.05182
AFIX  43
H33   2    0.344741    0.570422    0.906243    11.00000   -1.20000
AFIX   0
HKLF 4

REM  210702ljj3_0m_a.res in P-1
REM R1 =  0.0304 for    7955 Fo > 4sig(Fo)  and  0.0390 for all    9445 data
REM    508 parameters refined using      2 restraints

END

WGHT      0.0342      1.9118

REM Highest difference peak  0.762,  deepest hole -0.631,  1-sigma level  0.083
Q1    1  -0.2152 -0.0681  0.1976  11.00000  0.05    0.76
Q2    1  -0.1862 -0.0013  0.2956  11.00000  0.05    0.68
Q3    1   0.5883  0.7382  0.3755  11.00000  0.05    0.64
Q4    1   0.4014  0.5233  0.8805  11.00000  0.05    0.58
Q5    1   0.4389  0.6262  0.8136  11.00000  0.05    0.53
Q6    1   0.4212  0.5980  0.9195  11.00000  0.05    0.53
Q7    1   0.5339  0.6153  0.3327  11.00000  0.05    0.51
Q8    1   0.4476  0.7022  0.3366  11.00000  0.05    0.50
Q9    1   0.3934  0.5583  0.7863  11.00000  0.05    0.46
Q10   1   0.8969  0.4451  0.4370  11.00000  0.05    0.41
Q11   1   0.8850  0.3554  0.4328  11.00000  0.05    0.41
Q12   1   0.4147  0.6010  0.8667  11.00000  0.05    0.38
Q13   1   0.1526  0.1669  0.3660  11.00000  0.05    0.38
Q14   1   0.8934  0.2142  0.6918  11.00000  0.05    0.37
Q15   1   0.4443  0.0184  0.5983  11.00000  0.05    0.37
Q16   1   0.0570  0.2374  0.0774  11.00000  0.05    0.36
Q17   1   0.3415  0.0338  0.5949  11.00000  0.05    0.36
Q18   1   0.0869  0.2249  0.1568  11.00000  0.05    0.35
Q19   1   0.6023  0.4510  0.9147  11.00000  0.05    0.34
Q20   1   0.1760  0.2016  0.5046  11.00000  0.05    0.34
;
_shelx_res_checksum              9080
_shelx_hkl_file
;
   2   0   0 1515.53   22.33
  -3   0   0 1041.41   17.30
   3   0   0 1065.14   16.21
  -4   0   0   27.69    2.43
   4   0   0   27.34    1.59
  -5   0   0  636.03   12.75
  -6   0   0 1717.84   29.20
  -6   0   0 1705.11   26.52
  -7   0   0 3693.43   58.77
  -7   0   0 3737.54   55.35
  -8   0   0 2410.89   41.12
  -9   0   0    3.27    3.12
 -10   0   0  391.79   12.54
 -11   0   0    2.18    3.65
 -12   0   0  265.04   11.79
 -13   0   0   73.03    7.78
 -14   0   0   75.90    8.71
 -15   0   0   48.43    7.63
 -15   1   0  348.32   14.57
 -14   1   0  494.71   16.51
 -13   1   0  506.35   17.02
 -12   1   0   -1.26    4.10
 -11   1   0  158.90    8.46
 -10   1   0   13.12    3.57
  -9   1   0   46.92    4.61
  -8   1   0  790.65   17.03
   7  -1   0 3887.68   59.59
  -7   1   0 4074.44   62.23
   6  -1   0 3058.34   46.37
  -6   1   0 3081.98   48.20
   5  -1   0  989.98   16.32
  -5   1   0  970.88   17.40
   4  -1   0 2658.69   39.77
  -4   1   0 2651.62   40.52
   3  -1   0 4373.39   63.34
  -3   1   0 4307.42   63.60
   2  -1   0   89.58    2.39
   0  -1   0    0.19    0.12
  -2  -1   0    2.14    0.57
  -2  -1   0    2.50    0.98
  -3  -1   0 1161.60   17.44
  -3  -1   0 1138.79   19.09
  -4  -1   0 4072.02   59.53
  -4  -1   0 4119.40   61.91
  -5  -1   0 4018.37   58.13
  -5  -1   0 3915.43   60.97
  -6  -1   0  689.26   14.68
  -6  -1   0  693.32   11.81
  -7  -1   0   51.72    2.59
  -7  -1   0   50.02    4.30
  -8  -1   0    3.83    2.97
  -9  -1   0  147.13    7.61
 -10  -1   0 1987.85   37.68
 -11  -1   0 1257.37   27.77
 -12  -1   0  429.29   15.32
 -13  -1   0    5.40    5.33
 -14  -1   0   71.76    9.00
 -15   2   0  368.64   14.78
 -14   2   0  380.43   14.32
 -13   2   0   37.18    5.74
 -12   2   0  138.47    8.25
 -12   2   0  144.06    8.87
 -11   2   0    2.77    3.53
 -11   2   0   -2.65    3.21
 -10   2   0 1792.55   33.19
  -9   2   0   48.53    4.67
   8  -2   0  702.66   13.73
  -8   2   0  709.10   15.40
   7  -2   0  227.21    6.25
  -7   2   0  236.89    7.27
   6  -2   0  444.78    9.34
  -6   2   0  454.02   10.01
   5  -2   0 2118.28   33.36
  -5   2   0 2156.89   33.62
   4  -2   0 1424.63   22.71
  -4   2   0 1386.73   22.35
  -4   2   0 1420.81   22.97
   3  -2   0 1770.12   27.75
  -3   2   0 1788.04   27.75
  -3   2   0 1816.37   27.72
   2  -2   0 1142.44   18.10
  -2   2   0 1124.71   17.68
   1  -2   0  193.66    4.28
   0  -2   0    2.26    0.81
  -1  -2   0  634.13   10.48
  -1  -2   0  644.40   10.92
  -2  -2   0 1499.29   23.80
  -2  -2   0 1501.46   22.69
  -3  -2   0 2240.00   33.67
  -3  -2   0 2293.36   35.62
  -4  -2   0 2047.15   32.86
  -4  -2   0 1981.31   30.22
  -5  -2   0 2446.12   40.06
  -5  -2   0 2492.08   36.95
  -6  -2   0   32.45    3.49
  -6  -2   0   38.50    2.16
  -7  -2   0  220.39    8.06
  -7  -2   0  205.10    5.06
  -8  -2   0    7.17    3.35
  -9  -2   0  386.53   12.50
 -10  -2   0 1583.88   32.17
 -11  -2   0  709.16   19.96
 -12  -2   0   78.14    8.18
 -13  -2   0   42.09    7.07
 -14  -2   0   31.62    7.74
 -15   3   0   33.83    6.27
 -14   3   0    3.95    4.30
 -13   3   0    6.50    4.49
 -12   3   0   33.31    5.09
 -11   3   0  891.17   20.53
 -10   3   0  768.04   17.75
 -10   3   0  734.00   17.16
  -9   3   0  332.46   10.46
  -9   3   0  340.81   10.03
   8  -3   0    2.21    1.66
  -8   3   0    0.99    2.13
  -8   3   0   -0.21    2.35
   7  -3   0   20.93    2.48
  -7   3   0   22.16    2.87
  -7   3   0   21.48    2.61
   6  -3   0   61.54    3.38
  -6   3   0   62.87    3.25
  -6   3   0   65.90    3.68
   5  -3   0 1637.80   27.16
  -5   3   0 1648.67   27.23
  -5   3   0 1681.07   26.38
   4  -3   0 2023.88   32.11
  -4   3   0 2022.26   31.80
  -4   3   0 2022.90   30.76
   3  -3   0  982.31   16.86
  -3   3   0  970.30   16.26
   2  -3   0  917.66   15.81
  -2   3   0  932.22   15.12
   1  -3   0   37.46    2.22
  -1   3   0   34.96    1.77
   0  -3   0   81.25    2.95
  -1  -3   0    1.08    1.01
  -1  -3   0    2.25    1.04
  -2  -3   0  809.24   14.36
  -2  -3   0  804.18   13.52
  -3  -3   0   29.99    2.61
  -3  -3   0   24.13    1.80
  -4  -3   0  350.26    6.97
  -4  -3   0  350.24    8.81
  -5  -3   0 1094.91   21.00
  -5  -3   0 1138.48   18.14
  -6  -3   0  372.58   10.49
  -6  -3   0  372.08    7.57
  -7  -3   0   27.08    3.94
  -7  -3   0   31.10    3.65
  -8  -3   0   -3.18    2.87
  -9  -3   0   78.20    6.79
 -10  -3   0  146.51    8.94
 -11  -3   0   14.93    5.11
 -12  -3   0   58.94    7.99
 -13  -3   0   62.82    8.37
 -14  -3   0  155.74   12.85
 -14   4   0   41.39    6.29
 -13   4   0   25.81    5.37
 -12   4   0  280.81   11.42
 -11   4   0  780.08   18.82
 -10   4   0  600.29   15.42
  -9   4   0   91.20    5.46
  -9   4   0   90.86    5.99
   8  -4   0   82.48    4.56
  -8   4   0   73.97    4.58
  -8   4   0   79.13    4.95
   7  -4   0    0.18    1.72
  -7   4   0    1.09    1.61
  -7   4   0    2.04    2.02
   6  -4   0  304.57    8.25
  -6   4   0  299.39    7.14
  -6   4   0  317.39    8.21
   5  -4   0 1724.93   28.61
  -5   4   0 1698.32   26.61
  -5   4   0 1683.14   28.00
   4  -4   0   51.84    3.10
  -4   4   0   47.63    1.98
  -4   4   0   51.19    2.75
   3  -4   0    4.87    1.45
  -3   4   0    3.20    1.15
   2  -4   0  135.96    4.68
  -2   4   0  137.45    3.96
   1  -4   0  597.67   11.64
  -1   4   0  602.76   10.63
   0  -4   0  942.66   16.43
   0  -4   0  952.36   15.77
  -1  -4   0 1402.38   22.56
  -1  -4   0 1364.62   22.57
  -2  -4   0   18.77    2.21
  -2  -4   0   18.50    2.04
  -3  -4   0   49.90    2.73
  -3  -4   0   46.84    3.20
  -4  -4   0  119.46    5.17
  -4  -4   0  109.26    3.81
  -5  -4   0  773.70   16.64
  -5  -4   0  801.65   14.00
  -6  -4   0  666.59   15.69
  -6  -4   0  677.25   12.40
  -7  -4   0  492.96   13.67
  -8  -4   0  433.60   13.68
  -9  -4   0   31.86    5.29
 -10  -4   0   16.21    4.99
 -11  -4   0   16.39    5.41
 -12  -4   0   11.71    5.76
 -13  -4   0   81.77    9.79
 -14  -4   0  155.97   12.84
 -14   5   0   31.38    6.09
 -13   5   0   25.88    5.51
 -12   5   0  257.98   10.72
 -11   5   0  143.22    7.78
 -10   5   0  238.33    9.18
   9  -5   0  107.96    5.68
  -9   5   0  119.70    6.66
   8  -5   0  282.75    8.79
  -8   5   0  279.26    8.81
   7  -5   0   57.36    4.43
  -7   5   0   54.85    4.14
  -7   5   0   52.12    3.23
   6  -5   0  183.72    6.56
  -6   5   0  183.09    4.99
  -6   5   0  187.25    6.37
   5  -5   0  303.46    8.59
  -5   5   0  310.99    6.31
  -5   5   0  314.70    7.98
   4  -5   0  249.98    7.31
  -4   5   0  239.44    6.47
   3  -5   0  386.97    9.45
  -3   5   0  385.11    8.32
   2  -5   0  104.15    4.42
  -2   5   0  110.33    3.74
   1  -5   0 2402.75   36.73
   1  -5   0 2416.98   38.60
  -1   5   0 2462.68   37.16
   0  -5   0 4213.23   63.45
   0  -5   0 4162.08   62.51
  -1  -5   0 1827.13   29.13
  -1  -5   0 1769.54   29.21
  -2  -5   0   13.38    2.21
  -2  -5   0   16.20    2.16
  -3  -5   0  329.41    7.81
  -3  -5   0  332.40    8.79
  -4  -5   0  143.38    4.82
  -4  -5   0  145.96    6.11
  -5  -5   0  384.93   10.85
  -5  -5   0  376.99    8.56
  -6  -5   0  281.74    7.21
  -6  -5   0  303.80   10.06
  -7  -5   0  846.51   19.75
  -8  -5   0  585.73   16.45
  -9  -5   0  233.05   11.26
 -10  -5   0   41.84    6.42
 -11  -5   0   23.91    6.18
 -12  -5   0   -3.29    4.97
 -13  -5   0   76.89    9.40
 -14  -5   0    5.03    7.06
 -14   6   0  171.66   10.70
 -13   6   0  108.19    8.46
 -12   6   0   36.03    5.58
 -11   6   0   -0.25    3.13
 -10   6   0  158.25    8.06
   9  -6   0    8.42    2.96
  -9   6   0    9.11    3.18
   8  -6   0  412.10   11.73
  -8   6   0  440.33   11.48
   7  -6   0 1494.91   28.09
  -7   6   0 1559.91   27.37
   6  -6   0 1215.42   23.14
  -6   6   0 1179.21   21.84
   5  -6   0  327.83    9.28
  -5   6   0  310.31    8.20
  -5   6   0  295.62    5.97
   4  -6   0   17.43    2.72
  -4   6   0   20.01    2.34
   3  -6   0  370.33    9.70
  -3   6   0  368.87    8.35
   2  -6   0   29.21    3.01
  -2   6   0   33.02    2.58
   1  -6   0  634.07   13.35
   1  -6   0  622.33   11.63
   0  -6   0 1687.79   28.56
   0  -6   0 1680.51   27.52
  -1  -6   0  623.21   12.53
  -1  -6   0  604.82   12.70
  -2  -6   0   63.77    3.72
  -2  -6   0   73.65    4.05
  -3  -6   0   88.28    4.77
  -3  -6   0   90.06    4.36
  -4  -6   0   58.91    3.70
  -4  -6   0   50.18    4.37
  -5  -6   0  142.77    6.99
  -5  -6   0  158.35    5.67
  -6  -6   0  333.22   11.04
  -6  -6   0  306.27    8.14
  -7  -6   0  386.41   12.76
  -8  -6   0   46.10    5.78
  -9  -6   0  264.45   11.88
 -10  -6   0  425.43   15.70
 -11  -6   0  582.10   19.38
 -12  -6   0  198.24   12.68
 -13  -6   0   46.83    8.63
 -14   7   0  196.81   11.27
 -13   7   0   98.39    8.07
 -12   7   0   -1.41    3.84
 -11   7   0    0.44    3.15
 -10   7   0    2.24    3.04
   9  -7   0   53.05    5.29
  -9   7   0   49.35    4.91
   8  -7   0  116.94    6.47
  -8   7   0  117.84    6.48
   7  -7   0  542.80   14.05
  -7   7   0  503.26   12.60
   6  -7   0  522.46   13.48
  -6   7   0  491.81   11.91
   5  -7   0  419.22   11.44
  -5   7   0  390.07    9.87
   4  -7   0  259.83    8.56
  -4   7   0  268.52    7.41
   3  -7   0  314.92    9.37
  -3   7   0  315.15    7.91
   2  -7   0  252.21    5.69
   2  -7   0  252.72    8.08
  -2   7   0  265.09    6.88
   1  -7   0  116.47    4.24
   1  -7   0  116.49    5.40
   0  -7   0   84.54    4.19
   0  -7   0   88.56    4.77
  -1  -7   0  160.67    6.03
  -1  -7   0  155.46    5.78
  -2  -7   0   51.58    3.84
  -2  -7   0   62.01    4.37
  -3  -7   0 1598.53   28.48
  -3  -7   0 1538.42   27.13
  -4  -7   0 1996.76   35.09
  -4  -7   0 1963.13   33.07
  -5  -7   0 1487.46   28.66
  -5  -7   0 1451.82   25.73
  -6  -7   0  210.51    7.29
  -6  -7   0  216.44    9.40
  -7  -7   0   20.19    4.73
  -8  -7   0   26.89    5.57
  -9  -7   0  106.86    9.18
 -10  -7   0  814.53   22.96
 -11  -7   0  838.89   24.43
 -12  -7   0  390.91   17.36
 -13  -7   0   50.04    8.90
 -13   8   0   23.79    5.69
 -12   8   0  128.00    8.39
 -11   8   0  286.04   11.04
  10  -8   0  451.13   16.95
 -10   8   0  536.80   14.59
   9  -8   0   54.60    5.77
  -9   8   0   44.23    4.87
   8  -8   0    8.03    3.36
  -8   8   0    7.70    2.98
   7  -8   0   53.74    5.42
  -7   8   0   33.05    3.83
   6  -8   0   81.49    5.82
  -6   8   0   95.80    5.39
   5  -8   0  446.04   12.71
  -5   8   0  470.55   11.16
   4  -8   0 1430.36   27.39
  -4   8   0 1434.64   25.03
   3  -8   0 3008.03   50.12
  -3   8   0 3041.82   47.45
   2  -8   0 1494.24   24.56
   2  -8   0 1550.52   28.31
  -2   8   0 1548.28   25.94
   1  -8   0  341.01    8.31
   1  -8   0  335.60    9.96
   0  -8   0   15.33    2.96
   0  -8   0   12.91    2.47
  -1  -8   0  181.78    6.69
  -1  -8   0  182.13    6.98
  -2  -8   0  615.82   13.89
  -2  -8   0  588.35   13.87
  -3  -8   0 1519.95   27.45
  -3  -8   0 1568.32   28.72
  -4  -8   0 2500.11   43.12
  -4  -8   0 2459.31   40.90
  -5  -8   0 1932.61   36.03
  -5  -8   0 1945.18   33.22
  -6  -8   0  487.28   14.74
  -7  -8   0   -2.19    3.69
  -8  -8   0    0.46    4.62
  -9  -8   0  185.23   11.16
 -10  -8   0  364.08   15.64
 -11  -8   0  261.18   15.00
 -12  -8   0   93.71   10.57
 -13   9   0    1.48    4.11
 -12   9   0  207.91   10.21
 -11   9   0  614.20   16.93
  10  -9   0  865.78   21.59
 -10   9   0  884.70   20.43
   9  -9   0  285.16   11.32
  -9   9   0  300.00   10.62
   8  -9   0   30.46    5.05
  -8   9   0   36.57    4.32
   7  -9   0   38.14    5.03
  -7   9   0   41.88    4.42
   6  -9   0  245.53    9.88
  -6   9   0  251.88    8.44
   5  -9   0  616.95   16.22
  -5   9   0  664.93   14.38
   4  -9   0  637.79   16.11
  -4   9   0  643.65   13.91
   3  -9   0  789.86   18.13
  -3   9   0  768.96   15.68
   2  -9   0 1114.48   22.85
   1  -9   0 1127.44   20.70
   1  -9   0 1133.32   22.82
   0  -9   0 1068.61   20.45
   0  -9   0 1074.55   21.87
  -1  -9   0  627.95   14.42
  -1  -9   0  636.72   15.16
  -2  -9   0  645.61   15.13
  -2  -9   0  623.65   14.88
  -3  -9   0  298.34    9.70
  -3  -9   0  314.13   10.40
  -4  -9   0  362.60   10.50
  -4  -9   0  353.20   11.83
  -5  -9   0  662.10   17.27
  -5  -9   0  628.87   14.82
  -6  -9   0  791.02   20.29
  -7  -9   0  801.18   21.29
  -8  -9   0  634.59   19.72
  -9  -9   0  350.47   15.08
 -10  -9   0    6.08    5.85
 -11  -9   0   -0.12    5.76
 -12  -9   0    5.87    6.45
 -13  10   0   41.77    6.67
 -12  10   0  100.17    8.52
 -11  10   0  256.58   10.76
  10 -10   0  340.73   13.18
 -10  10   0  337.89   12.13
   9 -10   0  282.89   12.20
  -9  10   0  281.49   10.53
   8 -10   0  363.36   13.20
  -8  10   0  358.70   11.20
   7 -10   0  575.30   16.73
  -7  10   0  591.17   14.55
   6 -10   0  519.28   15.37
  -6  10   0  513.20   12.96
   5 -10   0  567.24   15.81
  -5  10   0  557.08   13.34
   4 -10   0  118.70    7.15
  -4  10   0  105.64    5.65
   3 -10   0   25.71    4.28
  -3  10   0   30.69    3.55
   2 -10   0  455.82   13.24
   1 -10   0 1041.52   22.21
   0 -10   0 2644.25   45.96
   0 -10   0 2736.56   46.68
  -1 -10   0 1431.67   27.67
  -1 -10   0 1431.49   26.94
  -2 -10   0  466.90   12.82
  -2 -10   0  448.88   12.57
  -3 -10   0    5.34    3.56
  -3 -10   0    6.40    3.07
  -4 -10   0    1.89    3.55
  -4 -10   0   -1.71    2.95
  -5 -10   0  341.57   10.73
  -5 -10   0  322.44   12.42
  -6 -10   0  682.02   19.04
  -7 -10   0  932.10   24.23
  -8 -10   0 1275.49   30.61
  -9 -10   0  331.59   15.24
 -10 -10   0   88.41   10.46
 -11 -10   0   14.69    7.54
 -12  11   0   40.10    6.49
 -11  11   0   38.41    5.63
  10 -11   0   11.85    4.97
 -10  11   0    9.33    4.37
   9 -11   0   28.17    5.70
  -9  11   0   18.18    4.44
   8 -11   0  207.98   10.97
  -8  11   0  227.99    9.34
   7 -11   0  626.76   18.30
  -7  11   0  646.24   15.70
   6 -11   0 1462.76   30.88
  -6  11   0 1419.89   26.98
   5 -11   0 1248.90   27.20
  -5  11   0 1211.76   23.63
   4 -11   0    3.66    3.40
  -4  11   0    1.14    2.63
   3 -11   0    8.96    3.63
   2 -11   0   22.75    4.38
   1 -11   0  718.71   17.93
   0 -11   0  728.15   17.87
  -1 -11   0 1837.00   34.45
  -2 -11   0 1192.01   24.78
  -2 -11   0 1225.34   25.16
  -3 -11   0  415.75   13.20
  -3 -11   0  419.15   12.58
  -4 -11   0   -0.09    3.10
  -4 -11   0    3.40    3.60
  -5 -11   0   88.95    7.56
  -5 -11   0   79.72    7.41
  -6 -11   0   23.28    5.76
  -7 -11   0   34.02    6.30
  -8 -11   0   76.86    9.17
  -9 -11   0  410.11   17.22
 -10 -11   0  283.97   15.44
  10 -12   0    2.26    4.47
 -10  12   0    2.24    4.05
   9 -12   0   25.59    5.48
  -9  12   0   27.15    4.98
   8 -12   0  196.72   10.78
  -8  12   0  177.06    8.73
   7 -12   0  277.48   12.40
  -7  12   0  297.09   10.46
   6 -12   0  341.66   13.78
  -6  12   0  359.29   11.18
   5 -12   0  705.24   19.64
  -5  12   0  685.79   16.20
   4 -12   0   11.35    4.18
   3 -12   0   19.49    4.70
   2 -12   0  644.90   17.60
   1 -12   0  570.13   16.39
   0 -12   0  336.45   11.98
  -1 -12   0    9.39    3.68
  -2 -12   0   32.77    5.12
  -3 -12   0  104.77    7.68
  -3 -12   0   97.84    6.91
  -4 -12   0  279.39   10.75
  -4 -12   0  252.72   11.07
  -5 -12   0  827.12   21.99
  -6 -12   0  271.24   12.73
  -7 -12   0    2.58    5.00
  -8 -12   0   33.50    7.12
  -9 -12   0    2.70    6.22
 -10 -12   0   81.92   10.46
  10 -13   0   13.55    5.43
   9 -13   0   86.64    9.29
   8 -13   0   82.74    8.50
   7 -13   0   48.31    6.87
  -7  13   0   65.63    5.96
   6 -13   0   -1.32    3.78
  -6  13   0    4.93    3.10
   5 -13   0  175.85   10.57
   4 -13   0   43.52    6.10
   3 -13   0  344.43   13.16
   2 -13   0  226.42   10.65
   1 -13   0  115.44    8.68
   0 -13   0   12.00    4.16
  -1 -13   0   88.58    7.66
  -2 -13   0   -1.08    3.47
  -3 -13   0  266.35   10.88
  -4 -13   0  528.86   15.67
  -4 -13   0  509.40   16.45
  -5 -13   0  844.75   22.93
  -6 -13   0   29.42    6.81
  -7 -13   0    1.81    5.93
  -8 -13   0   -1.64    5.41
  -9 -13   0   15.56    7.08
   9 -14   0  119.89   10.99
   8 -14   0    5.75    5.42
   7 -14   0   18.25    5.81
   6 -14   0   23.66    5.68
   5 -14   0  106.44    9.52
   4 -14   0  145.18    9.65
   3 -14   0  538.12   17.67
   2 -14   0  162.16    9.76
   1 -14   0   20.41    5.28
   0 -14   0    1.90    4.33
  -1 -14   0    5.63    4.07
  -2 -14   0    4.43    3.98
  -3 -14   0  279.53   11.75
  -4 -14   0  257.30   13.90
  -6 -14   0   14.91    6.26
  -7 -14   0   88.49    9.71
  -8 -14   0  107.86   11.64
   7 -15   0    0.66    4.70
   6 -15   0   17.61    5.84
   5 -15   0  136.01   10.84
   4 -15   0   47.51    7.07
   3 -15   0  109.68    9.33
   2 -15   0   30.19    5.95
   1 -15   0   59.69    7.11
   0 -15   0  732.62   20.72
  -1 -15   0  327.12   13.92
  -2 -15   0  160.54   10.36
  -3 -15   0   11.20    5.12
   5 -16   0   57.28    8.07
   4 -16   0   26.37    6.05
   3 -16   0   74.23    8.54
   2 -16   0   14.88    5.42
   1 -16   0  211.19   11.78
   0 -16   0  984.06   25.54
  -1 -16   0  581.37   18.68
  -2 -16   0  209.79   11.45
  -3 -16   0   34.51    6.43
   1 -17   0  129.27   12.21
   0 -17   0  155.67   12.02
  -1 -17   0   20.24    6.12
  -2 -17   0   36.65    6.97
  -2 -17   1    9.94    5.66
  -1 -17   1   15.67    5.75
   0 -17   1  182.64   13.46
  -3 -16   1  161.95   11.08
  -2 -16   1   10.56    5.49
  -1 -16   1  301.60   14.14
   0 -16   1  861.73   23.83
   1 -16   1  262.79   12.96
   2 -16   1   12.56    5.44
   3 -16   1   68.12    8.16
   4 -16   1   71.68    8.57
   5 -16   1   13.38    6.54
  -4 -15   1   52.52    6.70
  -3 -15   1   33.26    6.26
  -2 -15   1   11.38    5.16
  -1 -15   1  100.37    8.71
   0 -15   1  183.31   11.23
   1 -15   1   18.52    5.65
   2 -15   1    8.54    4.81
   3 -15   1   61.52    7.46
   4 -15   1   99.00    9.23
   5 -15   1  136.70   10.24
   6 -15   1   13.20    5.40
   7 -15   1   21.49    6.08
  -8 -14   1   32.59    8.37
  -7 -14   1   17.04    6.28
  -4 -14   1   64.93    7.15
  -3 -14   1  229.11   11.38
  -2 -14   1   80.04    7.77
  -1 -14   1   28.79    5.39
   0 -14   1   81.99    7.75
   1 -14   1   11.54    4.65
   2 -14   1  135.06   10.05
   3 -14   1  570.82   17.99
   4 -14   1  376.07   15.05
   5 -14   1  283.56   13.10
  -6  14  -1    4.75    3.93
   6 -14   1    6.40    4.98
  -7  14  -1  165.57    9.12
   7 -14   1  151.57   11.20
  -8  14  -1   49.00    5.97
   8 -14   1   61.09    8.41
   9 -14   1   20.47    6.22
  -9 -13   1    6.81    6.85
  -8 -13   1  140.21   11.98
  -7 -13   1  208.76   12.28
  -6 -13   1   54.27    7.39
  -5 -13   1  382.98   15.62
  -5 -13   1  339.35   14.02
  -4 -13   1  449.84   14.83
  -3 -13   1  711.11   18.91
  -2 -13   1  289.04   11.99
  -1 -13   1    9.51    4.19
   0 -13   1    5.15    3.89
   1 -13   1   20.88    4.85
   2 -13   1  100.50    8.48
   3 -13   1  162.89   10.04
   4 -13   1   26.87    5.47
  -5  13  -1  440.75   13.08
   5 -13   1  443.33   15.92
  -6  13  -1  144.15    8.06
   6 -13   1  144.95   10.21
  -7  13  -1   57.15    5.95
   7 -13   1   59.53    7.72
  -8  13  -1   99.16    7.72
   8 -13   1   76.79    8.37
  -9  13  -1   84.54    7.46
   9 -13   1   76.67    9.14
 -10  13  -1    5.62    4.68
  10 -13   1    6.92    5.28
 -10 -12   1   60.82    9.29
  -9 -12   1    9.20    6.76
  -8 -12   1   -2.03    5.08
  -7 -12   1   21.57    6.37
  -6 -12   1   35.39    6.17
  -5 -12   1  645.82   17.42
  -5 -12   1  660.29   18.80
  -4 -12   1   59.43    6.62
  -4 -12   1   54.99    5.91
  -3 -12   1   26.25    4.68
  -2 -12   1   58.70    6.33
  -1 -12   1   86.32    7.09
   0 -12   1  412.30   13.44
   1 -12   1  355.50   12.50
   2 -12   1  367.14   13.22
   3 -12   1   26.54    4.92
  -4  12  -1  110.50    6.70
   4 -12   1  120.46    8.59
  -5  12  -1  348.47   10.77
   5 -12   1  302.45   12.87
  -6  12  -1  319.44   10.68
   6 -12   1  335.68   13.28
  -7  12  -1  486.72   13.68
   7 -12   1  455.15   16.07
  -8  12  -1  346.22   12.14
   8 -12   1  345.82   14.14
  -9  12  -1   56.58    6.12
   9 -12   1   66.20    7.74
 -10  12  -1    3.94    3.86
  10 -12   1    5.88    4.51
 -11  12  -1   22.96    5.45
 -11 -11   1   62.16    9.52
 -10 -11   1  115.58   11.18
  -9 -11   1  234.86   13.30
  -8 -11   1   90.99    9.10
  -7 -11   1   22.16    5.86
  -6 -11   1   -2.94    4.36
  -5 -11   1  365.62   13.28
  -5 -11   1  349.67   11.80
  -4 -11   1    2.12    3.72
  -4 -11   1    3.55    3.18
  -3 -11   1   13.09    3.86
  -3 -11   1    9.03    3.93
  -2 -11   1  104.05    6.98
  -2 -11   1  108.20    6.78
  -1 -11   1  463.34   13.77
   0 -11   1  297.86   10.97
   1 -11   1  181.15    8.78
   2 -11   1   24.09    4.68
   3 -11   1   45.84    5.49
  -4  11  -1    2.86    2.68
   4 -11   1   -1.54    3.05
  -5  11  -1  468.33   12.60
   5 -11   1  460.27   14.73
  -6  11  -1  274.05    9.46
   6 -11   1  259.81   11.29
  -7  11  -1  459.15   13.18
   7 -11   1  502.74   16.04
  -8  11  -1  390.21   12.52
   8 -11   1  382.28   14.24
  -9  11  -1  165.23    8.54
   9 -11   1  164.39   10.28
 -10  11  -1  209.80   10.39
  10 -11   1  205.96   18.02
 -11  11  -1  158.22    9.76
 -12  11  -1  212.30   11.39
 -11 -10   1  239.60   14.60
 -10 -10   1   49.28    8.19
  -9 -10   1   41.08    7.29
  -8 -10   1  469.16   16.69
  -7 -10   1  532.82   17.00
  -6 -10   1  220.37   10.91
  -5 -10   1  209.94    8.71
  -5 -10   1  201.56    9.88
  -4 -10   1  418.50   12.02
  -4 -10   1  375.66   12.23
  -3 -10   1  254.81    9.54
  -3 -10   1  262.59    9.76
  -2 -10   1    5.02    3.07
  -2 -10   1    1.16    2.64
  -1 -10   1  456.72   13.03
  -1 -10   1  451.27   11.68
   0 -10   1 1507.17   29.22
   1 -10   1 1199.99   24.81
   2 -10   1  242.06    9.50
  -3  10  -1   30.26    3.87
   3 -10   1   33.66    4.75
  -4  10  -1   53.20    4.69
   4 -10   1   50.82    5.53
  -5  10  -1  304.97    9.45
   5 -10   1  302.96   11.28
  -6  10  -1  159.37    7.14
   6 -10   1  159.39    8.55
  -7  10  -1  218.03    8.81
   7 -10   1  208.02    9.89
  -8  10  -1  254.13    9.98
   8 -10   1  254.39   11.33
  -9  10  -1  271.05   10.39
   9 -10   1  265.79   11.87
 -10  10  -1  413.07   13.77
 -11  10  -1  413.14   14.31
 -12  10  -1   61.39    6.95
 -12  -9   1    2.31    6.35
 -11  -9   1  132.46   11.64
 -10  -9   1   96.79    9.73
  -9  -9   1    3.57    4.87
  -8  -9   1   10.79    4.98
  -7  -9   1   71.42    7.55
  -6  -9   1  173.80    9.54
  -6  -9   1  179.22    7.77
  -5  -9   1  283.00   10.61
  -5  -9   1  296.21    9.80
  -4  -9   1   16.94    3.69
  -4  -9   1   15.70    3.95
  -3  -9   1   35.84    4.20
  -3  -9   1   36.21    4.46
  -2  -9   1  158.38    6.70
  -2  -9   1  154.96    7.04
  -1  -9   1   48.31    4.12
  -1  -9   1   55.62    4.96
   0  -9   1  327.33    8.83
   0  -9   1  335.99   10.72
   1  -9   1    3.14    2.73
  -2   9  -1  316.66    8.82
   2  -9   1  332.50   10.58
  -3   9  -1  415.47   10.48
   3  -9   1  414.74   12.26
  -4   9  -1  810.87   16.78
   4  -9   1  823.74   19.10
  -5   9  -1  753.98   16.25
   5  -9   1  732.67   18.20
  -6   9  -1  163.73    6.94
   6  -9   1  167.68    8.27
  -7   9  -1    1.86    2.70
   7  -9   1    4.21    2.99
  -8   9  -1  147.86    7.41
   8  -9   1  162.11    8.75
  -9   9  -1    8.38    3.56
   9  -9   1    6.35    3.53
 -10   9  -1  648.04   17.47
 -11   9  -1  588.50   16.89
 -12   9  -1  475.67   15.89
 -13   9  -1   14.63    5.07
 -13  -8   1   13.87    7.33
 -12  -8   1   17.69    6.86
 -11  -8   1   61.43    9.04
 -10  -8   1  126.61   10.45
  -9  -8   1    9.22    4.99
  -8  -8   1  138.67    9.10
  -7  -8   1  130.63    8.40
  -6  -8   1  242.24    8.33
  -6  -8   1  239.12   10.05
  -5  -8   1  141.90    6.65
  -5  -8   1  153.71    7.66
  -4  -8   1  873.81   18.21
  -4  -8   1  874.96   18.99
  -3  -8   1  910.79   18.92
  -3  -8   1  929.88   18.88
  -2  -8   1   43.41    4.10
  -2  -8   1   41.13    3.82
  -1  -8   1   54.41    3.94
  -1  -8   1   55.01    4.63
   0  -8   1   14.09    2.84
   0  -8   1   15.29    2.30
   1  -8   1    2.91    2.53
   1  -8   1    8.63    1.78
  -2   8  -1  103.73    4.93
   2  -8   1  104.74    5.85
  -3   8  -1 1505.54   26.03
   3  -8   1 1472.82   27.99
  -4   8  -1 1264.72   23.39
   4  -8   1 1336.29   25.77
  -5   8  -1 1246.18   23.32
   5  -8   1 1268.08   25.27
  -6   8  -1   91.61    5.29
   6  -8   1   78.17    5.74
  -7   8  -1   -1.47    2.38
   7  -8   1    5.10    2.83
  -8   8  -1    8.02    3.45
   8  -8   1   11.58    3.53
  -9   8  -1    3.31    3.51
   9  -8   1    8.10    3.45
 -10   8  -1  378.25   12.70
 -11   8  -1  277.41   11.12
 -12   8  -1   28.43    5.30
 -13   8  -1   43.90    6.56
 -13  -7   1  117.28   11.53
 -12  -7   1   -5.92    5.24
 -11  -7   1  132.89   10.88
 -10  -7   1  729.29   21.28
  -9  -7   1   10.08    4.60
  -8  -7   1    1.46    3.80
  -7  -7   1  329.87   11.89
  -6  -7   1  192.78    8.70
  -6  -7   1  197.39    7.25
  -5  -7   1   20.10    3.05
  -5  -7   1   23.29    3.87
  -4  -7   1  421.48   10.63
  -4  -7   1  432.34   11.69
  -3  -7   1 1003.09   19.72
  -3  -7   1 1026.40   19.53
  -2  -7   1  110.64    5.03
  -2  -7   1  119.99    5.64
  -1  -7   1   17.21    2.39
  -1  -7   1   19.38    2.87
   0  -7   1  529.94   12.46
   0  -7   1  528.77   10.72
   1  -7   1   30.19    2.30
   1  -7   1   28.84    3.32
  -2   7  -1  123.77    4.75
   2  -7   1  119.84    5.72
  -3   7  -1   35.77    3.24
   3  -7   1   25.63    3.50
  -4   7  -1  251.87    7.56
   4  -7   1  266.97    8.71
  -5   7  -1  191.02    6.71
   5  -7   1  198.35    7.64
  -6   7  -1  347.95    9.92
   6  -7   1  356.96   10.72
  -7   7  -1  485.40   12.48
   7  -7   1  500.34   13.42
  -8   7  -1  395.47   11.71
   8  -7   1  405.25   12.08
  -9   7  -1  180.44    8.21
   9  -7   1  204.16    8.53
 -10   7  -1   28.17    4.85
 -11   7  -1   37.16    5.35
 -12   7  -1   14.87    4.58
 -13   7  -1   14.06    4.84
 -13  -6   1   28.16    7.48
 -12  -6   1   13.91    6.46
 -11  -6   1   17.92    6.28
 -10  -6   1   12.91    5.50
  -9  -6   1   28.83    5.42
  -8  -6   1   -1.19    3.36
  -7  -6   1   51.94    5.53
  -7  -6   1   55.48    5.06
  -6  -6   1   90.42    4.67
  -6  -6   1   74.80    5.81
  -5  -6   1  233.62    7.30
  -5  -6   1  255.65    8.91
  -4  -6   1  157.29    5.81
  -4  -6   1  150.35    6.23
  -3  -6   1    8.68    2.10
  -3  -6   1    8.46    2.18
  -2  -6   1  101.54    4.62
  -2  -6   1   99.40    4.42
  -1  -6   1  289.52    7.13
  -1  -6   1  297.93    8.07
   0  -6   1 1877.68   31.52
   0  -6   1 1877.92   29.49
  -1   6  -1  815.04   14.92
   1  -6   1  810.81   16.17
  -2   6  -1  163.66    5.13
   2  -6   1  150.89    5.94
  -3   6  -1  178.94    5.72
   3  -6   1  184.33    6.56
  -4   6  -1  432.49    9.84
   4  -6   1  406.19   10.67
  -5   6  -1   45.64    3.76
   5  -6   1   47.39    4.21
  -6   6  -1  255.23    7.97
   6  -6   1  269.03    8.58
  -7   6  -1  400.63   10.97
   7  -6   1  392.69   11.05
  -8   6  -1  593.24   14.62
   8  -6   1  612.54   14.69
  -9   6  -1  242.16    9.33
 -10   6  -1   33.94    4.82
 -11   6  -1   25.29    4.96
 -12   6  -1   20.90    5.17
 -13   6  -1   12.72    5.03
 -14   6  -1  149.04    9.91
 -14  -5   1   -2.18    6.53
 -13  -5   1    0.76    5.37
 -12  -5   1   11.25    6.26
 -11  -5   1   91.97    8.85
 -10  -5   1   68.85    7.35
  -9  -5   1    1.73    3.77
  -8  -5   1  239.75   10.03
  -7  -5   1  450.68   13.15
  -7  -5   1  474.11   10.53
  -6  -5   1  821.68   18.25
  -6  -5   1  839.49   15.78
  -5  -5   1  260.60    7.15
  -5  -5   1  258.85    8.46
  -4  -5   1   46.16    3.76
  -4  -5   1   43.50    3.18
  -3  -5   1  696.57   13.51
  -3  -5   1  702.78   14.08
  -2  -5   1  276.54    6.93
  -2  -5   1  265.89    7.05
  -1  -5   1  239.83    6.58
  -1  -5   1  235.33    5.83
   0  -5   1  789.60   15.25
   0  -5   1  818.73   13.61
  -1   5  -1 1414.28   22.98
   1  -5   1 1396.78   24.07
  -2   5  -1  489.11    9.94
   2  -5   1  494.29   10.98
  -3   5  -1   23.29    2.30
   3  -5   1   19.63    2.47
  -4   5  -1  121.43    4.62
   4  -5   1  124.05    5.20
  -5   5  -1   73.49    2.66
  -5   5  -1   76.07    4.24
   5  -5   1   78.40    4.21
  -6   5  -1  304.11    8.49
  -6   5  -1  304.46    6.84
   6  -5   1  306.96    8.74
  -7   5  -1   10.17    2.70
   7  -5   1   14.45    2.68
  -8   5  -1   26.80    3.70
   8  -5   1   29.19    3.44
  -9   5  -1   45.28    4.75
 -10   5  -1  226.89    9.22
 -11   5  -1  133.91    7.86
 -12   5  -1   80.39    7.23
 -13   5  -1   10.39    4.39
 -14   5  -1   10.01    5.23
 -14  -4   1  149.56   12.44
 -13  -4   1  193.58   12.35
 -12  -4   1   18.66    6.50
 -11  -4   1   63.49    7.33
 -10  -4   1   96.22    8.33
  -9  -4   1   26.36    4.83
  -8  -4   1   43.17    5.09
  -7  -4   1  163.69    7.54
  -7  -4   1  164.76    5.48
  -6  -4   1  715.08   13.58
  -6  -4   1  728.02   16.23
  -5  -4   1  126.30    5.65
  -5  -4   1  132.18    4.47
  -4  -4   1  307.69    8.42
  -4  -4   1  303.75    7.15
  -3  -4   1  760.67   13.64
  -3  -4   1  722.03   14.22
  -2  -4   1    0.54    1.11
  -2  -4   1    1.82    1.30
  -1  -4   1  570.42   11.04
  -1  -4   1  559.68   10.25
   0  -4   1   74.02    3.43
  -1   4  -1  199.58    5.01
   1  -4   1  189.79    5.55
  -2   4  -1  220.51    5.51
   2  -4   1  214.69    6.04
  -3   4  -1    4.74    1.38
   3  -4   1    3.15    1.37
  -4   4  -1  669.84   12.97
   4  -4   1  670.72   13.26
  -5   4  -1  883.04   16.57
  -5   4  -1  870.03   14.82
   5  -4   1  883.71   16.61
  -6   4  -1  320.92    7.40
  -6   4  -1  318.40    8.63
   6  -4   1  304.40    8.17
  -7   4  -1   22.61    2.62
  -7   4  -1   20.52    3.06
   7  -4   1   14.07    2.45
  -8   4  -1  251.30    8.66
  -8   4  -1  276.10    7.98
   8  -4   1  267.98    7.91
  -9   4  -1   40.68    4.51
 -10   4  -1  139.22    7.52
 -11   4  -1  835.36   20.08
 -12   4  -1  522.88   15.73
 -13   4  -1   28.32    5.40
 -14   4  -1    0.20    4.28
 -14  -3   1  108.02   10.52
 -13  -3   1  125.18   10.82
 -12  -3   1   62.74    8.16
 -11  -3   1    2.97    4.23
 -10  -3   1   -2.26    3.46
  -9  -3   1  100.64    7.54
  -8  -3   1   30.83    4.35
  -7  -3   1    1.39    2.70
  -7  -3   1   -1.04    1.46
  -6  -3   1   20.86    2.11
  -6  -3   1   20.53    3.14
  -5  -3   1  269.73    7.96
  -5  -3   1  266.79    6.28
  -4  -3   1  523.43   11.24
  -4  -3   1  508.48    9.80
  -3  -3   1  153.03    4.81
  -2  -3   1  856.78   14.65
  -2  -3   1  877.35   14.94
  -1  -3   1   11.37    1.28
  -1  -3   1    9.54    1.46
   0   3  -1   20.60    1.55
   0  -3   1   20.41    1.85
  -1   3  -1  240.76    5.25
   1  -3   1  232.06    5.69
  -2   3  -1  378.70    7.63
   2  -3   1  387.48    8.08
  -3   3  -1   70.70    2.93
   3  -3   1   72.76    3.16
  -4   3  -1 2627.07   39.42
  -4   3  -1 2618.72   40.79
   4  -3   1 2641.38   40.67
  -5   3  -1 1628.32   27.05
  -5   3  -1 1633.33   25.81
   5  -3   1 1576.27   26.34
  -6   3  -1  264.04    7.67
  -6   3  -1  255.92    6.74
   6  -3   1  249.72    6.74
  -7   3  -1   32.93    3.12
  -7   3  -1   30.36    3.34
   7  -3   1   29.25    2.68
  -8   3  -1   11.80    2.76
  -8   3  -1    8.98    2.78
  -9   3  -1   50.30    4.67
  -9   3  -1   60.21    5.18
 -10   3  -1  319.19   10.82
 -10   3  -1  312.18   10.82
 -11   3  -1  637.54   16.88
 -12   3  -1  187.25    9.51
 -13   3  -1   54.90    6.59
 -14   3  -1  118.82    9.41
 -15  -2   1   -2.90    5.70
 -14  -2   1  162.70   11.65
 -13  -2   1  105.05    9.64
 -12  -2   1    7.00    4.70
 -11  -2   1  373.67   13.58
 -10  -2   1  702.81   18.33
  -9  -2   1  400.41   12.50
  -8  -2   1   31.06    4.21
  -8  -2   1   35.83    4.17
  -7  -2   1  405.63    8.50
  -7  -2   1  391.84   11.03
  -6  -2   1 1149.03   21.75
  -6  -2   1 1151.76   19.04
  -5  -2   1    5.72    1.90
  -5  -2   1    2.73    1.14
  -4  -2   1 2065.02   31.65
  -4  -2   1 2083.93   33.39
  -3  -2   1 7231.86  106.05
  -3  -2   1 7429.35  107.31
  -2  -2   1 1353.25   20.91
  -2  -2   1 1336.42   21.32
  -1  -2   1   22.06    1.49
   0   2  -1  518.07    8.74
   0  -2   1  513.05    9.00
  -1   2  -1    3.17    0.75
   1  -2   1    3.80    0.88
  -2   2  -1   27.72    1.80
   2  -2   1   26.39    1.87
  -3   2  -1 1457.08   23.45
  -3   2  -1 1487.63   22.77
   3  -2   1 1459.61   23.08
  -4   2  -1 1321.96   21.77
  -4   2  -1 1305.89   21.03
   4  -2   1 1281.91   20.93
  -5   2  -1  398.17    9.24
  -5   2  -1  420.35    8.84
   5  -2   1  396.92    8.23
  -6   2  -1   19.51    2.58
  -6   2  -1   20.90    2.50
   6  -2   1   24.71    2.11
  -7   2  -1  228.11    7.33
  -7   2  -1  240.47    7.62
   7  -2   1  230.40    6.02
  -8   2  -1  338.21   10.05
  -8   2  -1  367.22   10.21
  -9   2  -1  285.40    9.70
  -9   2  -1  300.18    9.86
 -10   2  -1  641.57   16.37
 -10   2  -1  666.45   16.60
 -11   2  -1   87.58    7.17
 -11   2  -1   97.72    7.28
 -12   2  -1    3.64    3.77
 -13   2  -1    3.42    3.87
 -14   2  -1  299.88   13.51
 -15  -1   1   25.85    6.96
 -14  -1   1  179.50   12.41
 -13  -1   1  292.06   13.84
 -12  -1   1   -3.36    4.39
 -11  -1   1  253.29   10.93
 -10  -1   1  587.51   16.07
  -9  -1   1    4.93    3.38
  -8  -1   1   52.21    3.12
  -8  -1   1   46.64    4.51
  -7  -1   1   10.39    2.61
  -7  -1   1    9.64    1.71
  -6  -1   1   50.16    3.72
  -6  -1   1   54.15    2.69
  -5  -1   1  133.98    3.85
  -5  -1   1  148.83    5.19
  -4  -1   1 2523.61   37.29
  -4  -1   1 2443.79   38.72
  -3  -1   1 3136.34   45.84
  -3  -1   1 3079.25   46.82
  -2  -1   1  168.32    3.92
  -2  -1   1  163.01    3.56
  -1  -1   1    8.25    0.73
   1  -1   1 1598.11   23.81
  -2   1  -1  343.65    6.56
   2  -1   1  345.09    6.09
  -3   1  -1  294.47    6.25
   3  -1   1  299.31    5.61
  -4   1  -1  280.99    6.57
   4  -1   1  274.97    5.53
  -5   1  -1    5.14    1.58
   5  -1   1    7.14    1.13
  -6   1  -1   54.99    3.58
   6  -1   1   56.06    2.51
  -7   1  -1 1353.07   24.90
   7  -1   1 1383.25   22.05
  -8   1  -1 1315.80   25.08
  -9   1  -1  408.43   12.17
 -10   1  -1   97.17    7.09
 -11   1  -1   15.76    4.22
 -12   1  -1   24.33    5.56
 -12   1  -1   30.31    5.12
 -13   1  -1   42.88    6.45
 -14   1  -1  366.80   14.81
 -15   0   1    5.72    6.16
 -13   0   1    8.85    5.27
 -12   0   1    8.45    4.35
 -11   0   1  123.66    8.31
 -10   0   1    3.64    3.16
  -9   0   1  317.86   10.67
  -8   0   1  155.08    7.01
  -8   0   1  149.06    4.93
  -7   0   1 2719.85   42.33
  -7   0   1 2807.37   45.12
  -6   0   1 1944.72   30.21
  -6   0   1 1917.47   32.19
  -5   0   1   58.94    3.21
  -5   0   1   54.07    2.51
   4   0  -1 2447.37   36.78
  -4   0   1 2433.92   37.76
   3   0  -1 3297.41   48.55
   2   0  -1  174.33    3.64
   1   0   1 1210.09   17.53
  -2   0  -1  414.07    7.52
   2   0   1  372.49    5.98
  -3   0  -1 1898.84   29.80
   3   0   1 1908.68   27.77
  -4   0  -1  369.62    8.23
   4   0   1  354.73    6.17
  -5   0  -1  222.80    6.57
   5   0   1  227.33    4.53
  -6   0  -1 2465.22   36.57
  -6   0  -1 2453.16   40.21
  -7   0  -1 2142.79   36.76
  -7   0  -1 2164.21   32.69
  -8   0  -1  770.13   17.34
  -9   0  -1  144.44    7.51
 -10   0  -1  104.49    7.19
 -11   0  -1  152.57    9.38
 -12   0  -1   37.57    5.99
 -13   0  -1  253.32   13.06
 -14   0  -1  158.79   10.15
 -14   0  -1  169.71   17.51
 -15   1   1   -1.58    4.75
 -14   1   1  212.50   13.99
 -13   1   1  285.40   12.91
 -12   1   1    3.82    3.87
 -11   1   1  123.25    7.98
 -10   1   1  110.93    7.06
  -9   1   1  421.22   12.07
   8  -1  -1    0.30    1.47
  -8   1   1   -0.47    1.98
   7  -1  -1  565.51   11.40
  -7   1   1  577.38   12.90
   6  -1  -1  918.11   16.16
  -6   1   1  917.10   17.17
   5  -1  -1  107.82    3.64
  -5   1   1  103.34    3.91
   4  -1  -1 1898.21   29.38
   3  -1  -1 2950.37   43.98
   2  -1  -1   26.75    1.47
  -1  -1  -1   16.77    0.72
  -1  -1  -1   18.13    1.74
  -2  -1  -1 3182.56   45.23
  -2  -1  -1 3052.20   46.80
  -3  -1  -1 3617.74   52.73
  -3  -1  -1 3653.02   54.98
  -4  -1  -1  905.05   13.48
  -4  -1  -1  891.95   16.62
  -5  -1  -1  429.61   10.41
  -5  -1  -1  456.42    7.35
  -6  -1  -1   56.47    1.98
  -6  -1  -1   59.03    4.22
  -7  -1  -1   50.18    4.57
  -8  -1  -1   49.11    5.19
  -9  -1  -1    1.17    3.21
 -10  -1  -1 1795.26   35.04
 -11  -1  -1  743.64   19.97
 -12  -1  -1 1227.58   28.83
 -13  -1  -1    1.32    4.80
 -14  -1  -1   14.11    6.65
 -15   2   1   -0.97    4.58
 -14   2   1   28.43    5.88
 -13   2   1   10.53    4.26
 -12   2   1    8.89    4.23
 -11   2   1   46.65    5.43
 -10   2   1    9.44    3.41
  -9   2   1   70.90    5.34
   8  -2  -1   17.87    2.55
  -8   2   1   18.69    2.78
   7  -2  -1  415.62    9.48
  -7   2   1  414.56   10.12
   6  -2  -1  242.35    6.45
  -6   2   1  244.25    6.71
   5  -2  -1   99.51    3.77
  -5   2   1   93.65    3.65
   4  -2  -1 2273.92   35.28
   3  -2  -1 3074.23   46.41
  -3   2   1 3091.60   45.72
   2  -2  -1 3279.11   48.80
   1  -2  -1 1259.69   19.71
   0  -2  -1   56.71    1.98
  -1  -2  -1  238.95    4.54
  -1  -2  -1  235.44    5.51
  -2  -2  -1 2538.50   39.14
  -2  -2  -1 2530.87   37.07
  -3  -2  -1 1571.02   23.49
  -3  -2  -1 1598.17   26.30
  -4  -2  -1 1766.04   30.23
  -4  -2  -1 1861.45   26.83
  -5  -2  -1 2108.63   35.55
  -5  -2  -1 2139.62   31.31
  -6  -2  -1  338.11    6.17
  -6  -2  -1  369.88   10.24
  -7  -2  -1  141.41    6.89
  -8  -2  -1   66.02    5.72
  -9  -2  -1    8.82    4.08
 -10  -2  -1   10.63    4.31
 -11  -2  -1  480.24   15.97
 -12  -2  -1   81.54    8.81
 -13  -2  -1  246.61   13.82
 -14  -2  -1   16.94    6.41
 -15   3   1    4.69    4.66
 -14   3   1   99.31    8.29
 -13   3   1  147.19    8.62
 -12   3   1   -0.10    3.60
 -11   3   1    5.48    3.14
 -11   3   1    4.80    3.45
 -10   3   1  672.75   16.31
 -10   3   1  713.56   16.55
   9  -3  -1   11.70    2.50
  -9   3   1    6.53    2.93
  -9   3   1    7.79    2.82
   8  -3  -1  138.67    5.53
  -8   3   1  150.98    6.16
  -8   3   1  144.34    6.00
   7  -3  -1  247.30    7.27
  -7   3   1  254.62    7.24
  -7   3   1  267.17    7.59
   6  -3  -1  420.77    9.73
  -6   3   1  429.36    9.71
  -6   3   1  432.96    9.39
   5  -3  -1   38.40    2.87
  -5   3   1   39.67    2.67
   4  -3  -1   83.88    3.68
  -4   3   1   92.35    3.29
   3  -3  -1 2622.82   40.58
  -3   3   1 2639.49   39.44
   2  -3  -1 3356.08   49.98
  -2   3   1 3271.00   48.60
   1  -3  -1  281.84    6.26
   0  -3  -1 3016.25   45.64
   0  -3  -1 3046.01   45.33
  -1  -3  -1 3774.41   56.17
  -1  -3  -1 3690.06   55.01
  -2  -3  -1 2240.70   35.62
  -2  -3  -1 2253.43   33.75
  -3  -3  -1   64.30    2.30
  -3  -3  -1   56.68    3.69
  -4  -3  -1  652.53   10.88
  -4  -3  -1  646.90   13.83
  -5  -3  -1 1154.95   17.81
  -5  -3  -1 1113.25   21.72
  -6  -3  -1   19.67    3.47
  -6  -3  -1   23.18    1.62
  -7  -3  -1    5.65    3.11
  -8  -3  -1  122.23    7.39
  -9  -3  -1   51.67    6.04
 -10  -3  -1  201.07   10.32
 -11  -3  -1   45.89    7.06
 -12  -3  -1   38.91    7.30
 -13  -3  -1    3.77    6.07
 -14  -3  -1   24.66    7.19
 -15   4   1    0.31    4.76
 -14   4   1  140.18    9.02
 -13   4   1   79.34    7.36
 -12   4   1   50.37    5.76
 -11   4   1  184.74    8.74
 -10   4   1    5.60    3.71
 -10   4   1    8.00    3.06
   9  -4  -1  656.16   14.84
  -9   4   1  699.03   15.11
  -9   4   1  687.14   15.57
   8  -4  -1    5.23    2.18
  -8   4   1    5.94    2.14
  -8   4   1    5.88    2.32
   7  -4  -1    2.96    1.97
  -7   4   1    1.93    1.53
  -7   4   1    1.85    1.99
   6  -4  -1  155.66    5.75
  -6   4   1  144.03    5.29
  -6   4   1  145.70    4.65
   5  -4  -1  186.39    6.15
  -5   4   1  178.80    5.34
   4  -4  -1   23.90    2.49
   3  -4  -1   78.67    3.65
  -3   4   1   81.66    2.98
   2  -4  -1   47.10    2.82
   2  -4  -1   52.20    2.10
  -2   4   1   51.89    2.21
   1  -4  -1 1691.85   26.13
   1  -4  -1 1646.86   26.92
   0  -4  -1  403.46    8.37
   0  -4  -1  392.75    8.46
  -1  -4  -1 1008.14   17.01
  -1  -4  -1 1004.30   17.83
  -2  -4  -1  110.36    4.65
  -2  -4  -1  110.40    3.63
  -3  -4  -1  405.36    8.00
  -3  -4  -1  398.11    9.96
  -4  -4  -1  183.88    6.72
  -4  -4  -1  189.40    4.77
  -5  -4  -1  100.70    5.56
  -5  -4  -1  102.84    3.42
  -6  -4  -1    8.73    1.93
  -6  -4  -1    3.18    2.86
  -7  -4  -1  242.57    9.59
  -8  -4  -1  675.72   17.72
  -9  -4  -1  617.83   17.58
 -10  -4  -1   42.60    6.32
 -11  -4  -1   78.26    8.40
 -12  -4  -1   93.02    9.41
 -13  -4  -1    3.24    5.63
 -14  -4  -1   52.55    8.89
 -14   5   1  196.59   10.35
 -13   5   1   26.34    5.00
 -12   5   1   93.02    7.26
 -11   5   1    6.92    3.23
 -10   5   1  191.34    8.03
   9  -5  -1  194.24    7.55
  -9   5   1  187.89    7.73
   8  -5  -1  259.74    8.54
  -8   5   1  240.90    7.95
  -8   5   1  244.97    7.34
   7  -5  -1   27.83    3.22
  -7   5   1   23.96    2.46
  -7   5   1   29.00    3.05
   6  -5  -1  243.09    7.82
  -6   5   1  227.93    6.72
   5  -5  -1  716.41   14.99
  -5   5   1  710.97   13.64
   4  -5  -1  154.46    5.65
  -4   5   1  147.88    4.66
   3  -5  -1  334.47    8.55
   3  -5  -1  332.58    6.44
  -3   5   1  332.31    7.16
   2  -5  -1  286.21    7.59
   2  -5  -1  292.16    6.16
  -2   5   1  304.61    6.41
   1  -5  -1   70.16    3.04
   1  -5  -1   69.52    3.59
   0  -5  -1  227.20    6.15
   0  -5  -1  207.62    6.04
  -1  -5  -1  284.72    7.61
  -1  -5  -1  274.42    6.96
  -2  -5  -1  534.10   10.61
  -2  -5  -1  509.02   11.69
  -3  -5  -1    2.54    2.26
  -3  -5  -1    3.35    1.49
  -4  -5  -1  524.67   12.90
  -4  -5  -1  530.34   10.39
  -5  -5  -1    8.16    2.98
  -5  -5  -1   15.17    1.96
  -6  -5  -1    4.28    3.07
  -7  -5  -1  271.35   10.65
  -8  -5  -1  254.83   10.88
  -9  -5  -1  259.38   11.63
 -10  -5  -1   86.74    8.45
 -11  -5  -1   14.95    6.03
 -12  -5  -1   -7.00    5.64
 -13  -5  -1  156.25   12.67
 -14   6   1   96.90    8.34
 -13   6   1  188.18    9.60
 -12   6   1   -6.30    2.86
 -11   6   1   24.09    4.19
  10  -6  -1  606.69   15.47
 -10   6   1  627.99   15.41
   9  -6  -1   44.37    4.72
  -9   6   1   45.61    4.62
   8  -6  -1   22.76    3.66
  -8   6   1   21.61    3.41
   7  -6  -1 1070.10   21.41
  -7   6   1 1039.49   19.96
   6  -6  -1 1604.99   29.21
  -6   6   1 1617.60   27.53
   5  -6  -1  551.73   13.11
  -5   6   1  557.06   11.61
   4  -6  -1  809.47   16.72
  -4   6   1  804.56   14.78
   3  -6  -1 1360.46   21.56
   3  -6  -1 1379.06   24.68
  -3   6   1 1372.55   22.56
   2  -6  -1  265.87    7.68
   2  -6  -1  262.05    6.11
  -2   6   1  262.66    6.20
   1  -6  -1  220.46    6.72
   1  -6  -1  203.40    5.84
   0  -6  -1  778.56   15.24
   0  -6  -1  783.45   15.19
  -1  -6  -1 1157.57   21.28
  -1  -6  -1 1175.87   20.77
  -2  -6  -1  491.56   10.67
  -2  -6  -1  479.83   11.64
  -3  -6  -1    5.04    2.58
  -3  -6  -1    8.15    2.00
  -4  -6  -1   11.05    2.10
  -4  -6  -1   13.51    3.15
  -5  -6  -1   10.26    3.38
  -5  -6  -1   13.55    2.24
  -6  -6  -1   28.21    4.63
  -7  -6  -1   23.47    4.75
  -8  -6  -1    3.36    3.96
  -9  -6  -1   17.59    5.23
 -10  -6  -1   31.53    6.59
 -11  -6  -1  286.28   14.77
 -12  -6  -1  247.04   14.08
 -13  -6  -1   77.09   10.19
 -14   7   1   50.82    6.54
 -13   7   1  259.12   11.09
 -12   7   1   16.84    4.28
 -11   7   1   32.83    4.96
  10  -7  -1  111.59    6.97
 -10   7   1  108.97    6.52
   9  -7  -1    3.81    2.92
  -9   7   1    4.67    2.80
   8  -7  -1   34.07    4.52
  -8   7   1   36.13    3.88
   7  -7  -1   15.02    3.30
  -7   7   1    9.75    2.50
   6  -7  -1    7.41    2.70
  -6   7   1    7.98    2.19
   5  -7  -1  100.38    5.61
  -5   7   1  102.31    4.62
   4  -7  -1   18.81    3.04
  -4   7   1   17.43    2.31
   3  -7  -1  679.94   12.00
   3  -7  -1  681.96   15.12
  -3   7   1  669.57   12.87
   2  -7  -1  775.92   16.50
   2  -7  -1  795.54   14.50
  -2   7   1  818.19   14.55
   1  -7  -1  498.99   11.96
   1  -7  -1  522.21   11.05
   0  -7  -1    3.04    1.84
   0  -7  -1    1.12    1.67
  -1  -7  -1   75.19    4.61
  -1  -7  -1   68.69    4.12
  -2  -7  -1  631.05   14.40
  -2  -7  -1  615.37   13.21
  -3  -7  -1  506.79   11.53
  -3  -7  -1  520.05   13.09
  -4  -7  -1  743.16   14.80
  -4  -7  -1  719.44   17.05
  -5  -7  -1 2009.58   33.52
  -5  -7  -1 2087.65   37.61
  -6  -7  -1   46.91    5.63
  -7  -7  -1   76.27    7.48
  -8  -7  -1  181.85   10.21
  -9  -7  -1   36.35    6.48
 -10  -7  -1   54.62    7.80
 -11  -7  -1  392.04   17.31
 -12  -7  -1  218.80   13.89
 -14   8   1   13.74    5.42
 -13   8   1   11.64    4.86
 -12   8   1    4.52    3.79
 -11   8   1   46.16    5.36
  10  -8  -1  226.53   10.02
 -10   8   1  219.94    8.91
   9  -8  -1  106.88    6.93
  -9   8   1  118.96    6.71
   8  -8  -1   27.38    4.47
  -8   8   1   13.39    3.01
   7  -8  -1  212.95    8.97
  -7   8   1  236.40    7.93
   6  -8  -1  274.91    9.84
  -6   8   1  274.47    8.08
   5  -8  -1  169.11    7.59
  -5   8   1  160.48    5.97
   4  -8  -1  258.27    9.14
  -4   8   1  268.38    7.37
   3  -8  -1 1569.88   29.48
   3  -8  -1 1651.82   28.15
  -3   8   1 1554.67   26.47
   2  -8  -1  571.08   13.75
   2  -8  -1  562.75   11.55
   1  -8  -1  200.28    6.56
   1  -8  -1  216.13    7.65
   0  -8  -1  586.58   13.74
   0  -8  -1  614.60   13.57
  -1  -8  -1  651.65   14.61
  -1  -8  -1  668.56   15.00
  -2  -8  -1  127.93    6.60
  -2  -8  -1  130.23    5.75
  -3  -8  -1  343.04    9.32
  -3  -8  -1  315.35   10.38
  -4  -8  -1 1694.77   29.57
  -4  -8  -1 1723.72   32.36
  -5  -8  -1  915.70   21.34
  -5  -8  -1  924.01   18.10
  -6  -8  -1   72.01    6.82
  -7  -8  -1   13.36    4.57
  -8  -8  -1    0.13    4.20
  -9  -8  -1  180.63   11.28
 -10  -8  -1  181.29   12.74
 -11  -8  -1  195.14   13.83
 -12  -8  -1   30.32    7.92
 -13   9   1  159.77    9.92
 -12   9   1   57.61    6.60
 -11   9   1   28.33    5.09
  10  -9  -1  196.64    9.68
 -10   9   1  189.83    8.92
   9  -9  -1  378.54   13.35
  -9   9   1  395.17   11.81
   8  -9  -1    0.92    3.27
  -8   9   1   -0.45    2.77
   7  -9  -1   25.56    4.64
  -7   9   1   38.73    4.15
   6  -9  -1  259.64    9.96
  -6   9   1  221.37    7.51
   5  -9  -1   59.81    5.60
  -5   9   1   76.91    4.42
   4  -9  -1    2.09    2.62
  -4   9   1    5.18    2.27
   3  -9  -1   18.89    3.84
  -3   9   1   21.65    2.79
   2  -9  -1   98.97    5.90
   1  -9  -1  181.27    7.55
   1  -9  -1  168.05    6.21
   0  -9  -1  105.59    5.90
   0  -9  -1   96.58    5.38
  -1  -9  -1   88.90    5.80
  -1  -9  -1   92.34    5.82
  -2  -9  -1   44.34    4.65
  -2  -9  -1   43.68    4.21
  -3  -9  -1    8.67    3.63
  -3  -9  -1    0.79    2.52
  -4  -9  -1   69.88    5.16
  -4  -9  -1   60.65    5.91
  -5  -9  -1    6.15    3.89
  -6  -9  -1  115.47    8.29
  -7  -9  -1  368.90   14.17
  -8  -9  -1  724.84   21.25
  -9  -9  -1  960.95   26.05
 -10  -9  -1   69.08    9.00
 -11  -9  -1    3.02    5.82
 -12  10   1   76.29    7.33
  11 -10  -1   29.54    7.26
 -11  10   1   26.81    4.64
  10 -10  -1   56.34    6.51
 -10  10   1   45.97    5.57
   9 -10  -1   -0.84    3.17
  -9  10   1   -0.30    3.23
   8 -10  -1    3.00    3.36
  -8  10   1   -1.15    2.49
   7 -10  -1   16.85    4.09
  -7  10   1   16.15    3.40
   6 -10  -1  166.25    8.68
  -6  10   1  170.03    6.96
   5 -10  -1  107.94    7.51
  -5  10   1  119.24    5.74
   4 -10  -1    3.22    3.27
  -4  10   1    7.57    2.50
   3 -10  -1  221.00    9.17
   2 -10  -1   40.81    4.70
   1 -10  -1   57.53    5.37
   0 -10  -1  193.89    8.50
   0 -10  -1  187.14    7.56
  -1 -10  -1  990.00   20.93
  -1 -10  -1  981.10   20.84
  -2 -10  -1  563.81   14.96
  -2 -10  -1  538.92   14.08
  -3 -10  -1   32.25    5.10
  -3 -10  -1   38.18    4.24
  -4 -10  -1  203.93    9.93
  -4 -10  -1  201.86    8.13
  -5 -10  -1   14.51    4.53
  -6 -10  -1   71.94    7.52
  -7 -10  -1  133.94    9.86
  -8 -10  -1  338.52   15.37
  -9 -10  -1  390.59   16.69
 -10 -10  -1   39.25    8.04
 -11 -10  -1    5.32    6.88
  11 -11  -1   30.19    6.08
  10 -11  -1  226.13   11.86
 -10  11   1  226.61   11.52
   9 -11  -1  198.56   10.96
  -9  11   1  190.88    8.81
   8 -11  -1   16.54    4.57
  -8  11   1   18.01    3.89
   7 -11  -1    6.16    3.69
  -7  11   1    5.04    3.04
   6 -11  -1  477.63   15.51
  -6  11   1  483.47   12.39
   5 -11  -1  379.60   13.46
  -5  11   1  385.87   10.53
   4 -11  -1    4.45    3.43
   3 -11  -1  450.31   14.07
   2 -11  -1  204.08    9.09
   1 -11  -1   42.29    5.32
   0 -11  -1   35.37    4.79
  -1 -11  -1  452.38   13.13
  -1 -11  -1  440.36   13.00
  -2 -11  -1  672.80   17.25
  -2 -11  -1  660.89   16.62
  -3 -11  -1   83.49    6.98
  -3 -11  -1   83.62    6.36
  -4 -11  -1    1.35    4.11
  -4 -11  -1    5.58    2.90
  -5 -11  -1   16.95    5.28
  -6 -11  -1   27.98    5.74
  -7 -11  -1   -1.22    4.81
  -8 -11  -1   27.51    7.53
  -9 -11  -1  175.62   13.60
 -10 -11  -1   59.60    9.34
  11 -12  -1   23.34    5.79
  10 -12  -1  180.74   11.44
   9 -12  -1   49.51    6.87
   8 -12  -1   10.43    4.88
   7 -12  -1   29.84    5.74
   6 -12  -1   -1.43    3.89
  -6  12   1   -1.86    2.45
   5 -12  -1    7.83    4.05
  -5  12   1    4.75    2.86
   4 -12  -1    6.09    4.06
   3 -12  -1    1.36    3.30
   2 -12  -1   49.64    6.08
   1 -12  -1   22.60    4.43
   0 -12  -1   -0.58    3.04
  -1 -12  -1   19.66    4.18
  -2 -12  -1    2.69    3.24
  -2 -12  -1    4.76    3.71
  -3 -12  -1   36.51    4.88
  -3 -12  -1   50.31    6.18
  -4 -12  -1  717.05   19.58
  -4 -12  -1  711.66   18.39
  -5 -12  -1  674.22   19.94
  -6 -12  -1  243.07   12.52
  -7 -12  -1   23.55    6.41
  -8 -12  -1  156.19   12.65
  -9 -12  -1   55.15    9.03
  11 -13  -1    0.65    5.14
  10 -13  -1   12.14    5.12
   9 -13  -1   42.29    7.32
   8 -13  -1   26.75    6.21
   7 -13  -1    3.20    4.54
   6 -13  -1  107.37    9.03
   5 -13  -1  111.32    9.18
   4 -13  -1    5.08    3.97
   3 -13  -1  432.10   15.05
   2 -13  -1  758.40   20.09
   1 -13  -1  200.86    9.83
   0 -13  -1   -0.97    3.24
  -1 -13  -1  137.63    8.28
  -2 -13  -1  113.31    7.65
  -3 -13  -1    3.64    3.89
  -4 -13  -1  243.59   12.03
  -5 -13  -1  163.91   10.44
  -6 -13  -1   51.64    7.82
  -7 -13  -1   11.86    6.06
  -8 -13  -1   -4.83    6.08
   9 -14  -1  167.50   12.75
   8 -14  -1   16.37    5.85
   7 -14  -1   30.29    6.20
   6 -14  -1   65.59    8.04
   5 -14  -1   15.80    5.05
   4 -14  -1   52.91    7.15
   3 -14  -1  359.22   14.02
   2 -14  -1  131.92    9.57
   1 -14  -1   72.09    7.55
   0 -14  -1   -0.11    3.65
  -1 -14  -1    4.83    4.36
  -2 -14  -1   61.41    6.94
  -3 -14  -1   36.55    5.32
  -5 -14  -1    4.80    5.50
  -6 -14  -1   -5.31    5.46
  -7 -14  -1   49.88    8.86
   7 -15  -1   15.29    6.21
   6 -15  -1   13.94    5.40
   5 -15  -1    0.09    4.35
   4 -15  -1    7.85    4.70
   3 -15  -1   10.73    4.93
   2 -15  -1   68.87    7.69
   1 -15  -1   76.76    7.88
   0 -15  -1  120.87    8.99
  -1 -15  -1  111.01    9.15
  -2 -15  -1  168.63   10.26
  -3 -15  -1   17.86    7.45
   5 -16  -1   10.95    6.07
   4 -16  -1   50.00    7.55
   3 -16  -1  102.38    9.58
   2 -16  -1  212.33   11.89
   1 -16  -1   23.60    5.96
   0 -16  -1   49.35    7.12
  -1 -16  -1  138.23    9.79
  -2 -16  -1   57.75    7.25
   1 -17  -1   81.37   10.09
   0 -17  -1   12.85    5.35
  -1 -17  -1    0.13    4.58
  -2 -17  -1   17.89    6.28
  -3 -17   2   36.27    8.30
  -2 -17   2   78.25    9.94
  -1 -17   2   22.21    6.79
  -4 -16   2  144.95   11.03
  -3 -16   2  339.70   14.42
  -2 -16   2  400.45   15.63
  -1 -16   2    3.89    5.33
   0 -16   2   81.64    8.70
   1 -16   2  199.85   11.72
   2 -16   2   -1.19    4.45
   3 -16   2   51.65    7.60
   4 -16   2  271.30   13.70
  -4 -15   2   63.32    7.42
  -3 -15   2   69.98    7.73
  -2 -15   2   33.40    6.06
  -1 -15   2   25.42    6.17
   0 -15   2    0.57    4.22
   1 -15   2    7.01    5.17
   2 -15   2   -1.80    4.24
   3 -15   2   -2.76    4.09
   4 -15   2    4.37    4.54
   5 -15   2    8.75    5.17
   6 -15   2   10.22    5.45
  -7  15  -2  143.58    8.85
   7 -15   2  117.94   11.15
  -8  15  -2  170.96    9.68
  -8 -14   2    0.54    6.32
  -7 -14   2   45.63    8.60
  -5 -14   2   25.09    5.55
  -4 -14   2   30.79    6.25
  -3 -14   2  198.08   11.11
  -2 -14   2   82.73    7.85
  -1 -14   2    2.31    4.57
   0 -14   2  312.31   13.36
   1 -14   2  385.80   14.41
   2 -14   2   24.99    5.94
   3 -14   2  106.80    9.29
   4 -14   2  237.54   12.04
   5 -14   2  205.31   11.95
  -6  14  -2    5.81    4.21
   6 -14   2    4.06    4.39
  -7  14  -2  287.25   11.65
   7 -14   2  265.11   13.88
  -8  14  -2  382.20   13.40
   8 -14   2  382.35   16.21
  -9  14  -2   66.06    7.45
   9 -14   2   93.87   10.05
  -9 -13   2   39.43    8.44
  -8 -13   2   10.69    6.54
  -7 -13   2  344.29   15.37
  -6 -13   2  445.82   16.31
  -5 -13   2    5.59    4.12
  -4 -13   2   69.49    7.00
  -3 -13   2   79.69    7.43
  -2 -13   2   23.39    5.38
  -1 -13   2    9.99    4.19
   0 -13   2  234.80   10.87
   1 -13   2  161.80    9.37
   2 -13   2    3.58    3.89
   3 -13   2   -0.74    4.07
   4 -13   2    1.74    4.03
  -5  13  -2   36.64    5.23
   5 -13   2   45.28    6.38
  -6  13  -2   19.10    4.34
   6 -13   2   16.31    5.03
  -7  13  -2   -0.76    3.92
   7 -13   2   -1.39    4.31
  -8  13  -2   -5.10    3.75
   8 -13   2   -0.87    4.07
  -9  13  -2   -4.56    3.76
   9 -13   2    8.98    4.84
 -10  13  -2    3.59    4.90
 -10 -12   2   16.05    7.26
  -9 -12   2   32.44    7.49
  -8 -12   2    3.00    5.83
  -7 -12   2  186.34   11.74
  -6 -12   2  364.21   13.96
  -5 -12   2   26.24    4.86
  -5 -12   2   31.80    5.66
  -4 -12   2  109.19    7.60
  -4 -12   2  114.69    7.88
  -3 -12   2  116.41    7.73
  -2 -12   2    2.16    3.57
  -1 -12   2    2.08    3.65
   0 -12   2   16.15    4.37
   1 -12   2   61.81    6.33
   2 -12   2   25.60    4.88
   3 -12   2  211.80   10.58
  -4  12  -2  675.53   16.33
   4 -12   2  665.70   19.02
  -5  12  -2  189.20    8.35
   5 -12   2  195.87   10.22
  -6  12  -2   -2.13    3.30
   6 -12   2   -0.41    3.57
  -7  12  -2  235.34    9.82
   7 -12   2  264.21   12.13
  -8  12  -2  536.57   15.38
   8 -12   2  513.66   17.51
  -9  12  -2  326.86   12.66
   9 -12   2  322.58   13.99
 -10  12  -2    0.44    3.82
 -11  12  -2  112.02    8.88
 -11 -11   2   29.25    8.62
 -10 -11   2   81.98    9.70
  -9 -11   2   43.23    7.96
  -8 -11   2   81.29    8.53
  -7 -11   2   90.90    8.74
  -6 -11   2    9.38    3.95
  -6 -11   2    7.04    4.20
  -5 -11   2  218.58   10.30
  -5 -11   2  216.99    9.80
  -4 -11   2    2.62    3.64
  -4 -11   2   -3.54    3.39
  -3 -11   2   83.19    6.66
  -3 -11   2   79.76    6.13
  -2 -11   2  231.17    9.68
  -1 -11   2  327.15   11.50
   0 -11   2   83.78    6.86
   1 -11   2  105.16    7.31
   2 -11   2  165.43    8.59
  -3  11  -2    5.02    2.82
   3 -11   2    7.57    3.61
  -4  11  -2  203.32    8.07
   4 -11   2  196.33    9.60
  -5  11  -2   61.39    5.51
   5 -11   2   65.13    6.86
  -6  11  -2   71.28    5.84
   6 -11   2   66.13    7.06
  -7  11  -2   16.80    4.00
   7 -11   2   18.69    5.02
  -8  11  -2   13.91    4.44
   8 -11   2   23.82    5.12
  -9  11  -2   23.93    4.87
   9 -11   2   25.66    5.68
 -10  11  -2   -3.43    4.06
 -11  11  -2   28.53    6.03
 -12 -10   2   21.78    7.46
 -11 -10   2  334.00   16.92
 -10 -10   2  374.04   16.23
  -9 -10   2  136.63   10.44
  -8 -10   2   -1.96    4.31
  -7 -10   2  188.03   10.74
  -6 -10   2   63.08    7.01
  -6 -10   2   62.60    5.84
  -5 -10   2   13.90    3.64
  -5 -10   2   13.15    3.88
  -4 -10   2  425.98   12.94
  -4 -10   2  431.68   12.85
  -3 -10   2  398.29   12.14
  -3 -10   2  385.32   11.45
  -2 -10   2  223.40    8.13
  -2 -10   2  231.37    9.57
  -1 -10   2   19.99    3.98
   0 -10   2  115.78    7.34
   1 -10   2  171.20    8.31
   2 -10   2   -1.26    2.81
  -3  10  -2   77.13    5.16
   3 -10   2   71.02    6.28
  -4  10  -2  506.57   12.77
   4 -10   2  497.55   14.89
  -5  10  -2   43.47    4.59
   5 -10   2   50.40    5.86
  -6  10  -2    4.56    3.02
   6 -10   2    6.32    3.46
  -7  10  -2    3.14    3.37
   7 -10   2    3.40    3.61
  -8  10  -2   71.28    6.48
   8 -10   2   60.46    6.66
  -9  10  -2  137.40    8.56
   9 -10   2  146.26    9.29
 -10  10  -2    7.26    4.09
 -11  10  -2   29.04    5.45
 -12  10  -2    7.45    4.61
 -12  -9   2    1.62    5.92
 -11  -9   2  145.24   12.24
 -10  -9   2  118.59   10.18
  -9  -9   2  151.48   10.93
  -8  -9   2    5.22    4.90
  -7  -9   2   43.66    6.32
  -6  -9   2   70.09    5.70
  -6  -9   2   61.67    6.22
  -5  -9   2   51.53    5.59
  -5  -9   2   47.23    5.07
  -4  -9   2  107.34    6.76
  -4  -9   2  105.44    6.61
  -3  -9   2   -2.56    2.95
  -3  -9   2    4.31    2.72
  -2  -9   2   42.11    4.63
  -2  -9   2   49.54    4.20
  -1  -9   2  244.44    7.52
  -1  -9   2  243.56    9.24
   0  -9   2   45.44    4.71
   1  -9   2  587.74   14.82
  -2   9  -2  298.50    8.81
   2  -9   2  303.84   10.36
  -3   9  -2   41.44    3.94
   3  -9   2   42.62    4.90
  -4   9  -2  399.09   10.87
   4  -9   2  438.85   12.90
  -5   9  -2  343.21   10.32
   5  -9   2  324.24   11.34
  -6   9  -2    5.32    2.85
   6  -9   2    6.94    3.39
  -7   9  -2   68.26    5.63
   7  -9   2   59.36    6.06
  -8   9  -2  366.24   11.98
   8  -9   2  359.77   12.56
  -9   9  -2  410.64   13.28
 -10   9  -2   25.00    5.20
 -11   9  -2  339.75   12.93
 -12   9  -2  200.02   10.72
 -13  -8   2    9.87    7.64
 -12  -8   2   27.66    7.84
 -11  -8   2    3.74    5.85
 -10  -8   2   97.23    9.24
  -9  -8   2   -2.45    4.35
  -8  -8   2   75.70    7.34
  -7  -8   2  280.11   11.17
  -7  -8   2  279.22    9.47
  -6  -8   2 1170.79   24.76
  -6  -8   2 1153.24   22.91
  -5  -8   2  363.17   11.50
  -5  -8   2  352.90   10.44
  -4  -8   2   40.11    4.14
  -4  -8   2   30.73    3.86
  -3  -8   2 1071.52   20.84
  -3  -8   2 1062.67   21.24
  -2  -8   2  274.80    8.03
  -2  -8   2  280.47    9.25
  -1  -8   2  211.58    7.85
  -1  -8   2  202.07    6.22
   0  -8   2  512.57   10.43
   0  -8   2  497.36   12.79
   1  -8   2  920.30   19.33
  -2   8  -2  796.59   15.97
   2  -8   2  782.76   17.59
  -3   8  -2   26.70    3.17
   3  -8   2   22.65    3.62
  -4   8  -2  270.13    8.25
   4  -8   2  241.02    9.00
  -5   8  -2  227.65    7.92
   5  -8   2  231.55    9.18
  -6   8  -2    1.86    2.50
   6  -8   2    3.09    2.78
  -7   8  -2   13.93    3.60
   7  -8   2   13.44    3.63
  -8   8  -2   38.56    4.72
   8  -8   2   34.42    4.82
  -9   8  -2   30.51    4.89
 -10   8  -2   33.72    5.46
 -11   8  -2   18.55    4.94
 -12   8  -2    7.95    4.89
 -13   8  -2   -1.66    4.63
 -13  -7   2  398.38   17.66
 -12  -7   2  221.01   13.20
 -11  -7   2   -1.76    4.76
 -10  -7   2  481.08   16.67
  -9  -7   2   83.94    7.73
  -8  -7   2    3.23    3.79
  -7  -7   2  373.35   10.37
  -7  -7   2  360.38   12.23
  -6  -7   2  587.15   13.76
  -6  -7   2  608.55   15.66
  -5  -7   2  186.16    7.70
  -5  -7   2  186.84    7.17
  -4  -7   2    3.50    2.47
  -4  -7   2    0.78    2.34
  -3  -7   2   94.83    4.98
  -3  -7   2   95.30    5.44
  -2  -7   2   78.21    4.75
  -2  -7   2   84.93    4.24
  -1  -7   2   61.14    3.28
  -1  -7   2   56.39    4.23
   0  -7   2    9.76    2.56
   0  -7   2   11.50    1.71
  -1   7  -2  184.96    6.06
   1  -7   2  186.20    6.21
   1  -7   2  194.93    7.18
  -2   7  -2    6.66    1.99
   2  -7   2    5.86    2.42
  -3   7  -2    0.42    2.06
   3  -7   2    0.86    2.21
  -4   7  -2  682.64   14.58
   4  -7   2  705.49   16.01
  -5   7  -2  520.77   12.46
   5  -7   2  538.98   13.74
  -6   7  -2   44.78    4.28
   6  -7   2   49.23    4.82
  -7   7  -2  149.90    6.95
   7  -7   2  138.76    6.81
  -8   7  -2  525.62   13.78
   8  -7   2  498.37   13.70
  -9   7  -2   90.84    6.96
 -10   7  -2    1.08    3.41
 -11   7  -2  131.49    8.48
 -12   7  -2  271.33   12.27
 -13   7  -2    5.71    5.03
 -14  -6   2   -0.30    6.78
 -13  -6   2   49.32    8.36
 -12  -6   2   65.70    8.48
 -11  -6   2   86.26    8.74
 -10  -6   2   10.59    4.77
  -9  -6   2   49.30    6.45
  -8  -6   2   20.02    4.65
  -7  -6   2   16.13    3.86
  -7  -6   2   21.38    3.36
  -6  -6   2    2.21    2.77
  -6  -6   2    3.97    2.44
  -5  -6   2   11.03    2.90
  -5  -6   2    9.84    2.58
  -4  -6   2  110.36    5.06
  -4  -6   2  114.88    5.40
  -3  -6   2 1123.33   20.72
  -3  -6   2 1124.82   20.59
  -2  -6   2  993.40   17.89
  -2  -6   2  985.52   18.73
  -1  -6   2  405.67   10.04
  -1  -6   2  414.88    8.64
   0  -6   2  495.55   11.45
   0  -6   2  484.23    9.09
  -1   6  -2  283.92    7.29
   1  -6   2  280.04    8.19
  -2   6  -2  910.85   16.88
   2  -6   2  913.77   18.05
  -3   6  -2  122.08    4.84
   3  -6   2  117.36    5.44
  -4   6  -2  264.88    7.61
   4  -6   2  263.06    8.25
  -5   6  -2 1366.71   24.63
   5  -6   2 1363.53   25.40
  -6   6  -2  143.65    6.24
   6  -6   2  157.46    6.72
  -7   6  -2    9.41    3.02
   7  -6   2   11.42    2.92
  -8   6  -2  369.35   11.17
   8  -6   2  367.91   10.79
  -9   6  -2  128.20    7.16
 -10   6  -2   13.24    3.98
 -11   6  -2  278.01   11.50
 -12   6  -2   75.67    7.40
 -13   6  -2  150.51   10.25
 -14  -5   2   18.17    7.44
 -13  -5   2   11.09    6.06
 -12  -5   2    5.24    5.14
 -11  -5   2   78.36    7.92
 -10  -5   2  213.65   10.59
  -9  -5   2  438.22   14.12
  -8  -5   2  233.85    9.76
  -7  -5   2   -0.19    2.16
  -7  -5   2    2.88    2.93
  -6  -5   2    5.39    2.24
  -6  -5   2    6.07    2.77
  -5  -5   2    1.60    2.11
  -5  -5   2    6.28    2.02
  -4  -5   2  148.75    5.77
  -4  -5   2  156.09    5.40
  -3  -5   2  430.18   10.02
  -3  -5   2  473.78   10.29
  -2  -5   2   61.80    3.15
  -2  -5   2   57.58    3.49
  -1  -5   2  674.21   13.30
  -1  -5   2  647.26   11.84
   0  -5   2   39.78    3.15
   0  -5   2   35.78    1.84
  -1   5  -2  286.13    6.94
   1  -5   2  281.90    7.68
  -2   5  -2   37.88    2.80
   2  -5   2   33.51    3.06
  -3   5  -2  105.98    4.28
   3  -5   2   98.56    4.62
  -4   5  -2  187.28    6.06
   4  -5   2  185.49    6.42
  -5   5  -2   22.25    1.86
  -5   5  -2   14.62    2.51
   5  -5   2   19.87    2.77
  -6   5  -2   81.60    4.79
   6  -5   2  100.25    4.98
  -7   5  -2  177.57    7.10
   7  -5   2  181.59    6.69
  -8   5  -2   16.51    3.57
  -9   5  -2   90.92    6.27
 -10   5  -2    3.60    3.32
 -11   5  -2    2.71    3.62
 -12   5  -2   38.17    5.71
 -13   5  -2    7.44    4.48
 -14   5  -2   39.35    6.62
 -14  -4   2  115.90   11.38
 -13  -4   2   64.29    8.82
 -12  -4   2   17.78    5.70
 -11  -4   2  200.22   10.68
 -10  -4   2  353.77   12.98
  -9  -4   2  584.48   16.28
  -8  -4   2   51.62    5.60
  -8  -4   2   53.13    3.94
  -7  -4   2   19.64    2.67
  -7  -4   2   21.42    3.71
  -6  -4   2  747.36   16.37
  -6  -4   2  732.83   14.38
  -5  -4   2   -0.50    1.77
  -5  -4   2    2.11    1.69
  -4  -4   2    6.66    1.82
  -4  -4   2    4.40    1.77
  -3  -4   2  199.54    5.75
  -3  -4   2  195.21    5.77
  -2  -4   2   68.29    3.08
  -2  -4   2   66.88    3.29
  -1  -4   2  104.73    4.10
  -1  -4   2  110.97    3.36
   0   4  -2  103.14    3.68
   0  -4   2  101.83    4.03
  -1   4  -2  952.95   16.38
   1  -4   2  947.43   17.02
  -2   4  -2   16.05    1.96
   2  -4   2   18.02    2.21
  -3   4  -2  584.82   11.64
   3  -4   2  584.00   12.07
  -4   4  -2  727.23   14.28
  -4   4  -2  741.78   12.57
   4  -4   2  745.00   14.46
  -5   4  -2   17.51    2.47
  -5   4  -2   15.19    1.86
   5  -4   2   17.19    2.32
  -6   4  -2  168.83    6.35
  -6   4  -2  172.38    5.43
   6  -4   2  178.73    5.94
  -7   4  -2   80.84    5.43
  -7   4  -2   69.34    4.22
   7  -4   2   75.41    4.22
  -8   4  -2  278.70    9.36
  -9   4  -2  224.98    8.90
 -10   4  -2   37.66    4.89
 -11   4  -2   88.04    7.19
 -12   4  -2  244.75   11.32
 -13   4  -2   34.05    5.93
 -14   4  -2    6.19    5.27
 -15  -3   2   11.45    6.60
 -14  -3   2    4.38    5.68
 -13  -3   2   41.66    7.10
 -12  -3   2   12.00    5.46
 -11  -3   2   11.19    4.99
 -10  -3   2   19.31    4.48
  -9  -3   2   61.14    6.00
  -8  -3   2    1.46    1.80
  -8  -3   2   -0.04    2.77
  -7  -3   2   15.06    3.07
  -7  -3   2   12.87    2.27
  -6  -3   2  566.82   13.25
  -6  -3   2  561.91   11.38
  -5  -3   2  603.17   13.28
  -5  -3   2  634.24   12.01
  -4  -3   2    5.75    1.66
  -4  -3   2    5.93    1.52
  -3  -3   2  258.27    6.51
  -3  -3   2  247.59    6.16
  -2  -3   2  431.72    8.54
  -2  -3   2  434.18    8.77
  -1  -3   2   12.66    1.65
   0   3  -2    0.73    1.12
   0  -3   2    3.12    1.34
  -1   3  -2  851.95   14.67
   1  -3   2  857.54   15.07
  -2   3  -2  825.88   14.38
   2  -3   2  811.69   14.64
  -3   3  -2   98.62    3.71
   3  -3   2  101.40    3.80
  -4   3  -2  207.86    5.13
  -4   3  -2  196.31    5.81
   4  -3   2  197.65    5.52
  -5   3  -2   16.39    2.37
  -5   3  -2   11.69    1.97
   5  -3   2   13.17    1.89
  -6   3  -2   81.91    4.53
  -6   3  -2   74.45    4.04
   6  -3   2   80.50    3.63
  -7   3  -2   20.57    3.14
  -7   3  -2   16.95    2.76
   7  -3   2   14.82    2.10
  -8   3  -2  170.82    6.86
  -8   3  -2  160.45    7.13
  -9   3  -2  328.09   10.67
  -9   3  -2  321.47   10.19
 -10   3  -2   52.68    5.47
 -11   3  -2   -0.76    3.15
 -12   3  -2   -0.52    4.09
 -13   3  -2    9.23    4.54
 -14   3  -2   74.63    8.13
 -15  -2   2   25.76    7.83
 -14  -2   2   64.45    8.75
 -13  -2   2  430.92   16.10
 -12  -2   2  418.59   15.37
 -11  -2   2    6.02    4.00
 -10  -2   2  481.96   14.59
  -9  -2   2  186.07    8.47
  -8  -2   2   92.86    5.84
  -8  -2   2   96.30    4.35
  -7  -2   2 1215.71   21.09
  -7  -2   2 1252.70   23.77
  -6  -2   2  835.35   15.19
  -6  -2   2  845.47   17.08
  -5  -2   2 1681.26   28.33
  -5  -2   2 1660.15   26.76
  -4  -2   2  130.75    4.61
  -4  -2   2  134.32    4.10
  -3  -2   2  976.47   16.29
  -2  -2   2  339.00    6.89
  -1  -2   2  111.96    3.37
   0   2  -2 2030.32   30.51
   0  -2   2 2004.41   30.75
  -1   2  -2 1096.29   17.73
   1  -2   2 1119.59   17.87
  -2   2  -2  522.56    9.74
   2  -2   2  531.87    9.71
  -3   2  -2   81.32    3.27
  -3   2  -2   84.22    3.12
   3  -2   2   80.33    3.01
  -4   2  -2  111.75    4.02
  -4   2  -2  123.66    4.34
   4  -2   2  109.86    3.50
  -5   2  -2  492.20   10.63
  -5   2  -2  508.10   11.06
   5  -2   2  509.86    9.62
  -6   2  -2  452.37   10.82
  -6   2  -2  465.09   10.57
   6  -2   2  435.14    8.90
  -7   2  -2    2.41    2.25
  -7   2  -2    6.18    2.35
  -8   2  -2   12.79    3.37
  -8   2  -2   17.23    3.36
  -9   2  -2   -0.57    2.58
  -9   2  -2    5.08    3.12
 -10   2  -2    1.31    3.29
 -10   2  -2   -0.41    2.87
 -11   2  -2   30.71    4.85
 -12   2  -2  172.23    9.40
 -13   2  -2  183.33   10.77
 -14   2  -2   16.11    5.24
 -15  -1   2   30.47    7.79
 -14  -1   2   76.34    8.66
 -13  -1   2  256.75   12.93
 -12  -1   2  326.64   12.95
 -11  -1   2   13.57    4.34
 -10  -1   2  146.88    8.41
  -9  -1   2   47.23    4.89
  -9  -1   2   51.69    5.32
  -8  -1   2  154.71    5.32
  -8  -1   2  149.21    6.85
  -7  -1   2  459.37    9.89
  -7  -1   2  487.23   11.94
  -6  -1   2  283.28    6.79
  -6  -1   2  272.56    7.91
  -5  -1   2  853.60   16.00
  -5  -1   2  824.87   14.65
  -4  -1   2  353.57    7.34
  -3  -1   2 1760.26   27.23
  -2  -1   2 2122.34   32.06
  -1  -1   2  690.75   11.48
   0  -1   2  189.63    4.02
  -1   1  -2  828.93   13.38
   1  -1   2  831.15   13.17
  -2   1  -2  146.59    3.90
  -2   1  -2  141.33    4.00
   2  -1   2  145.93    3.43
  -3   1  -2    1.77    1.08
  -3   1  -2    1.30    1.10
   3  -1   2    0.87    0.70
  -4   1  -2   66.49    3.46
  -4   1  -2   69.72    3.43
   4  -1   2   71.67    2.30
  -5   1  -2 2565.79   41.21
   5  -1   2 2620.94   38.61
  -6   1  -2 1038.48   19.44
   6  -1   2  999.95   16.32
  -7   1  -2    5.40    2.55
  -8   1  -2  323.36   10.30
  -9   1  -2  677.15   16.76
 -10   1  -2   21.84    4.32
 -10   1  -2   19.66    4.07
 -11   1  -2   19.92    5.03
 -11   1  -2   12.82    4.13
 -12   1  -2  270.73   11.84
 -12   1  -2  268.77   12.22
 -13   1  -2  128.46    9.48
 -14   1  -2    2.83    4.86
 -15   0   2    6.41    6.15
 -14   0   2   41.92    7.26
 -13   0   2    9.91    4.71
 -12   0   2   61.71    6.72
 -11   0   2  254.14   10.52
 -10   0   2  573.21   15.40
  -9   0   2  476.92   13.16
  -9   0   2  503.86   11.06
  -8   0   2  280.93    7.49
  -8   0   2  288.68    9.16
  -7   0   2  111.61    5.22
  -7   0   2  113.67    4.28
  -6   0   2   55.32    3.56
  -6   0   2   58.06    3.02
  -5   0   2    1.55    1.14
  -4   0   2  324.63    6.86
  -3   0   2  387.54    7.50
  -2   0   2  790.15   12.98
  -1   0   2  255.13    4.93
   0   0   2  275.20    4.98
  -1   0  -2   22.28    1.28
  -1   0  -2   23.85    1.66
   1   0   2   22.74    1.02
  -2   0  -2  437.21    8.87
   2   0   2  433.34    6.92
  -3   0  -2  317.42    7.48
   3   0   2  321.76    5.12
  -4   0  -2  345.46    8.40
   4   0   2  344.97    5.56
  -5   0  -2  538.35   11.95
  -6   0  -2    1.03    2.08
  -6   0  -2    6.43    0.80
  -7   0  -2  111.99    5.91
  -8   0  -2   25.60    4.19
  -9   0  -2    2.51    3.45
 -10   0  -2  118.45    7.74
 -11   0  -2    4.99    4.42
 -12   0  -2   -6.38    4.35
 -13   0  -2   34.74    6.22
 -13   0  -2   27.50    6.29
 -14   0  -2   14.79    5.36
 -14   1   2   15.15    5.48
 -13   1   2  133.18    9.07
 -12   1   2    1.36    4.04
 -11   1   2   75.09    6.77
 -10   1   2  745.01   17.74
  -9   1   2  732.91   14.78
  -9   1   2  720.42   16.66
  -8   1   2  151.17    5.44
  -8   1   2  161.01    6.51
   7  -1  -2  182.84    5.73
  -7   1   2  174.63    6.26
   6  -1  -2  848.56   15.54
  -6   1   2  837.13   16.07
   5  -1  -2  625.07   11.99
   4  -1  -2  723.54   13.05
   3  -1  -2   65.31    2.68
   2  -1  -2 3630.64   53.67
   1  -1  -2 1026.91   16.60
   1  -1  -2 1063.01   16.54
   0  -1  -2  117.44    3.25
   0  -1  -2  107.65    2.68
  -1  -1  -2   36.74    1.26
  -1  -1  -2   37.08    2.28
  -2  -1  -2   85.53    3.62
   2   1   2   79.88    1.53
  -3  -1  -2   13.03    2.12
  -4  -1  -2   11.79    2.27
  -5  -1  -2   -0.57    1.85
  -6  -1  -2  408.06   10.94
  -7  -1  -2  174.98    7.77
  -8  -1  -2  230.90    9.20
  -9  -1  -2   23.98    4.56
 -10  -1  -2   71.97    7.20
 -11  -1  -2   10.59    4.57
 -12  -1  -2  298.13   13.27
 -13  -1  -2   95.89    9.27
 -14  -1  -2   11.52    5.26
 -14  -1  -2    7.85    6.34
 -15   2   2   54.93    7.36
 -14   2   2   18.42    4.91
 -13   2   2    1.20    3.76
 -12   2   2   18.98    4.80
 -11   2   2    3.37    3.02
 -10   2   2    5.61    3.06
   9  -2  -2    4.85    2.18
  -9   2   2    2.22    2.43
   8  -2  -2    3.53    1.94
  -8   2   2    1.85    1.93
   7  -2  -2  116.20    4.83
  -7   2   2  110.74    4.88
   6  -2  -2  479.29   10.47
   5  -2  -2  931.86   16.76
   4  -2  -2   15.98    1.89
   3  -2  -2   23.44    2.01
   2  -2  -2   66.80    2.43
   2  -2  -2   65.51    2.73
   1  -2  -2    0.67    0.85
   1  -2  -2    0.17    0.91
   0  -2  -2 1548.87   24.79
   0  -2  -2 1574.76   23.95
  -1  -2  -2  301.67    5.66
  -1  -2  -2  305.10    7.32
  -2  -2  -2  298.39    7.63
  -2  -2  -2  299.54    5.29
  -3  -2  -2  278.71    4.54
  -3  -2  -2  272.90    7.60
  -4  -2  -2  119.79    5.23
  -5  -2  -2 1293.31   24.15
  -6  -2  -2  671.82   15.58
  -7  -2  -2   99.35    6.29
  -8  -2  -2  470.45   13.82
  -9  -2  -2  137.44    8.32
 -10  -2  -2  188.63   10.02
 -11  -2  -2    4.43    4.48
 -12  -2  -2  102.46    9.75
 -13  -2  -2  353.21   16.08
 -14  -2  -2   11.37    6.89
 -15   3   2    9.06    4.62
 -14   3   2   22.21    4.97
 -13   3   2  100.90    7.74
 -12   3   2   73.48    6.37
 -12   3   2   94.84    7.49
 -11   3   2   39.86    4.72
 -11   3   2   31.29    4.54
 -10   3   2  100.34    6.26
   9  -3  -2  228.78    7.77
  -9   3   2  248.90    8.44
   8  -3  -2   35.41    3.41
  -8   3   2   25.27    3.13
   7  -3  -2  982.56   18.65
   6  -3  -2 2978.97   47.07
   5  -3  -2 1150.87   20.46
  -5   3   2 1154.96   19.38
   4  -3  -2 1182.40   20.40
  -4   3   2 1160.99   18.89
   3  -3  -2  151.68    4.79
  -3   3   2  149.00    3.57
   2  -3  -2 2000.68   31.63
   2  -3  -2 2016.70   30.86
   1  -3  -2 1470.29   23.68
   1  -3  -2 1487.98   23.61
   0  -3  -2  442.19    8.39
   0  -3  -2  425.55    9.04
  -1  -3  -2 2047.90   31.16
  -1  -3  -2 2057.33   33.12
  -2  -3  -2    5.93    1.84
  -3  -3  -2   56.05    3.84
  -3  -3  -2   59.41    2.04
  -4  -3  -2   38.19    1.55
  -4  -3  -2   37.83    3.70
  -5  -3  -2    6.35    2.87
  -5  -3  -2    4.33    0.63
  -6  -3  -2  188.53    7.94
  -7  -3  -2    4.80    3.21
  -8  -3  -2    1.09    3.86
  -9  -3  -2  169.94    9.34
 -10  -3  -2   25.20    5.45
 -11  -3  -2   52.87    7.17
 -12  -3  -2  137.69   11.22
 -13  -3  -2   60.93    8.79
 -15   4   2   61.89    7.48
 -14   4   2   49.82    6.33
 -13   4   2  289.71   11.75
 -12   4   2  321.93   11.30
 -11   4   2  169.87    7.78
  10  -4  -2    6.69    2.73
 -10   4   2    4.63    2.95
 -10   4   2    7.81    2.98
   9  -4  -2  318.99    9.67
  -9   4   2  351.10    9.92
  -9   4   2  324.62    9.75
   8  -4  -2  229.74    7.82
  -8   4   2  233.02    7.40
  -8   4   2  231.03    7.51
   7  -4  -2  192.81    6.71
  -7   4   2  176.71    5.98
   6  -4  -2 1043.77   20.05
  -6   4   2 1091.98   18.92
   5  -4  -2   93.59    4.53
  -5   4   2   83.90    3.46
   4  -4  -2  121.36    4.83
  -4   4   2  131.39    3.81
   3  -4  -2  105.85    4.41
   3  -4  -2  112.21    3.46
  -3   4   2  110.33    3.15
   2  -4  -2    4.20    1.17
   2  -4  -2    1.90    1.33
  -2   4   2    3.40    0.85
   1  -4  -2  130.34    4.37
   1  -4  -2  138.32    4.30
   0  -4  -2  266.92    6.41
   0  -4  -2  275.00    7.14
  -1  -4  -2   94.83    3.41
  -1  -4  -2  102.48    4.46
  -2  -4  -2  231.57    5.42
  -2  -4  -2  232.08    7.18
  -3  -4  -2  211.44    5.01
  -3  -4  -2  224.45    7.37
  -4  -4  -2  246.52    8.49
  -4  -4  -2  251.81    5.35
  -5  -4  -2  604.46   14.82
  -5  -4  -2  617.80   10.34
  -6  -4  -2  555.35   14.71
  -7  -4  -2  137.85    7.89
  -8  -4  -2   88.79    7.40
  -9  -4  -2  498.63   16.21
 -10  -4  -2  168.96   10.87
 -11  -4  -2  160.66   10.76
 -12  -4  -2  156.83   12.14
 -13  -4  -2  386.53   17.58
 -15   5   2    2.90    4.85
 -14   5   2   86.13    7.67
 -13   5   2   25.96    4.80
 -12   5   2    2.05    3.23
 -11   5   2    5.84    3.08
  10  -5  -2   46.24    4.68
 -10   5   2   36.78    4.19
   9  -5  -2  166.50    7.24
  -9   5   2  157.19    6.57
  -9   5   2  177.11    6.93
   8  -5  -2  288.07    9.04
  -8   5   2  269.05    8.32
  -8   5   2  279.48    7.94
   7  -5  -2  145.55    6.48
  -7   5   2  150.10    5.65
   6  -5  -2   91.51    4.89
  -6   5   2   85.49    4.02
   5  -5  -2  628.33   13.77
  -5   5   2  607.93   11.83
   4  -5  -2  323.81    8.70
  -4   5   2  314.57    6.97
   3  -5  -2    7.76    1.37
   3  -5  -2    3.88    1.73
  -3   5   2    8.91    1.33
   2  -5  -2  399.85    9.42
   2  -5  -2  390.32    8.44
  -2   5   2  404.03    7.53
   1  -5  -2 1410.21   23.68
   1  -5  -2 1409.40   23.99
   0  -5  -2  796.19   15.37
   0  -5  -2  776.91   14.63
  -1  -5  -2  995.26   18.87
  -1  -5  -2  968.10   17.20
  -2  -5  -2  335.74    9.44
  -2  -5  -2  329.60    7.52
  -3  -5  -2  412.20    8.52
  -3  -5  -2  405.25   10.94
  -4  -5  -2 1185.68   19.56
  -4  -5  -2 1192.71   23.55
  -5  -5  -2  730.35   17.27
  -5  -5  -2  730.24   12.79
  -6  -5  -2  650.62   16.71
  -7  -5  -2   42.98    5.92
  -8  -5  -2   89.79    7.72
  -9  -5  -2   40.96    6.25
 -10  -5  -2   92.84    8.83
 -11  -5  -2   42.73    7.09
 -12  -5  -2  287.54   14.70
 -13  -5  -2   -9.11    6.24
 -14   6   2    3.97    4.30
 -13   6   2  212.86    9.82
 -12   6   2  110.99    7.80
 -11   6   2  130.29    7.39
  10  -6  -2  362.56   11.47
 -10   6   2  401.06   11.51
   9  -6  -2  863.48   19.34
  -9   6   2  875.66   18.20
   8  -6  -2   50.97    4.73
  -8   6   2   50.60    4.24
   7  -6  -2   44.55    4.44
  -7   6   2   41.24    3.59
   6  -6  -2  735.21   16.32
  -6   6   2  727.99   14.35
   5  -6  -2  851.32   17.73
  -5   6   2  836.38   15.41
   4  -6  -2   71.38    4.42
  -4   6   2   64.67    3.09
   3  -6  -2  578.93   13.06
   3  -6  -2  581.55   11.22
  -3   6   2  592.63   10.86
   2  -6  -2 1537.37   25.66
   2  -6  -2 1565.23   27.06
   1  -6  -2  404.09    9.90
   1  -6  -2  418.78    9.63
   0  -6  -2  776.17   15.80
   0  -6  -2  791.24   15.29
  -1  -6  -2    4.24    1.76
  -1  -6  -2    3.18    2.02
  -2  -6  -2  469.28   10.18
  -2  -6  -2  465.33   12.01
  -3  -6  -2 1018.13   17.97
  -3  -6  -2 1003.91   20.73
  -4  -6  -2   14.83    3.44
  -4  -6  -2   10.32    1.98
  -5  -6  -2  154.43    8.24
  -6  -6  -2   17.92    4.35
  -7  -6  -2    6.76    4.09
  -8  -6  -2   22.16    5.67
  -9  -6  -2  603.73   18.80
 -10  -6  -2  381.37   15.59
 -11  -6  -2  106.04   10.18
 -12  -6  -2  118.08   11.14
 -13  -6  -2   91.28   10.94
 -14   7   2    1.76    3.98
 -13   7   2  109.01    8.29
 -12   7   2   36.11    5.04
  11  -7  -2   23.38    6.35
 -11   7   2   26.58    4.48
  10  -7  -2  335.35   11.67
 -10   7   2  350.28   10.69
   9  -7  -2    5.16    3.16
  -9   7   2    5.39    2.82
   8  -7  -2  251.25    9.40
  -8   7   2  242.58    8.14
   7  -7  -2  167.18    7.54
  -7   7   2  163.54    6.23
   6  -7  -2  398.76   11.63
  -6   7   2  408.61    9.70
   5  -7  -2  245.00    8.59
  -5   7   2  234.18    6.59
   4  -7  -2  128.34    6.08
   4  -7  -2  125.32    4.12
  -4   7   2  119.60    4.36
   3  -7  -2   19.32    3.05
   3  -7  -2   27.94    2.40
  -3   7   2   20.50    2.15
   2  -7  -2    4.20    2.11
   2  -7  -2    2.75    1.54
   1  -7  -2    8.20    2.33
   1  -7  -2    7.91    2.05
   0  -7  -2  819.94   16.54
   0  -7  -2  843.82   17.09
  -1  -7  -2   73.84    5.06
  -1  -7  -2   71.57    4.12
  -2  -7  -2 2347.05   40.31
  -2  -7  -2 2345.27   38.07
  -3  -7  -2    5.19    3.23
  -3  -7  -2    4.32    2.05
  -4  -7  -2   12.05    2.40
  -4  -7  -2   12.74    3.71
  -5  -7  -2  587.15   16.03
  -6  -7  -2    9.35    4.60
  -7  -7  -2   20.83    4.97
  -8  -7  -2  496.04   16.55
  -9  -7  -2  264.52   12.96
 -10  -7  -2   75.81    9.27
 -11  -7  -2   79.05   10.02
 -12  -7  -2  102.34   11.10
 -14   8   2   66.82    7.50
 -13   8   2   40.50    5.96
 -12   8   2  202.78    9.78
  11  -8  -2   83.64    7.40
 -11   8   2   90.52    6.94
  10  -8  -2  312.11   11.62
 -10   8   2  341.41   10.91
   9  -8  -2   54.02    5.63
  -9   8   2   55.36    5.03
   8  -8  -2  187.16    8.65
  -8   8   2  198.86    7.48
   7  -8  -2  586.74   15.70
  -7   8   2  610.44   13.45
   6  -8  -2 1021.87   22.06
  -6   8   2 1016.86   19.04
   5  -8  -2 1828.99   33.68
  -5   8   2 1842.49   30.33
   4  -8  -2  413.69   11.82
  -4   8   2  421.10    9.36
   3  -8  -2  493.58   12.85
   3  -8  -2  495.85   10.58
  -3   8   2  500.14   10.28
   2  -8  -2  889.42   17.14
   2  -8  -2  891.07   18.71
   1  -8  -2   65.10    4.89
   1  -8  -2   64.29    4.19
   0  -8  -2  527.19   12.90
   0  -8  -2  531.06   12.74
  -1  -8  -2 1563.29   27.77
  -1  -8  -2 1559.74   28.89
  -2  -8  -2  557.18   12.94
  -2  -8  -2  578.39   14.59
  -3  -8  -2   80.48    6.09
  -3  -8  -2   75.07    4.87
  -4  -8  -2   -0.48    3.29
  -4  -8  -2    3.09    2.28
  -5  -8  -2    9.03    4.10
  -6  -8  -2   -0.61    3.89
  -7  -8  -2   17.24    5.10
  -8  -8  -2   38.36    6.63
  -9  -8  -2    3.41    5.38
 -10  -8  -2    1.57    6.05
 -11  -8  -2   14.75    7.28
 -12  -8  -2  101.23   11.82
 -12   9   2  357.36   12.81
  11  -9  -2   65.44    7.03
 -11   9   2   69.76    6.39
  10  -9  -2   38.93    5.76
 -10   9   2   41.26    4.77
   9  -9  -2  468.44   14.96
  -9   9   2  459.18   12.55
   8  -9  -2   -0.46    3.22
  -8   9   2    4.68    2.79
   7  -9  -2   38.01    5.05
  -7   9   2   39.46    3.93
   6  -9  -2  552.88   15.38
  -6   9   2  553.53   12.50
   5  -9  -2  256.09   10.03
  -5   9   2  249.74    7.38
   4  -9  -2   48.41    4.99
  -4   9   2   46.13    3.55
   3  -9  -2    5.87    2.87
   2  -9  -2   -0.50    2.30
   2  -9  -2    1.75    1.89
   1  -9  -2    3.12    2.19
   1  -9  -2    1.66    2.38
   0  -9  -2  462.95   12.17
   0  -9  -2  459.63   12.26
  -1  -9  -2   18.63    3.63
  -1  -9  -2   17.05    3.12
  -2  -9  -2   52.12    4.50
  -2  -9  -2   54.99    5.52
  -3  -9  -2   46.16    5.42
  -3  -9  -2   40.08    4.03
  -4  -9  -2  232.43   10.15
  -4  -9  -2  236.36    8.12
  -5  -9  -2  827.15   20.99
  -6  -9  -2  121.86    9.35
  -7  -9  -2  104.17    9.38
  -8  -9  -2   16.65    5.86
  -9  -9  -2  197.32   12.44
 -10  -9  -2    4.83    5.90
 -11  -9  -2   86.66   11.09
  11 -10  -2   25.78    5.26
  10 -10  -2  111.01    8.25
   9 -10  -2   56.77    6.68
  -9  10   2   51.99    6.06
   8 -10  -2   37.63    5.49
  -8  10   2   41.28    4.45
   7 -10  -2   -2.13    2.95
  -7  10   2    0.69    2.48
   6 -10  -2    1.93    3.44
  -6  10   2    0.18    2.27
   5 -10  -2   53.03    5.67
  -5  10   2   54.46    4.13
   4 -10  -2   26.42    4.29
  -4  10   2   39.86    3.63
   3 -10  -2  410.20   12.61
   2 -10  -2  817.54   18.92
   1 -10  -2  360.12   11.24
   1 -10  -2  342.63   10.27
   0 -10  -2  173.14    7.67
   0 -10  -2  181.38    7.77
  -1 -10  -2  184.61    8.41
  -1 -10  -2  209.81    8.18
  -2 -10  -2  498.85   13.25
  -2 -10  -2  512.36   14.42
  -3 -10  -2  124.77    6.58
  -3 -10  -2  110.33    7.91
  -4 -10  -2  615.98   15.20
  -4 -10  -2  621.85   17.43
  -5 -10  -2  447.39   15.16
  -6 -10  -2  409.04   15.16
  -7 -10  -2    2.76    4.79
  -8 -10  -2   32.54    7.33
  -9 -10  -2   94.69   10.50
 -10 -10  -2    0.30    6.00
  11 -11  -2   15.54    5.37
  10 -11  -2  342.79   14.25
   9 -11  -2  590.54   18.31
   8 -11  -2  221.17   10.90
   7 -11  -2  141.12    8.79
   6 -11  -2  241.15   10.74
   5 -11  -2   38.38    5.42
  -5  11   2   36.69    4.64
   4 -11  -2  122.08    7.72
   3 -11  -2  299.20   11.17
   2 -11  -2  707.13   17.87
   1 -11  -2  204.24    8.94
   0 -11  -2  196.51    8.49
   0 -11  -2  222.07    9.06
  -1 -11  -2   51.70    5.46
  -1 -11  -2   57.77    5.39
  -2 -11  -2   85.98    6.57
  -2 -11  -2   85.03    5.94
  -3 -11  -2   -0.37    3.77
  -3 -11  -2    3.08    3.12
  -4 -11  -2   13.44    4.59
  -5 -11  -2  134.00    9.86
  -6 -11  -2    3.09    4.71
  -7 -11  -2   23.23    6.30
  -8 -11  -2    4.40    5.83
  -9 -11  -2   -3.22    5.73
 -10 -11  -2   80.73   10.53
  11 -12  -2    5.05    4.58
  10 -12  -2   70.91    8.43
   9 -12  -2   30.17    6.04
   8 -12  -2   36.57    5.97
   7 -12  -2    3.96    3.82
   6 -12  -2    6.49    3.92
   5 -12  -2   35.41    5.63
   4 -12  -2   -1.56    3.19
   3 -12  -2    5.94    4.02
   2 -12  -2   15.19    4.05
   1 -12  -2    1.19    3.18
   0 -12  -2   73.24    6.34
  -1 -12  -2  199.29    9.32
  -2 -12  -2  146.14    8.07
  -2 -12  -2  132.31    8.43
  -3 -12  -2   88.87    7.93
  -3 -12  -2   86.47    6.76
  -4 -12  -2  149.59    9.49
  -5 -12  -2    0.17    4.95
  -6 -12  -2  133.99   10.87
  -7 -12  -2   -0.59    5.70
  -8 -12  -2   84.75    9.99
  -9 -12  -2  151.77   13.51
  11 -13  -2   27.12    6.48
  10 -13  -2    5.51    5.19
   9 -13  -2   96.33    9.66
   8 -13  -2   41.63    6.80
   7 -13  -2   32.45    5.92
   6 -13  -2  101.05    8.75
   5 -13  -2  597.59   18.24
   4 -13  -2   34.40    5.82
   3 -13  -2   20.60    4.92
   2 -13  -2  187.48    9.73
   1 -13  -2  110.42    7.84
   0 -13  -2   32.98    5.45
  -1 -13  -2  354.66   12.83
  -2 -13  -2  428.24   14.00
  -3 -13  -2   59.77    6.31
  -3 -13  -2   66.24    7.45
  -4 -13  -2   25.06    5.58
  -5 -13  -2    3.83    5.41
  -6 -13  -2   19.94    6.43
  -7 -13  -2   27.73    7.73
  -8 -13  -2    9.30    7.08
   9 -14  -2   67.83    9.02
   8 -14  -2   34.67    6.84
   7 -14  -2   81.03    8.83
   6 -14  -2  195.51   11.18
   5 -14  -2  865.23   23.46
   4 -14  -2   24.98    5.49
   3 -14  -2   -2.66    3.66
   2 -14  -2   17.21    4.97
   1 -14  -2    2.62    4.48
   0 -14  -2    3.00    3.87
  -1 -14  -2    3.74    3.81
  -2 -14  -2    7.32    4.45
  -4 -14  -2    5.29    7.76
  -5 -14  -2  268.70   13.80
  -6 -14  -2   96.98   10.17
  -7 -14  -2   42.98    8.69
   7 -15  -2    7.83    5.10
   6 -15  -2   18.18    5.87
   5 -15  -2    0.35    4.32
   4 -15  -2    0.98    4.44
   3 -15  -2   14.08    5.74
   2 -15  -2  168.15   10.90
   1 -15  -2  336.84   13.69
   0 -15  -2   14.68    4.86
  -1 -15  -2   46.71    6.47
  -2 -15  -2  105.60    8.87
   5 -16  -2   22.22    6.12
   4 -16  -2   80.56    8.87
   3 -16  -2    4.71    4.78
   2 -16  -2  210.52   11.89
   1 -16  -2  222.32   11.95
   0 -16  -2   87.28    8.77
  -1 -16  -2    3.41    4.45
   1 -17  -2   56.39    9.40
   0 -17  -2  125.10   10.69
  -1 -17  -2   28.18    6.36
  -5 -16   3  173.30   13.00
  -4 -16   3    7.43    5.23
  -3 -16   3   90.98    9.04
  -2 -16   3  366.15   15.22
  -1 -16   3   29.61    6.78
   0 -16   3   39.26    7.20
   1 -16   3  299.09   14.55
   2 -16   3   21.83    5.94
   3 -16   3    1.92    4.65
   4 -16   3  417.12   17.13
  -5 -15   3   78.03    8.31
  -4 -15   3   22.79    6.32
  -3 -15   3    3.65    5.26
  -2 -15   3  103.96    9.13
  -1 -15   3    1.16    4.96
   0 -15   3   62.66    7.86
   1 -15   3   23.78    5.77
   2 -15   3   11.11    5.40
   3 -15   3   -5.38    3.90
   4 -15   3    4.53    5.17
   5 -15   3   -0.17    4.54
  -6  15  -3    4.00    4.66
   6 -15   3    0.98    4.71
  -7  15  -3   24.56    5.74
   7 -15   3   14.92    5.76
  -8 -14   3   -0.45    5.33
  -5 -14   3   59.53    7.22
  -4 -14   3    1.30    4.73
  -3 -14   3   21.51    5.39
  -2 -14   3  142.00    9.56
  -1 -14   3   51.26    6.85
   0 -14   3  188.34   11.20
   1 -14   3  431.30   15.47
   2 -14   3  307.28   13.19
   3 -14   3   58.79    7.27
   4 -14   3  108.62    9.65
  -5  14  -3  134.09    8.82
   5 -14   3  137.82    9.93
  -6  14  -3  141.44    8.63
   6 -14   3  136.20   11.18
  -7  14  -3   48.60    6.50
   7 -14   3   47.51    7.69
  -8  14  -3  192.56   10.10
   8 -14   3  178.61   11.85
  -9  14  -3   75.02    7.56
   9 -14   3   61.21    8.42
  -9 -13   3  159.91   12.85
  -8 -13   3   35.94    7.30
  -7 -13   3   38.95    6.92
  -6 -13   3  237.47   11.53
  -6 -13   3  208.61   12.99
  -5 -13   3  144.99    9.09
  -4 -13   3  110.82    8.25
  -3 -13   3   12.27    4.61
  -2 -13   3   99.46    8.18
  -1 -13   3   60.15    6.82
   0 -13   3  239.48   11.23
   1 -13   3  200.65   10.42
   2 -13   3  134.57    8.87
   3 -13   3   66.97    7.19
  -4  13  -3    9.65    3.83
   4 -13   3    6.96    4.43
  -5  13  -3   48.48    5.86
   5 -13   3   42.26    6.44
  -6  13  -3   19.45    4.52
   6 -13   3   29.64    5.95
  -7  13  -3    1.99    4.16
   7 -13   3    4.97    4.86
  -8  13  -3   29.86    5.39
   8 -13   3   43.01    7.42
  -9  13  -3   14.73    4.85
   9 -13   3   12.51    5.54
 -10  13  -3   62.31    7.64
 -10 -12   3   47.15    8.87
  -9 -12   3  166.15   12.50
  -8 -12   3   81.73    8.73
  -7 -12   3   97.28    8.97
  -6 -12   3    1.13    3.76
  -6 -12   3    0.61    4.02
  -5 -12   3   70.42    6.73
  -5 -12   3   73.23    7.22
  -4 -12   3   10.01    4.60
  -3 -12   3   75.49    6.95
  -2 -12   3   -1.76    3.47
  -1 -12   3    1.85    3.64
   0 -12   3   19.40    4.66
   1 -12   3   16.78    4.54
   2 -12   3  186.46    9.71
   3 -12   3   17.58    4.60
  -4  12  -3  188.68    8.47
   4 -12   3  173.15    9.73
  -5  12  -3  664.21   16.83
   5 -12   3  624.58   18.74
  -6  12  -3  145.16    8.48
   6 -12   3  152.17    9.58
  -7  12  -3   57.53    6.31
   7 -12   3   69.72    7.50
  -8  12  -3   21.62    5.03
   8 -12   3   37.46    6.11
  -9  12  -3  110.12    8.70
 -10  12  -3    0.08    4.17
 -11 -11   3   72.73    9.73
 -10 -11   3   -9.04    4.99
  -9 -11   3   14.99    6.38
  -8 -11   3  121.56    9.91
  -7 -11   3   26.50    6.12
  -6 -11   3   92.82    8.11
  -6 -11   3   82.07    7.00
  -5 -11   3  362.93   12.48
  -5 -11   3  360.72   12.44
  -4 -11   3  138.76    7.80
  -4 -11   3  138.79    8.13
  -3 -11   3  100.40    7.22
  -2 -11   3  760.53   19.00
  -1 -11   3  403.08   13.11
   0 -11   3    6.02    3.62
   1 -11   3  443.55   13.92
   2 -11   3  838.40   20.68
  -3  11  -3   83.94    5.86
   3 -11   3   82.48    7.21
  -4  11  -3  117.60    6.69
   4 -11   3  120.70    7.96
  -5  11  -3 1102.33   23.19
   5 -11   3 1104.05   25.63
  -6  11  -3  576.60   15.39
   6 -11   3  600.10   17.68
  -7  11  -3   35.63    5.05
   7 -11   3   29.62    5.40
  -8  11  -3   38.60    5.44
   8 -11   3   33.99    5.75
  -9  11  -3  128.82    8.89
 -10  11  -3   56.45    6.70
 -11  11  -3    8.48    4.67
 -12 -10   3  154.53   13.41
 -11 -10   3    7.00    6.22
 -10 -10   3  116.28   10.58
  -9 -10   3  369.74   15.12
  -8 -10   3  119.26    9.16
  -7 -10   3   14.31    4.33
  -7 -10   3   11.81    4.55
  -6 -10   3  324.01   12.45
  -6 -10   3  340.54   11.42
  -5 -10   3  150.22    7.87
  -5 -10   3  138.05    8.13
  -4 -10   3   27.09    4.50
  -4 -10   3   19.46    4.12
  -3 -10   3  160.62    8.16
  -3 -10   3  161.67    7.31
  -2 -10   3  256.76    8.56
  -2 -10   3  270.53   10.20
  -1 -10   3   14.30    3.83
   0 -10   3   98.91    6.77
   1 -10   3   36.96    4.86
  -2  10  -3   77.85    5.66
   2 -10   3   77.89    6.69
  -3  10  -3   81.65    5.46
   3 -10   3   66.83    6.30
  -4  10  -3   68.46    5.36
   4 -10   3   77.01    6.65
  -5  10  -3   11.19    3.31
   5 -10   3   12.62    4.19
  -6  10  -3  217.98    9.29
   6 -10   3  238.20   10.37
  -7  10  -3  350.84   11.54
   7 -10   3  327.70   12.53
  -8  10  -3    7.72    3.75
   8 -10   3   11.01    4.00
  -9  10  -3  257.73   10.81
 -10  10  -3  241.98   11.02
 -11  10  -3    5.90    4.50
 -12  10  -3   66.39    7.58
 -12  -9   3   25.60    7.31
 -11  -9   3    1.17    5.36
 -10  -9   3   38.75    7.02
  -9  -9   3   34.49    6.25
  -8  -9   3    8.93    4.49
  -7  -9   3  101.75    7.63
  -7  -9   3   87.53    6.77
  -6  -9   3   42.68    5.30
  -6  -9   3   35.99    4.61
  -5  -9   3   17.30    4.14
  -5  -9   3   22.24    4.24
  -4  -9   3    5.88    2.76
  -4  -9   3    5.28    3.19
  -3  -9   3   37.07    4.47
  -3  -9   3   29.09    3.64
  -2  -9   3   66.38    5.57
  -2  -9   3   72.21    4.54
  -1  -9   3   86.59    4.46
  -1  -9   3   88.02    6.05
   0  -9   3   69.60    5.87
   1  -9   3  139.29    7.27
  -2   9  -3  634.54   14.58
   2  -9   3  657.08   16.28
  -3   9  -3   59.80    4.85
   3  -9   3   46.91    5.23
  -4   9  -3  590.71   14.00
   4  -9   3  552.54   15.44
  -5   9  -3  406.44   11.53
   5  -9   3  400.69   13.00
  -6   9  -3   60.60    5.29
   6  -9   3   67.85    6.49
  -7   9  -3   33.89    4.90
   7  -9   3   43.21    5.23
  -8   9  -3  260.65   10.20
   8  -9   3  257.53   10.93
  -9   9  -3  282.07   11.45
 -10   9  -3   65.07    7.02
 -11   9  -3   31.72    5.79
 -12   9  -3  100.00    8.90
 -13  -8   3   15.45    6.91
 -12  -8   3   78.75    9.43
 -11  -8   3   -1.97    5.47
 -10  -8   3  270.32   13.45
  -9  -8   3  378.44   14.62
  -8  -8   3   81.57    7.35
  -7  -8   3    2.76    3.09
  -7  -8   3   -1.77    3.57
  -6  -8   3  208.15    9.04
  -6  -8   3  221.04    8.70
  -5  -8   3  368.25   10.88
  -5  -8   3  367.60   11.40
  -4  -8   3    0.36    2.26
  -4  -8   3    3.47    2.81
  -3  -8   3  924.11   18.59
  -3  -8   3  956.61   19.80
  -2  -8   3  956.76   19.90
  -2  -8   3  950.77   18.07
  -1  -8   3  167.04    7.13
  -1  -8   3  144.81    5.13
   0  -8   3   67.86    5.31
   0  -8   3   71.42    3.29
  -1   8  -3  758.48   15.80
   1  -8   3  761.46   17.30
  -2   8  -3  816.55   16.88
   2  -8   3  829.51   18.34
  -3   8  -3   58.01    4.48
   3  -8   3   59.61    5.33
  -4   8  -3   47.04    4.31
   4  -8   3   46.01    4.77
  -5   8  -3   78.21    5.29
   5  -8   3   83.81    6.22
  -6   8  -3   -0.87    2.91
   6  -8   3    2.69    2.97
  -7   8  -3   64.37    5.82
   7  -8   3   63.85    5.99
  -8   8  -3  108.60    6.98
   8  -8   3  120.97    7.31
  -9   8  -3   98.94    7.44
 -10   8  -3   48.49    6.02
 -11   8  -3   48.51    6.33
 -12   8  -3   58.75    7.15
 -13  -7   3  105.17   11.11
 -12  -7   3  108.56   10.29
 -11  -7   3   20.39    6.34
 -10  -7   3  657.61   19.45
  -9  -7   3  368.99   13.60
  -8  -7   3   24.50    4.18
  -8  -7   3   22.93    4.81
  -7  -7   3   39.26    4.47
  -7  -7   3   43.06    5.26
  -6  -7   3  202.68    7.89
  -6  -7   3  185.22    8.22
  -5  -7   3  128.03    6.46
  -5  -7   3  134.21    6.28
  -4  -7   3    2.33    2.67
  -4  -7   3   -1.33    1.99
  -3  -7   3   99.31    5.65
  -3  -7   3   81.84    4.64
  -2  -7   3    5.28    1.89
  -2  -7   3    4.22    2.38
  -1  -7   3   14.16    1.93
  -1  -7   3   10.20    2.65
   0  -7   3   45.57    4.15
   0  -7   3   50.56    2.59
  -1   7  -3  157.12    5.81
   1  -7   3  154.42    6.58
  -2   7  -3   45.25    3.63
   2  -7   3   44.99    4.26
  -3   7  -3    9.52    2.47
   3  -7   3    9.29    2.70
  -4   7  -3  292.84    8.92
   4  -7   3  298.78    9.64
  -5   7  -3  653.73   14.81
   5  -7   3  651.31   15.65
  -6   7  -3  627.13   14.87
   6  -7   3  631.27   15.54
  -7   7  -3   45.11    4.84
   7  -7   3   48.80    4.93
  -8   7  -3  111.66    6.89
  -9   7  -3   79.68    6.63
 -10   7  -3   21.18    4.96
 -11   7  -3  200.64   10.23
 -12   7  -3  361.82   13.94
 -13   7  -3  129.20   10.03
 -14  -6   3   46.75    8.63
 -13  -6   3    1.51    5.59
 -12  -6   3   -0.54    4.75
 -11  -6   3    1.91    5.14
 -10  -6   3    6.74    4.51
  -9  -6   3   24.03    5.24
  -8  -6   3    5.07    2.91
  -8  -6   3    2.47    3.50
  -7  -6   3  230.27    9.35
  -7  -6   3  241.25    8.13
  -6  -6   3  560.26   13.10
  -6  -6   3  564.49   14.33
  -5  -6   3  426.27   11.20
  -5  -6   3  383.61   10.24
  -4  -6   3    1.03    2.28
  -4  -6   3    0.26    1.91
  -3  -6   3  451.63   11.12
  -3  -6   3  470.90   10.74
  -2  -6   3 1273.01   23.21
  -2  -6   3 1274.31   21.84
  -1  -6   3 1150.63   19.27
  -1  -6   3 1146.89   21.33
   0  -6   3   53.20    4.00
   0  -6   3   52.17    2.37
  -1   6  -3 1361.30   23.61
   1  -6   3 1362.19   24.73
  -2   6  -3 1329.46   23.49
   2  -6   3 1361.15   24.76
  -3   6  -3   43.80    3.66
   3  -6   3   43.06    4.00
  -4   6  -3  641.81   13.86
   4  -6   3  623.53   14.51
  -5   6  -3 1081.05   20.80
   5  -6   3 1063.83   21.28
  -6   6  -3  636.26   14.68
   6  -6   3  623.40   14.71
  -7   6  -3   78.59    5.74
   7  -6   3   71.06    5.03
  -8   6  -3  101.37    6.50
  -9   6  -3  220.91    9.32
 -10   6  -3   43.83    5.56
 -11   6  -3   61.42    6.92
 -12   6  -3   96.51    8.61
 -13   6  -3   91.97    8.83
 -14  -5   3   39.93    8.62
 -13  -5   3  192.38   12.95
 -12  -5   3  494.42   17.46
 -11  -5   3  212.42   11.21
 -10  -5   3    9.74    4.44
  -9  -5   3   95.32    7.36
  -8  -5   3   68.55    6.07
  -8  -5   3   84.28    5.13
  -7  -5   3   11.24    3.28
  -7  -5   3   23.82    3.26
  -6  -5   3  448.73   12.02
  -6  -5   3  432.59   10.78
  -5  -5   3  914.90   17.66
  -5  -5   3  900.90   18.39
  -4  -5   3  318.98    8.82
  -4  -5   3  333.74    8.77
  -3  -5   3   64.12    3.76
  -3  -5   3   54.58    3.50
  -2  -5   3  174.76    5.92
  -2  -5   3  173.02    5.15
  -1  -5   3  569.49   12.07
  -1  -5   3  539.64   10.28
   0   5  -3  639.94   12.63
   0  -5   3  639.32   13.31
  -1   5  -3  542.81   11.27
   1  -5   3  555.49   12.06
  -2   5  -3   11.77    2.00
   2  -5   3    6.28    1.99
  -3   5  -3  135.30    5.15
   3  -5   3  150.71    5.85
  -4   5  -3    9.46    2.25
   4  -5   3   10.98    2.25
  -5   5  -3    7.72    2.35
   5  -5   3    0.92    1.84
  -6   5  -3   -2.54    2.06
   6  -5   3    2.22    1.97
  -7   5  -3   27.86    3.77
   7  -5   3   32.56    3.49
  -8   5  -3  103.47    6.33
  -9   5  -3  121.07    7.55
 -10   5  -3   19.75    4.54
 -11   5  -3    2.81    4.12
 -12   5  -3   56.03    6.72
 -13   5  -3    0.81    4.37
 -14  -4   3  108.00   11.08
 -13  -4   3  261.19   13.35
 -12  -4   3  389.28   15.12
 -11  -4   3   20.67    5.31
 -10  -4   3    3.89    3.80
  -9  -4   3  112.63    7.88
  -8  -4   3   15.82    3.71
  -8  -4   3   22.46    3.05
  -7  -4   3    2.64    2.06
  -7  -4   3   -0.46    2.37
  -6  -4   3   21.44    3.25
  -6  -4   3   22.15    2.81
  -5  -4   3    2.04    1.90
  -5  -4   3    1.44    1.77
  -4  -4   3   61.96    3.69
  -4  -4   3   61.60    3.62
  -3  -4   3   57.94    3.54
  -3  -4   3   58.70    3.26
  -2  -4   3    2.64    1.58
  -1  -4   3   85.61    3.83
   0   4  -3  246.63    6.26
   0  -4   3  259.53    6.85
  -1   4  -3  472.64    9.82
   1  -4   3  481.47   10.35
  -2   4  -3  740.65   13.89
   2  -4   3  731.36   14.31
  -3   4  -3  169.66    5.47
   3  -4   3  169.54    5.62
  -4   4  -3   31.85    3.13
  -4   4  -3   37.92    2.32
   4  -4   3   40.17    3.22
  -5   4  -3  138.45    5.55
  -5   4  -3  125.91    4.52
   5  -4   3  127.57    5.03
  -6   4  -3   95.49    4.46
  -6   4  -3   90.81    5.09
   6  -4   3   97.56    4.48
  -7   4  -3    2.25    2.42
  -8   4  -3  158.68    7.34
  -9   4  -3  731.36   17.60
 -10   4  -3  357.56   12.39
 -11   4  -3   20.38    4.96
 -12   4  -3   39.17    5.89
 -13   4  -3   96.50    8.46
 -15  -3   3    5.32    5.98
 -14  -3   3   55.63    8.46
 -13  -3   3    7.07    5.20
 -12  -3   3    2.77    4.44
 -11  -3   3    3.69    4.01
 -10  -3   3    3.00    3.60
  -9  -3   3   24.25    4.31
  -9  -3   3   30.07    3.34
  -8  -3   3   32.12    3.18
  -8  -3   3   33.76    4.37
  -7  -3   3   14.93    2.39
  -7  -3   3   17.22    3.26
  -6  -3   3   77.26    4.64
  -5  -3   3  863.59   15.99
  -5  -3   3  874.36   17.08
  -4  -3   3   88.69    3.75
  -3  -3   3   63.63    3.31
  -2  -3   3  809.51   14.65
  -1  -3   3  253.91    6.31
   0   3  -3   62.22    2.76
   0  -3   3   57.80    2.93
  -1   3  -3  115.71    3.86
   1  -3   3  121.29    4.26
  -2   3  -3  347.01    7.80
   2  -3   3  350.12    7.97
  -3   3  -3 1594.93   26.24
  -3   3  -3 1613.30   24.86
   3  -3   3 1554.65   26.02
  -4   3  -3  108.16    4.02
  -4   3  -3  111.74    4.55
   4  -3   3  109.46    4.14
  -5   3  -3   11.63    2.14
  -5   3  -3   12.60    2.33
   5  -3   3   13.03    1.87
  -6   3  -3  322.92    9.22
  -6   3  -3  317.74    8.54
   6  -3   3  303.29    7.52
  -7   3  -3   11.39    2.83
  -7   3  -3    9.38    2.78
  -8   3  -3   14.85    3.65
  -8   3  -3   15.31    3.27
  -9   3  -3  218.30    9.01
 -10   3  -3  203.05    9.20
 -11   3  -3   38.82    5.40
 -12   3  -3    0.59    4.36
 -13   3  -3   42.98    6.87
 -14   3  -3   53.15    7.39
 -15  -2   3    9.61    6.90
 -14  -2   3   -0.02    4.99
 -13  -2   3  161.81   10.38
 -12  -2   3  140.41    9.96
 -11  -2   3    5.15    3.93
 -10  -2   3  242.07   10.10
  -9  -2   3  557.90   12.45
  -9  -2   3  544.51   14.81
  -8  -2   3  120.08    6.35
  -8  -2   3  104.76    4.80
  -7  -2   3   25.32    2.71
  -7  -2   3   26.62    3.43
  -6  -2   3  317.60    7.89
  -6  -2   3  321.99    9.05
  -5  -2   3  538.21   10.91
  -4  -2   3  183.07    5.28
  -3  -2   3   17.82    1.84
  -2  -2   3  157.79    4.44
  -1  -2   3  256.41    5.93
   0   2  -3   -0.18    0.69
   0   2  -3    1.44    0.97
   0  -2   3    2.90    1.12
  -1   2  -3   83.38    3.06
  -1   2  -3   86.66    2.66
   1  -2   3   86.95    3.17
  -2   2  -3   32.14    1.94
  -2   2  -3   32.25    2.17
   2  -2   3   34.46    2.20
  -3   2  -3   92.85    3.71
  -3   2  -3   97.34    3.59
   3  -2   3   89.48    3.33
  -4   2  -3    5.34    1.75
  -4   2  -3    4.96    1.67
   4  -2   3    4.30    1.23
  -5   2  -3   20.91    2.66
  -5   2  -3   19.15    2.62
   5  -2   3   19.92    1.83
  -6   2  -3  320.82    9.09
  -6   2  -3  326.18    8.99
   6  -2   3  320.10    6.98
  -7   2  -3    7.84    2.85
  -7   2  -3    2.81    2.40
  -8   2  -3   46.26    4.73
  -8   2  -3   53.96    4.82
  -9   2  -3   85.00    6.59
  -9   2  -3   96.05    6.63
 -10   2  -3   36.69    5.02
 -10   2  -3   33.41    4.92
 -11   2  -3   35.52    5.32
 -12   2  -3  172.15    9.64
 -13   2  -3  203.96   11.41
 -14   2  -3   45.95    7.04
 -15  -1   3    1.19    5.31
 -14  -1   3    2.25    5.34
 -13  -1   3   46.48    7.26
 -12  -1   3   15.65    5.26
 -11  -1   3   59.15    6.41
 -10  -1   3   42.75    5.15
  -9  -1   3   18.77    2.80
  -9  -1   3   16.90    3.73
  -8  -1   3  180.56    6.07
  -8  -1   3  169.91    7.40
  -7  -1   3    3.83    2.20
  -7  -1   3    4.59    1.75
  -6  -1   3  894.15   16.32
  -5  -1   3  510.93   10.43
  -4  -1   3  681.94   12.59
  -3  -1   3  687.78   12.41
  -2  -1   3  308.08    6.60
  -1  -1   3  340.97    6.90
   0   1  -3   19.25    1.51
   0   1  -3   14.21    1.31
   0  -1   3   20.49    1.49
  -1   1  -3 1121.42   17.92
  -1   1  -3 1103.22   17.98
   1  -1   3 1123.35   17.70
  -2   1  -3 1151.85   18.76
  -2   1  -3 1142.42   19.06
   2  -1   3 1133.61   18.05
  -3   1  -3   17.70    1.92
  -3   1  -3   21.52    2.36
   3  -1   3   19.31    1.49
  -4   1  -3  256.91    7.21
  -4   1  -3  256.07    6.89
   4  -1   3  255.74    5.21
  -5   1  -3 1694.52   28.58
  -5   1  -3 1665.71   28.76
   5  -1   3 1671.92   25.44
  -6   1  -3  443.51   11.14
  -6   1  -3  446.39   11.31
  -7   1  -3  134.40    6.71
  -7   1  -3  144.67    6.42
  -8   1  -3   60.52    5.33
  -8   1  -3   60.70    5.17
  -9   1  -3  533.19   14.82
  -9   1  -3  530.43   14.40
 -10   1  -3   63.67    6.11
 -10   1  -3   75.65    6.64
 -11   1  -3    3.95    4.23
 -11   1  -3    1.37    3.59
 -12   1  -3  153.26    9.17
 -13   1  -3  184.68   11.10
 -14   1  -3    4.38    5.21
 -15   0   3   -0.54    5.13
 -14   0   3   55.03    7.41
 -13   0   3   52.44    6.82
 -12   0   3   27.17    5.71
 -11   0   3   47.16    5.62
 -10   0   3   -0.30    3.15
  -9   0   3    0.83    2.71
  -9   0   3    3.23    2.01
  -8   0   3  104.79    5.59
  -8   0   3   99.98    4.67
  -7   0   3 1413.78   24.25
  -7   0   3 1420.47   25.67
  -6   0   3 1008.88   18.00
  -5   0   3  666.39   12.70
  -4   0   3   44.64    2.48
  -3   0   3  263.82    6.07
  -2   0   3  576.69   10.42
   1   0  -3   94.42    3.01
  -1   0   3   97.82    2.91
   0   0  -3  343.91    6.99
   0   0   3  341.94    6.47
  -1   0  -3  320.77    6.91
  -1   0  -3  302.58    6.04
   1   0   3  311.10    5.79
  -2   0  -3  539.73   10.12
  -2   0  -3  568.66   11.19
   2   0   3  556.28    9.07
  -3   0  -3  381.33    9.09
   3   0   3  379.24    6.40
  -4   0  -3   28.10    2.93
   4   0   3   28.45    0.97
  -5   0  -3  218.22    7.26
  -6   0  -3  313.80    9.62
  -7   0  -3   80.99    6.03
  -8   0  -3   84.87    6.54
  -9   0  -3    7.80    3.63
 -10   0  -3   48.59    6.16
 -11   0  -3    4.17    3.75
 -11   0  -3    7.04    4.36
 -12   0  -3   56.31    7.59
 -12   0  -3   60.35    6.75
 -13   0  -3   89.46    8.30
 -14   0  -3   16.72    5.42
 -15   1   3  164.66   11.10
 -14   1   3   78.44    8.44
 -13   1   3  536.48   17.21
 -12   1   3  579.39   16.77
 -11   1   3  622.53   16.68
 -10   1   3   63.08    5.65
 -10   1   3   77.42    4.70
  -9   1   3  275.77    8.05
  -9   1   3  249.72    9.11
  -8   1   3  704.98   15.59
  -8   1   3  699.74   14.49
   7  -1  -3  391.20    9.50
   6  -1  -3  232.93    6.60
   5  -1  -3  119.01    4.39
   4  -1  -3  705.39   13.22
   3  -1  -3   17.97    1.82
   2  -1  -3   44.42    2.23
   2  -1  -3   37.03    2.19
   1  -1  -3 1423.55   22.12
   1  -1  -3 1375.58   22.34
   0  -1  -3 1203.63   18.49
   0  -1  -3 1135.59   19.29
  -1  -1  -3  244.92    6.26
   1   1   3  234.16    4.61
  -2  -1  -3   26.28    2.61
   2   1   3   22.00    1.09
  -3  -1  -3   72.87    4.00
  -4  -1  -3  162.49    6.16
  -5  -1  -3   18.08    3.17
  -6  -1  -3  312.24    9.98
  -7  -1  -3  250.87    9.63
  -8  -1  -3  155.86    8.45
 -10  -1  -3  405.55   14.36
 -11  -1  -3  147.67    9.58
 -12  -1  -3    8.61    5.70
 -13  -1  -3   72.26    8.90
 -13  -1  -3   66.48    7.50
 -15   2   3    1.67    4.08
 -14   2   3    6.25    5.62
 -13   2   3   28.99    5.85
 -12   2   3   87.13    7.38
 -11   2   3  112.21    7.46
 -10   2   3   55.41    4.50
 -10   2   3   59.48    5.49
   9  -2  -3    5.77    2.33
  -9   2   3    8.47    2.93
   8  -2  -3    0.77    1.87
   7  -2  -3   10.71    2.16
   6  -2  -3   -0.61    1.42
   5  -2  -3   23.85    2.41
   4  -2  -3   27.87    2.49
   3  -2  -3  263.57    6.50
   2  -2  -3  475.46    9.23
   2  -2  -3  464.15    9.29
   1  -2  -3 2937.04   44.66
   1  -2  -3 2927.95   44.18
   0  -2  -3 1009.52   16.37
   0  -2  -3 1001.36   17.50
  -1  -2  -3  338.74    6.41
  -2  -2  -3  231.75    4.48
  -2  -2  -3  229.24    7.06
  -3  -2  -3   69.23    4.20
   3   2   3   66.75    1.58
  -4  -2  -3  139.29    6.06
  -5  -2  -3   95.21    5.51
  -6  -2  -3 1492.15   28.35
  -7  -2  -3  121.51    7.11
  -8  -2  -3  489.94   14.53
  -9  -2  -3  280.69   11.83
 -10  -2  -3  642.19   18.58
 -11  -2  -3   69.00    8.07
 -12  -2  -3    1.29    4.91
 -13  -2  -3   59.69    8.87
 -15   3   3   59.71    6.99
 -14   3   3    1.76    4.02
 -13   3   3   33.08    5.01
 -12   3   3   46.22    5.63
 -12   3   3   44.56    5.15
 -11   3   3    3.38    3.27
  10  -3  -3    2.27    2.51
 -10   3   3    4.12    2.85
   9  -3  -3 1286.62   24.39
  -9   3   3 1294.94   24.64
   8  -3  -3 1775.02   30.96
   7  -3  -3  565.17   12.76
   6  -3  -3   39.75    3.43
   5  -3  -3  133.01    5.06
   4  -3  -3 1006.60   18.13
  -4   3   3  980.66   15.98
   3  -3  -3   91.17    3.42
   3  -3  -3  102.87    4.05
   2  -3  -3   50.25    2.73
   2  -3  -3   45.59    2.71
   1  -3  -3 2831.44   43.85
   1  -3  -3 2857.42   43.44
   0  -3  -3   37.86    2.77
   0  -3  -3   36.82    2.22
  -1  -3  -3  657.11   13.42
  -1  -3  -3  639.86   11.30
  -2  -3  -3  293.66    8.35
  -2  -3  -3  292.55    5.84
  -3  -3  -3  305.75    8.95
  -3  -3  -3  295.98    5.59
  -4  -3  -3  210.04    7.73
  -4  -3  -3  215.51    3.84
  -5  -3  -3  110.31    6.49
  -6  -3  -3   50.53    5.18
  -7  -3  -3   36.48    4.93
  -8  -3  -3   37.58    5.41
  -9  -3  -3   73.71    7.20
 -10  -3  -3   29.70    5.95
 -11  -3  -3   29.19    6.32
 -12  -3  -3   84.18    9.55
 -13  -3  -3  117.61   11.02
 -15   4   3  315.43   13.30
 -14   4   3   32.47    5.43
 -13   4   3   26.96    4.95
 -12   4   3    4.95    3.02
 -11   4   3   44.26    4.68
 -11   4   3   41.67    4.94
  10  -4  -3   17.42    3.39
 -10   4   3   21.90    3.54
 -10   4   3   17.31    3.44
   9  -4  -3  914.14   19.09
  -9   4   3  910.58   18.75
  -9   4   3  899.56   18.39
   8  -4  -3  769.37   16.61
  -8   4   3  769.41   15.54
   7  -4  -3  122.88    5.61
  -7   4   3  119.28    4.78
   6  -4  -3   17.66    2.81
  -6   4   3   19.73    2.14
   5  -4  -3  298.75    8.36
  -5   4   3  300.58    6.66
   4  -4  -3   13.68    2.20
  -4   4   3   13.41    1.38
   3  -4  -3  277.80    7.37
   3  -4  -3  272.99    6.67
  -3   4   3  267.08    5.24
   2  -4  -3  138.97    4.86
   2  -4  -3  148.18    4.74
   1  -4  -3   76.83    3.61
   1  -4  -3   82.61    3.55
   0  -4  -3 1410.09   23.09
   0  -4  -3 1395.64   24.33
  -1  -4  -3    2.75    1.18
  -1  -4  -3    2.09    1.75
  -2  -4  -3  286.99    6.34
  -2  -4  -3  293.98    8.87
  -3  -4  -3  137.61    3.74
  -3  -4  -3  131.57    6.22
  -4  -4  -3    4.41    2.64
  -4  -4  -3    2.45    0.93
  -5  -4  -3  383.07   11.82
  -6  -4  -3 1466.72   29.12
  -7  -4  -3  479.75   14.57
  -8  -4  -3   10.19    4.31
  -9  -4  -3  438.59   15.21
 -10  -4  -3   64.85    7.64
 -11  -4  -3    1.02    5.08
 -12  -4  -3   59.16    8.43
 -13  -4  -3  244.40   15.14
 -15   5   3  100.03    8.52
 -14   5   3   10.48    4.64
 -13   5   3   58.23    6.38
 -12   5   3  297.40   10.88
  11  -5  -3  233.45    9.01
 -11   5   3  200.47    8.55
  10  -5  -3   17.32    3.48
 -10   5   3   20.83    3.64
   9  -5  -3   61.23    5.20
  -9   5   3   48.31    4.29
   8  -5  -3  153.06    7.05
  -8   5   3  165.52    6.16
   7  -5  -3   82.15    5.08
  -7   5   3   90.32    4.29
   6  -5  -3  368.88   10.20
  -6   5   3  361.21    8.28
   5  -5  -3  998.25   19.57
  -5   5   3 1001.93   17.02
   4  -5  -3 1176.26   21.71
  -4   5   3 1154.86   18.80
   3  -5  -3    1.11    1.64
   3  -5  -3    2.83    1.35
  -3   5   3    2.62    0.97
   2  -5  -3  407.03    9.63
   2  -5  -3  397.27    9.19
   1  -5  -3 1000.93   18.32
   1  -5  -3 1021.93   18.71
   0  -5  -3  909.50   17.66
   0  -5  -3  894.94   16.45
  -1  -5  -3  286.39    6.98
  -1  -5  -3  271.34    8.36
  -2  -5  -3 1217.04   23.46
  -2  -5  -3 1223.85   20.46
  -3  -5  -3 1080.11   18.18
  -3  -5  -3 1091.86   22.12
  -4  -5  -3  162.60    7.66
  -4  -5  -3  149.04    4.26
  -5  -5  -3  692.59   17.23
  -6  -5  -3  593.53   16.30
  -7  -5  -3  106.15    8.31
  -8  -5  -3   43.34    6.09
  -9  -5  -3   42.11    6.28
 -10  -5  -3    5.55    5.15
 -11  -5  -3    8.27    5.65
 -12  -5  -3   -0.76    5.63
 -13  -5  -3    4.18    6.97
 -15   6   3   14.73    4.97
 -14   6   3    7.93    4.35
 -13   6   3  371.60   12.84
 -12   6   3  695.47   17.41
  11  -6  -3  370.67   12.32
 -11   6   3  397.34   11.83
  10  -6  -3    8.31    3.38
 -10   6   3    9.71    3.10
   9  -6  -3  351.60   11.36
  -9   6   3  350.57    9.92
   8  -6  -3  258.33    9.47
  -8   6   3  274.54    8.09
   7  -6  -3    0.35    2.24
  -7   6   3    0.48    1.81
   6  -6  -3  293.96    9.33
  -6   6   3  288.80    7.33
   5  -6  -3  297.72    9.22
  -5   6   3  303.40    7.07
   4  -6  -3   12.98    2.71
   4  -6  -3   16.70    2.05
  -4   6   3   14.90    1.70
   3  -6  -3   13.76    2.56
   3  -6  -3   16.50    2.16
  -3   6   3   17.84    1.63
   2  -6  -3  228.76    6.82
   2  -6  -3  229.10    7.19
   1  -6  -3    9.60    2.22
   1  -6  -3    6.59    2.02
   0  -6  -3  295.95    8.66
   0  -6  -3  299.69    7.99
  -1  -6  -3  165.83    5.58
  -1  -6  -3  165.73    6.90
  -2  -6  -3    3.46    2.59
  -2  -6  -3    5.80    1.79
  -3  -6  -3  320.75   10.48
  -3  -6  -3  321.57    7.72
  -4  -6  -3    3.06    1.58
  -4  -6  -3   -0.87    2.96
  -5  -6  -3    6.92    3.71
  -6  -6  -3  384.62   13.25
  -7  -6  -3  604.54   17.67
  -8  -6  -3   60.57    7.25
  -9  -6  -3   84.41    8.56
 -10  -6  -3  341.78   15.74
 -11  -6  -3  126.25   11.18
 -12  -6  -3   14.47    7.33
 -14   7   3   12.65    5.11
 -13   7   3  121.41    7.74
 -12   7   3  173.77    8.64
  11  -7  -3   57.32    5.84
 -11   7   3   55.86    5.18
  10  -7  -3    2.34    2.96
 -10   7   3   -0.66    2.72
   9  -7  -3   13.86    3.52
  -9   7   3   13.55    3.11
   8  -7  -3   33.31    4.61
  -8   7   3   31.06    3.45
   7  -7  -3  154.57    7.42
  -7   7   3  169.81    6.02
   6  -7  -3  425.46   12.11
  -6   7   3  414.87    9.49
   5  -7  -3    5.75    2.59
  -5   7   3    5.46    1.69
   4  -7  -3  107.00    5.95
   4  -7  -3   92.59    4.11
  -4   7   3  103.38    3.77
   3  -7  -3   64.72    3.69
   3  -7  -3   76.40    4.78
   2  -7  -3  562.31   12.58
   2  -7  -3  573.56   13.37
   1  -7  -3  151.35    6.11
   1  -7  -3  163.96    6.38
   0  -7  -3    2.34    2.00
   0  -7  -3    1.23    1.75
  -1  -7  -3  123.90    6.17
  -1  -7  -3  111.35    5.12
  -2  -7  -3  271.83    9.76
  -2  -7  -3  262.33    7.65
  -3  -7  -3   64.83    3.91
  -3  -7  -3   75.46    6.29
  -4  -7  -3   -0.37    3.23
  -4  -7  -3    1.87    1.84
  -5  -7  -3  215.83   10.37
  -6  -7  -3  522.99   16.12
  -7  -7  -3   87.32    8.03
  -8  -7  -3   54.19    7.56
  -9  -7  -3  438.85   17.26
 -10  -7  -3  304.83   14.93
 -11  -7  -3   77.89    9.75
 -12  -7  -3   16.76    7.24
  11  -8  -3   34.25    5.44
 -11   8   3   32.44    4.90
  10  -8  -3  115.16    7.96
 -10   8   3  112.92    6.61
   9  -8  -3  777.23   19.54
  -9   8   3  799.98   17.07
   8  -8  -3  768.67   19.06
  -8   8   3  792.36   16.34
   7  -8  -3  138.25    7.48
  -7   8   3  137.54    5.66
   6  -8  -3   13.55    3.54
  -6   8   3   18.21    2.61
   5  -8  -3  436.84   12.54
  -5   8   3  424.50    9.49
   4  -8  -3  147.80    7.09
   4  -8  -3  153.54    5.46
  -4   8   3  165.04    4.97
   3  -8  -3   81.48    4.38
   3  -8  -3   78.51    5.29
   2  -8  -3 1205.36   22.77
   2  -8  -3 1232.71   23.71
   1  -8  -3 1304.02   24.55
   1  -8  -3 1308.68   24.65
   0  -8  -3   61.38    4.66
   0  -8  -3   50.22    4.19
  -1  -8  -3  118.95    6.69
  -1  -8  -3  112.15    5.39
  -2  -8  -3  265.13    9.80
  -2  -8  -3  271.46    8.21
  -3  -8  -3    0.41    2.01
  -3  -8  -3    3.92    3.85
  -4  -8  -3   37.94    5.32
  -5  -8  -3   24.92    5.37
  -6  -8  -3   31.87    5.70
  -7  -8  -3   26.03    5.75
  -8  -8  -3   30.79    6.42
  -9  -8  -3    2.62    5.44
 -10  -8  -3    7.04    5.98
 -11  -8  -3    2.01    6.97
  12  -9  -3   74.51   10.26
  11  -9  -3   22.07    5.11
  10  -9  -3   31.87    5.44
   9  -9  -3  195.57    9.63
   8  -9  -3  644.94   17.56
   7  -9  -3  106.15    7.10
  -7   9   3  107.06    6.30
   6  -9  -3    2.92    3.10
  -6   9   3    6.25    2.26
   5  -9  -3  144.90    7.56
  -5   9   3  127.85    5.12
   4  -9  -3    2.03    2.68
  -4   9   3    3.66    1.74
   3  -9  -3   36.20    4.38
   2  -9  -3   25.85    3.81
   2  -9  -3   24.17    3.33
   1  -9  -3   33.60    3.98
   1  -9  -3   38.02    4.02
   0  -9  -3   27.98    4.01
   0  -9  -3   18.45    3.51
  -1  -9  -3   -0.84    2.14
  -1  -9  -3    2.52    3.04
  -2  -9  -3  483.48   14.07
  -2  -9  -3  505.55   12.48
  -3  -9  -3   12.28    2.86
  -3  -9  -3   15.04    4.56
  -4  -9  -3  184.24    9.59
  -5  -9  -3  282.85   12.04
  -6  -9  -3  108.80    9.10
  -7  -9  -3  129.73    9.99
  -8  -9  -3   79.40    8.95
  -9  -9  -3  144.33   11.75
 -10  -9  -3  211.76   14.63
 -11  -9  -3    3.53    6.67
  12 -10  -3   27.65    5.98
  11 -10  -3   72.22    7.63
  10 -10  -3    0.66    3.93
   9 -10  -3   31.16    5.33
   8 -10  -3  123.58    8.11
   7 -10  -3   98.87    7.35
   6 -10  -3    5.96    3.72
   5 -10  -3  481.02   14.52
   4 -10  -3  228.88    9.55
   3 -10  -3   11.66    3.57
   2 -10  -3  137.02    6.53
   2 -10  -3  158.93    7.69
   1 -10  -3  137.32    7.09
   1 -10  -3  138.18    6.83
   0 -10  -3  124.47    6.99
   0 -10  -3  147.66    7.51
  -1 -10  -3  212.36    9.19
  -1 -10  -3  183.80    7.78
  -2 -10  -3  167.18    7.52
  -2 -10  -3  174.72    9.06
  -3 -10  -3  998.55   23.35
  -3 -10  -3 1015.25   20.69
  -4 -10  -3   17.20    5.03
  -5 -10  -3   11.14    4.90
  -6 -10  -3  331.60   14.03
  -7 -10  -3   10.98    5.49
  -8 -10  -3   -5.06    5.47
  -9 -10  -3   93.10   10.69
 -10 -10  -3    1.15    7.05
  12 -11  -3  397.10   16.16
  11 -11  -3  226.75   11.81
  10 -11  -3   -4.51    3.43
   9 -11  -3  274.04   12.30
   8 -11  -3    8.15    4.15
   7 -11  -3  100.63    8.19
   6 -11  -3  504.16   15.91
   5 -11  -3  335.79   12.43
   4 -11  -3  670.85   17.85
   3 -11  -3    9.48    3.66
   2 -11  -3  143.80    7.83
   1 -11  -3  204.37    9.27
   0 -11  -3   19.33    3.87
   0 -11  -3   19.92    4.10
  -1 -11  -3    2.03    3.05
  -1 -11  -3    0.36    3.34
  -2 -11  -3   72.93    6.76
  -2 -11  -3   64.45    5.51
  -3 -11  -3   -2.43    2.68
  -3 -11  -3   -1.29    4.02
  -4 -11  -3   -3.54    3.63
  -5 -11  -3   64.62    7.88
  -6 -11  -3    1.24    4.87
  -7 -11  -3   16.76    6.80
  -8 -11  -3    2.45    5.79
  -9 -11  -3   44.70    9.08
  12 -12  -3  208.54   12.27
  11 -12  -3  288.64   14.24
  10 -12  -3    2.96    4.74
   9 -12  -3   14.26    5.18
   8 -12  -3   37.78    6.18
   7 -12  -3   31.99    5.71
   6 -12  -3   -2.34    3.33
   5 -12  -3    1.91    3.70
   4 -12  -3    6.10    3.85
   3 -12  -3   24.67    4.85
   2 -12  -3   45.01    5.67
   1 -12  -3  128.83    7.80
   0 -12  -3    1.32    3.51
  -1 -12  -3    7.60    3.83
  -1 -12  -3    2.31    3.47
  -2 -12  -3  145.17    9.05
  -2 -12  -3  148.78    7.74
  -3 -12  -3  269.86   11.74
  -4 -12  -3   -1.72    4.53
  -5 -12  -3   26.12    6.09
  -6 -12  -3  176.82   12.32
  -7 -12  -3   34.49    7.30
  -8 -12  -3    4.56    6.75
  11 -13  -3    5.04    6.39
  10 -13  -3    9.89    5.07
   9 -13  -3   58.06    7.75
   8 -13  -3  240.73   12.90
   7 -13  -3  131.36    9.55
   6 -13  -3    4.71    4.37
   5 -13  -3  324.15   13.30
   4 -13  -3  139.66    9.00
   3 -13  -3   14.14    4.61
   2 -13  -3  144.57    9.27
   1 -13  -3  253.41   10.94
   0 -13  -3  158.58    9.28
  -1 -13  -3    0.39    3.75
  -2 -13  -3  202.56    9.78
  -2 -13  -3  194.23   10.37
  -3 -13  -3  193.95   10.92
  -4 -13  -3    0.76    4.93
  -5 -13  -3   30.48    6.49
  -6 -13  -3    0.37    5.12
  -7 -13  -3   28.45    7.66
   9 -14  -3  245.72   13.82
   8 -14  -3  350.46   15.33
   7 -14  -3  137.89   10.25
   6 -14  -3  168.94   10.73
   5 -14  -3  402.84   15.82
   4 -14  -3    3.89    4.39
   3 -14  -3    6.84    4.39
   2 -14  -3  115.40    8.58
   1 -14  -3    5.74    4.14
   0 -14  -3    5.23    4.05
  -1 -14  -3   16.33    4.74
  -2 -14  -3    4.34    4.15
  -4 -14  -3  140.32   10.67
  -5 -14  -3   36.68    7.56
  -6 -14  -3   22.88    6.61
   7 -15  -3   65.08    8.83
   6 -15  -3  149.46   10.64
   5 -15  -3   61.41    7.73
   4 -15  -3   43.62    6.78
   3 -15  -3   33.43    6.27
   2 -15  -3   49.69    7.16
   1 -15  -3   94.53    8.55
   0 -15  -3   15.81    4.96
  -1 -15  -3   42.84    6.65
   5 -16  -3  128.80   12.31
   4 -16  -3  585.63   19.76
   3 -16  -3  136.97   10.24
   2 -16  -3    8.48    4.92
   1 -16  -3   48.80    7.61
   0 -16  -3   41.72    6.92
  -1 -16  -3   11.32    4.93
   0 -17  -3   18.45    6.14
  -5 -16   4  781.54   23.68
  -4 -16   4  198.30   12.25
  -3 -16   4   -0.36    5.13
  -2 -16   4  123.10   10.82
  -1 -16   4    9.24    5.40
   0 -16   4  104.72    9.75
   1 -16   4  572.74   19.50
   2 -16   4  584.53   19.88
   3 -16   4  396.51   16.74
  -6 -15   4  232.39   14.52
  -5 -15   4  531.27   18.47
  -4 -15   4  276.43   13.72
  -3 -15   4   68.42    8.43
  -2 -15   4   91.69    9.07
  -1 -15   4  145.96   10.36
   0 -15   4  120.85    9.98
   1 -15   4  113.06   10.12
   2 -15   4   41.58    6.83
   3 -15   4  118.28   10.07
   4 -15   4   49.03    7.43
   5 -15   4  258.40   14.14
  -6  15  -4  186.70   10.85
   6 -15   4  179.74   12.50
  -7  15  -4   45.78    6.90
  -6 -14   4   97.58    8.91
  -5 -14   4   88.00    8.89
  -4 -14   4   36.60    6.69
  -3 -14   4  279.56   12.65
  -2 -14   4  557.83   17.79
  -1 -14   4  982.18   24.89
   0 -14   4  107.47    9.12
   1 -14   4   12.84    5.47
   2 -14   4   69.50    8.08
   3 -14   4   77.98    8.20
   4 -14   4  104.93    9.67
  -5  14  -4  420.92   14.13
   5 -14   4  439.60   17.08
  -6  14  -4  563.36   16.74
   6 -14   4  568.46   19.34
  -7  14  -4   37.53    5.94
   7 -14   4   50.79    7.72
  -8  14  -4   40.10    6.65
   8 -14   4   53.20    8.00
  -9 -13   4  808.26   24.34
  -8 -13   4  820.92   23.99
  -7 -13   4  541.83   18.31
  -6 -13   4   46.89    6.97
  -5 -13   4    0.35    4.18
  -4 -13   4   23.30    5.38
  -3 -13   4   65.65    7.28
  -2 -13   4  769.66   20.95
  -1 -13   4 1397.59   30.52
   0 -13   4  350.11   13.85
   1 -13   4    6.52    4.88
   2 -13   4   24.12    5.39
   3 -13   4   15.55    5.20
  -4  13  -4    5.77    4.20
   4 -13   4    4.11    4.60
  -5  13  -4   67.32    6.82
   5 -13   4   50.77    6.99
  -6  13  -4   23.14    4.94
   6 -13   4   24.82    5.54
  -7  13  -4   16.76    4.67
   7 -13   4   11.51    4.87
  -8  13  -4    0.82    4.15
   8 -13   4   11.17    5.03
  -9  13  -4  126.24    9.41
 -10 -12   4   61.18    8.84
  -9 -12   4  303.09   14.59
  -8 -12   4  567.01   19.19
  -7 -12   4   67.40    7.63
  -7 -12   4   78.52    7.75
  -6 -12   4  189.72   10.10
  -6 -12   4  190.50   10.08
  -5 -12   4   41.07    8.75
  -5 -12   4   41.94    6.37
  -4 -12   4  385.58   13.70
  -3 -12   4  125.22    9.11
  -2 -12   4   34.82    5.61
  -1 -12   4  112.30    8.12
   0 -12   4   16.67    4.70
   1 -12   4   54.69    6.33
   2 -12   4  232.49   10.96
  -3  12  -4  244.50    9.75
   3 -12   4  251.20   11.38
  -4  12  -4  552.22   15.25
   4 -12   4  567.64   17.43
  -5  12  -4    4.39    3.59
   5 -12   4    4.95    4.00
  -6  12  -4   37.63    5.29
   6 -12   4   37.58    6.13
  -7  12  -4   12.98    4.54
   7 -12   4   11.49    4.57
  -8  12  -4   85.55    7.48
   8 -12   4   94.41    9.23
  -9  12  -4  458.00   15.43
 -10  12  -4  164.23   10.77
 -11 -11   4  433.38   18.40
 -10 -11   4   72.68    9.52
  -9 -11   4    3.31    5.04
  -8 -11   4   20.57    5.69
  -7 -11   4    7.18    4.56
  -7 -11   4    4.56    4.35
  -6 -11   4  540.07   15.78
  -6 -11   4  531.55   16.02
  -5 -11   4  721.47   18.35
  -5 -11   4  741.74   18.96
  -4 -11   4  868.38   19.70
  -4 -11   4  840.04   20.73
  -3 -11   4    8.53    3.96
  -2 -11   4  268.03   11.31
  -1 -11   4  442.74   14.08
   0 -11   4   19.40    4.91
   1 -11   4 1020.87   23.50
   2 -11   4 1743.07   34.60
  -3  11  -4  868.39   19.57
   3 -11   4  878.23   21.97
  -4  11  -4  733.67   17.81
   4 -11   4  793.86   20.35
  -5  11  -4   83.27    6.69
   5 -11   4   91.11    7.90
  -6  11  -4   48.54    5.53
   6 -11   4   47.76    6.53
  -7  11  -4   32.05    5.21
   7 -11   4   31.45    5.81
  -8  11  -4  193.37   10.14
   8 -11   4  171.44   10.54
  -9  11  -4  173.55    9.69
 -10  11  -4   76.34    7.66
 -11  11  -4   27.22    5.87
 -12 -10   4  438.67   19.49
 -11 -10   4  457.10   18.87
 -10 -10   4   11.50    6.36
  -9 -10   4   46.04    7.12
  -8 -10   4   92.69    8.45
  -7 -10   4   24.05    5.50
  -7 -10   4   24.32    4.73
  -6 -10   4  974.39   22.44
  -6 -10   4  974.78   22.52
  -5 -10   4  444.33   14.07
  -5 -10   4  459.03   13.64
  -4 -10   4  140.91    7.95
  -4 -10   4  131.90    7.16
  -3 -10   4   75.91    6.40
  -3 -10   4   79.21    5.42
  -2 -10   4   14.35    4.02
  -1 -10   4   81.70    6.64
   0 -10   4  258.34   10.29
   1 -10   4  281.86   10.81
  -2  10  -4   19.24    3.87
   2 -10   4   18.90    4.30
  -3  10  -4   73.69    5.63
   3 -10   4   61.87    6.24
  -4  10  -4  108.80    6.45
   4 -10   4   99.71    7.13
  -5  10  -4  135.42    7.63
   5 -10   4  127.15    7.92
  -6  10  -4  178.77    8.79
   6 -10   4  162.60    9.37
  -7  10  -4  179.49    9.19
   7 -10   4  188.18   10.04
  -8  10  -4    5.84    4.29
  -9  10  -4   40.28    5.75
 -10  10  -4  107.44    8.65
 -11  10  -4    7.25    4.67
 -12  -9   4  262.76   14.65
 -11  -9   4   95.76    9.71
 -10  -9   4   34.09    6.58
  -9  -9   4   -2.20    4.16
  -8  -9   4   41.73    6.38
  -8  -9   4   49.41    5.80
  -7  -9   4  150.72    8.61
  -7  -9   4  144.41    8.20
  -6  -9   4  868.09   20.37
  -6  -9   4  838.51   19.70
  -5  -9   4  221.33    9.12
  -5  -9   4  220.26    9.07
  -4  -9   4    9.65    3.90
  -4  -9   4   15.51    3.46
  -3  -9   4   89.60    5.35
  -3  -9   4  102.19    6.70
  -2  -9   4 1063.80   19.79
  -2  -9   4 1020.82   22.13
  -1  -9   4  951.79   20.97
   0  -9   4  396.96   12.18
  -1   9  -4   24.63    3.56
   1  -9   4   21.15    4.22
  -2   9  -4  470.99   12.29
   2  -9   4  480.05   13.77
  -3   9  -4  762.91   17.14
   3  -9   4  815.51   19.20
  -4   9  -4  187.65    8.12
   4  -9   4  189.96    8.82
  -5   9  -4  303.85   10.10
   5  -9   4  287.23   11.16
  -6   9  -4  824.10   18.68
   6  -9   4  776.33   19.71
  -7   9  -4  163.30    8.20
   7  -9   4  163.28    8.88
  -8   9  -4   -3.01    3.34
  -9   9  -4   45.25    6.13
 -10   9  -4    9.09    4.27
 -11   9  -4   36.72    6.45
 -12   9  -4   61.84    8.06
 -13  -8   4   23.31    7.24
 -12  -8   4   53.83    8.23
 -11  -8   4    4.20    5.11
 -10  -8   4  164.10   10.96
  -9  -8   4  468.05   15.70
  -8  -8   4  486.77   15.33
  -8  -8   4  482.41   13.78
  -7  -8   4  488.44   13.47
  -7  -8   4  475.64   14.47
  -6  -8   4   64.10    6.02
  -6  -8   4   66.92    5.68
  -5  -8   4  518.39   13.92
  -5  -8   4  505.81   13.49
  -4  -8   4  233.45    9.06
  -4  -8   4  224.31    8.24
  -3  -8   4  576.35   14.48
  -3  -8   4  584.79   13.28
  -2  -8   4 1392.14   26.90
  -2  -8   4 1397.06   24.40
  -1  -8   4 1972.17   32.00
  -1  -8   4 2008.11   35.77
   0  -8   4  305.38    9.97
  -1   8  -4    3.10    2.34
   1  -8   4    5.10    2.90
  -2   8  -4   74.73    4.83
   2  -8   4   64.82    5.54
  -3   8  -4    0.01    2.32
   3  -8   4    4.24    2.86
  -4   8  -4  961.31   19.94
   4  -8   4  994.47   21.75
  -5   8  -4  323.78   10.26
   5  -8   4  341.24   11.44
  -6   8  -4  187.36    8.04
   6  -8   4  180.45    8.57
  -7   8  -4   94.05    6.93
   7  -8   4   86.87    6.46
  -8   8  -4    3.74    3.75
  -9   8  -4   19.43    4.66
 -10   8  -4   36.08    6.12
 -11   8  -4   59.07    7.49
 -12   8  -4   21.73    5.71
 -14  -7   4  135.33   12.48
 -13  -7   4   -2.34    5.40
 -12  -7   4   -0.69    4.97
 -11  -7   4   47.28    7.48
 -10  -7   4  305.67   13.03
  -9  -7   4  476.19   15.47
  -8  -7   4  563.40   14.54
  -8  -7   4  587.28   16.49
  -7  -7   4  445.64   12.37
  -7  -7   4  426.10   13.45
  -6  -7   4  469.13   12.70
  -6  -7   4  475.27   13.17
  -5  -7   4   16.79    3.24
  -5  -7   4   27.81    3.79
  -4  -7   4  276.06    8.53
  -4  -7   4  258.40    9.02
  -3  -7   4  231.43    8.15
  -3  -7   4  212.12    7.07
  -2  -7   4  296.71    7.79
  -2  -7   4  295.54    9.29
  -1  -7   4  486.91   10.05
  -1  -7   4  486.24   12.37
   0  -7   4  361.50   10.58
   0  -7   4  379.05    7.69
  -1   7  -4  753.75   15.60
   1  -7   4  754.89   16.70
  -2   7  -4  637.23   13.93
   2  -7   4  633.23   15.08
  -3   7  -4  573.24   13.28
   3  -7   4  583.45   14.38
  -4   7  -4  638.14   14.48
   4  -7   4  620.45   15.45
  -5   7  -4    9.28    2.93
   5  -7   4   10.32    3.12
  -6   7  -4    2.17    2.73
   6  -7   4    5.12    2.97
  -7   7  -4   21.30    3.96
   7  -7   4   20.73    3.75
  -8   7  -4  297.83   10.84
  -9   7  -4  842.00   20.38
 -10   7  -4  212.66   10.62
 -11   7  -4    9.48    5.00
 -12   7  -4   17.28    5.36
 -14  -6   4   81.64   10.03
 -13  -6   4  128.00   11.06
 -12  -6   4  231.72   12.55
 -11  -6   4  447.06   16.09
 -10  -6   4  172.32    9.85
  -9  -6   4  113.32    8.50
  -9  -6   4   83.36    7.31
  -8  -6   4  224.34    9.90
  -8  -6   4  212.53    8.31
  -7  -6   4  811.85   17.47
  -7  -6   4  783.97   18.61
  -6  -6   4 1753.62   31.46
  -6  -6   4 1812.68   32.63
  -5  -6   4 1887.74   32.71
  -5  -6   4 1812.23   32.18
  -4  -6   4 1044.75   20.06
  -4  -6   4 1041.58   20.28
  -3  -6   4   27.36    2.96
  -3  -6   4   22.58    3.07
  -2  -6   4   39.02    2.92
  -2  -6   4   35.04    3.60
  -1  -6   4  119.97    5.86
  -1  -6   4  126.07    4.21
   0   6  -4  293.92    8.11
   0  -6   4  314.50    9.03
  -1   6  -4 1084.36   19.90
   1  -6   4 1069.23   20.88
  -2   6  -4 2637.71   43.04
   2  -6   4 2725.37   44.41
  -3   6  -4 2096.21   35.33
   3  -6   4 2132.33   36.49
  -4   6  -4  432.30   11.04
   4  -6   4  440.43   11.59
  -5   6  -4   16.11    3.30
   5  -6   4    8.12    2.78
  -6   6  -4   26.36    3.85
   6  -6   4   27.27    3.65
  -7   6  -4    1.36    2.85
  -8   6  -4   56.96    5.56
  -9   6  -4  501.97   15.05
 -10   6  -4  200.62    9.82
 -11   6  -4   35.93    5.81
 -12   6  -4    2.91    5.02
 -13   6  -4    5.64    4.98
 -14  -5   4   19.89    6.70
 -13  -5   4  368.93   15.72
 -12  -5   4 1155.13   28.64
 -11  -5   4 1168.13   27.61
 -10  -5   4  178.34    9.68
  -9  -5   4   17.45    3.50
  -9  -5   4   12.69    4.04
  -8  -5   4   30.71    4.60
  -8  -5   4   32.42    3.86
  -7  -5   4  122.12    6.69
  -7  -5   4  115.60    5.68
  -6  -5   4 1246.32   24.18
  -6  -5   4 1249.77   23.23
  -5  -5   4 3408.54   54.23
  -5  -5   4 3436.32   54.68
  -4  -5   4 3238.83   50.70
  -4  -5   4 3158.33   50.74
  -3  -5   4 1411.60   25.02
  -2  -5   4  448.49   10.64
  -1  -5   4  687.64   14.27
   0   5  -4   69.36    3.72
   0  -5   4   72.41    4.21
  -1   5  -4   30.74    2.82
   1  -5   4   26.77    3.15
  -2   5  -4  523.62   11.43
   2  -5   4  519.44   11.97
  -3   5  -4 1161.43   21.39
   3  -5   4 1194.18   22.18
  -4   5  -4  734.27   12.64
  -4   5  -4  758.90   15.49
   4  -5   4  716.27   15.53
  -5   5  -4  354.67    9.83
   5  -5   4  340.94    9.63
  -6   5  -4    4.68    2.72
   6  -5   4    7.47    2.35
  -7   5  -4    7.32    3.36
  -8   5  -4    1.93    3.38
  -9   5  -4    9.56    3.71
 -10   5  -4    7.99    3.89
 -11   5  -4   37.94    5.82
 -12   5  -4  103.24    8.63
 -13   5  -4  183.51   11.58
 -15  -4   4   -2.50    5.74
 -14  -4   4   12.91    6.68
 -13  -4   4  225.06   12.47
 -12  -4   4  731.50   21.15
 -11  -4   4  786.26   21.06
 -10  -4   4  269.73   11.13
  -9  -4   4   75.59    6.52
  -9  -4   4   84.16    5.29
  -8  -4   4  364.22    9.96
  -8  -4   4  344.13   11.35
  -7  -4   4  843.94   18.46
  -7  -4   4  827.85   16.92
  -6  -4   4  889.02   17.69
  -6  -4   4  927.68   18.93
  -5  -4   4  297.15    8.30
  -5  -4   4  301.74    8.61
  -4  -4   4   39.71    3.28
  -3  -4   4  773.58   15.15
  -2  -4   4 3472.51   53.77
  -1  -4   4 4287.63   65.26
   0   4  -4 1053.40   18.73
   0  -4   4 1090.39   19.36
  -1   4  -4  285.99    7.33
   1  -4   4  287.76    7.67
  -2   4  -4   57.88    2.32
  -2   4  -4   58.21    3.42
   2  -4   4   60.92    3.61
  -3   4  -4  342.11    8.67
  -3   4  -4  348.32    6.92
   3  -4   4  340.83    8.77
  -4   4  -4   31.50    2.33
  -4   4  -4   37.69    3.39
   4  -4   4   31.80    3.06
  -5   4  -4 1303.74   23.68
  -5   4  -4 1276.77   21.76
   5  -4   4 1252.23   22.79
  -6   4  -4 1368.72   24.25
  -6   4  -4 1371.27   25.55
   6  -4   4 1377.61   24.24
  -7   4  -4  710.05   16.41
  -8   4  -4   74.46    5.88
  -9   4  -4   18.43    4.03
 -10   4  -4  110.53    7.55
 -11   4  -4   13.02    4.49
 -12   4  -4   21.27    5.19
 -13   4  -4  191.37   11.66
 -15  -3   4  107.38   10.61
 -14  -3   4  228.25   13.48
 -13  -3   4  236.73   12.46
 -12  -3   4  285.08   12.68
 -11  -3   4  264.83   11.45
 -10  -3   4  293.95   11.40
  -9  -3   4  589.87   13.45
  -9  -3   4  561.70   15.48
  -8  -3   4 1085.42   20.52
  -8  -3   4 1072.47   22.47
  -7  -3   4 1639.63   29.64
  -7  -3   4 1583.77   27.80
  -6  -3   4 1194.53   22.16
  -6  -3   4 1108.01   20.72
  -5  -3   4    2.32    1.72
  -4  -3   4  523.76   11.16
  -3  -3   4    2.14    1.53
  -2  -3   4 2264.58   35.96
  -1  -3   4 4097.48   62.03
   0   3  -4 1702.51   27.39
   0  -3   4 1710.19   27.83
  -1   3  -4  249.92    5.44
  -1   3  -4  248.73    6.32
   1  -3   4  244.93    6.46
  -2   3  -4   29.23    1.99
  -2   3  -4   29.30    2.51
   2  -3   4   30.17    2.64
  -3   3  -4    1.84    1.22
   3  -3   4    4.49    1.58
  -4   3  -4  473.30   10.75
  -4   3  -4  469.09    9.89
   4  -3   4  456.29   10.10
  -5   3  -4  641.61   13.22
  -5   3  -4  650.00   14.02
   5  -3   4  628.20   12.63
  -6   3  -4  890.78   17.58
  -6   3  -4  875.29   18.14
  -7   3  -4  629.52   14.57
  -7   3  -4  635.16   15.05
  -8   3  -4  156.18    7.55
  -8   3  -4  169.23   10.98
  -9   3  -4   15.67    3.82
 -10   3  -4    7.86    3.75
 -11   3  -4   40.78    5.61
 -12   3  -4   17.19    5.28
 -13   3  -4   -1.89    4.66
 -15  -2   4  340.67   16.41
 -14  -2   4  217.04   13.00
 -13  -2   4   50.45    7.42
 -12  -2   4   16.16    5.28
 -11  -2   4   45.74    6.24
 -10  -2   4  334.41    9.91
 -10  -2   4  327.60   11.77
  -9  -2   4  851.21   17.27
  -9  -2   4  827.05   19.41
  -8  -2   4 1210.10   22.42
  -8  -2   4 1238.32   24.49
  -7  -2   4 1790.76   31.70
  -7  -2   4 1775.02   30.17
  -6  -2   4  881.65   16.82
  -5  -2   4   -0.47    1.34
  -4  -2   4    3.90    1.48
  -3  -2   4  303.31    7.35
  -2  -2   4  572.69   11.21
   1   2  -4  902.04   15.48
  -1  -2   4  930.67   16.05
   0   2  -4 1686.52   26.38
   0   2  -4 1717.79   26.71
   0  -2   4 1661.10   26.92
  -1   2  -4  224.72    5.67
  -1   2  -4  224.35    5.37
   1  -2   4  232.02    5.82
  -2   2  -4   14.67    1.70
  -2   2  -4   14.53    1.92
   2  -2   4   10.28    1.60
  -3   2  -4  565.68   11.35
  -3   2  -4  562.03   11.58
   3  -2   4  588.49   11.11
  -4   2  -4  947.97   17.47
  -4   2  -4  939.87   17.51
   4  -2   4  917.02   16.19
  -5   2  -4   97.43    4.81
  -5   2  -4   87.61    4.77
   5  -2   4   92.83    3.44
  -6   2  -4   90.09    5.16
  -6   2  -4  106.68    5.64
  -7   2  -4    7.19    2.71
  -7   2  -4    0.35    2.63
  -8   2  -4  193.83    8.44
  -8   2  -4  205.68    8.40
  -9   2  -4  507.41   14.35
  -9   2  -4  505.75   14.25
 -10   2  -4  478.76   14.67
 -11   2  -4  211.69   10.19
 -12   2  -4   -0.14    4.04
 -13   2  -4   61.85    7.88
 -15  -1   4  143.04   11.03
 -14  -1   4  171.51   11.16
 -13  -1   4  101.70    9.10
 -12  -1   4   50.14    6.38
 -11  -1   4  113.47    7.78
 -10  -1   4  212.02    7.62
 -10  -1   4  213.20    9.26
  -9  -1   4   39.56    3.76
  -9  -1   4   36.48    4.41
  -8  -1   4   37.81    3.56
  -8  -1   4   34.75    4.03
  -7  -1   4  337.38    8.73
  -6  -1   4 1516.44   25.86
  -5  -1   4  442.37    9.80
  -4  -1   4  448.69    9.60
  -3  -1   4  428.33    9.06
  -2  -1   4  101.69    3.63
   1   1  -4   14.12    1.46
  -1  -1   4   17.89    1.80
   0   1  -4   40.51    2.11
   0   1  -4   36.53    2.17
   0  -1   4   37.48    2.13
  -1   1  -4   32.79    2.35
  -1   1  -4   33.75    2.14
   1  -1   4   32.30    2.12
  -2   1  -4  766.10   14.27
  -2   1  -4  770.09   13.91
   2  -1   4  798.33   13.34
  -3   1  -4 1849.47   31.04
  -3   1  -4 1909.08   30.62
   3  -1   4 1931.07   29.28
  -4   1  -4 1005.94   18.78
  -4   1  -4  951.50   18.03
   4  -1   4  997.42   16.11
  -5   1  -4    3.67    2.38
  -5   1  -4    2.72    1.91
   5  -1   4    0.59    0.80
  -6   1  -4  333.96    9.58
  -6   1  -4  363.68   10.30
  -7   1  -4   64.68    5.44
  -7   1  -4   65.50    5.03
  -8   1  -4  127.07    7.48
  -8   1  -4  111.95    6.40
  -9   1  -4  624.80   16.00
  -9   1  -4  603.14   16.51
 -10   1  -4  558.62   16.50
 -10   1  -4  568.59   15.86
 -11   1  -4  102.58    8.02
 -12   1  -4   -3.96    3.68
 -13   1  -4    3.56    4.39
 -15   0   4   -0.21    5.53
 -14   0   4   21.04    5.78
 -13   0   4  136.80    9.26
 -12   0   4  264.04   11.40
 -11   0   4  234.70   10.14
 -10   0   4   20.20    3.18
 -10   0   4   24.71    4.12
  -9   0   4    4.90    2.20
  -9   0   4    8.04    3.19
  -8   0   4  212.44    6.92
  -7   0   4  123.27    5.18
  -6   0   4  394.36    9.31
  -5   0   4 1001.34   18.03
  -4   0   4  537.20   10.90
  -3   0   4    3.04    1.19
   2   0  -4   43.46    2.49
  -2   0   4   49.81    2.54
   1   0  -4  538.73   10.47
   1   0  -4  540.74    9.17
  -1   0   4  536.06   10.06
   0   0  -4  152.68    3.69
   0   0  -4  147.88    4.51
   0   0   4  149.73    3.97
  -1   0  -4    1.98    1.39
  -1   0  -4    3.46    1.01
   1   0   4    4.21    0.98
  -2   0  -4 1074.81   19.20
  -2   0  -4 1082.57   18.07
   2   0   4 1073.09   17.02
  -3   0  -4 1733.54   28.54
  -3   0  -4 1744.03   29.79
   3   0   4 1817.54   26.70
  -4   0  -4 1526.05   27.38
  -4   0  -4 1528.08   26.19
   4   0   4 1584.48   23.10
  -5   0  -4   33.40    3.94
  -5   0  -4   33.44    3.22
  -6   0  -4  142.20    5.99
  -6   0  -4  136.87    7.03
  -7   0  -4   21.11    4.31
  -7   0  -4   27.18    3.65
  -8   0  -4    2.22    2.81
  -8   0  -4    1.05    3.48
  -9   0  -4   95.38    7.62
  -9   0  -4  101.61    6.81
 -10   0  -4   34.71    5.56
 -10   0  -4   25.37    4.61
 -11   0  -4    3.16    3.73
 -11   0  -4    2.52    4.26
 -12   0  -4   51.78    6.64
 -12   0  -4   41.22    6.85
 -13   0  -4  127.40    9.74
 -15   1   4  128.57   10.84
 -14   1   4   24.78    6.09
 -13   1   4  162.00    9.57
 -12   1   4  793.36   20.30
 -11   1   4  880.87   20.77
 -10   1   4    4.42    3.15
 -10   1   4    7.95    2.70
  -9   1   4   12.31    3.08
  -9   1   4    8.52    2.59
  -8   1   4    9.39    2.44
  -7   1   4   77.62    4.40
   6  -1  -4  219.65    6.73
   5  -1  -4 1117.09   20.00
   4  -1  -4  161.31    5.17
   3  -1  -4   10.27    1.80
   2  -1  -4  105.40    3.74
   2  -1  -4  101.27    3.77
   1  -1  -4 2105.47   33.52
   1  -1  -4 2154.91   33.03
   0  -1  -4  167.06    3.67
   0  -1  -4  162.65    5.02
   0   1   4  165.04    4.19
  -1  -1  -4   13.56    2.08
  -1  -1  -4   14.37    1.44
   1   1   4   12.10    1.29
  -2  -1  -4   27.93    2.87
  -2  -1  -4   34.22    2.18
   2   1   4   31.69    1.60
  -3  -1  -4  213.34    7.01
   3   1   4  194.51    3.85
  -4  -1  -4   26.83    3.41
  -5  -1  -4  885.24   18.83
  -6  -1  -4  741.13   17.45
  -7  -1  -4  792.60   18.77
  -8  -1  -4    6.87    4.01
  -9  -1  -4    9.32    4.48
 -10  -1  -4  118.96    9.21
 -11  -1  -4  147.95   10.65
 -11  -1  -4  148.53    8.82
 -12  -1  -4    8.66    5.96
 -12  -1  -4   11.88    4.68
 -13  -1  -4  329.61   13.74
 -13  -1  -4  298.51   15.23
 -14   2   4    0.69    4.91
 -13   2   4  112.48    8.74
 -12   2   4  459.55   14.76
 -11   2   4 1103.65   23.60
 -11   2   4 1028.45   21.51
 -10   2   4   55.86    5.37
 -10   2   4   72.66    5.12
   9  -2  -4  539.13   13.03
   8  -2  -4 1049.71   20.52
   7  -2  -4  539.25   12.45
   6  -2  -4  864.15   17.00
   5  -2  -4  199.45    6.35
   4  -2  -4   11.68    1.97
   3  -2  -4  101.59    3.94
   3  -2  -4   84.23    3.72
   2  -2  -4  995.38   17.33
   2  -2  -4  983.91   17.51
   1  -2  -4 9901.35  144.36
   1  -2  -4 9999.00  145.21
   0  -2  -4 1201.22   19.57
   0  -2  -4 1192.07   20.88
  -1  -2  -4   57.58    3.62
  -1  -2  -4   65.96    2.53
  -2  -2  -4  291.05    8.34
  -3  -2  -4  722.86   15.71
   3   2   4  710.14   11.25
  -4  -2  -4    0.22    2.28
  -5  -2  -4   80.89    5.61
  -6  -2  -4 1205.34   24.83
  -7  -2  -4  403.07   12.88
  -8  -2  -4  174.11    9.59
  -9  -2  -4  158.98    9.86
 -10  -2  -4    5.07    4.55
 -11  -2  -4    9.61    5.75
 -12  -2  -4   40.76    7.83
 -13  -2  -4   62.26    7.50
 -13  -2  -4   59.34    8.98
 -15   3   4  585.24   17.68
 -14   3   4  201.37    9.83
 -13   3   4  160.81    9.54
 -12   3   4   20.94    4.69
  11  -3  -4   17.62    3.63
 -11   3   4    9.36    3.46
  10  -3  -4   79.06    5.32
 -10   3   4   86.74    5.99
   9  -3  -4  544.20   13.59
   8  -3  -4 1883.04   33.09
   7  -3  -4 3434.68   54.79
   6  -3  -4  371.50    9.71
   5  -3  -4  635.89   13.49
   4  -3  -4   21.83    2.53
  -4   3   4   22.79    1.47
   3  -3  -4  403.82    9.05
   3  -3  -4  392.63    9.18
   2  -3  -4  346.39    8.14
   2  -3  -4  348.76    8.27
   1  -3  -4 5064.30   76.12
   1  -3  -4 5041.21   75.20
   0  -3  -4  927.93   16.02
   0  -3  -4  926.90   17.48
  -1  -3  -4  943.17   15.74
  -1  -3  -4  920.49   18.08
  -2  -3  -4  235.48    7.78
  -2  -3  -4  243.22    5.30
  -3  -3  -4  180.01    4.00
  -3  -3  -4  165.15    7.00
  -4  -3  -4  457.01   12.49
  -5  -3  -4  595.47   15.30
  -6  -3  -4   59.27    6.06
  -7  -3  -4   57.92    6.21
  -8  -3  -4   39.46    5.71
  -9  -3  -4  579.01   17.70
 -10  -3  -4  207.10   11.42
 -11  -3  -4   71.45    8.51
 -12  -3  -4    2.40    5.55
 -13  -3  -4   15.12    7.34
 -15   4   4  351.72   13.71
 -14   4   4  457.31   14.81
 -13   4   4   24.52    4.68
 -12   4   4    2.22    3.86
 -12   4   4   -0.47    3.08
  11  -4  -4  145.46    7.63
 -11   4   4  161.62    7.52
 -11   4   4  164.65    7.94
  10  -4  -4    1.05    2.43
 -10   4   4    2.79    2.66
 -10   4   4    0.86    2.47
   9  -4  -4  714.94   16.64
  -9   4   4  719.19   15.30
   8  -4  -4 1104.31   22.03
  -8   4   4 1091.10   20.07
   7  -4  -4  819.06   17.34
  -7   4   4  816.46   15.29
   6  -4  -4 1142.31   21.72
  -6   4   4 1117.65   19.03
   5  -4  -4  283.80    8.37
  -5   4   4  288.61    6.18
   4  -4  -4 1389.08   23.91
   4  -4  -4 1411.46   24.83
  -4   4   4 1398.93   21.49
   3  -4  -4 1265.86   22.19
   3  -4  -4 1296.04   22.76
   2  -4  -4 1328.77   23.40
   2  -4  -4 1374.50   23.45
   1  -4  -4 2145.63   34.51
   1  -4  -4 2171.41   35.42
   0  -4  -4   19.08    2.12
   0  -4  -4   14.12    2.40
  -1  -4  -4  745.79   15.83
  -1  -4  -4  741.96   13.49
  -2  -4  -4 1693.52   30.41
  -2  -4  -4 1673.65   26.57
  -3  -4  -4 3368.44   50.36
  -3  -4  -4 3412.04   55.72
  -4  -4  -4 2598.88   39.41
  -4  -4  -4 2447.57   43.56
  -5  -4  -4  181.82    8.53
  -6  -4  -4   53.18    5.98
  -7  -4  -4    3.19    4.00
  -8  -4  -4   16.26    5.31
  -9  -4  -4  692.36   20.42
 -10  -4  -4  427.37   16.26
 -11  -4  -4  369.50   16.40
 -12  -4  -4    3.61    6.71
 -15   5   4   54.48    7.08
 -14   5   4   24.43    5.19
 -13   5   4  283.74   10.72
 -12   5   4  557.28   14.93
  11  -5  -4  970.94   21.81
 -11   5   4  973.11   20.45
  10  -5  -4  393.65   11.96
 -10   5   4  380.59   10.71
   9  -5  -4  287.77   10.02
  -9   5   4  283.17    8.49
   8  -5  -4   29.72    3.84
  -8   5   4   33.56    3.19
   7  -5  -4   86.82    5.31
  -7   5   4   80.49    3.85
   6  -5  -4 1121.50   22.03
  -6   5   4 1121.53   19.01
   5  -5  -4 1746.20   30.77
  -5   5   4 1743.96   27.25
   4  -5  -4 2439.91   39.83
   4  -5  -4 2527.78   41.28
  -4   5   4 2527.42   37.32
   3  -5  -4 1568.07   26.95
   3  -5  -4 1588.47   27.64
  -3   5   4 1595.76   24.66
   2  -5  -4  368.62    9.33
   2  -5  -4  362.41    9.15
   1  -5  -4   48.41    3.27
   1  -5  -4   46.94    3.79
   0  -5  -4    1.44    1.93
   0  -5  -4    0.78    1.52
  -1  -5  -4  447.51    9.68
  -2  -5  -4 1133.68   19.25
  -2  -5  -4 1117.80   22.67
  -3  -5  -4 2594.52   39.81
  -3  -5  -4 2603.47   44.78
  -4  -5  -4 1930.85   35.77
  -5  -5  -4  138.88    7.96
  -6  -5  -4    4.59    3.99
  -7  -5  -4    1.70    4.02
  -8  -5  -4  105.36    9.12
  -9  -5  -4  147.11   10.11
 -10  -5  -4   70.17    8.54
 -11  -5  -4   78.23   10.05
 -12  -5  -4   35.97    8.47
 -13   6   4  413.24   13.57
 -12   6   4  998.15   21.78
  11  -6  -4 1222.32   26.16
 -11   6   4 1237.12   24.40
  10  -6  -4  382.17   12.25
 -10   6   4  401.49   10.91
   9  -6  -4  185.03    8.43
  -9   6   4  183.06    6.78
   8  -6  -4   22.70    3.77
  -8   6   4   18.91    2.73
   7  -6  -4  291.79    9.81
  -7   6   4  298.93    7.61
   6  -6  -4 1743.19   31.83
  -6   6   4 1747.33   28.06
   5  -6  -4  897.51   19.09
  -5   6   4  934.15   15.68
   4  -6  -4  525.81   12.98
   4  -6  -4  550.93   11.97
  -4   6   4  563.23    9.81
   3  -6  -4 1494.13   26.69
   3  -6  -4 1453.95   25.77
   2  -6  -4  545.74   12.62
   2  -6  -4  573.55   12.88
   1  -6  -4  883.93   17.83
   1  -6  -4  854.31   17.06
   0  -6  -4  236.21    8.18
   0  -6  -4  238.09    7.02
  -1  -6  -4  350.70    8.65
  -1  -6  -4  341.53   10.36
  -2  -6  -4  257.59    6.90
  -2  -6  -4  246.00    9.15
  -3  -6  -4   32.14    4.40
  -3  -6  -4   22.53    2.43
  -4  -6  -4  208.36    9.39
  -5  -6  -4  224.83   10.11
  -6  -6  -4  393.28   13.81
  -7  -6  -4  454.81   15.55
  -8  -6  -4  127.22    9.61
  -9  -6  -4    2.65    5.57
 -10  -6  -4   61.07    8.45
 -11  -6  -4   -1.10    6.33
 -12  -6  -4  114.81   12.26
  12  -7  -4  645.16   18.02
  11  -7  -4  400.84   13.30
  10  -7  -4  289.98   11.14
 -10   7   4  267.57   10.30
   9  -7  -4  373.90   12.29
  -9   7   4  371.04   10.06
   8  -7  -4  293.35   10.58
  -8   7   4  311.10    8.58
   7  -7  -4  618.75   15.97
  -7   7   4  644.74   12.96
   6  -7  -4  933.93   20.52
  -6   7   4  959.43   16.90
   5  -7  -4   53.52    4.77
  -5   7   4   52.10    2.96
   4  -7  -4   68.13    5.00
   4  -7  -4   76.65    4.20
  -4   7   4   69.87    2.94
   3  -7  -4   36.19    3.83
   3  -7  -4   39.45    3.54
   2  -7  -4 1059.03   20.62
   2  -7  -4 1034.74   20.58
   1  -7  -4 1819.82   31.60
   1  -7  -4 1831.77   32.32
   0  -7  -4 1510.04   28.20
   0  -7  -4 1504.54   26.72
  -1  -7  -4  553.36   12.18
  -1  -7  -4  513.21   13.76
  -2  -7  -4    3.10    1.90
  -2  -7  -4    2.34    2.89
  -3  -7  -4  208.29    6.49
  -3  -7  -4  227.00    9.55
  -4  -7  -4    0.00    3.40
  -5  -7  -4   49.05    6.13
  -6  -7  -4  313.70   12.75
  -7  -7  -4  800.82   21.93
  -8  -7  -4  493.23   17.50
  -9  -7  -4  147.83   11.16
 -10  -7  -4    3.28    5.71
 -11  -7  -4    1.75    6.00
  12  -8  -4   27.47    5.07
  11  -8  -4    1.62    3.73
  10  -8  -4    5.23    3.40
   9  -8  -4   98.29    7.01
   8  -8  -4 1110.23   24.51
   7  -8  -4  821.26   19.65
   6  -8  -4  289.33   10.37
   5  -8  -4  125.38    5.34
   5  -8  -4  131.87    7.02
   4  -8  -4    2.28    1.88
   4  -8  -4    4.07    2.70
   3  -8  -4   70.75    5.19
   3  -8  -4   72.86    4.57
   2  -8  -4  645.68   15.03
   2  -8  -4  649.27   15.20
   1  -8  -4  702.84   15.71
   1  -8  -4  701.82   16.12
   0  -8  -4 1141.87   22.00
   0  -8  -4 1151.12   23.46
  -1  -8  -4  261.88    9.65
  -1  -8  -4  256.34    8.20
  -2  -8  -4    6.00    3.34
  -2  -8  -4    0.71    2.04
  -3  -8  -4    9.75    4.20
  -3  -8  -4   12.73    2.61
  -4  -8  -4  463.58   14.82
  -5  -8  -4  405.30   14.33
  -6  -8  -4  539.21   17.67
  -7  -8  -4  180.50   11.01
  -8  -8  -4  221.72   12.57
  -9  -8  -4   46.16    8.59
 -10  -8  -4  120.41   11.45
 -11  -8  -4   14.84    7.22
  12  -9  -4    5.66    4.03
  11  -9  -4   46.32    6.51
  10  -9  -4   -2.06    3.14
   9  -9  -4   61.52    6.39
   8  -9  -4  617.98   17.31
   7  -9  -4  944.38   22.28
   6  -9  -4  405.82   13.01
   5  -9  -4    2.65    2.90
   4  -9  -4   17.74    2.89
   4  -9  -4   11.70    3.43
   3  -9  -4   74.11    4.86
   3  -9  -4   76.66    5.99
   2  -9  -4  152.73    7.24
   2  -9  -4  150.75    6.93
   1  -9  -4  109.95    6.40
   1  -9  -4  117.36    6.21
   0  -9  -4  123.68    6.19
   0  -9  -4  121.93    7.02
  -1  -9  -4  106.29    5.65
  -1  -9  -4  104.59    7.15
  -2  -9  -4  751.88   16.42
  -2  -9  -4  768.80   19.20
  -3  -9  -4  905.97   20.10
  -3  -9  -4  856.12   21.28
  -4  -9  -4  850.90   21.63
  -5  -9  -4   32.10    5.84
  -6  -9  -4   -0.41    4.37
  -7  -9  -4   86.12    9.17
  -8  -9  -4    8.24    6.49
  -9  -9  -4  106.68   10.77
 -10  -9  -4  413.85   19.22
  12 -10  -4  132.12   10.23
  11 -10  -4  105.24    8.92
  10 -10  -4   99.19    8.42
   8 -10  -4   15.72    4.42
   7 -10  -4   22.56    4.66
   6 -10  -4   50.81    5.87
   5 -10  -4  279.89   10.91
   4 -10  -4  779.70   19.12
   3 -10  -4  492.16   14.08
   3 -10  -4  461.07   17.73
   2 -10  -4  266.47    9.57
   2 -10  -4  294.35   10.32
   1 -10  -4   10.97    3.25
   1 -10  -4    5.19    3.31
   0 -10  -4   78.64    5.62
   0 -10  -4   83.81    6.46
  -1 -10  -4  131.89    7.00
  -1 -10  -4  137.50    7.78
  -2 -10  -4  171.83    9.33
  -2 -10  -4  167.86    7.48
  -3 -10  -4  879.55   21.88
  -4 -10  -4  409.65   14.86
  -5 -10  -4   54.83    7.04
  -6 -10  -4    6.87    5.09
  -7 -10  -4   69.71    8.60
  -8 -10  -4    9.29    6.67
  -9 -10  -4    7.10    6.55
 -10 -10  -4  217.67   14.81
  12 -11  -4  271.66   13.75
  11 -11  -4  517.36   17.83
  10 -11  -4  167.78   10.29
   9 -11  -4    8.97    4.43
   8 -11  -4    4.80    4.04
   7 -11  -4   -1.12    3.22
   6 -11  -4   79.99    7.36
   5 -11  -4  283.90   11.81
   4 -11  -4  714.53   18.73
   3 -11  -4  510.36   15.29
   2 -11  -4  158.78    8.20
   1 -11  -4    2.15    3.02
   1 -11  -4    9.52    3.40
   0 -11  -4    3.82    3.33
   0 -11  -4    6.20    3.15
  -1 -11  -4   55.89    6.11
  -1 -11  -4   62.71    5.79
  -2 -11  -4  211.26    8.81
  -2 -11  -4  225.65   10.67
  -3 -11  -4  172.25    9.64
  -4 -11  -4   39.05    6.26
  -5 -11  -4   50.70    7.54
  -6 -11  -4   16.43    6.25
  -7 -11  -4  217.75   13.01
  -8 -11  -4  139.03   12.58
  -9 -11  -4   -2.72    6.12
  12 -12  -4  237.03   15.98
  11 -12  -4  358.25   15.76
  10 -12  -4  250.14   12.87
   9 -12  -4    8.58    4.67
   8 -12  -4    7.14    4.28
   7 -12  -4   67.48    7.65
   6 -12  -4  266.84   11.90
   5 -12  -4  121.01    8.51
   4 -12  -4  109.30    8.57
   3 -12  -4  161.99    9.43
   2 -12  -4  313.60   12.07
   1 -12  -4  388.22   12.89
   0 -12  -4  769.09   19.07
   0 -12  -4  784.75   19.55
  -1 -12  -4  510.38   15.69
  -1 -12  -4  513.80   14.84
  -2 -12  -4   81.64    7.81
  -2 -12  -4   83.88    6.74
  -3 -12  -4   36.41    6.37
  -4 -12  -4   48.07    6.87
  -5 -12  -4    8.95    5.63
  -6 -12  -4  364.90   15.73
  -7 -12  -4  389.15   17.63
  -8 -12  -4  594.36   22.28
  10 -13  -4   36.66    7.07
   9 -13  -4  354.93   15.71
   8 -13  -4  505.87   17.76
   7 -13  -4 1301.21   30.70
   6 -13  -4  313.47   13.43
   5 -13  -4   34.72    5.93
   4 -13  -4  140.24    9.69
   3 -13  -4   61.56    7.17
   2 -13  -4  290.08   11.86
   1 -13  -4  732.28   19.55
   0 -13  -4  977.44   22.98
  -1 -13  -4  613.21   17.17
  -2 -13  -4    1.36    3.87
  -3 -13  -4   15.28    4.97
  -4 -13  -4   12.19    5.67
  -5 -13  -4  415.49   16.45
  -6 -13  -4  117.36   10.73
  -7 -13  -4  366.73   16.96
   9 -14  -4  184.04   13.69
   8 -14  -4  776.28   23.26
   7 -14  -4  485.39   17.69
   6 -14  -4  778.59   22.47
   5 -14  -4    6.82    4.60
   4 -14  -4   60.50    7.30
   3 -14  -4  140.34    9.51
   2 -14  -4  575.96   17.94
   1 -14  -4  293.20   12.63
   0 -14  -4  217.84   10.92
  -1 -14  -4   44.69    6.17
  -3 -14  -4  263.03   12.92
  -4 -14  -4  603.05   19.93
  -5 -14  -4  163.97   12.25
  -6 -14  -4   13.60    6.30
   7 -15  -4  227.47   12.97
   6 -15  -4  147.29   10.70
   5 -15  -4  336.96   15.21
   4 -15  -4  466.89   17.30
   3 -15  -4  606.31   19.22
   2 -15  -4  218.92   12.11
   1 -15  -4   50.77    7.00
   0 -15  -4   -0.03    4.34
  -1 -15  -4   29.76    6.55
   4 -16  -4  477.69   17.79
   3 -16  -4  428.20   16.57
   2 -16  -4   79.70    8.79
   1 -16  -4   16.58    6.00
   0 -16  -4    2.66    4.55
  -5 -16   5  439.15   17.46
  -4 -16   5  428.74   17.53
  -3 -16   5   70.48    8.85
  -2 -16   5   33.03    6.87
  -1 -16   5    1.48    5.11
   0 -16   5   63.11    8.25
   1 -16   5  163.98   12.09
   2 -16   5  360.78   18.04
  -6 -15   5  268.15   14.06
  -5 -15   5  430.32   16.48
  -4 -15   5  334.39   15.15
  -3 -15   5  169.66   11.11
  -2 -15   5   87.45    9.25
  -1 -15   5  108.64   10.08
   0 -15   5  115.77    9.97
   1 -15   5   89.37    9.43
   2 -15   5  113.82    9.95
   3 -15   5   96.96    9.64
   4 -15   5  205.06   12.30
   5 -15   5  460.11   17.95
  -6  15  -5  502.88   16.66
   6 -15   5  542.56   22.26
  -7 -14   5  336.06   17.85
  -6 -14   5  126.04   10.17
  -5 -14   5    9.15    5.64
  -4 -14   5    1.29    5.23
  -3 -14   5   51.60    7.31
  -2 -14   5  533.78   17.68
  -1 -14   5 1474.44   32.87
   0 -14   5  868.94   23.62
   1 -14   5  216.75   11.70
   2 -14   5    8.37    5.20
   3 -14   5    5.19    4.57
   4 -14   5   71.71    8.07
  -5  14  -5  329.19   13.27
   5 -14   5  354.78   15.18
  -6  14  -5  707.10   19.58
   6 -14   5  744.74   23.00
  -7  14  -5  285.79   12.96
   7 -14   5  308.10   14.78
  -9 -13   5  158.28   11.75
  -8 -13   5  740.94   22.52
  -7 -13   5  729.26   20.86
  -6 -13   5   70.49    8.07
  -5 -13   5    2.02    4.47
  -4 -13   5   43.39    6.57
  -3 -13   5   28.40    5.86
  -2 -13   5  614.63   18.57
  -1 -13   5 1410.76   31.21
   0 -13   5  974.25   24.41
   1 -13   5  295.66   12.76
   2 -13   5   47.11    6.59
   3 -13   5  171.84   10.86
  -4  13  -5  307.10   12.24
   4 -13   5  325.63   14.18
  -5  13  -5  320.70   12.28
   5 -13   5  360.82   14.69
  -6  13  -5   96.82    8.17
   6 -13   5  105.12    9.87
  -7  13  -5   52.63    6.64
   7 -13   5   57.90    7.87
  -8  13  -5   69.58    7.49
  -9  13  -5  232.20   11.76
 -10 -12   5    0.94    5.75
  -9 -12   5  109.44   10.55
  -8 -12   5  293.31   14.19
  -7 -12   5  148.71    9.50
  -7 -12   5  146.40    9.71
  -6 -12   5  225.69   11.19
  -6 -12   5  235.36   11.71
  -5 -12   5   53.77    7.13
  -4 -12   5  118.52    8.59
  -3 -12   5  198.25   10.84
  -2 -12   5  305.62   12.41
  -1 -12   5   88.05    8.10
   0 -12   5   68.79    7.31
   1 -12   5  159.68    9.40
   2 -12   5  514.08   16.28
  -3  12  -5  821.15   19.80
   3 -12   5  805.17   21.70
  -4  12  -5  654.51   17.04
   4 -12   5  621.70   18.83
  -5  12  -5  128.83    7.98
   5 -12   5  126.48    9.03
  -6  12  -5   84.66    7.29
   6 -12   5   80.46    8.19
  -7  12  -5  124.06    8.44
   7 -12   5  139.00   10.15
  -8  12  -5    5.66    4.37
  -9  12  -5  249.74   12.41
 -11 -11   5  360.80   16.81
 -10 -11   5  162.66   11.78
  -9 -11   5   -0.79    5.40
  -8 -11   5  209.62   11.04
  -8 -11   5  201.36   11.15
  -7 -11   5   50.42    6.50
  -7 -11   5   39.26    6.47
  -6 -11   5  477.18   15.73
  -6 -11   5  491.27   15.37
  -5 -11   5  804.97   19.66
  -5 -11   5  831.40   21.09
  -4 -11   5  892.33   21.75
  -3 -11   5  610.87   17.10
  -2 -11   5   32.62    5.32
  -1 -11   5   76.59    6.94
   0 -11   5  299.61   11.80
   1 -11   5    1.00    3.86
  -2  11  -5  198.31    9.02
   2 -11   5  218.09   10.14
  -3  11  -5  224.06    9.33
   3 -11   5  229.11   10.67
  -4  11  -5  323.33   11.52
   4 -11   5  329.16   12.83
  -5  11  -5    4.75    3.39
   5 -11   5    1.35    3.66
  -6  11  -5    2.21    3.61
   6 -11   5    6.70    4.13
  -7  11  -5    1.37    3.68
   7 -11   5    0.40    3.90
  -8  11  -5  181.10    9.79
  -9  11  -5  146.62   10.03
 -10  11  -5   80.21    8.31
 -12 -10   5  203.99   13.59
 -11 -10   5  317.37   15.35
 -10 -10   5  250.03   13.10
  -9 -10   5   -2.29    4.18
  -8 -10   5  116.08    9.25
  -8 -10   5  119.33    8.00
  -7 -10   5    6.08    4.03
  -7 -10   5    3.12    3.91
  -6 -10   5  509.35   14.92
  -6 -10   5  490.86   14.86
  -5 -10   5  355.39   11.90
  -5 -10   5  371.83   12.66
  -4 -10   5  154.44    7.52
  -4 -10   5  167.45    8.73
  -3 -10   5   70.47    6.59
  -2 -10   5    3.58    3.51
  -1 -10   5   10.42    3.96
   0 -10   5   21.66    4.49
   1 -10   5   54.04    5.86
  -2  10  -5   -1.39    2.78
   2 -10   5    6.18    4.02
  -3  10  -5   12.28    3.86
   3 -10   5    5.61    3.81
  -4  10  -5  416.93   12.67
   4 -10   5  418.87   14.00
  -5  10  -5  222.53    9.27
   5 -10   5  245.84   10.98
  -6  10  -5   89.01    7.01
   6 -10   5   96.74    8.30
  -7  10  -5  325.76   11.83
   7 -10   5  303.17   12.36
  -8  10  -5  101.50    7.96
  -9  10  -5    5.94    4.34
 -10  10  -5   40.70    6.39
 -11  10  -5    2.86    5.13
 -13  -9   5   73.13   10.31
 -12  -9   5   55.51    8.61
 -11  -9   5  111.67   10.52
 -10  -9   5   57.41    7.54
  -9  -9   5    7.40    4.81
  -8  -9   5   48.06    6.29
  -8  -9   5   53.15    6.19
  -7  -9   5   74.89    6.63
  -7  -9   5   66.77    6.56
  -6  -9   5  584.53   16.10
  -6  -9   5  598.80   16.06
  -5  -9   5  249.98    9.43
  -5  -9   5  259.61   10.14
  -4  -9   5   45.84    5.32
  -4  -9   5   52.89    4.72
  -3  -9   5   -0.94    2.36
  -3  -9   5    4.39    3.30
  -2  -9   5  472.60   13.71
  -2  -9   5  472.62   11.46
  -1  -9   5 1219.83   25.35
   0  -9   5 1637.54   31.45
  -1   9  -5  645.06   15.34
   1  -9   5  663.19   16.92
  -2   9  -5   11.94    3.49
   2  -9   5    7.89    3.54
  -3   9  -5  189.66    8.25
   3  -9   5  207.09    9.52
  -4   9  -5  313.02   10.59
   4  -9   5  322.66   11.91
  -5   9  -5  178.96    8.14
   5  -9   5  165.06    8.59
  -6   9  -5  355.87   11.65
   6  -9   5  344.33   12.63
  -7   9  -5  537.31   15.30
   7  -9   5  541.45   16.60
  -8   9  -5  242.14   10.60
  -9   9  -5   89.53    7.77
 -10   9  -5    6.32    4.55
 -11   9  -5    2.44    4.45
 -13  -8   5   49.07    8.78
 -12  -8   5    4.70    5.49
 -11  -8   5   13.80    5.73
 -10  -8   5   19.72    6.00
  -9  -8   5  287.26   12.31
  -9  -8   5  293.51   12.43
  -8  -8   5  751.73   19.66
  -8  -8   5  690.35   17.50
  -7  -8   5  588.12   15.77
  -7  -8   5  604.90   16.36
  -6  -8   5  319.50   10.95
  -6  -8   5  338.51   11.17
  -5  -8   5  219.95    8.89
  -5  -8   5  206.04    8.50
  -4  -8   5  183.58    8.15
  -4  -8   5  165.15    7.15
  -3  -8   5   22.46    3.16
  -3  -8   5   21.82    3.92
  -2  -8   5  969.22   20.99
  -2  -8   5 1009.65   18.68
  -1  -8   5 2111.02   33.70
  -1  -8   5 2085.35   37.38
   0  -8   5 1623.03   30.68
  -1   8  -5  197.56    7.50
   1  -8   5  192.34    8.27
  -2   8  -5    9.19    2.93
   2  -8   5   12.36    3.63
  -3   8  -5    3.68    2.88
   3  -8   5    1.20    2.72
  -4   8  -5  640.57   15.33
   4  -8   5  637.04   16.49
  -5   8  -5  344.85   10.90
   5  -8   5  341.86   11.81
  -6   8  -5  473.81   13.38
   6  -8   5  463.65   14.04
  -7   8  -5   34.57    4.93
  -8   8  -5  224.03    9.98
  -9   8  -5  311.26   12.13
 -10   8  -5  407.29   14.45
 -11   8  -5  159.10   10.18
 -12   8  -5  173.72   10.98
 -14  -7   5  360.96   17.97
 -13  -7   5   43.30    8.18
 -12  -7   5    6.39    5.79
 -11  -7   5    8.23    5.48
 -10  -7   5    5.85    4.52
  -9  -7   5  140.89    8.86
  -9  -7   5  152.42    8.05
  -8  -7   5  673.74   17.96
  -8  -7   5  699.39   16.99
  -7  -7   5  680.46   16.48
  -7  -7   5  696.47   17.41
  -6  -7   5  857.59   19.52
  -6  -7   5  911.13   19.45
  -5  -7   5  160.09    7.49
  -5  -7   5  127.74    6.66
  -4  -7   5   56.28    4.55
  -4  -7   5   52.49    4.81
  -3  -7   5  222.75    7.21
  -3  -7   5  223.76    8.36
  -2  -7   5   22.96    3.62
  -2  -7   5   15.51    2.34
  -1  -7   5  869.23   15.79
  -1  -7   5  874.53   18.68
   0   7  -5  115.04    5.45
   0  -7   5  105.59    5.95
  -1   7  -5   92.47    5.30
   1  -7   5   77.01    5.43
  -2   7  -5  902.25   18.36
   2  -7   5  915.75   19.76
  -3   7  -5  961.39   19.80
   3  -7   5 1027.82   21.39
  -4   7  -5  979.60   20.33
   4  -7   5 1010.23   21.36
  -5   7  -5  354.20   10.82
   5  -7   5  365.86   11.41
  -6   7  -5   31.79    4.36
   6  -7   5   38.15    4.63
  -7   7  -5   -0.55    3.00
  -8   7  -5    5.85    3.66
  -9   7  -5 1154.92   25.75
 -10   7  -5 1055.21   25.08
 -11   7  -5  515.94   16.77
 -12   7  -5  114.30    9.62
 -14  -6   5  124.85   11.55
 -13  -6   5   15.20    6.60
 -12  -6   5   68.92    8.68
 -11  -6   5  128.29    9.47
 -10  -6   5   59.89    6.78
  -9  -6   5   19.96    4.53
  -9  -6   5   22.10    4.07
  -8  -6   5   20.77    4.30
  -8  -6   5   24.34    4.16
  -7  -6   5    6.31    2.97
  -7  -6   5    9.86    3.38
  -6  -6   5  760.36   16.98
  -6  -6   5  764.16   17.43
  -5  -6   5  717.85   15.82
  -5  -6   5  697.66   15.93
  -4  -6   5 2590.12   43.39
  -4  -6   5 2619.55   42.69
  -3  -6   5  455.11   11.83
  -2  -6   5 1024.62   20.28
  -1  -6   5  453.10   11.59
   0   6  -5   15.65    2.62
   0  -6   5   11.60    2.79
  -1   6  -5   18.30    2.79
   1  -6   5   12.04    2.81
  -2   6  -5 1521.31   26.74
   2  -6   5 1488.11   27.56
  -3   6  -5 1854.06   32.00
   3  -6   5 1851.98   33.07
  -4   6  -5 1849.37   32.29
   4  -6   5 1822.41   32.91
  -5   6  -5  263.93    9.01
   5  -6   5  279.16    9.45
  -6   6  -5   99.44    6.26
   6  -6   5  105.99    6.00
  -7   6  -5    4.11    3.25
  -8   6  -5  192.09    9.23
  -9   6  -5  632.45   17.34
 -10   6  -5  692.39   18.95
 -11   6  -5  201.19   10.79
 -12   6  -5   70.10    7.90
 -14  -5   5   85.24    9.62
 -13  -5   5   41.02    7.46
 -12  -5   5  310.66   14.40
 -11  -5   5 1342.41   30.14
 -10  -5   5  325.45   12.57
  -9  -5   5   41.12    5.36
  -9  -5   5   44.16    4.74
  -8  -5   5   54.22    5.42
  -8  -5   5   55.69    4.86
  -7  -5   5   57.37    5.16
  -7  -5   5   48.02    4.41
  -6  -5   5  254.58    8.33
  -6  -5   5  240.82    8.78
  -5  -5   5 2203.28   36.77
  -5  -5   5 2118.96   36.54
  -4  -5   5 2306.89   38.63
  -3  -5   5 2444.84   40.36
  -2  -5   5  172.36    6.59
  -1  -5   5  652.24   14.05
   0   5  -5   36.84    3.15
   0  -5   5   38.04    3.71
  -1   5  -5  490.90   11.15
   1  -5   5  495.72   11.82
  -2   5  -5 1841.50   31.52
  -2   5  -5 1893.71   28.90
   2  -5   5 1897.40   32.43
  -3   5  -5 2488.12   40.56
  -3   5  -5 2451.99   37.45
   3  -5   5 2490.88   41.23
  -4   5  -5 2312.13   38.75
   4  -5   5 2322.28   39.16
  -5   5  -5 1025.14   20.29
   5  -5   5  953.20   19.81
  -6   5  -5  373.97   11.06
  -7   5  -5  350.63   11.24
  -8   5  -5  224.82    9.45
  -9   5  -5  374.61   12.70
 -10   5  -5   21.29    4.82
 -11   5  -5    0.51    4.64
 -12   5  -5   38.78    6.34
 -15  -4   5   43.74    8.80
 -14  -4   5   -1.57    5.30
 -13  -4   5   18.02    6.08
 -12  -4   5  441.08   16.37
 -11  -4   5  626.82   18.38
 -10  -4   5  269.12   11.30
 -10  -4   5  290.09    9.69
  -9  -4   5  173.87    7.46
  -9  -4   5  177.15    8.63
  -8  -4   5  175.57    8.11
  -8  -4   5  195.60    7.56
  -7  -4   5  328.31   10.37
  -7  -4   5  332.55    9.68
  -6  -4   5  283.45    8.54
  -5  -4   5  107.22    5.13
  -4  -4   5   66.82    4.12
  -3  -4   5  177.99    6.22
  -2  -4   5 1703.45   29.00
  -1  -4   5 4858.26   73.93
   0   4  -5 3805.64   59.06
   0  -4   5 3930.00   59.80
  -1   4  -5 1919.86   31.77
  -1   4  -5 1967.73   30.14
   1  -4   5 1927.82   32.26
  -2   4  -5   47.41    2.48
  -2   4  -5   46.47    3.53
   2  -4   5   42.13    3.56
  -3   4  -5   67.76    4.06
  -3   4  -5   61.50    3.03
   3  -4   5   67.56    4.14
  -4   4  -5  156.01    6.09
  -4   4  -5  143.13    4.77
   4  -4   5  146.97    5.84
  -5   4  -5  668.16   13.29
  -5   4  -5  683.13   15.22
   5  -4   5  652.85   14.26
  -6   4  -5 1321.22   25.33
  -7   4  -5 1736.20   32.02
  -8   4  -5  694.75   17.17
  -9   4  -5  140.60    8.02
 -10   4  -5   34.97    5.40
 -11   4  -5    0.53    3.90
 -12   4  -5   23.89    6.12
 -13   4  -5  156.31   10.63
 -15  -3   5   60.63    9.23
 -14  -3   5   37.67    7.71
 -13  -3   5  188.58   11.29
 -12  -3   5    2.80    4.27
 -11  -3   5   -0.43    4.12
 -10  -3   5   25.08    3.67
 -10  -3   5   28.41    4.84
  -9  -3   5  237.29    8.41
  -9  -3   5  254.10    9.91
  -8  -3   5 1352.33   25.01
  -8  -3   5 1330.65   26.52
  -7  -3   5 2890.01   46.85
  -6  -3   5 1239.14   22.81
  -5  -3   5   30.26    3.08
  -4  -3   5  191.89    6.40
  -3  -3   5    1.49    1.55
  -2  -3   5  500.76   10.94
   1   3  -5 4171.60   62.58
  -1  -3   5 4126.14   63.18
   0   3  -5 5015.53   73.60
   0   3  -5 4921.29   74.26
   0  -3   5 4974.81   74.84
  -1   3  -5 1099.18   18.21
  -1   3  -5 1088.74   19.03
   1  -3   5 1049.91   19.14
  -2   3  -5  199.28    5.99
  -2   3  -5  197.11    5.26
   2  -3   5  187.19    5.98
  -3   3  -5   47.61    3.67
  -3   3  -5   47.32    2.98
   3  -3   5   49.27    3.36
  -4   3  -5   92.00    4.13
  -4   3  -5   94.71    4.72
   4  -3   5   86.66    4.27
  -5   3  -5  473.49   11.06
  -5   3  -5  480.84   11.75
   5  -3   5  463.72   10.51
  -6   3  -5  167.05    6.61
  -6   3  -5  153.77    6.86
  -7   3  -5  363.63   10.58
  -7   3  -5  363.76   11.07
  -8   3  -5  304.49   10.54
  -9   3  -5  232.72    9.70
 -10   3  -5  103.90    7.97
 -11   3  -5  187.16    9.94
 -12   3  -5   60.44    7.45
 -13   3  -5   46.06    6.82
 -15  -2   5  134.53   11.91
 -14  -2   5  111.62   10.57
 -13  -2   5  100.16    9.02
 -12  -2   5   11.89    4.63
 -11  -2   5  111.53    8.57
 -10  -2   5   30.20    3.93
 -10  -2   5   26.81    4.53
  -9  -2   5  215.25    7.86
  -9  -2   5  221.42    9.12
  -8  -2   5  699.82   15.20
  -7  -2   5 1568.17   27.65
  -6  -2   5  405.97   10.18
  -5  -2   5   13.58    2.29
  -4  -2   5  145.57    5.26
  -3  -2   5  542.32   11.44
  -2  -2   5  896.05   16.48
   1   2  -5  649.63   12.17
   1   2  -5  672.70   12.47
  -1  -2   5  648.49   12.68
   0   2  -5    1.99    1.29
   0   2  -5    5.35    1.44
   0  -2   5    4.15    1.59
  -1   2  -5   28.46    2.50
  -1   2  -5   24.02    2.22
   1  -2   5   21.37    2.29
  -2   2  -5   32.01    2.64
  -2   2  -5   38.08    2.72
   2  -2   5   47.02    2.83
  -3   2  -5  351.81    8.68
  -3   2  -5  346.31    8.42
   3  -2   5  348.92    8.01
  -4   2  -5  494.44   11.37
  -4   2  -5  497.03   11.27
   4  -2   5  493.42   10.28
  -5   2  -5  598.40   13.48
  -5   2  -5  590.12   13.40
  -6   2  -5   35.62    4.06
  -6   2  -5   37.20    4.02
  -7   2  -5  104.85    6.38
  -7   2  -5  106.28    6.20
  -8   2  -5    5.54    3.36
  -8   2  -5    9.79    3.50
  -9   2  -5  347.10   11.86
 -10   2  -5  779.31   19.74
 -11   2  -5  462.86   15.49
 -12   2  -5   33.85    6.39
 -13   2  -5   18.33    5.87
 -15  -1   5  108.72   10.38
 -14  -1   5   84.33    9.28
 -13  -1   5   66.98    7.52
 -12  -1   5   11.82    4.73
 -11  -1   5    0.49    3.37
 -11  -1   5    4.51    4.00
 -10  -1   5    1.53    2.54
 -10  -1   5   -2.17    3.25
  -9  -1   5   15.78    3.57
  -9  -1   5   20.20    3.24
  -8  -1   5    2.20    2.23
  -7  -1   5   10.54    2.37
  -6  -1   5   51.66    3.59
  -5  -1   5  782.68   15.36
  -4  -1   5  279.45    7.40
  -3  -1   5  451.23    9.86
  -2  -1   5  236.66    6.30
   1   1  -5   58.13    3.13
   1   1  -5   51.28    2.47
  -1  -1   5   61.95    3.02
   0   1  -5 1465.33   23.17
   0   1  -5 1440.46   23.85
   0  -1   5 1421.96   23.57
  -1   1  -5  124.57    4.05
  -1   1  -5  123.81    4.35
   1  -1   5  116.61    3.92
  -2   1  -5 1008.86   17.54
  -2   1  -5  989.66   18.05
   2  -1   5 1002.67   16.99
  -3   1  -5 3341.43   51.40
  -3   1  -5 3332.73   50.68
   3  -1   5 3146.87   49.21
  -4   1  -5  914.50   17.26
  -4   1  -5  895.72   17.83
   4  -1   5  872.01   15.24
  -5   1  -5   72.68    4.54
  -5   1  -5   80.60    4.98
  -6   1  -5  131.58    6.60
  -6   1  -5  141.21    6.34
  -7   1  -5  192.10    8.54
  -7   1  -5  170.50    7.47
  -8   1  -5   12.98    3.82
  -8   1  -5   13.78    3.50
  -9   1  -5  322.92   11.31
  -9   1  -5  301.83   11.86
 -10   1  -5  507.33   16.16
 -10   1  -5  553.20   16.07
 -11   1  -5  105.30    8.53
 -12   1  -5    2.85    4.75
 -13   1  -5   25.16    6.00
 -15   0   5    6.43    6.03
 -14   0   5   86.07    8.94
 -13   0   5    1.65    4.25
 -12   0   5  457.23   14.98
 -11   0   5  823.41   18.38
 -11   0   5  848.85   20.51
 -10   0   5  397.26   12.55
 -10   0   5  412.91   11.38
  -9   0   5   39.03    4.04
  -8   0   5   75.20    4.54
  -7   0   5  219.20    7.29
  -6   0   5  186.92    6.31
  -5   0   5  301.33    7.98
  -4   0   5 1482.84   25.15
  -3   0   5  886.88   16.21
   2   0  -5   80.14    3.70
  -2   0   5   80.19    3.45
   1   0  -5  141.91    4.80
   1   0  -5  133.50    3.56
  -1   0   5  132.72    4.27
   0   0  -5  282.33    5.97
   0   0  -5  279.54    7.23
   0   0   5  281.11    6.50
  -1   0  -5  268.67    7.22
  -1   0  -5  273.01    6.16
   1   0   5  275.11    6.20
  -2   0  -5   63.03    3.05
  -2   0  -5   69.65    3.80
   2   0   5   61.07    2.61
  -3   0  -5  872.71   17.50
  -3   0  -5  869.38   16.25
   3   0   5  912.75   14.73
  -4   0  -5  218.23    7.63
  -4   0  -5  220.74    6.74
   4   0   5  224.70    4.78
  -5   0  -5  141.10    6.95
  -5   0  -5  162.06    6.09
  -6   0  -5  168.91    6.76
  -6   0  -5  154.33    7.45
  -7   0  -5   33.43    4.68
  -7   0  -5   36.72    4.40
  -8   0  -5  103.09    6.44
  -8   0  -5  106.56    8.01
  -9   0  -5  185.83    9.56
  -9   0  -5  198.38    8.90
 -10   0  -5   95.01    8.08
 -10   0  -5   90.92    7.35
 -11   0  -5    0.59    4.78
 -11   0  -5    6.78    4.54
 -12   0  -5    0.29    4.03
 -13   0  -5  232.67   12.58
 -15   1   5    7.86    5.32
 -14   1   5   31.91    6.04
 -13   1   5    8.42    4.35
 -12   1   5  433.18   14.31
 -11   1   5  685.51   16.26
 -11   1   5  691.20   17.81
 -10   1   5  158.67    7.09
 -10   1   5  153.39    7.63
  -9   1   5    1.68    2.36
  -8   1   5   44.35    4.05
  -7   1   5  357.04    9.62
  -6   1   5   94.73    4.62
  -5   1   5   37.88    3.24
  -4   1   5    0.50    1.36
   3  -1  -5    2.29    1.39
  -3   1   5    4.25    1.50
   2  -1  -5  264.35    6.96
  -2   1   5  253.29    6.56
   1  -1  -5  457.49   10.03
  -1   1   5  453.67    9.31
   0  -1  -5  371.05    8.88
   0  -1  -5  370.24    6.96
   0   1   5  362.53    7.70
  -1  -1  -5    7.34    1.27
  -1  -1  -5    7.21    1.89
   1   1   5    5.54    1.22
  -2  -1  -5    0.93    1.10
  -2  -1  -5    3.01    2.09
   2   1   5    1.80    0.98
  -3  -1  -5    2.53    2.10
  -3  -1  -5   -2.37    1.11
   3   1   5   -1.56    0.77
  -4  -1  -5   14.68    2.41
  -4  -1  -5   12.55    2.93
  -5  -1  -5  458.96   11.11
  -5  -1  -5  464.31   12.97
  -6  -1  -5 1347.08   24.69
  -6  -1  -5 1282.42   26.53
  -7  -1  -5 1182.18   23.44
  -7  -1  -5 1192.56   25.37
  -8  -1  -5  574.19   16.55
  -8  -1  -5  546.28   14.53
  -9  -1  -5  102.12    8.47
  -9  -1  -5   96.99    7.17
 -10  -1  -5    3.13    3.75
 -10  -1  -5    1.71    4.62
 -11  -1  -5   28.38    5.26
 -11  -1  -5   22.55    5.98
 -12  -1  -5   22.43    5.82
 -12  -1  -5   23.82    6.26
 -15   2   5   -5.28    4.89
 -14   2   5    0.83    4.65
 -13   2   5    0.04    4.27
 -12   2   5   16.57    4.24
 -11   2   5    0.30    2.72
 -11   2   5   -0.22    2.98
 -10   2   5   39.70    4.23
  -9   2   5   33.16    3.97
   8  -2  -5 1074.76   21.33
   7  -2  -5 1043.08   20.43
   6  -2  -5  273.90    8.24
   5  -2  -5    0.31    1.80
   4  -2  -5  206.29    6.50
   3  -2  -5  145.31    5.19
   3  -2  -5  152.67    5.35
   2  -2  -5 1146.12   20.63
   2  -2  -5 1176.32   20.34
   1  -2  -5 4694.69   69.24
   1  -2  -5 4540.49   70.14
   0  -2  -5 3403.03   51.70
   0  -2  -5 3278.38   50.10
   0  -2  -5 3586.55   53.64
  -1  -2  -5  782.48   13.40
  -1  -2  -5  813.77   16.23
   1   2   5  768.79   13.61
  -2  -2  -5  318.86    9.35
   2   2   5  327.58    6.58
  -3  -2  -5  181.30    7.36
   3   2   5  161.93    3.83
  -4  -2  -5   16.69    3.37
  -5  -2  -5  269.62   10.21
  -6  -2  -5  781.21   18.97
  -7  -2  -5  702.63   18.31
  -8  -2  -5  440.32   14.85
  -9  -2  -5  209.94   10.82
 -10  -2  -5  203.95   11.24
 -11  -2  -5   55.17    6.76
 -11  -2  -5   55.99    7.87
 -12  -2  -5   65.15    7.47
 -12  -2  -5   66.49    9.05
 -15   3   5  102.53    8.74
 -14   3   5  127.59   14.22
 -14   3   5  117.25    7.80
 -13   3   5   27.23    5.23
 -12   3   5   -2.07    3.00
 -12   3   5   -0.91    2.91
 -11   3   5   36.86    5.01
 -11   3   5   36.83    4.67
  10  -3  -5  206.63    8.54
   9  -3  -5   44.15    4.46
   8  -3  -5 1196.77   23.53
   7  -3  -5 1375.29   25.77
   6  -3  -5  503.66   12.23
   5  -3  -5  101.53    4.93
   4  -3  -5   -1.25    1.28
   4  -3  -5    0.19    1.72
   3  -3  -5   20.10    2.46
   3  -3  -5   16.64    2.25
   2  -3  -5  978.42   17.69
   2  -3  -5  941.42   18.03
   1  -3  -5 2906.50   46.47
   1  -3  -5 2917.93   45.21
   0  -3  -5 1922.48   31.22
   0  -3  -5 2008.35   33.29
  -1  -3  -5 1186.86   19.63
  -1  -3  -5 1156.02   22.15
  -2  -3  -5 1811.58   28.13
  -2  -3  -5 1786.34   31.91
  -3  -3  -5 1543.55   28.61
   3   3   5 1496.91   23.41
  -4  -3  -5  555.51   14.74
  -5  -3  -5   40.07    5.09
  -6  -3  -5  177.96    9.00
  -7  -3  -5   55.53    6.19
  -8  -3  -5  221.32   11.27
  -9  -3  -5  298.18   13.00
 -10  -3  -5  664.27   20.36
 -11  -3  -5  507.16   18.36
 -12  -3  -5  202.12   13.61
 -12  -3  -5  193.61   11.30
 -14   4   5  258.67   10.62
 -13   4   5  166.42    8.55
  12  -4  -5   14.38    4.14
 -12   4   5   13.67    4.21
 -12   4   5   10.46    3.65
  11  -4  -5    9.14    3.39
 -11   4   5   11.06    3.23
  10  -4  -5   -1.07    2.48
 -10   4   5    3.57    2.41
   9  -4  -5  107.00    6.26
  -9   4   5   93.48    4.92
   8  -4  -5  114.34    6.44
  -8   4   5  107.89    4.65
   7  -4  -5  179.24    7.24
  -7   4   5  181.14    5.46
   6  -4  -5  315.27    9.38
  -6   4   5  312.05    6.85
   5  -4  -5  905.20   18.55
  -5   4   5  933.59   14.99
   4  -4  -5  818.96   16.32
   4  -4  -5  842.79   16.86
   3  -4  -5 1948.21   32.65
   3  -4  -5 1930.07   32.62
   2  -4  -5  765.51   15.67
   2  -4  -5  766.78   15.18
   1  -4  -5  298.69    8.76
   1  -4  -5  307.38    7.79
   0  -4  -5   68.33    3.34
   0  -4  -5   60.60    4.21
  -1  -4  -5   16.07    1.97
  -1  -4  -5   13.02    2.79
  -2  -4  -5  661.85   12.21
  -2  -4  -5  666.55   15.75
  -3  -4  -5 2712.31   46.36
  -3  -4  -5 2700.40   40.93
  -4  -4  -5 2562.73   44.92
  -5  -4  -5 1316.65   27.50
  -6  -4  -5    0.46    3.72
  -7  -4  -5   56.80    7.04
  -8  -4  -5   32.97    5.87
  -9  -4  -5  343.73   14.81
 -10  -4  -5  379.52   16.18
 -11  -4  -5  587.66   20.34
 -12  -4  -5  227.90   14.00
  12  -5  -5  206.37    9.80
 -12   5   5  197.17    9.43
  11  -5  -5  454.82   14.01
 -11   5   5  463.81   12.40
  10  -5  -5  219.12    9.17
 -10   5   5  222.75    7.75
   9  -5  -5  303.52   10.36
  -9   5   5  297.09    8.44
   8  -5  -5    8.12    3.15
  -8   5   5    9.99    2.17
   7  -5  -5    3.91    2.60
  -7   5   5    0.91    1.53
   6  -5  -5  332.35   10.02
  -6   5   5  324.84    7.10
   5  -5  -5  121.99    5.92
  -5   5   5  119.87    3.42
   4  -5  -5 2254.78   38.12
   4  -5  -5 2273.98   37.49
   3  -5  -5 2027.02   34.62
   3  -5  -5 2105.24   34.94
   2  -5  -5 1550.93   27.49
   2  -5  -5 1627.46   28.33
   1  -5  -5   65.98    4.34
   1  -5  -5   65.81    4.00
   0  -5  -5   72.30    4.74
  -1  -5  -5  201.18    7.87
  -1  -5  -5  215.18    6.16
  -2  -5  -5  335.16   10.72
  -2  -5  -5  343.12    7.93
  -3  -5  -5  506.41    9.97
  -3  -5  -5  493.09   13.96
  -4  -5  -5 1942.82   36.51
  -5  -5  -5  632.20   17.41
  -6  -5  -5  112.99    8.79
  -7  -5  -5    3.67    4.29
  -8  -5  -5  395.97   15.48
  -9  -5  -5  214.98   12.12
 -10  -5  -5  140.58   10.92
 -11  -5  -5   97.37   10.33
 -12  -5  -5   71.38   10.17
  12  -6  -5   33.15    5.37
  11  -6  -5  382.98   13.13
  10  -6  -5  389.96   12.65
   9  -6  -5  158.12    7.85
   8  -6  -5   22.76    3.92
   7  -6  -5  109.35    6.40
   6  -6  -5  128.06    6.59
  -6   6   5  129.43    6.35
   5  -6  -5  318.59    8.98
   5  -6  -5  331.82   10.09
   4  -6  -5   82.92    5.42
   4  -6  -5   88.65    4.84
   3  -6  -5 2139.90   36.26
   3  -6  -5 2094.06   35.93
   2  -6  -5  882.26   18.42
   2  -6  -5  896.14   17.97
   1  -6  -5  619.29   13.66
   1  -6  -5  638.12   14.70
   0  -6  -5  144.30    5.48
   0  -6  -5  138.01    6.54
  -1  -6  -5  470.22   10.68
  -1  -6  -5  469.15   12.93
  -2  -6  -5  159.67    5.47
  -2  -6  -5  168.80    7.96
  -3  -6  -5   70.63    3.77
  -3  -6  -5   58.18    5.83
  -4  -6  -5  387.62   12.98
  -5  -6  -5  394.02   13.68
  -6  -6  -5  258.38   11.64
  -7  -6  -5  706.23   20.38
  -8  -6  -5  472.34   16.97
  -9  -6  -5  111.36   10.19
 -10  -6  -5   -0.03    5.41
 -11  -6  -5    8.41    6.49
  12  -7  -5   39.39    5.78
  11  -7  -5   70.47    6.61
  10  -7  -5   31.60    4.87
   9  -7  -5   98.48    6.81
   8  -7  -5   89.81    6.95
   7  -7  -5  253.80    9.71
   6  -7  -5  690.90   16.84
   5  -7  -5   26.32    3.86
   5  -7  -5   31.30    3.36
   4  -7  -5   -0.65    2.48
   4  -7  -5    0.48    1.87
   3  -7  -5    7.18    2.46
   3  -7  -5    5.62    2.48
   2  -7  -5  163.02    6.88
   2  -7  -5  159.44    7.01
   1  -7  -5  667.96   15.73
   1  -7  -5  662.07   14.72
   0  -7  -5 1739.40   29.96
   0  -7  -5 1694.62   31.80
  -1  -7  -5 1694.01   29.43
  -1  -7  -5 1738.08   32.55
  -2  -7  -5  375.91    9.64
  -2  -7  -5  415.56   12.97
  -3  -7  -5   11.22    3.97
  -4  -7  -5   15.72    4.49
  -5  -7  -5   11.90    4.87
  -6  -7  -5  134.03    9.90
  -7  -7  -5  639.06   19.73
  -8  -7  -5  399.55   16.62
  -9  -7  -5  154.12   11.63
 -10  -7  -5    6.07    6.17
 -11  -7  -5    5.91    6.59
  12  -8  -5    4.45    4.16
  11  -8  -5   37.42    5.85
  10  -8  -5    7.72    4.00
   9  -8  -5    5.51    3.47
   8  -8  -5  257.58   10.45
   7  -8  -5  615.18   16.50
   6  -8  -5  768.25   18.65
   5  -8  -5    3.15    2.85
   5  -8  -5    3.29    2.11
   4  -8  -5  147.53    6.51
   4  -8  -5  135.05    6.94
   3  -8  -5  101.98    5.75
   3  -8  -5  109.50    6.17
   2  -8  -5   69.98    5.40
   2  -8  -5   72.09    5.39
   1  -8  -5  269.83    9.71
   1  -8  -5  274.99    8.93
   0  -8  -5  767.59   16.48
   0  -8  -5  741.24   17.86
  -1  -8  -5  188.71    8.71
  -1  -8  -5  203.21    7.29
  -2  -8  -5  166.59    6.40
  -2  -8  -5  158.20    8.36
  -3  -8  -5    7.45    3.86
  -4  -8  -5   18.54    4.77
  -5  -8  -5   27.57    5.59
  -6  -8  -5   32.09    6.21
  -7  -8  -5   24.93    6.66
  -8  -8  -5   76.43    8.98
  -9  -8  -5   14.41    7.02
 -10  -8  -5  217.06   14.97
  13  -9  -5  145.75    9.73
  12  -9  -5    1.03    4.34
  11  -9  -5   59.15    7.21
  10  -9  -5   38.37    5.70
   9  -9  -5    7.16    3.84
   8  -9  -5  138.96    8.67
   7  -9  -5  137.30    8.13
   6  -9  -5  287.65   10.97
   5  -9  -5   73.76    6.45
   5  -9  -5   66.52    5.17
   4  -9  -5   50.93    4.66
   4  -9  -5   56.56    5.51
   3  -9  -5   14.55    3.18
   3  -9  -5   10.62    3.25
   2  -9  -5    1.36    2.41
   2  -9  -5    2.81    2.68
   1  -9  -5   95.41    6.49
   1  -9  -5   88.28    5.74
   0  -9  -5  107.77    6.25
   0  -9  -5  111.24    7.16
  -1  -9  -5  376.54   10.82
  -1  -9  -5  374.07   12.49
  -2  -9  -5   -1.79    3.63
  -2  -9  -5    1.30    2.36
  -3  -9  -5  139.16    8.66
  -4  -9  -5  574.87   17.47
  -5  -9  -5   88.10    8.44
  -6  -9  -5   11.61    5.67
  -7  -9  -5    8.20    5.65
  -8  -9  -5    0.18    5.23
  -9  -9  -5   57.54    8.81
 -10  -9  -5  294.29   16.34
  13 -10  -5   -6.59    4.25
  12 -10  -5   32.86    5.96
  11 -10  -5    6.53    4.24
  10 -10  -5   47.58    6.87
   9 -10  -5   -2.54    3.29
   8 -10  -5    9.09    4.50
   7 -10  -5    4.53    3.62
   6 -10  -5  114.44    7.78
   5 -10  -5    3.03    3.33
   4 -10  -5  643.34   17.25
   3 -10  -5  564.86   15.51
   3 -10  -5  536.24   14.43
   2 -10  -5  440.54   13.11
   2 -10  -5  462.96   13.43
   1 -10  -5   54.29    5.32
   1 -10  -5   46.22    4.94
   0 -10  -5   79.38    6.79
   0 -10  -5   84.21    5.79
  -1 -10  -5  213.11    8.24
  -1 -10  -5  207.23    9.60
  -2 -10  -5   14.97    3.39
  -2 -10  -5   17.23    4.50
  -3 -10  -5  665.19   18.83
  -4 -10  -5 1421.74   31.58
  -5 -10  -5  631.70   19.56
  -6 -10  -5   12.29    5.60
  -7 -10  -5   31.69    7.11
  -8 -10  -5   -8.27    5.15
  -9 -10  -5   18.51    7.29
  12 -11  -5    1.01    4.36
  11 -11  -5  216.73   11.84
  10 -11  -5  416.33   16.04
   9 -11  -5   73.06    7.74
   8 -11  -5    4.51    3.95
   7 -11  -5   96.77    8.18
   6 -11  -5   29.71    5.27
   5 -11  -5    7.89    3.81
   4 -11  -5  247.76   10.91
   3 -11  -5  622.05   17.23
   2 -11  -5  590.70   16.23
   2 -11  -5  614.18   16.49
   1 -11  -5   38.39    4.90
   1 -11  -5   31.34    4.54
   0 -11  -5  142.44    8.48
   0 -11  -5  178.47    8.43
  -1 -11  -5  149.49    7.74
  -1 -11  -5  157.33    9.15
  -2 -11  -5  145.57    9.40
  -3 -11  -5  100.52    8.88
  -4 -11  -5  114.21    9.58
  -5 -11  -5   75.80    8.41
  -6 -11  -5   94.81    9.68
  -7 -11  -5  188.81   12.71
  -8 -11  -5  620.52   22.03
  11 -12  -5   57.51    8.13
  10 -12  -5  144.60   10.32
   9 -12  -5   17.71    5.44
   8 -12  -5   -0.54    3.86
   7 -12  -5   30.15    5.73
   6 -12  -5  143.23    9.25
   5 -12  -5  246.99   11.36
   4 -12  -5   19.10    4.80
   3 -12  -5   13.28    4.25
   2 -12  -5    1.68    3.36
   1 -12  -5   27.25    5.84
   1 -12  -5   25.22    4.77
   0 -12  -5  512.14   14.99
   0 -12  -5  544.65   16.17
  -1 -12  -5  888.18   22.33
  -1 -12  -5  882.13   20.59
  -2 -12  -5  393.57   14.62
  -3 -12  -5   16.60    5.62
  -4 -12  -5    0.02    4.87
  -5 -12  -5    6.35    5.21
  -6 -12  -5   89.01    9.53
  -7 -12  -5  382.85   17.17
  10 -13  -5    7.52    5.17
   9 -13  -5   -1.31    4.47
   8 -13  -5  101.41    9.48
   7 -13  -5  552.44   18.34
   6 -13  -5  367.03   14.57
   5 -13  -5   78.56    8.15
   4 -13  -5   61.78    7.35
   3 -13  -5   42.07    6.11
   2 -13  -5   97.06    8.34
   1 -13  -5  198.15    9.82
   0 -13  -5  912.22   22.19
  -1 -13  -5  535.22   16.82
  -1 -13  -5  513.96   15.59
  -2 -13  -5  117.69    9.42
  -3 -13  -5    7.59    4.75
  -4 -13  -5   31.15    6.54
  -5 -13  -5   88.01    9.33
  -6 -13  -5   80.81    9.84
   8 -14  -5  164.21   11.86
   7 -14  -5  321.67   14.49
   6 -14  -5  203.09   12.24
   5 -14  -5   93.13    9.22
   4 -14  -5    0.61    4.06
   3 -14  -5   83.75    8.18
   2 -14  -5  229.70   11.35
   1 -14  -5  161.38    9.54
   0 -14  -5   38.70    6.02
  -2 -14  -5   17.25    6.28
  -3 -14  -5  227.29   12.49
  -4 -14  -5  322.46   14.60
  -5 -14  -5  403.74   17.35
   6 -15  -5    1.80    4.87
   5 -15  -5   51.59    7.31
   4 -15  -5  226.24   12.21
   3 -15  -5  401.02   15.99
   2 -15  -5  316.66   14.10
   1 -15  -5    6.55    4.56
   0 -15  -5   10.77    5.09
   3 -16  -5  403.43   16.64
   2 -16  -5  110.31    9.94
   1 -16  -5   59.56    8.05
  -2 -16   6   10.46    6.53
  -1 -16   6    8.70    6.58
  -7 -15   6  128.54   11.27
  -6 -15   6   21.68    6.86
  -5 -15   6   27.69    7.16
  -4 -15   6  186.92   12.69
  -3 -15   6    0.89    4.92
  -2 -15   6   23.47    6.59
  -1 -15   6   11.28    5.81
   0 -15   6  160.89   11.15
   1 -15   6    0.93    4.76
   2 -15   6   22.75    6.36
   3 -15   6   46.50    7.53
   4 -15   6    6.01    4.97
  -5  15  -6    5.93    4.74
   5 -15   6   -0.11    5.04
  -7 -14   6   39.71    7.06
  -6 -14   6    9.96    5.42
  -5 -14   6    8.40    5.21
  -4 -14   6  187.12   11.51
  -3 -14   6   81.51    8.60
  -2 -14   6    8.87    5.13
  -1 -14   6  362.07   14.91
   0 -14   6  213.76   12.28
   1 -14   6  144.14   11.00
   2 -14   6    1.50    4.74
   3 -14   6   53.26    7.78
  -4  14  -6    9.65    4.47
   4 -14   6    8.93    5.58
  -5  14  -6   -2.96    4.04
   5 -14   6    6.67    5.24
  -6  14  -6  170.15   10.16
   6 -14   6  159.32   11.28
  -7  14  -6  136.06   10.23
   7 -14   6  126.00   11.21
  -9 -13   6    3.96    5.89
  -8 -13   6  125.41   15.00
  -7 -13   6   60.94    7.54
  -6 -13   6   43.42    7.37
  -5 -13   6   93.77    9.22
  -4 -13   6  188.85   10.96
  -3 -13   6  382.79   15.27
  -2 -13   6    5.73    4.58
  -1 -13   6    2.15    4.33
   0 -13   6  164.97   10.25
   1 -13   6   -1.41    4.03
   2 -13   6   23.50    5.55
   3 -13   6   -1.77    4.00
  -4  13  -6    2.81    3.95
   4 -13   6   13.83    5.07
  -5  13  -6   33.02    5.87
   5 -13   6   37.66    6.66
  -6  13  -6    0.16    4.52
   6 -13   6    3.25    5.06
  -7  13  -6   23.04    5.58
   7 -13   6   22.66    6.40
  -8  13  -6   10.98    5.06
 -10 -12   6   20.55    6.65
  -9 -12   6   -0.89    5.77
  -8 -12   6    5.10    4.74
  -8 -12   6    5.96    5.64
  -7 -12   6   -0.34    4.75
  -7 -12   6    7.42    4.81
  -6 -12   6    4.61    5.04
  -5 -12   6    1.15    4.19
  -4 -12   6   -4.58    3.99
  -3 -12   6    5.13    4.45
  -2 -12   6   -3.40    4.28
  -1 -12   6  162.87    9.70
   0 -12   6  284.30   12.24
   1 -12   6   71.66    7.48
   2 -12   6    1.21    3.95
  -3  12  -6  150.37    8.46
   3 -12   6  148.64    9.62
  -4  12  -6  392.33   13.43
   4 -12   6  373.05   14.94
  -5  12  -6  115.46    8.36
   5 -12   6  116.59    9.65
  -6  12  -6   31.69    5.54
   6 -12   6   35.02    6.12
  -7  12  -6  187.00   10.66
   7 -12   6  199.21   14.66
  -8  12  -6   17.14    5.59
  -9  12  -6   -3.47    4.39
 -11 -11   6   -1.18    5.54
 -10 -11   6   54.21    8.12
  -9 -11   6   16.79    5.68
  -8 -11   6  301.61   13.11
  -8 -11   6  303.44   13.59
  -7 -11   6  290.27   12.10
  -7 -11   6  289.83   12.25
  -6 -11   6  124.67    9.25
  -6 -11   6  103.33    7.57
  -5 -11   6   17.97    4.95
  -5 -11   6   13.02    4.96
  -4 -11   6  181.26    9.90
  -3 -11   6  370.80   13.42
  -2 -11   6   39.33    5.69
  -1 -11   6  142.60    8.77
   0 -11   6   94.18    7.88
   1 -11   6    2.42    3.69
  -2  11  -6   -3.07    2.92
   2 -11   6    0.99    3.96
  -3  11  -6  160.00    8.58
   3 -11   6  122.18    8.49
  -4  11  -6  437.64   13.44
   4 -11   6  423.39   15.05
  -5  11  -6   97.89    7.66
   5 -11   6  112.53    9.23
  -6  11  -6   21.58    4.70
   6 -11   6   32.41    6.04
  -7  11  -6   19.68    5.05
  -8  11  -6   53.44    6.76
  -9  11  -6    6.79    5.04
 -12 -10   6    2.79    6.03
 -11 -10   6   56.38    8.44
 -10 -10   6  205.96   12.07
  -9 -10   6    7.93    5.29
  -9 -10   6    5.97    5.14
  -8 -10   6  300.69   13.08
  -8 -10   6  282.81   12.36
  -7 -10   6  270.19   11.35
  -7 -10   6  243.73   10.98
  -6 -10   6  115.80    8.12
  -6 -10   6  115.95    8.09
  -5 -10   6   11.04    3.54
  -5 -10   6    7.23    4.18
  -4 -10   6  107.38    6.63
  -4 -10   6  123.64    8.01
  -3 -10   6  734.56   18.93
  -2 -10   6  300.69   11.66
  -1 -10   6    8.09    4.06
   0 -10   6  112.70    7.76
   1 -10   6  193.17    9.86
  -2  10  -6    7.22    3.36
   2 -10   6    6.14    3.71
  -3  10  -6   25.42    4.36
   3 -10   6   31.87    5.06
  -4  10  -6   35.14    5.03
   4 -10   6   33.48    5.33
  -5  10  -6    9.53    3.85
   5 -10   6   14.52    4.51
  -6  10  -6    2.29    4.04
   6 -10   6    4.21    3.59
  -7  10  -6  112.47    8.32
  -8  10  -6  213.56   10.47
  -9  10  -6   23.25    5.55
 -10  10  -6   40.06    6.54
 -13  -9   6    2.48    7.00
 -12  -9   6   16.35    6.53
 -11  -9   6    3.75    5.22
 -10  -9   6    0.48    5.35
  -9  -9   6   10.74    4.81
  -9  -9   6   11.38    4.85
  -8  -9   6   -3.74    4.03
  -8  -9   6    2.75    4.02
  -7  -9   6   86.14    7.32
  -7  -9   6   70.02    6.69
  -6  -9   6  369.33   12.75
  -6  -9   6  405.67   12.94
  -5  -9   6    6.68    3.87
  -5  -9   6    5.45    3.42
  -4  -9   6   51.80    5.70
  -4  -9   6   51.32    4.83
  -3  -9   6  142.73    7.97
  -3  -9   6  143.62    6.42
  -2  -9   6   34.80    4.94
  -1  -9   6    6.07    3.51
   0  -9   6  163.96    8.41
  -1   9  -6  181.73    7.90
   1  -9   6  204.49    9.54
  -2   9  -6   41.50    4.66
   2  -9   6   42.34    5.60
  -3   9  -6   68.05    5.65
   3  -9   6   74.65    6.61
  -4   9  -6  310.29   10.58
   4  -9   6  310.28   11.56
  -5   9  -6   10.42    3.67
   5  -9   6   16.01    4.40
  -6   9  -6  105.63    7.25
   6  -9   6  110.61    7.92
  -7   9  -6  346.84   12.42
  -8   9  -6  235.98   11.22
  -9   9  -6   30.88    6.13
 -10   9  -6    7.49    4.87
 -11   9  -6   65.06    8.35
 -13  -8   6   19.09    6.75
 -12  -8   6   34.04    7.29
 -11  -8   6  148.11   11.41
 -10  -8   6   63.55    7.55
  -9  -8   6   11.12    4.02
  -9  -8   6    4.16    4.15
  -8  -8   6  165.38    8.43
  -8  -8   6  163.60    9.12
  -7  -8   6  406.59   13.39
  -7  -8   6  416.25   13.20
  -6  -8   6  149.39    8.03
  -6  -8   6  156.50    8.47
  -5  -8   6   74.64    5.47
  -5  -8   6   76.97    6.28
  -4  -8   6  676.30   16.78
  -4  -8   6  659.77   15.27
  -3  -8   6  664.55   16.81
  -3  -8   6  704.12   15.03
  -2  -8   6  126.80    5.49
  -2  -8   6  142.09    7.55
  -1  -8   6  252.14    9.55
   0  -8   6  166.87    8.03
  -1   8  -6   78.80    5.41
   1  -8   6   66.62    5.85
  -2   8  -6    4.15    2.70
   2  -8   6    3.08    2.99
  -3   8  -6   22.72    3.95
   3  -8   6   13.41    3.66
  -4   8  -6   53.81    5.15
   4  -8   6   49.20    5.52
  -5   8  -6   -1.67    2.90
   5  -8   6    3.93    3.08
  -6   8  -6   63.67    5.89
   6  -8   6   67.00    6.41
  -7   8  -6    4.99    3.73
  -8   8  -6    4.63    3.98
  -9   8  -6    3.71    4.18
 -10   8  -6  166.68   10.08
 -11   8  -6  151.24   10.24
 -14  -7   6  128.35   11.66
 -13  -7   6    8.13    5.79
 -12  -7   6   28.24    6.78
 -11  -7   6  223.77   11.95
 -10  -7   6  196.92   10.60
  -9  -7   6   85.86    7.88
  -9  -7   6   75.45    6.47
  -8  -7   6   53.18    5.70
  -8  -7   6   43.15    5.52
  -7  -7   6  106.77    6.78
  -7  -7   6   91.94    6.61
  -6  -7   6   41.69    4.91
  -6  -7   6   32.85    4.51
  -5  -7   6    5.68    3.12
  -5  -7   6    0.60    2.26
  -4  -7   6   59.26    4.71
  -4  -7   6   68.66    5.57
  -3  -7   6   28.81    4.00
  -2  -7   6    7.72    3.14
  -1  -7   6   83.60    5.80
   0   7  -6   21.25    3.36
   0  -7   6   22.70    3.97
  -1   7  -6   86.19    5.18
   1  -7   6   77.63    5.70
  -2   7  -6   18.23    3.42
   2  -7   6   10.43    3.37
  -3   7  -6  244.17    8.63
   3  -7   6  226.92    9.24
  -4   7  -6  284.11    9.58
   4  -7   6  276.28   10.20
  -5   7  -6   90.11    6.49
   5  -7   6   76.85    6.23
  -6   7  -6    4.99    3.58
  -7   7  -6  101.81    7.07
  -8   7  -6  290.06   11.42
  -9   7  -6    3.02    3.98
 -10   7  -6  221.90   11.10
 -11   7  -6  326.24   13.76
 -14  -6   6   30.58    7.91
 -13  -6   6   19.73    6.37
 -12  -6   6    6.79    5.17
 -11  -6   6    7.94    4.70
 -10  -6   6    4.09    4.13
 -10  -6   6    9.16    3.92
  -9  -6   6   -0.44    3.46
  -9  -6   6    6.28    3.69
  -8  -6   6   16.97    4.43
  -8  -6   6   28.53    4.25
  -7  -6   6  494.86   13.73
  -7  -6   6  518.01   14.14
  -6  -6   6  301.17   10.09
  -6  -6   6  260.36    9.69
  -5  -6   6   36.13    4.25
  -4  -6   6 1001.39   20.69
  -3  -6   6  479.75   12.49
  -2  -6   6  305.80    9.49
  -1  -6   6    6.02    2.67
   0   6  -6  476.58   11.72
   0  -6   6  491.64   12.73
  -1   6  -6  572.01   13.01
   1  -6   6  544.23   13.61
  -2   6  -6    9.17    2.66
   2  -6   6   11.69    3.04
  -3   6  -6  689.42   15.37
   3  -6   6  689.26   16.11
  -4   6  -6  970.53   20.10
   4  -6   6  989.43   20.94
  -5   6  -6  148.97    7.12
   5  -6   6  135.19    6.91
  -6   6  -6    2.09    2.96
  -7   6  -6   60.04    5.83
  -8   6  -6   47.11    5.77
  -9   6  -6   63.91    6.54
 -10   6  -6   47.65    6.35
 -11   6  -6   46.01    7.09
 -12   6  -6   30.12    6.71
 -14  -5   6  335.06   15.93
 -13  -5   6  226.25   12.74
 -12  -5   6    3.02    5.09
 -11  -5   6  551.00   17.43
 -10  -5   6  264.17    9.95
 -10  -5   6  256.51   11.32
  -9  -5   6   10.98    3.85
  -9  -5   6    1.45    3.08
  -8  -5   6  228.43    9.39
  -8  -5   6  230.43    8.66
  -7  -5   6 1118.29   23.05
  -7  -5   6 1079.29   22.07
  -6  -5   6 1041.92   21.08
  -5  -5   6    7.73    2.70
  -4  -5   6  792.42   17.05
  -3  -5   6  985.01   19.76
  -2  -5   6    1.82    2.21
  -1  -5   6  105.01    5.36
   0   5  -6  153.62    5.83
   0  -5   6  157.59    6.34
  -1   5  -6   25.81    2.98
   1  -5   6   27.72    3.41
  -2   5  -6  107.23    3.81
  -2   5  -6  109.93    5.23
   2  -5   6  112.33    5.54
  -3   5  -6  160.41    4.99
  -3   5  -6  158.40    6.41
   3  -5   6  168.79    6.76
  -4   5  -6    5.30    2.49
   4  -5   6    2.13    2.41
  -5   5  -6   42.84    4.48
   5  -5   6   39.51    4.13
  -6   5  -6   30.21    4.49
  -7   5  -6  182.20    8.42
  -8   5  -6  639.58   17.00
  -9   5  -6  156.59    9.40
 -10   5  -6   14.82    5.07
 -11   5  -6  111.35    9.02
 -12   5  -6   52.60    7.30
 -15  -4   6  117.11   11.24
 -14  -4   6  201.90   13.33
 -13  -4   6  297.58   14.36
 -12  -4   6   53.97    7.56
 -11  -4   6   46.40    6.70
 -10  -4   6    1.52    3.58
 -10  -4   6    0.38    3.00
  -9  -4   6   10.97    3.68
  -9  -4   6    8.93    3.22
  -8  -4   6   16.35    3.22
  -8  -4   6   16.74    3.64
  -7  -4   6    5.29    2.50
  -6  -4   6   19.95    3.20
  -5  -4   6    2.35    2.26
  -4  -4   6   97.21    5.07
  -3  -4   6   65.03    4.25
  -2  -4   6 1078.79   20.43
   1   4  -6   84.23    4.14
  -1  -4   6   91.25    4.74
   0   4  -6    2.31    1.70
   0  -4   6    5.71    2.09
  -1   4  -6  183.59    5.32
  -1   4  -6  193.62    6.40
   1  -4   6  190.57    6.69
  -2   4  -6   33.32    2.59
  -2   4  -6   34.31    3.25
   2  -4   6   31.67    3.25
  -3   4  -6  321.63    7.63
  -3   4  -6  308.75    8.82
   3  -4   6  324.43    9.15
  -4   4  -6  446.80   11.44
  -4   4  -6  440.08    9.89
   4  -4   6  440.76   11.16
  -5   4  -6   35.48    5.29
  -5   4  -6   44.12    4.33
   5  -4   6   43.03    4.47
  -6   4  -6  105.35    6.34
  -7   4  -6 1182.40   24.56
  -8   4  -6  340.16   11.70
  -9   4  -6  156.23    8.65
 -10   4  -6  100.59    8.08
 -11   4  -6    9.71    4.66
 -12   4  -6    7.80    5.19
 -15  -3   6    5.59    5.92
 -14  -3   6   -0.94    5.01
 -13  -3   6   -3.67    4.20
 -12  -3   6   56.62    7.32
 -11  -3   6  372.44   11.97
 -11  -3   6  365.48   13.46
 -10  -3   6  694.89   18.44
 -10  -3   6  668.00   16.12
  -9  -3   6  132.48    6.86
  -9  -3   6  147.91    8.19
  -8  -3   6   30.23    3.69
  -7  -3   6  609.54   14.17
  -6  -3   6  514.87   12.55
  -5  -3   6   99.51    5.06
  -4  -3   6 1542.56   27.06
  -3  -3   6 3701.93   57.86
  -2  -3   6   12.57    2.35
   1   3  -6   68.89    3.59
  -1  -3   6   83.09    4.18
   0   3  -6  986.13   17.87
   0   3  -6  987.34   17.49
   0  -3   6  985.63   18.46
  -1   3  -6 1100.63   19.67
  -1   3  -6 1111.10   19.09
   1  -3   6 1070.39   19.91
  -2   3  -6  145.08    5.33
  -2   3  -6  131.45    4.68
   2  -3   6  143.14    5.42
  -3   3  -6  227.89    7.36
  -3   3  -6  233.79    6.65
   3  -3   6  233.72    7.13
  -4   3  -6  268.97    7.68
  -4   3  -6  264.64    8.27
   4  -3   6  274.47    7.78
  -5   3  -6   21.05    3.36
  -5   3  -6   20.98    3.06
  -6   3  -6   52.19    4.85
  -6   3  -6   51.63    4.52
  -7   3  -6   50.73    5.05
  -8   3  -6   21.59    4.32
  -9   3  -6    5.74    3.83
 -10   3  -6   55.06    6.53
 -11   3  -6   64.40    7.21
 -12   3  -6   82.85    8.68
 -15  -2   6   68.70    8.97
 -14  -2   6   42.27    7.41
 -13  -2   6  153.27   10.26
 -12  -2   6  162.74    9.78
 -11  -2   6  323.32   12.40
 -11  -2   6  336.66   10.99
 -10  -2   6  850.63   20.69
 -10  -2   6  873.18   19.03
  -9  -2   6   77.03    5.60
  -8  -2   6   16.52    3.28
  -7  -2   6   68.35    4.56
  -6  -2   6    0.75    1.90
  -5  -2   6   18.34    2.74
  -4  -2   6  856.46   16.84
  -3  -2   6  130.41    5.16
  -2  -2   6   12.31    2.17
   1   2  -6 1039.46   18.47
   1   2  -6 1021.17   17.96
  -1  -2   6 1035.22   18.69
   0   2  -6  348.37    8.11
   0   2  -6  348.29    8.34
   0  -2   6  360.10    8.59
  -1   2  -6   12.15    2.03
  -1   2  -6    9.30    1.94
   1  -2   6   15.03    2.04
  -2   2  -6    1.53    1.59
  -2   2  -6    2.40    1.61
   2  -2   6   -0.31    1.47
  -3   2  -6  440.70   10.23
  -3   2  -6  437.29   10.39
   3  -2   6  413.69    9.61
  -4   2  -6  277.50    8.22
  -4   2  -6  271.38    8.13
   4  -2   6  276.68    7.31
  -5   2  -6  252.19    8.36
  -5   2  -6  258.36    8.40
  -6   2  -6    3.84    2.90
  -6   2  -6    7.57    3.11
  -7   2  -6  100.25    6.23
  -7   2  -6   88.82    6.26
  -8   2  -6  419.95   12.71
  -8   2  -6  405.24   12.96
  -9   2  -6   21.42    4.68
 -10   2  -6   30.19    5.48
 -11   2  -6  208.76   10.67
 -12   2  -6   45.54    6.59
 -15  -1   6   18.77    6.40
 -14  -1   6   18.09    6.20
 -13  -1   6   22.43    5.47
 -12  -1   6    3.41    4.03
 -11  -1   6   16.63    3.71
 -11  -1   6   27.41    5.02
 -10  -1   6   24.30    3.99
 -10  -1   6   27.03    4.67
  -9  -1   6   27.73    3.90
  -8  -1   6   26.87    3.40
  -7  -1   6  165.43    6.52
  -6  -1   6  540.94   12.51
  -5  -1   6   30.87    3.12
  -4  -1   6  545.24   12.01
  -3  -1   6  844.62   16.28
   2   1  -6   81.59    3.90
  -2  -1   6   78.01    3.97
   1   1  -6  553.84   10.58
   1   1  -6  541.44   11.50
  -1  -1   6  557.94   11.45
   0   1  -6  651.77   12.26
   0   1  -6  670.29   13.26
   0  -1   6  651.75   12.83
  -1   1  -6  385.94    8.53
  -1   1  -6  389.29    9.29
   1  -1   6  395.91    8.70
  -2   1  -6    7.34    1.90
  -2   1  -6    3.45    1.95
   2  -1   6    2.66    1.53
  -3   1  -6 1325.23   23.23
  -3   1  -6 1348.80   24.10
   3  -1   6 1317.34   22.12
  -4   1  -6  453.52   10.85
  -4   1  -6  445.21   11.50
  -5   1  -6  107.17    5.82
  -5   1  -6  105.43    5.47
  -6   1  -6   98.60    6.41
  -6   1  -6   96.93    5.71
  -7   1  -6  150.83    7.65
  -7   1  -6  145.30    7.90
  -8   1  -6   51.74    5.91
  -8   1  -6   47.03    5.14
  -9   1  -6   11.57    3.98
  -9   1  -6    9.38    4.45
 -10   1  -6   28.90    5.57
 -11   1  -6   42.75    6.09
 -12   1  -6   -0.98    4.17
 -15   0   6    5.44    5.54
 -14   0   6  348.06   15.03
 -13   0   6  118.29    9.57
 -12   0   6    6.37    4.30
 -11   0   6  557.83   15.98
 -11   0   6  534.98   14.37
 -10   0   6  550.92   14.00
  -9   0   6   56.81    4.91
  -8   0   6  439.53   11.63
  -7   0   6  728.52   15.69
  -6   0   6  911.21   18.09
  -5   0   6  178.16    6.25
  -4   0   6 1524.33   26.37
  -3   0   6 1379.10   23.86
   2   0  -6   54.75    3.37
  -2   0   6   47.39    3.24
   1   0  -6  444.41   10.08
   1   0  -6  423.36    8.41
  -1   0   6  447.19    9.64
   0   0  -6  661.84   13.66
   0   0  -6  686.29   12.16
   0   0   6  668.70   12.82
  -1   0  -6  361.49    7.94
  -1   0  -6  366.45    9.28
   1   0   6  375.53    8.13
  -2   0  -6   13.50    1.89
  -2   0  -6   11.95    2.33
   2   0   6   13.16    1.77
  -3   0  -6  302.47    7.90
  -3   0  -6  311.52    9.02
   3   0   6  297.57    6.71
  -4   0  -6   18.38    2.71
  -4   0  -6   19.62    3.24
  -5   0  -6    0.78    2.64
  -5   0  -6    1.34    2.41
  -6   0  -6    4.40    2.70
  -6   0  -6    4.57    3.47
  -7   0  -6   54.52    5.80
  -7   0  -6   54.82    5.12
  -8   0  -6   95.63    7.65
  -8   0  -6   95.90    6.56
  -9   0  -6   24.19    4.89
  -9   0  -6   23.52    4.95
 -10   0  -6    4.01    4.65
 -10   0  -6    3.86    4.08
 -11   0  -6   48.47    6.58
 -12   0  -6   67.57    7.64
 -15   1   6   41.06    7.16
 -14   1   6  312.57   14.06
 -13   1   6  329.37   13.50
 -12   1   6   50.76    6.11
 -12   1   6   49.22    5.18
 -11   1   6    2.57    2.90
 -11   1   6   -0.06    3.09
 -10   1   6   62.96    5.38
  -9   1   6   47.10    4.44
  -8   1   6   17.64    3.08
  -7   1   6    0.47    2.04
  -6   1   6  242.38    7.73
  -5   1   6   95.96    4.73
  -4   1   6   26.80    2.84
   3  -1  -6  422.89   10.25
  -3   1   6  443.17   10.12
   2  -1  -6   -0.97    1.39
  -2   1   6    1.34    1.42
   1  -1  -6 1265.80   19.77
   1  -1  -6 1260.82   22.52
  -1   1   6 1243.08   21.46
   0  -1  -6  974.50   16.26
   0  -1  -6 1006.61   18.89
   0   1   6  981.22   17.25
  -1  -1  -6   39.90    3.52
  -1  -1  -6   42.23    2.51
   1   1   6   39.73    2.49
  -2  -1  -6    7.21    2.33
  -2  -1  -6   13.10    1.91
   2   1   6   13.95    1.69
  -3  -1  -6   22.97    2.62
  -3  -1  -6   21.34    3.34
   3   1   6   22.90    1.91
  -4  -1  -6 1133.97   20.54
  -4  -1  -6 1077.18   22.33
  -5  -1  -6  434.66   10.99
  -5  -1  -6  409.61   12.33
  -6  -1  -6   22.41    4.27
  -6  -1  -6   29.84    3.93
  -7  -1  -6  417.61   13.52
  -7  -1  -6  431.10   12.30
  -8  -1  -6  270.83   11.78
  -8  -1  -6  277.52   10.07
  -9  -1  -6    4.31    3.79
  -9  -1  -6    6.65    4.29
 -10  -1  -6   23.48    5.08
 -10  -1  -6   32.79    6.15
 -11  -1  -6  164.60    9.71
 -11  -1  -6  150.45   10.48
 -12  -1  -6   48.94   11.81
 -12  -1  -6   40.91    6.75
 -15   2   6    5.05    5.48
 -14   2   6   -1.54    4.04
 -13   2   6    9.25    4.60
 -12   2   6    4.39    2.95
 -12   2   6   -0.91    3.30
 -11   2   6  195.04    8.62
 -10   2   6  294.58    9.93
  -9   2   6  188.07    7.72
  -8   2   6  173.82    7.21
   7  -2  -6  282.98    9.14
   6  -2  -6    5.11    2.20
   5  -2  -6   42.83    3.77
   4  -2  -6   37.51    3.32
   3  -2  -6 1316.60   23.08
   3  -2  -6 1267.63   23.32
   2  -2  -6  591.62   12.34
   2  -2  -6  588.59   12.94
   1  -2  -6    1.97    1.69
   1  -2  -6    0.22    1.46
   0  -2  -6  977.50   18.85
   0  -2  -6  928.57   15.37
   0   2   6  945.01   16.81
  -1  -2  -6   40.09    2.42
  -1  -2  -6   37.23    3.64
   1   2   6   43.77    2.68
  -2  -2  -6   11.20    2.78
  -2  -2  -6   12.80    1.86
   2   2   6   11.85    1.59
  -3  -2  -6   41.16    4.47
  -3  -2  -6   37.56    3.09
   3   2   6   34.27    2.19
  -4  -2  -6  461.92   13.22
  -4  -2  -6  466.57   10.92
  -5  -2  -6  140.44    6.10
  -5  -2  -6  136.69    7.58
  -6  -2  -6    2.41    2.45
  -6  -2  -6    1.24    3.47
  -7  -2  -6   40.09    4.79
  -7  -2  -6   25.25    4.94
  -8  -2  -6  127.91    8.87
  -8  -2  -6  154.17    8.08
  -9  -2  -6    1.84    3.55
  -9  -2  -6    1.26    4.64
 -10  -2  -6    5.18    3.91
 -10  -2  -6    2.89    5.35
 -11  -2  -6   -3.56    5.29
 -11  -2  -6    0.72    4.39
 -12  -2  -6    2.78    6.15
 -12  -2  -6    0.36    4.60
 -14   3   6  142.10   10.06
 -13   3   6   42.34    5.94
 -12   3   6    4.01    3.26
 -12   3   6   -3.46    3.26
 -11   3   6  274.99   10.36
  10  -3  -6  311.34   10.58
   9  -3  -6  348.49   10.96
   8  -3  -6    0.14    2.39
   7  -3  -6  295.19    9.47
   6  -3  -6   52.02    4.40
   5  -3  -6    4.53    2.23
   4  -3  -6  297.94    8.62
   4  -3  -6  289.38    8.43
   3  -3  -6 1109.78   21.22
   3  -3  -6 1159.21   21.13
   2  -3  -6  609.64   13.51
   2  -3  -6  573.06   12.52
   1  -3  -6 1481.39   25.27
   1  -3  -6 1477.36   26.69
   0  -3  -6    1.28    0.88
   0  -3  -6   -0.54    1.78
   0  -3  -6    1.94    1.43
  -1  -3  -6   52.49    3.07
  -1  -3  -6   53.81    2.62
  -1  -3  -6   60.68    4.49
  -2  -3  -6  118.93    6.17
   2   3   6  113.37    3.88
  -3  -3  -6   10.33    3.12
  -4  -3  -6   19.44    3.95
  -5  -3  -6   41.37    5.42
  -6  -3  -6    2.59    3.97
  -7  -3  -6   93.67    7.91
  -8  -3  -6   25.63    5.97
  -9  -3  -6   19.28    5.62
 -10  -3  -6   28.45    6.55
 -10  -3  -6   38.00    5.82
 -11  -3  -6  161.44   10.29
 -11  -3  -6  163.59   12.34
 -12  -3  -6  154.43   12.74
 -12  -3  -6  173.23   11.10
 -13   4   6    8.76    4.18
 -12   4   6    9.01    3.62
 -12   4   6   15.03    4.12
  11  -4  -6   98.69    7.16
 -11   4   6   86.85    8.34
  10  -4  -6    6.50    3.20
   9  -4  -6    8.26    3.45
   8  -4  -6   64.09    5.53
   7  -4  -6  237.18    8.71
  -7   4   6  244.56    6.17
   6  -4  -6  322.68    9.91
  -6   4   6  300.65    6.47
   5  -4  -6   60.35    4.45
  -5   4   6   65.31    2.17
   4  -4  -6    5.41    2.04
   4  -4  -6    7.11    2.30
   3  -4  -6  222.12    7.26
   3  -4  -6  222.56    7.65
   2  -4  -6  382.66    9.59
   2  -4  -6  367.87   10.11
   1  -4  -6  825.01   17.32
   1  -4  -6  791.63   15.69
   0  -4  -6  361.96    8.74
   0  -4  -6  362.74   10.53
  -1  -4  -6   86.41    5.44
  -1  -4  -6   81.94    3.77
  -2  -4  -6   36.63    2.75
  -2  -4  -6   31.36    4.40
  -3  -4  -6    9.54    3.41
  -4  -4  -6  463.34   13.90
  -5  -4  -6  563.24   16.17
  -6  -4  -6   -2.14    3.50
  -7  -4  -6  211.49   10.74
  -8  -4  -6    3.05    4.55
  -9  -4  -6   59.15    7.81
 -10  -4  -6   25.77    6.67
 -11  -4  -6  163.71   12.82
  12  -5  -6   16.33    4.20
  11  -5  -6    3.71    3.30
  10  -5  -6  142.65    8.17
   9  -5  -6    2.74    2.90
   8  -5  -6  345.12   11.21
   7  -5  -6  891.75   19.67
   6  -5  -6  455.29   12.46
   5  -5  -6   80.83    5.15
   5  -5  -6   90.77    4.92
   4  -5  -6  137.97    6.02
   4  -5  -6  137.78    6.15
   3  -5  -6 1225.30   23.02
   3  -5  -6 1217.48   23.31
   2  -5  -6 1341.79   24.52
   2  -5  -6 1376.17   25.69
   1  -5  -6  210.38    6.80
   1  -5  -6  224.21    8.14
   0  -5  -6  212.57    6.63
   0  -5  -6  208.21    8.02
  -1  -5  -6  137.04    6.90
  -1  -5  -6  146.57    5.21
  -2  -5  -6   46.39    4.99
  -2  -5  -6   44.02    3.13
  -3  -5  -6    5.92    3.34
  -4  -5  -6  117.82    7.67
  -5  -5  -6  130.90    8.47
  -6  -5  -6   11.44    4.93
  -7  -5  -6   -0.52    4.18
  -8  -5  -6  101.86    9.17
  -9  -5  -6   -0.44    4.74
 -10  -5  -6   20.38    6.66
 -11  -5  -6    9.23    6.30
  13  -6  -6  302.80   12.83
  12  -6  -6  294.19   11.77
  11  -6  -6   69.64    6.85
  10  -6  -6  245.82   10.53
   9  -6  -6  217.54    9.36
   8  -6  -6   85.49    6.18
   7  -6  -6  482.51   13.60
   6  -6  -6  242.62    9.11
   5  -6  -6   94.65    5.39
   5  -6  -6  106.79    6.02
   4  -6  -6   61.68    4.65
   4  -6  -6   52.86    4.64
   3  -6  -6    7.10    2.54
   3  -6  -6    8.18    2.40
   2  -6  -6   44.47    3.99
   2  -6  -6   43.95    4.35
   1  -6  -6   10.61    2.42
   1  -6  -6    8.83    2.86
   0  -6  -6   96.37    6.32
   0  -6  -6   87.38    4.75
  -1  -6  -6   80.49    5.90
  -1  -6  -6   76.43    4.25
  -2  -6  -6   57.69    5.88
  -2  -6  -6   50.17    3.62
  -3  -6  -6   14.63    4.17
  -4  -6  -6   20.15    4.57
  -5  -6  -6   91.05    7.85
  -6  -6  -6    1.69    4.11
  -7  -6  -6   98.32    8.93
  -8  -6  -6  425.61   16.48
  -9  -6  -6   27.67    7.47
 -10  -6  -6    7.19    6.62
 -11  -6  -6   24.12    7.29
  13  -7  -6    2.37    3.88
  12  -7  -6   15.21    4.55
  11  -7  -6  137.14    8.47
  10  -7  -6   67.24    6.67
   9  -7  -6   28.89    4.71
   8  -7  -6   35.93    4.90
   7  -7  -6    3.91    3.02
   6  -7  -6   55.23    5.36
   5  -7  -6   36.75    4.46
   5  -7  -6   35.81    3.79
   4  -7  -6   55.23    4.74
   4  -7  -6   59.68    5.16
   3  -7  -6  381.12   11.29
   3  -7  -6  373.22   10.93
   2  -7  -6  773.84   17.79
   2  -7  -6  750.56   16.82
   1  -7  -6  104.23    5.47
   1  -7  -6  102.74    6.26
   0  -7  -6  170.32    6.72
   0  -7  -6  159.26    7.80
  -1  -7  -6  425.43   10.66
  -1  -7  -6  419.74   12.99
  -2  -7  -6   70.12    4.35
  -2  -7  -6   69.49    6.38
  -3  -7  -6   84.70    7.20
  -4  -7  -6  497.92   15.66
  -5  -7  -6  120.65    8.76
  -6  -7  -6    5.08    4.70
  -7  -7  -6  375.35   15.71
  -8  -7  -6  227.26   12.81
  -9  -7  -6   58.40    8.59
 -10  -7  -6   25.66    7.32
  13  -8  -6    7.05    4.77
  12  -8  -6    2.29    4.33
  11  -8  -6  131.77    8.63
  10  -8  -6  213.68   10.27
   9  -8  -6  124.90    8.00
   8  -8  -6    4.84    3.25
   7  -8  -6  220.61    9.64
   6  -8  -6  233.66    9.63
   5  -8  -6    4.81    2.48
   5  -8  -6    1.19    2.90
   4  -8  -6    3.08    2.63
   4  -8  -6    5.22    2.99
   3  -8  -6  847.13   19.31
   3  -8  -6  870.92   19.22
   2  -8  -6  564.93   14.22
   2  -8  -6  566.14   15.15
   1  -8  -6  285.01    9.40
   1  -8  -6  266.45   10.26
   0  -8  -6   59.64    5.76
   0  -8  -6   61.46    4.89
  -1  -8  -6  179.26    7.06
  -1  -8  -6  190.85    9.33
  -2  -8  -6   94.38    6.22
  -2  -8  -6  104.17    7.45
  -3  -8  -6    0.02    3.51
  -4  -8  -6    5.93    4.62
  -5  -8  -6    2.95    4.22
  -6  -8  -6   23.99    5.82
  -7  -8  -6    4.01    5.10
  -8  -8  -6    4.41    5.56
  -9  -8  -6   63.42    9.46
 -10  -8  -6    3.38    6.89
  13  -9  -6   53.09    7.55
  12  -9  -6   -0.32    4.46
  11  -9  -6   10.58    4.39
  10  -9  -6   76.14    7.45
   9  -9  -6  192.11    9.95
   8  -9  -6    9.74    3.97
   7  -9  -6    0.05    3.23
   6  -9  -6   35.56    5.28
   5  -9  -6   11.79    3.10
   5  -9  -6    0.22    2.98
   4  -9  -6   13.07    3.64
   4  -9  -6   18.70    3.57
   3  -9  -6  307.69   10.80
   3  -9  -6  325.82   10.95
   2  -9  -6    0.43    2.46
   2  -9  -6   -0.22    2.91
   1  -9  -6    2.03    2.59
   1  -9  -6    3.78    3.31
   0  -9  -6    0.48    2.37
   0  -9  -6   -1.93    2.75
  -1  -9  -6   10.67    3.75
  -1  -9  -6    2.29    2.70
  -2  -9  -6    6.62    4.00
  -3  -9  -6   15.32    4.63
  -4  -9  -6   88.50    8.13
  -5  -9  -6   81.24    8.21
  -6  -9  -6    7.17    5.15
  -7  -9  -6  116.55   10.50
  -8  -9  -6  251.92   14.08
  -9  -9  -6   75.80   10.10
  13 -10  -6   60.70    7.79
  12 -10  -6    7.23    4.79
  11 -10  -6   -2.46    4.18
  10 -10  -6   78.92    7.95
   9 -10  -6   10.23    4.41
   8 -10  -6   21.83    4.93
   7 -10  -6  176.62    9.55
   6 -10  -6  217.11   10.58
   5 -10  -6  227.61   10.11
   4 -10  -6  220.35    9.94
   4 -10  -6  190.15    8.59
   3 -10  -6  726.50   18.07
   3 -10  -6  701.12   17.75
   2 -10  -6  785.75   18.60
   2 -10  -6  749.62   19.04
   1 -10  -6    2.48    3.00
   1 -10  -6    2.68    2.87
   0 -10  -6  232.27    8.93
   0 -10  -6  233.43   10.15
  -1 -10  -6  491.30   13.23
  -1 -10  -6  473.64   15.05
  -2 -10  -6  173.26    9.56
  -3 -10  -6    6.97    4.71
  -4 -10  -6   53.77    7.08
  -5 -10  -6   76.77    8.38
  -6 -10  -6   18.78    6.01
  -7 -10  -6   26.07    7.38
  -8 -10  -6   75.94    9.90
  12 -11  -6  178.55   11.28
  11 -11  -6   -1.72    4.46
  10 -11  -6  315.44   13.87
   9 -11  -6  264.80   12.47
   8 -11  -6   15.62    4.89
   7 -11  -6  225.12   11.06
   6 -11  -6  306.69   12.56
   5 -11  -6   96.15    7.80
   4 -11  -6   11.56    4.05
   3 -11  -6    0.46    3.16
   3 -11  -6    2.98    3.81
   2 -11  -6    7.71    3.92
   2 -11  -6   12.34    3.94
   1 -11  -6   35.03    4.82
   1 -11  -6   52.03    6.19
   0 -11  -6   57.07    5.68
   0 -11  -6   61.77    6.35
  -1 -11  -6  130.79    8.86
  -1 -11  -6  123.59    7.29
  -2 -11  -6   17.68    5.17
  -3 -11  -6   33.25    5.90
  -4 -11  -6   95.98    8.90
  -5 -11  -6   18.48    6.31
  -6 -11  -6    2.98    5.94
  -7 -11  -6   54.93    8.48
  -8 -11  -6  185.68   13.32
  11 -12  -6   12.27    5.41
  10 -12  -6    5.53    5.13
   9 -12  -6   19.58    5.97
   8 -12  -6   30.30    6.00
   7 -12  -6   21.59    5.43
   6 -12  -6    6.05    4.42
   5 -12  -6   14.58    4.83
   4 -12  -6   29.03    5.31
   3 -12  -6  345.93   12.83
   2 -12  -6  617.89   17.33
   1 -12  -6  221.45   10.73
   1 -12  -6  223.88    9.95
   0 -12  -6    4.51    4.22
   0 -12  -6    4.46    3.34
  -1 -12  -6  391.63   14.16
  -2 -12  -6  161.97   10.39
  -3 -12  -6   17.79    5.72
  -4 -12  -6  359.81   15.45
  -5 -12  -6  409.07   16.54
  -6 -12  -6   63.20    9.08
  -7 -12  -6   42.06    8.34
   9 -13  -6  246.14   13.55
   8 -13  -6   85.57    8.93
   7 -13  -6    9.89    5.32
   6 -13  -6   48.99    6.79
   5 -13  -6   95.39    8.46
   4 -13  -6   66.21    7.26
   3 -13  -6  331.70   13.51
   2 -13  -6  145.55    9.47
   1 -13  -6  221.55   10.43
   0 -13  -6   32.99    5.52
   0 -13  -6   35.13    5.33
  -1 -13  -6   67.85    7.63
  -2 -13  -6   46.33    7.09
  -3 -13  -6    7.52    5.34
  -4 -13  -6   88.44    9.46
  -5 -13  -6    1.05    5.11
   8 -14  -6   22.35    6.13
   7 -14  -6    3.97    4.88
   6 -14  -6   22.74    6.00
   5 -14  -6    8.30    4.97
   4 -14  -6   27.59    6.36
   3 -14  -6   16.11    5.57
   2 -14  -6    3.62    4.60
   1 -14  -6    7.22    4.20
   0 -14  -6    1.88    3.93
  -2 -14  -6    7.65    5.21
  -3 -14  -6   18.36    6.09
  -4 -14  -6    5.07    5.24
   6 -15  -6  247.22   15.17
   5 -15  -6    8.12    5.27
   4 -15  -6   -0.11    4.61
   3 -15  -6  112.26    9.96
   2 -15  -6   48.67    6.96
   1 -15  -6   14.85    5.40
   3 -16  -6   28.04    7.25
   2 -16  -6   23.43    6.55
   1 -16  -6    5.57    4.75
  -6 -15   7    5.32    6.25
  -5 -15   7   13.57    6.88
  -4 -15   7   14.11    6.55
  -3 -15   7  186.56   12.12
  -2 -15   7   25.21    6.57
  -1 -15   7   14.57    6.05
   0 -15   7   30.23    7.07
   1 -15   7   43.97    7.84
   2 -15   7    7.62    5.90
   3 -15   7   66.46    8.55
  -5  15  -7  151.39   10.14
  -8 -14   7   -1.09    5.93
  -7 -14   7   19.36    6.66
  -6 -14   7   14.51    6.03
  -5 -14   7   33.17    6.94
  -4 -14   7  229.57   12.68
  -3 -14   7  193.78   11.79
  -2 -14   7  228.85   12.48
  -1 -14   7   11.10    5.34
   0 -14   7   26.20    6.11
   1 -14   7   36.89    6.77
   2 -14   7    6.93    5.39
   3 -14   7  192.61   11.81
  -4  14  -7  175.49   10.10
   4 -14   7  171.14   11.93
  -5  14  -7  106.97    9.22
   5 -14   7  144.57   11.68
  -6  14  -7    2.20    4.56
   6 -14   7    2.45    5.40
  -9 -13   7  115.82   12.40
  -8 -13   7    0.51    5.62
  -7 -13   7  127.48   10.34
  -6 -13   7  105.23    9.60
  -5 -13   7    8.58    5.62
  -4 -13   7   22.85    5.92
  -3 -13   7  331.60   14.13
  -2 -13   7  102.06    9.24
  -1 -13   7  211.70   12.17
   0 -13   7   22.03    6.09
   1 -13   7    0.62    4.29
   2 -13   7    3.08    4.77
  -3  13  -7   12.15    4.56
   3 -13   7   14.86    5.78
  -4  13  -7    2.42    4.62
   4 -13   7    4.35    4.57
  -5  13  -7   18.64    5.52
   5 -13   7   23.74    6.24
  -6  13  -7   39.28    6.20
   6 -13   7   32.05    6.97
  -7  13  -7  106.22    9.23
 -10 -12   7   -4.83    5.28
  -9 -12   7   35.67    7.48
  -8 -12   7    2.47    5.53
  -8 -12   7   -0.54    4.67
  -7 -12   7   49.00    7.08
  -6 -12   7   -1.67    5.19
  -5 -12   7   15.48    6.00
  -4 -12   7   15.53    5.33
  -3 -12   7   62.92    7.20
  -2 -12   7  182.96   11.01
  -1 -12   7  163.97    9.96
   0 -12   7   32.06    5.92
   1 -12   7  348.19   13.90
   2 -12   7   65.55    7.34
  -3  12  -7   19.04    4.70
   3 -12   7   21.60    5.70
  -4  12  -7  163.02    9.57
   4 -12   7  144.26    9.90
  -5  12  -7  110.77    8.41
   5 -12   7  110.27    9.65
  -6  12  -7   12.18    5.14
   6 -12   7   15.31    5.46
  -7  12  -7  212.00   10.92
  -8  12  -7   87.51    8.83
 -11 -11   7    1.01    5.43
 -10 -11   7   50.32    8.10
  -9 -11   7   55.70    7.57
  -9 -11   7   60.25    7.43
  -8 -11   7   63.95    7.52
  -8 -11   7   83.19    8.31
  -7 -11   7   82.96    7.90
  -7 -11   7   88.03    8.49
  -6 -11   7  129.00    9.12
  -6 -11   7  119.51    8.02
  -5 -11   7   35.21    6.36
  -4 -11   7   -2.19    4.02
  -3 -11   7  296.58   12.79
  -2 -11   7   72.44    7.29
  -1 -11   7    0.43    3.94
   0 -11   7  557.91   16.99
   1 -11   7   89.85    8.10
  -2  11  -7  366.52   12.25
   2 -11   7  325.94   13.12
  -3  11  -7   -1.40    3.41
   3 -11   7    4.09    4.19
  -4  11  -7    6.18    3.81
   4 -11   7    2.10    4.19
  -5  11  -7   23.93    5.03
   5 -11   7   23.72    5.32
  -6  11  -7   -1.32    3.88
   6 -11   7    4.54    4.05
  -7  11  -7   93.04    8.08
  -8  11  -7   22.16    5.64
  -9  11  -7   58.04    7.47
 -12 -10   7   10.95    7.01
 -11 -10   7    5.56    5.74
 -10 -10   7  686.75   21.64
  -9 -10   7   49.68    7.00
  -9 -10   7   67.90    7.80
  -8 -10   7   35.84    6.37
  -8 -10   7   32.88    5.90
  -7 -10   7  347.62   13.22
  -7 -10   7  344.89   12.77
  -6 -10   7  293.16   12.10
  -6 -10   7  298.41   11.20
  -5 -10   7  123.21    8.46
  -5 -10   7  108.47    7.23
  -4 -10   7  151.56    8.93
  -3 -10   7   88.54    7.52
  -2 -10   7    0.10    3.60
  -1 -10   7  328.16   12.76
   0 -10   7    5.79    3.84
  -1  10  -7   64.52    5.87
   1 -10   7   66.48    6.63
  -2  10  -7   39.38    5.03
   2 -10   7   40.77    5.64
  -3  10  -7   28.90    4.60
   3 -10   7   50.61    6.48
  -4  10  -7  355.24   12.09
   4 -10   7  369.07   13.49
  -5  10  -7  199.69    9.40
   5 -10   7  193.65   10.19
  -6  10  -7   98.06    8.07
   6 -10   7   95.56   12.11
  -7  10  -7   35.80    5.72
  -8  10  -7  155.66   10.29
  -9  10  -7   17.82    5.87
 -12  -9   7   24.22    6.90
 -11  -9   7    0.54    5.34
 -10  -9   7   40.50    6.66
  -9  -9   7    4.16    4.62
  -9  -9   7    3.02    4.68
  -8  -9   7  316.86   12.54
  -8  -9   7  328.62   12.49
  -7  -9   7   11.26    4.30
  -7  -9   7    6.43    4.34
  -6  -9   7   20.52    4.23
  -6  -9   7   14.48    4.47
  -5  -9   7    4.09    3.83
  -5  -9   7   10.00    3.62
  -4  -9   7  137.85    6.91
  -4  -9   7  144.80    8.37
  -3  -9   7  692.38   18.33
  -3  -9   7  754.08   18.79
  -2  -9   7  466.19   14.19
  -1  -9   7   52.06    5.73
   0  -9   7   25.70    4.81
  -1   9  -7  438.64   12.66
   1  -9   7  436.44   14.06
  -2   9  -7    3.63    3.02
   2  -9   7    3.25    3.38
  -3   9  -7   25.08    4.42
   3  -9   7   15.30    4.45
  -4   9  -7  935.72   21.12
   4  -9   7  961.67   22.94
  -5   9  -7  659.00   17.04
   5  -9   7  634.39   18.05
  -6   9  -7   73.64    6.75
  -7   9  -7   52.47    6.27
  -8   9  -7  208.38   10.63
  -9   9  -7    5.25    4.68
 -10   9  -7   28.61    6.56
 -13  -8   7   20.43    6.90
 -12  -8   7    1.90    5.42
 -11  -8   7  356.91   15.12
 -10  -8   7  430.82   14.56
 -10  -8   7  408.57   15.30
  -9  -8   7  514.53   15.86
  -9  -8   7  522.31   16.57
  -8  -8   7   28.32    5.07
  -8  -8   7   26.31    4.95
  -7  -8   7  311.01   11.49
  -7  -8   7  311.53   11.40
  -6  -8   7  118.10    8.03
  -6  -8   7  141.17    7.41
  -5  -8   7  335.70   11.63
  -5  -8   7  334.53   10.84
  -4  -8   7   36.13    4.92
  -4  -8   7   36.64    4.22
  -3  -8   7  231.58    9.62
  -2  -8   7  409.30   12.79
  -1  -8   7   81.32    6.52
   0   8  -7   22.97    3.77
   0  -8   7   20.99    4.15
  -1   8  -7   51.88    4.93
   1  -8   7   49.15    5.55
  -2   8  -7  117.34    6.45
   2  -8   7  121.42    7.30
  -3   8  -7    2.98    2.96
   3  -8   7   -1.92    2.73
  -4   8  -7  246.07    9.78
   4  -8   7  249.69   10.51
  -5   8  -7   13.36    3.93
   5  -8   7   15.54    3.82
  -6   8  -7   -3.21    3.11
  -7   8  -7   53.12    6.03
  -8   8  -7  167.85   10.07
  -9   8  -7  181.20   10.80
 -10   8  -7   40.39    6.59
 -13  -7   7   37.71    7.63
 -12  -7   7    1.54    4.98
 -11  -7   7   50.44    7.07
 -10  -7   7  199.43   10.01
 -10  -7   7  189.62   10.57
  -9  -7   7  161.92    8.66
  -9  -7   7  175.91   10.07
  -8  -7   7    8.15    3.91
  -8  -7   7    3.92    3.50
  -7  -7   7  157.24    8.55
  -7  -7   7  158.46    8.40
  -6  -7   7   31.81    5.00
  -6  -7   7   26.70    4.34
  -5  -7   7   -2.42    2.92
  -4  -7   7   44.45    5.23
  -3  -7   7   36.41    4.81
  -2  -7   7   26.36    4.16
  -1  -7   7    1.17    3.17
   0   7  -7    3.85    2.63
   0  -7   7    3.44    3.34
  -1   7  -7  413.40   11.34
   1  -7   7  393.61   12.04
  -2   7  -7  231.84    8.43
   2  -7   7  242.27    9.74
  -3   7  -7   75.04    5.69
   3  -7   7   76.25    6.31
  -4   7  -7    0.23    2.88
   4  -7   7    3.35    2.88
  -5   7  -7  151.54    7.74
   5  -7   7  155.07    8.01
  -6   7  -7    2.06    3.31
  -7   7  -7  183.01    9.16
  -8   7  -7  619.89   17.46
  -9   7  -7  299.32   12.45
 -10   7  -7    3.46    4.53
 -11   7  -7   49.97    7.30
 -14  -6   7   -2.07    6.15
 -13  -6   7   47.44    7.74
 -12  -6   7   22.13    6.05
 -11  -6   7   18.54    5.24
 -10  -6   7   18.26    4.60
 -10  -6   7    8.48    4.50
  -9  -6   7   51.33    5.98
  -9  -6   7   52.63    5.75
  -8  -6   7    2.94    3.54
  -8  -6   7    3.98    3.35
  -7  -6   7  126.04    7.09
  -7  -6   7  128.85    7.17
  -6  -6   7 1224.62   24.83
  -5  -6   7  415.75   12.18
  -4  -6   7  123.14    6.64
  -3  -6   7  169.22    7.79
  -2  -6   7   89.97    5.72
  -1  -6   7   11.57    3.11
   0   6  -7  437.75   11.28
   0  -6   7  414.84   12.01
  -1   6  -7 1540.15   27.59
   1  -6   7 1489.08   28.50
  -2   6  -7  479.32   12.23
   2  -6   7  481.39   13.12
  -3   6  -7   53.49    4.74
   3  -6   7   62.43    5.45
  -4   6  -7   77.17    5.85
   4  -6   7   68.20    5.61
  -5   6  -7  131.87    7.12
   5  -6   7  132.96    8.63
  -6   6  -7   22.31    4.21
  -7   6  -7   60.98    6.17
  -8   6  -7  176.87    9.40
  -9   6  -7  157.08    9.46
 -10   6  -7    0.67    4.19
 -11   6  -7   -1.74    4.41
 -14  -5   7  210.35   13.15
 -13  -5   7  307.10   14.41
 -12  -5   7   39.88    6.69
 -11  -5   7  156.97    8.16
 -11  -5   7  146.88    9.61
 -10  -5   7  462.83   15.09
 -10  -5   7  456.56   13.76
  -9  -5   7  141.26    7.43
  -9  -5   7  133.72    8.08
  -8  -5   7   35.01    4.45
  -8  -5   7   26.48    4.37
  -7  -5   7  581.86   14.77
  -6  -5   7 1237.04   24.49
  -5  -5   7   80.67    5.46
  -4  -5   7    9.34    2.85
  -3  -5   7   39.61    4.09
  -2  -5   7    2.91    2.40
   1   5  -7   65.11    4.30
  -1  -5   7   65.29    4.79
   0   5  -7  376.14    9.99
   0  -5   7  388.33   10.67
  -1   5  -7   30.18    3.40
   1  -5   7   36.63    4.07
  -2   5  -7    2.42    1.67
  -2   5  -7    2.11    2.27
   2  -5   7    5.76    2.80
  -3   5  -7    7.67    2.78
   3  -5   7    2.71    2.66
  -4   5  -7  503.49   12.91
   4  -5   7  490.07   13.01
  -5   5  -7  475.79   12.98
  -6   5  -7   93.97    6.52
  -7   5  -7   30.33    5.05
  -8   5  -7  223.60   10.43
  -9   5  -7   44.01    6.04
 -10   5  -7   -0.29    4.65
 -11   5  -7  106.29    9.16
 -15  -4   7    6.11    6.23
 -14  -4   7   74.28    9.04
 -13  -4   7  213.94   12.16
 -12  -4   7   35.42    6.28
 -11  -4   7   -1.81    3.19
 -11  -4   7    1.97    4.52
 -10  -4   7    9.21    4.06
 -10  -4   7    4.84    3.37
  -9  -4   7    3.07    2.83
  -9  -4   7    0.75    2.99
  -8  -4   7   18.96    3.68
  -7  -4   7  150.16    6.96
  -6  -4   7    4.16    2.57
  -5  -4   7  100.81    5.56
  -4  -4   7   17.00    3.08
  -3  -4   7  410.70   10.90
  -2  -4   7  303.84    9.10
   1   4  -7  150.50    5.71
  -1  -4   7  156.74    6.33
   0   4  -7   61.69    3.90
   0  -4   7   60.64    4.31
  -1   4  -7  690.46   13.56
  -1   4  -7  690.84   14.53
   1  -4   7  690.37   15.03
  -2   4  -7  206.74    6.32
  -2   4  -7  216.80    7.41
   2  -4   7  207.44    7.52
  -3   4  -7  128.86    6.17
  -3   4  -7  128.89    5.06
   3  -4   7  122.42    5.92
  -4   4  -7 1027.47   20.71
  -4   4  -7 1043.02   19.14
   4  -4   7 1010.29   20.32
  -5   4  -7  954.18   20.20
  -6   4  -7  176.81    7.98
  -7   4  -7   29.97    4.92
  -8   4  -7  176.63    9.02
  -9   4  -7   58.48    6.49
 -10   4  -7   40.32    6.12
 -11   4  -7   99.87    8.63
 -15  -3   7    4.81    6.36
 -14  -3   7   51.85    8.47
 -13  -3   7  128.60   10.00
 -12  -3   7   49.44    6.72
 -11  -3   7  106.16    8.10
 -11  -3   7  113.37    7.33
 -10  -3   7  748.68   19.29
 -10  -3   7  724.77   17.67
  -9  -3   7  436.72   12.62
  -8  -3   7   48.52    4.68
  -7  -3   7  216.26    8.09
  -6  -3   7  815.36   17.53
  -5  -3   7  371.48   10.34
  -4  -3   7   17.36    2.86
  -3  -3   7  868.82   17.52
  -2  -3   7  530.82   12.29
   1   3  -7  524.19   11.51
  -1  -3   7  525.31   12.09
   0   3  -7  202.16    6.32
   0   3  -7  205.61    6.33
   0  -3   7  214.95    7.07
  -1   3  -7  367.38    9.17
  -1   3  -7  361.56    8.91
   1  -3   7  366.59    9.60
  -2   3  -7   33.91    3.29
  -2   3  -7   40.86    3.32
   2  -3   7   35.06    3.52
  -3   3  -7  144.66    5.62
  -3   3  -7  145.04    6.23
   3  -3   7  143.25    5.88
  -4   3  -7  322.84    9.43
  -4   3  -7  296.14    8.55
   4  -3   7  300.45    8.90
  -5   3  -7   86.78    5.61
  -5   3  -7   84.79    5.15
  -6   3  -7    4.37    3.04
  -6   3  -7    6.98    3.69
  -7   3  -7   11.25    3.65
  -8   3  -7   16.93    4.24
  -9   3  -7  159.74    9.42
 -10   3  -7  113.06    8.56
 -11   3  -7   10.89    4.90
 -15  -2   7   20.94    6.92
 -14  -2   7  138.71   10.52
 -13  -2   7  461.97   16.94
 -12  -2   7   60.81    7.00
 -11  -2   7   73.82    7.17
 -11  -2   7   78.33    6.44
 -10  -2   7  322.86   10.92
  -9  -2   7   55.02    5.19
  -8  -2   7   21.01    3.77
  -7  -2   7  192.13    7.48
  -6  -2   7   64.24    4.60
  -5  -2   7    7.54    2.42
  -4  -2   7  283.74    8.45
  -3  -2   7   60.46    4.05
  -2  -2   7  289.07    8.21
   1   2  -7   59.62    3.83
   1   2  -7   56.40    3.18
  -1  -2   7   59.66    3.95
   0   2  -7   47.49    3.04
   0   2  -7   53.94    3.46
   0  -2   7   52.95    3.76
  -1   2  -7  241.24    6.85
  -1   2  -7  251.57    7.30
   1  -2   7  246.21    7.20
  -2   2  -7  416.40   10.21
  -2   2  -7  423.48   10.08
   2  -2   7  407.21    9.86
  -3   2  -7   54.91    4.12
  -3   2  -7   57.23    3.90
   3  -2   7   50.28    3.77
  -4   2  -7   70.57    4.79
  -4   2  -7   67.81    4.63
  -5   2  -7  322.32    9.69
  -5   2  -7  290.84    9.44
  -6   2  -7   32.44    4.33
  -6   2  -7   26.83    4.20
  -7   2  -7   95.73    6.53
  -7   2  -7  111.54    6.92
  -8   2  -7  303.51   11.13
  -9   2  -7  584.71   16.63
 -10   2  -7    8.52    4.34
 -11   2  -7   64.99    7.76
 -12   2  -7  289.54   13.34
 -15  -1   7   -3.60    5.48
 -14  -1   7    2.25    4.77
 -13  -1   7   -0.34    4.19
 -12  -1   7    1.56    3.34
 -12  -1   7    9.54    4.36
 -11  -1   7    3.15    3.28
 -11  -1   7    0.96    3.85
 -10  -1   7   36.22    4.66
  -9  -1   7  140.49    6.93
  -8  -1   7   18.30    3.39
  -7  -1   7  290.13    9.17
  -6  -1   7  999.71   19.94
  -5  -1   7  493.04   11.96
  -4  -1   7   21.38    2.86
  -3  -1   7  457.20   10.90
   2   1  -7    5.59    1.87
  -2  -1   7    3.46    1.83
   1   1  -7   28.51    2.91
   1   1  -7   28.71    2.41
  -1  -1   7   30.78    3.03
   0   1  -7  807.20   16.05
   0   1  -7  811.24   14.94
   0  -1   7  813.58   15.65
  -1   1  -7  626.23   13.48
  -1   1  -7  630.26   12.53
   1  -1   7  619.06   12.65
  -2   1  -7  482.81   11.71
  -2   1  -7  493.15   10.89
   2  -1   7  494.54   10.61
  -3   1  -7   56.55    3.83
  -3   1  -7   53.39    4.40
   3  -1   7   52.57    3.46
  -4   1  -7   25.04    3.65
  -4   1  -7   34.03    3.50
  -5   1  -7  104.40    6.05
  -5   1  -7   96.83    5.87
  -6   1  -7   18.92    3.96
  -6   1  -7   19.44    3.55
  -7   1  -7   -0.19    3.32
  -7   1  -7   -0.83    2.77
  -8   1  -7  287.54   11.35
  -8   1  -7  278.15   10.55
  -9   1  -7   32.18    5.12
 -10   1  -7   15.52    4.69
 -11   1  -7   11.30    4.67
 -12   1  -7   15.48    5.69
 -15   0   7   -8.21    5.00
 -14   0   7  157.78   11.17
 -13   0   7  259.78   12.51
 -12   0   7   40.23    5.81
 -12   0   7   44.73    5.29
 -11   0   7   37.61    4.66
 -10   0   7  250.76    9.33
  -9   0   7  108.09    6.16
  -8   0   7   53.53    4.81
  -7   0   7  550.24   13.40
  -6   0   7 1505.60   27.31
  -5   0   7   26.16    3.06
  -4   0   7  605.38   13.37
   3   0  -7  110.71    5.12
  -3   0   7  118.67    5.05
   2   0  -7  159.40    6.17
  -2   0   7  167.21    5.80
   1   0  -7  478.79   11.22
   1   0  -7  462.75    9.36
  -1   0   7  483.01   10.64
   0   0  -7   71.91    3.30
   0   0  -7   71.44    4.22
   0   0   7   71.52    3.78
  -1   0  -7  541.81   12.56
  -1   0  -7  537.56   10.94
   1   0   7  538.76   11.16
  -2   0  -7    0.08    2.16
  -2   0  -7    0.26    1.59
   2   0   7    1.08    1.48
  -3   0  -7   51.27    4.57
  -3   0  -7   56.67    3.66
   3   0   7   52.60    3.15
  -4   0  -7  163.97    7.53
  -4   0  -7  159.71    6.36
  -5   0  -7  381.64   10.55
  -5   0  -7  378.84   11.63
  -6   0  -7   40.73    4.41
  -6   0  -7   45.62    5.34
  -7   0  -7   16.97    3.80
  -7   0  -7   26.42    4.90
  -8   0  -7    9.79    3.68
  -8   0  -7   18.09    4.93
  -9   0  -7   18.31    4.50
  -9   0  -7   22.91    5.44
 -10   0  -7    3.62    4.21
 -10   0  -7   -2.12    4.13
 -11   0  -7  177.16   10.21
 -15   1   7   33.20    6.68
 -14   1   7  115.49    9.78
 -13   1   7  123.55    9.34
 -12   1   7  212.40    9.47
 -12   1   7  220.20   10.75
 -11   1   7   26.17    4.19
 -10   1   7   11.14    3.20
  -9   1   7   75.83    5.49
  -8   1   7   10.18    2.86
  -7   1   7   -0.35    2.19
  -6   1   7  771.85   16.60
  -5   1   7  291.46    8.68
  -4   1   7   83.52    4.52
   3  -1  -7   11.63    2.35
  -3   1   7   13.96    2.39
   2  -1  -7  735.12   15.67
  -2   1   7  766.02   15.04
   1  -1  -7   14.73    2.55
   1  -1  -7   23.14    1.83
  -1   1   7   19.70    2.36
   0  -1  -7    3.87    1.32
   0  -1  -7    1.75    1.88
   0   1   7    1.52    1.58
  -1  -1  -7  380.38   10.30
  -1  -1  -7  356.48    8.11
   1   1   7  372.77    8.54
  -2  -1  -7   12.51    2.05
  -2  -1  -7   14.41    3.11
   2   1   7   14.33    2.04
  -3  -1  -7   78.20    5.34
  -3  -1  -7   78.26    4.10
  -4  -1  -7 1142.28   21.01
  -4  -1  -7 1067.92   22.79
  -5  -1  -7  654.96   16.71
  -5  -1  -7  677.24   15.01
  -6  -1  -7   82.25    6.83
  -6  -1  -7   96.16    5.77
  -7  -1  -7   12.84    3.72
  -7  -1  -7   15.95    4.72
  -8  -1  -7   89.51    7.70
  -8  -1  -7   86.08    6.98
  -9  -1  -7    9.51    4.02
  -9  -1  -7   13.86    5.18
 -10  -1  -7   86.41    7.54
 -10  -1  -7   86.95    8.45
 -11  -1  -7  190.02   10.52
 -11  -1  -7  198.43   11.62
 -15   2   7   37.02    7.16
 -14   2   7   73.69    7.75
 -13   2   7   -1.09    4.01
 -12   2   7   52.52    5.56
 -11   2   7   92.46    6.46
 -10   2   7   58.83    5.43
  -9   2   7  632.09   15.70
  -8   2   7   46.77    4.61
  -7   2   7  286.48    9.38
  -6   2   7  236.55    8.19
   5  -2  -7   55.87    4.47
  -5   2   7   52.49    4.21
   4  -2  -7  215.55    7.40
   4  -2  -7  238.06    7.82
  -4   2   7  224.19    7.43
   3  -2  -7  938.14   19.17
  -3   2   7  992.94   18.77
   2  -2  -7  769.67   16.28
  -2   2   7  770.05   15.40
   1  -2  -7 1959.38   33.79
   1  -2  -7 1949.51   29.69
  -1   2   7 1959.35   32.16
   0  -2  -7   32.55    3.65
   0  -2  -7   36.84    2.18
   0   2   7   38.02    3.00
  -1  -2  -7  773.36   16.94
  -1  -2  -7  780.58   13.94
   1   2   7  766.38   14.39
  -2  -2  -7  632.62   15.00
  -2  -2  -7  592.33   12.00
   2   2   7  593.35   11.63
  -3  -2  -7   22.56    2.57
  -3  -2  -7   20.77    3.98
  -4  -2  -7  641.68   16.30
  -4  -2  -7  628.62   13.77
  -5  -2  -7  223.29    7.88
  -5  -2  -7  225.87    9.65
  -6  -2  -7  128.18    6.33
  -6  -2  -7  109.01    8.18
  -7  -2  -7   35.16    5.87
  -7  -2  -7   39.39    4.55
  -8  -2  -7   16.97    4.13
  -8  -2  -7   14.41    4.80
  -9  -2  -7   42.29    5.70
  -9  -2  -7   61.74    7.75
 -10  -2  -7   54.77    7.37
 -10  -2  -7   50.90    6.52
 -11  -2  -7    0.71    4.13
 -11  -2  -7   10.88    6.01
 -15   3   7    3.27    5.02
 -14   3   7  114.25    9.48
 -13   3   7  389.44   14.32
 -13   3   7  402.64   13.56
 -12   3   7   87.63    6.98
 -11   3   7   58.85    5.73
 -10   3   7  277.42   10.24
   9  -3  -7  492.34   13.75
   8  -3  -7  217.83    8.63
   7  -3  -7   85.28    5.61
   6  -3  -7  581.03   14.26
   5  -3  -7  787.97   17.11
   4  -3  -7    4.02    2.23
   4  -3  -7    5.32    2.25
   3  -3  -7  216.40    7.59
   3  -3  -7  210.01    7.20
   2  -3  -7    3.61    2.12
   2  -3  -7   -0.40    1.91
   1  -3  -7  407.01   10.01
   1  -3  -7  430.58   11.46
   0  -3  -7    6.68    1.94
   0  -3  -7    3.75    1.16
   0  -3  -7   -0.54    2.20
  -1  -3  -7    8.82    2.84
  -1  -3  -7    5.18    1.48
   1   3   7    5.25    1.72
  -2  -3  -7   42.67    4.59
  -2  -3  -7   41.77    3.02
   2   3   7   46.35    2.95
  -3  -3  -7  241.42    7.10
  -3  -3  -7  251.34    9.61
  -4  -3  -7   97.21    7.29
  -4  -3  -7   87.03    4.86
  -5  -3  -7   12.62    2.99
  -5  -3  -7   11.20    4.03
  -6  -3  -7    4.67    4.25
  -6  -3  -7    1.96    2.80
  -7  -3  -7   41.57    4.69
  -7  -3  -7   31.07    5.55
  -8  -3  -7   51.75    7.39
  -8  -3  -7   41.28    5.34
  -9  -3  -7  511.88   17.53
  -9  -3  -7  494.91   14.98
 -10  -3  -7   92.39    9.19
 -10  -3  -7   85.89    7.50
 -11  -3  -7   22.73    5.34
 -11  -3  -7   36.83    7.33
 -13   4   7   -0.63    3.37
 -13   4   7    6.80    4.13
 -12   4   7   39.74    5.64
  11  -4  -7  117.33    7.49
  10  -4  -7   38.64    4.97
   9  -4  -7   39.19    4.85
   8  -4  -7   21.60    4.12
   7  -4  -7   23.37    3.81
   6  -4  -7  129.37    6.58
   5  -4  -7   23.42    3.30
   5  -4  -7   24.44    3.49
   4  -4  -7    0.21    1.99
   4  -4  -7    2.71    2.45
   3  -4  -7  125.64    5.77
   3  -4  -7  131.75    6.25
   2  -4  -7  689.67   15.04
   2  -4  -7  737.56   16.46
   1  -4  -7   80.15    4.56
   1  -4  -7   86.87    5.46
   0  -4  -7  106.74    4.81
   0  -4  -7  113.57    6.18
  -1  -4  -7  523.20   11.34
  -1  -4  -7  515.42   13.85
  -1  -4  -7  531.29   10.18
  -2  -4  -7  913.77   20.58
   2   4   7  929.99   16.81
  -3  -4  -7  143.96    7.91
  -4  -4  -7   56.65    6.07
  -5  -4  -7  327.10   12.68
  -6  -4  -7   68.82    7.07
  -7  -4  -7   77.51    8.14
  -8  -4  -7  117.77   10.07
  -9  -4  -7  515.71   15.50
  -9  -4  -7  499.04   17.86
 -10  -4  -7   85.58    9.35
 -10  -4  -7   94.21    7.93
 -11  -4  -7   20.95    5.34
 -11  -4  -7   29.68    7.20
 -13   5   7   63.62    6.70
  12  -5  -7   11.38    4.16
  11  -5  -7  172.79    8.99
  10  -5  -7  370.27   12.59
   9  -5  -7  309.36   11.21
   8  -5  -7   24.28    4.18
   7  -5  -7  346.65   11.26
   6  -5  -7  820.42   18.57
   5  -5  -7  733.30   16.76
   5  -5  -7  721.46   16.63
   4  -5  -7  114.18    5.94
   4  -5  -7  110.73    6.11
   3  -5  -7   76.85    4.84
   3  -5  -7   64.30    4.83
   2  -5  -7  708.51   15.43
   2  -5  -7  722.85   16.74
   1  -5  -7  195.03    6.76
   1  -5  -7  188.13    7.95
   0  -5  -7   50.11    5.09
   0  -5  -7   45.86    3.66
  -1  -5  -7  260.53    9.77
  -1  -5  -7  260.35    7.50
  -2  -5  -7   62.19    5.86
  -2  -5  -7   77.61    4.00
  -3  -5  -7   20.47    4.51
  -4  -5  -7    2.97    3.61
  -5  -5  -7    5.51    4.30
  -6  -5  -7   16.93    4.92
  -7  -5  -7   52.57    7.31
  -8  -5  -7   28.93    6.85
  -9  -5  -7   45.41    7.51
 -10  -5  -7    8.55    6.07
  13  -6  -7  149.93    9.77
  12  -6  -7    5.95    4.04
  11  -6  -7    2.91    3.52
  10  -6  -7  433.33   14.12
   9  -6  -7  212.76    9.61
   8  -6  -7    1.04    3.37
   7  -6  -7  300.28   10.72
   6  -6  -7  530.98   14.33
   5  -6  -7  147.79    7.06
   5  -6  -7  144.75    7.05
   4  -6  -7   11.18    3.06
   4  -6  -7   14.41    3.16
   3  -6  -7   12.62    3.05
   3  -6  -7   14.25    2.97
   2  -6  -7   -0.11    2.15
   2  -6  -7    0.62    2.43
   1  -6  -7  801.99   18.68
   1  -6  -7  770.22   16.55
   0  -6  -7   22.57    3.98
   0  -6  -7   18.00    2.83
  -1  -6  -7   46.59    3.75
  -1  -6  -7   46.64    5.30
  -2  -6  -7   78.16    6.70
  -3  -6  -7   23.22    4.80
  -4  -6  -7  295.93   11.92
  -5  -6  -7  334.33   13.14
  -6  -6  -7  146.62   10.37
  -7  -6  -7   20.16    5.72
  -8  -6  -7  188.89   11.86
  -9  -6  -7   38.08    7.84
 -10  -6  -7   42.77    8.54
  13  -7  -7    6.53    4.81
  12  -7  -7    9.15    4.18
  11  -7  -7   79.17    7.70
  10  -7  -7   30.40    5.17
   9  -7  -7  254.83   10.75
   8  -7  -7   26.11    4.58
   7  -7  -7  229.34    9.64
   6  -7  -7  336.20   11.39
   5  -7  -7  171.05    7.90
   5  -7  -7  148.78    7.08
   4  -7  -7   39.07    4.48
   4  -7  -7   38.20    4.56
   3  -7  -7  510.76   14.24
   3  -7  -7  528.90   13.65
   2  -7  -7  560.27   14.14
   2  -7  -7  593.50   15.55
   1  -7  -7  754.11   16.56
   1  -7  -7  735.60   18.35
   0  -7  -7   93.87    6.60
   0  -7  -7   94.14    5.35
  -1  -7  -7  593.08   13.39
  -1  -7  -7  587.00   16.46
  -2  -7  -7  199.65    9.57
  -3  -7  -7   10.43    4.21
  -4  -7  -7  578.43   17.42
  -5  -7  -7  302.02   12.95
  -6  -7  -7   19.59    5.67
  -7  -7  -7    4.26    4.99
  -8  -7  -7   38.72    7.21
  -9  -7  -7   10.19    6.20
 -10  -7  -7    8.30    6.35
  14  -8  -7   75.98    9.92
  13  -8  -7  143.35    9.80
  12  -8  -7   64.39    7.60
  11  -8  -7   10.97    4.49
  10  -8  -7   47.20    6.13
   9  -8  -7  362.90   13.18
   8  -8  -7  200.46    9.70
   7  -8  -7   50.60    5.61
   6  -8  -7  222.40    9.89
   6  -8  -7  216.43    8.74
   5  -8  -7  306.22   10.46
   5  -8  -7  322.81   11.23
   4  -8  -7   48.82    5.15
   4  -8  -7   42.26    4.92
   3  -8  -7   20.21    3.80
   3  -8  -7   14.16    3.46
   2  -8  -7   58.76    5.74
   2  -8  -7   60.50    5.32
   1  -8  -7   60.64    6.24
   1  -8  -7   56.35    4.93
   0  -8  -7   52.58    5.95
   0  -8  -7   47.07    4.50
  -1  -8  -7    2.16    3.20
  -1  -8  -7    4.44    2.55
  -2  -8  -7   45.06    5.79
  -3  -8  -7   23.35    5.03
  -4  -8  -7  104.40    8.98
  -5  -8  -7    9.88    4.92
  -6  -8  -7    0.13    4.79
  -7  -8  -7    4.77    5.93
  -8  -8  -7   61.74    8.55
  -9  -8  -7  291.76   15.46
  13  -9  -7   94.31    9.14
  12  -9  -7   29.62    6.38
  11  -9  -7    3.89    4.07
  10  -9  -7    3.49    3.87
   9  -9  -7   12.26    4.36
   8  -9  -7   14.41    4.26
   7  -9  -7    3.03    3.55
   6  -9  -7    5.16    2.89
   6  -9  -7    7.06    3.62
   5  -9  -7   11.89    3.93
   5  -9  -7   24.35    4.11
   4  -9  -7   20.31    4.11
   4  -9  -7   19.74    4.35
   3  -9  -7    5.66    3.31
   3  -9  -7    1.63    3.21
   2  -9  -7   31.80    4.32
   2  -9  -7   31.23    4.73
   1  -9  -7   61.40    5.55
   1  -9  -7   56.59    6.26
   0  -9  -7  136.28    8.13
   0  -9  -7  124.46    6.77
  -1  -9  -7  322.21   10.07
  -1  -9  -7  316.37   12.25
  -2  -9  -7  174.03   10.03
  -3  -9  -7    0.36    4.46
  -4  -9  -7   25.08    6.04
  -5  -9  -7   99.48    9.14
  -6  -9  -7   19.92    6.04
  -7  -9  -7   11.70    5.92
  -8  -9  -7  185.33   12.91
  13 -10  -7   14.78    6.96
  12 -10  -7   25.22    6.06
  11 -10  -7   -0.37    4.59
  10 -10  -7  154.41   10.47
   9 -10  -7  291.00   12.64
   8 -10  -7   46.34    6.32
   7 -10  -7  123.95    8.45
   6 -10  -7  864.92   21.86
   5 -10  -7  514.95   15.49
   5 -10  -7  491.84   14.58
   4 -10  -7  126.09    7.80
   4 -10  -7  126.80    7.43
   3 -10  -7    1.49    3.12
   3 -10  -7    0.32    2.71
   2 -10  -7   57.72    5.88
   2 -10  -7   69.23    6.58
   1 -10  -7  113.58    8.29
   1 -10  -7  130.72    7.56
   0 -10  -7   31.62    4.27
   0 -10  -7   36.48    5.59
  -1 -10  -7  185.84    9.88
  -2 -10  -7  259.06   12.16
  -3 -10  -7   18.40    5.60
  -4 -10  -7    8.86    5.28
  -5 -10  -7   24.76    6.08
  -6 -10  -7    8.50    5.43
  -7 -10  -7   -0.88    5.41
  -8 -10  -7   50.41    8.68
  11 -11  -7    8.81    5.38
  10 -11  -7   57.16    7.77
   9 -11  -7  182.82   10.81
   8 -11  -7   58.29    7.23
   7 -11  -7   45.75    6.48
   6 -11  -7  335.24   13.17
   5 -11  -7  135.78    8.77
   4 -11  -7    0.46    3.46
   3 -11  -7   21.56    4.60
   3 -11  -7   16.43    4.31
   2 -11  -7   59.46    6.07
   2 -11  -7   64.67    6.88
   1 -11  -7    4.45    4.00
   1 -11  -7    6.46    3.37
   0 -11  -7    0.61    3.39
   0 -11  -7    1.00    3.55
  -1 -11  -7   -4.86    3.28
  -2 -11  -7   27.03    5.81
  -3 -11  -7  126.94    9.51
  -4 -11  -7  142.93   10.40
  -5 -11  -7   70.98    8.63
  -6 -11  -7   44.78    7.75
  -7 -11  -7   20.34    7.70
  10 -12  -7   14.23    5.60
   9 -12  -7    4.40    4.75
   8 -12  -7   -1.35    4.31
   7 -12  -7   35.79    6.06
   6 -12  -7  172.82   10.24
   5 -12  -7  274.40   12.17
   4 -12  -7    4.79    4.49
   3 -12  -7   28.13    5.50
   2 -12  -7  362.43   13.58
   2 -12  -7  387.55   13.38
   1 -12  -7  159.78    9.89
   1 -12  -7  168.53    8.91
   0 -12  -7   13.55    5.00
   0 -12  -7   16.61    4.46
  -1 -12  -7  360.43   14.44
  -2 -12  -7  232.49   11.79
  -3 -12  -7    5.26    5.14
  -4 -12  -7  302.94   14.78
  -5 -12  -7  334.66   15.95
  -6 -12  -7  242.35   14.80
   9 -13  -7   76.57    8.87
   8 -13  -7  101.36    9.60
   7 -13  -7   20.20    5.54
   6 -13  -7  116.81    9.77
   5 -13  -7  307.58   13.34
   4 -13  -7   88.34    8.30
   3 -13  -7   66.43    7.31
   2 -13  -7  160.77    9.88
   1 -13  -7  170.92    9.91
   0 -13  -7   13.00    4.99
  -1 -13  -7    3.51    4.24
  -2 -13  -7   29.29    6.38
  -3 -13  -7    2.53    5.07
  -4 -13  -7   35.73    7.52
  -5 -13  -7    7.94    5.70
   7 -14  -7   -1.45    4.54
   6 -14  -7   16.10    5.52
   5 -14  -7    7.14    4.94
   4 -14  -7    0.19    4.85
   3 -14  -7    9.58    5.35
   2 -14  -7   27.19    5.62
   1 -14  -7    7.17    4.20
  -1 -14  -7  111.68    9.86
  -2 -14  -7  113.72   10.22
  -3 -14  -7   35.34    7.08
   5 -15  -7  129.47   10.82
   4 -15  -7   40.80    7.43
   3 -15  -7   20.41    5.61
   2 -15  -7   13.11    5.43
   1 -15  -7   73.51    9.28
  -4 -15   8   -3.21    5.83
  -3 -15   8   13.18    6.79
  -2 -15   8   -2.20    5.51
  -1 -15   8    9.55    5.69
   0 -15   8  140.46   11.76
   1 -15   8  203.23   14.69
  -7 -14   8  229.21   13.06
  -6 -14   8  353.60   16.24
  -5 -14   8  194.12   13.00
  -4 -14   8   16.01    6.04
  -3 -14   8   21.58    6.75
  -2 -14   8  137.60   11.25
  -1 -14   8    3.40    4.91
   0 -14   8   54.49    7.72
   1 -14   8  271.26   13.59
   2 -14   8   99.41    9.98
   3 -14   8   25.27    6.83
  -4  14  -8   22.16    6.04
   4 -14   8   18.63    6.38
  -5  14  -8   20.57    5.78
   5 -14   8   14.13    5.76
  -9 -13   8   26.22    8.29
  -8 -13   8   27.21    7.31
  -7 -13   8  166.56   11.60
  -6 -13   8  382.74   16.48
  -5 -13   8  209.18   12.06
  -4 -13   8   64.16    7.90
  -3 -13   8    0.68    4.73
  -2 -13   8   15.90    6.03
  -1 -13   8   12.39    5.29
   0 -13   8   36.96    6.53
   1 -13   8   44.85    7.34
   2 -13   8   43.33    6.86
  -3  13  -8    7.35    4.51
   3 -13   8    4.94    5.02
  -4  13  -8   63.43    7.53
   4 -13   8   49.28    7.41
  -5  13  -8   12.89    5.08
   5 -13   8   22.60    6.41
  -6  13  -8    5.01    4.72
 -10 -12   8   11.59    6.74
  -9 -12   8   32.30    7.31
  -9 -12   8   44.75    7.72
  -8 -12   8   16.19    6.44
  -8 -12   8   26.62    6.96
  -7 -12   8   19.86    5.88
  -6 -12   8   15.13    5.60
  -5 -12   8    6.80    5.03
  -4 -12   8   64.73    7.68
  -3 -12   8  177.50   10.76
  -2 -12   8  622.26   19.05
  -1 -12   8   50.73    6.89
   0 -12   8    1.84    4.47
   1 -12   8  277.30   12.91
   2 -12   8  135.73    9.68
  -3  12  -8    0.57    3.73
   3 -12   8    0.73    4.64
  -4  12  -8  156.36    9.33
   4 -12   8  181.72   11.44
  -5  12  -8  386.96   14.25
   5 -12   8  347.30   15.23
  -6  12  -8   71.64    7.59
  -7  12  -8   49.11    6.88
 -11 -11   8    9.75    6.18
 -10 -11   8  228.09   13.01
  -9 -11   8  582.10   19.37
  -9 -11   8  555.13   18.38
  -8 -11   8  279.90   13.25
  -8 -11   8  289.61   13.21
  -7 -11   8   -0.53    4.25
  -7 -11   8   -1.96    4.85
  -6 -11   8  110.21    9.42
  -5 -11   8  232.44   11.53
  -4 -11   8   49.40    6.69
  -3 -11   8  218.17   11.12
  -2 -11   8  508.99   16.52
  -1 -11   8  366.44   13.90
   0 -11   8   23.34    5.33
   1 -11   8   28.38    5.66
  -2  11  -8   93.91    7.81
   2 -11   8   92.61    8.57
  -3  11  -8   14.19    4.40
   3 -11   8   13.16    5.20
  -4  11  -8   21.86    5.19
   4 -11   8   21.02    5.54
  -5  11  -8   33.66    5.90
   5 -11   8   37.93    6.52
  -6  11  -8    9.40    4.62
  -7  11  -8    6.78    4.77
  -8  11  -8    5.34    4.84
 -12 -10   8   68.71    9.69
 -11 -10   8    8.28    5.86
 -10 -10   8  338.68   14.53
 -10 -10   8  366.71   15.88
  -9 -10   8  215.02   11.50
  -9 -10   8  223.04   12.08
  -8 -10   8  121.88    9.60
  -8 -10   8  125.30    9.54
  -7 -10   8   52.13    6.76
  -7 -10   8   41.01    5.76
  -6 -10   8    2.10    3.46
  -6 -10   8   -0.10    4.31
  -5 -10   8   74.57    7.75
  -5 -10   8   82.42    6.82
  -4 -10   8  160.63    9.96
  -3 -10   8   72.40    7.19
  -2 -10   8   93.64    7.72
  -1 -10   8   55.97    6.46
   0 -10   8   10.19    4.25
  -1  10  -8   97.47    7.16
   1 -10   8  111.98    8.04
  -2  10  -8   78.59    6.59
   2 -10   8   77.82    7.38
  -3  10  -8   83.81    6.85
   3 -10   8   84.23    7.86
  -4  10  -8   53.54    6.22
   4 -10   8   46.33    6.30
  -5  10  -8  186.41    9.50
   5 -10   8  205.27   10.68
  -6  10  -8  119.76    9.00
  -7  10  -8    0.68    4.61
  -8  10  -8  112.70    9.10
  -9  10  -8  120.46    9.85
 -12  -9   8   82.95    9.75
 -11  -9   8  143.00   10.93
 -10  -9   8   23.10    5.88
 -10  -9   8   27.91    5.98
  -9  -9   8   38.35    6.29
  -9  -9   8   38.95    6.48
  -8  -9   8  208.22   10.86
  -8  -9   8  197.02   10.75
  -7  -9   8  629.23   17.85
  -7  -9   8  629.01   17.60
  -6  -9   8  563.00   15.59
  -6  -9   8  525.32   16.10
  -5  -9   8  461.33   13.53
  -5  -9   8  513.44   15.45
  -4  -9   8   81.74    5.88
  -4  -9   8   94.95    7.61
  -3  -9   8    8.77    4.55
  -2  -9   8  184.89    9.39
  -1  -9   8  157.34    8.73
   0  -9   8  425.07   13.91
  -1   9  -8  406.06   12.45
   1  -9   8  396.52   13.58
  -2   9  -8  658.76   16.63
   2  -9   8  662.70   18.10
  -3   9  -8   33.19    4.82
   3  -9   8   31.75    5.21
  -4   9  -8  178.68    8.72
   4  -9   8  167.00    9.24
  -5   9  -8  379.74   12.84
   5  -9   8  370.80   13.76
  -6   9  -8  128.23    8.30
  -7   9  -8    4.01    4.18
  -8   9  -8   46.45    6.47
  -9   9  -8    5.81    4.96
 -13  -8   8  446.64   19.09
 -12  -8   8  570.25   19.94
 -11  -8   8  156.67   10.78
 -10  -8   8   20.52    5.61
 -10  -8   8   15.90    5.37
  -9  -8   8   27.76    5.36
  -9  -8   8   23.98    5.67
  -8  -8   8    6.19    4.12
  -8  -8   8    7.20    4.05
  -7  -8   8  650.80   17.66
  -7  -8   8  625.87   17.02
  -6  -8   8   92.93    6.92
  -6  -8   8   80.61    6.98
  -5  -8   8  246.28    9.31
  -5  -8   8  240.28   10.23
  -4  -8   8   79.61    6.66
  -3  -8   8    5.48    3.50
  -2  -8   8   50.32    5.71
  -1  -8   8  122.27    7.66
   0   8  -8    2.12    2.93
   0  -8   8    5.69    3.94
  -1   8  -8  266.94    9.64
   1  -8   8  279.81   11.12
  -2   8  -8   23.10    4.00
   2  -8   8   17.51    4.11
  -3   8  -8  693.94   16.79
   3  -8   8  656.25   17.96
  -4   8  -8   28.38    4.58
   4  -8   8   33.87    5.27
  -5   8  -8   35.64    5.06
  -6   8  -8  125.07    8.13
  -7   8  -8    6.34    4.24
  -8   8  -8   12.68    5.35
  -9   8  -8   41.48    6.60
 -10   8  -8    5.07    5.48
 -13  -7   8  456.98   18.17
 -12  -7   8  513.71   18.91
 -11  -7   8    5.88    4.84
 -11  -7   8    5.74    4.63
 -10  -7   8   -0.42    3.82
 -10  -7   8   -1.08    4.55
  -9  -7   8  298.06   12.14
  -9  -7   8  283.57   11.86
  -8  -7   8   50.21    5.88
  -8  -7   8   58.35    6.37
  -7  -7   8  107.00    7.41
  -7  -7   8  119.30    7.33
  -6  -7   8   26.23    4.91
  -5  -7   8   54.57    5.74
  -4  -7   8  125.46    7.84
  -3  -7   8  156.70    8.01
  -2  -7   8  268.47   10.00
  -1  -7   8  149.99    7.78
   0   7  -8  112.64    6.29
   0  -7   8  105.72    6.89
  -1   7  -8  648.65   15.76
   1  -7   8  675.25   16.86
  -2   7  -8   25.89    4.16
   2  -7   8   29.48    4.44
  -3   7  -8   75.49    5.90
   3  -7   8   65.05    6.04
  -4   7  -8  258.07    9.77
   4  -7   8  274.01   10.67
  -5   7  -8  470.74   13.86
  -6   7  -8  355.18   12.28
  -7   7  -8  134.91    9.24
  -8   7  -8   79.41    7.45
  -9   7  -8  134.17   10.09
 -10   7  -8    3.38    4.67
 -14  -6   8    7.09    6.64
 -13  -6   8   10.17    5.69
 -12  -6   8   28.98    6.25
 -11  -6   8   87.48    7.41
 -11  -6   8   97.50    8.88
 -10  -6   8   33.03    5.71
 -10  -6   8   28.59    5.00
  -9  -6   8  933.43   22.70
  -9  -6   8  934.12   21.88
  -8  -6   8  218.15    9.73
  -8  -6   8  216.07    9.45
  -7  -6   8  581.62   15.62
  -6  -6   8  618.62   16.22
  -5  -6   8  130.17    7.22
  -4  -6   8   11.34    3.47
  -3  -6   8  249.76    9.36
  -2  -6   8 1406.35   27.59
  -1  -6   8  588.00   14.91
   0   6  -8    1.72    2.39
   0  -6   8   -0.04    2.72
  -1   6  -8   34.56    4.03
   1  -6   8   30.38    4.51
  -2   6  -8  464.88   12.38
   2  -6   8  461.89   13.04
  -3   6  -8  136.14    6.81
   3  -6   8  117.58    7.15
  -4   6  -8    4.33    3.31
   4  -6   8    3.64    3.00
  -5   6  -8  285.51   10.33
  -6   6  -8  246.24   10.07
  -7   6  -8   17.13    4.52
  -8   6  -8   -0.42    3.84
  -9   6  -8   32.28    5.85
 -10   6  -8    1.76    4.53
 -14  -5   8    0.58    5.11
 -13  -5   8   16.61    6.15
 -12  -5   8   -1.60    4.26
 -11  -5   8    4.35    3.68
 -11  -5   8    1.66    4.57
 -10  -5   8  287.45   10.79
 -10  -5   8  229.12   11.04
  -9  -5   8  232.29   10.33
  -9  -5   8  227.81    9.90
  -8  -5   8  628.99   16.17
  -7  -5   8  165.38    7.91
  -6  -5   8   47.64    4.97
  -5  -5   8   40.25    4.58
  -4  -5   8   14.09    3.39
  -3  -5   8  434.10   12.10
  -2  -5   8  556.46   14.05
   1   5  -8  162.60    6.57
  -1  -5   8  158.00    7.13
   0   5  -8   96.81    5.21
   0  -5   8   86.48    5.60
  -1   5  -8  160.82    6.59
  -1   5  -8  151.64    5.66
   1  -5   8  150.84    7.24
  -2   5  -8   47.70    3.69
  -2   5  -8   47.26    4.58
   2  -5   8   43.36    4.53
  -3   5  -8  188.88    7.59
   3  -5   8  171.68    7.77
  -4   5  -8   99.53    6.51
   4  -5   8  100.22    6.57
  -5   5  -8   12.68    3.56
  -6   5  -8   42.78    5.18
  -7   5  -8    0.05    3.46
  -8   5  -8  207.91   10.62
  -9   5  -8   42.37    6.08
 -10   5  -8    0.40    4.18
 -11   5  -8   46.91    7.01
 -14  -4   8    1.41    5.37
 -13  -4   8    3.84    4.88
 -12  -4   8   53.45    7.22
 -11  -4   8   52.79    6.55
 -11  -4   8   54.54    5.72
 -10  -4   8  145.93    8.24
 -10  -4   8  145.86    8.82
  -9  -4   8  214.20    8.97
  -8  -4   8  175.30    7.97
  -7  -4   8  344.28   10.92
  -6  -4   8  122.35    6.56
  -5  -4   8  266.78    9.16
  -4  -4   8  205.15    7.93
  -3  -4   8   39.07    4.15
  -2  -4   8    9.18    3.01
   1   4  -8  313.48    8.89
  -1  -4   8  320.66    9.77
   0   4  -8  148.42    5.69
   0   4  -8  147.21    5.92
   0  -4   8  150.70    6.78
  -1   4  -8  910.84   17.56
  -1   4  -8  924.74   18.40
   1  -4   8  912.45   18.97
  -2   4  -8 1540.19   27.53
  -2   4  -8 1503.84   26.36
   2  -4   8 1522.08   27.87
  -3   4  -8  486.89   11.27
  -3   4  -8  466.78   12.12
   3  -4   8  464.04   12.26
  -4   4  -8   18.97    3.71
  -5   4  -8  266.80    9.60
  -6   4  -8  575.64   15.36
  -7   4  -8   77.64    6.66
  -8   4  -8  108.66    8.11
  -9   4  -8  189.17   10.16
 -10   4  -8   68.80    7.93
 -11   4  -8    8.64    5.13
 -15  -3   8   28.80    7.55
 -14  -3   8  166.21   11.55
 -13  -3   8  640.72   20.14
 -12  -3   8  784.32   19.66
 -12  -3   8  772.07   21.61
 -11  -3   8  187.06    9.28
 -11  -3   8  176.21    9.88
 -10  -3   8   11.95    3.62
  -9  -3   8   51.58    5.23
  -8  -3   8   34.33    4.41
  -7  -3   8  383.74   11.44
  -6  -3   8  755.19   17.12
  -5  -3   8  830.91   18.03
  -4  -3   8  263.02    8.65
  -3  -3   8    3.70    2.35
  -2  -3   8    4.31    2.32
   1   3  -8  346.52    8.99
   1   3  -8  347.13    9.28
  -1  -3   8  340.26    9.63
   0   3  -8   -0.64    1.59
   0   3  -8    2.19    1.99
   0  -3   8   -0.82    2.15
  -1   3  -8  380.80    9.78
  -1   3  -8  390.83    9.90
   1  -3   8  376.37   10.26
  -2   3  -8  448.66   10.84
  -2   3  -8  453.51   11.20
   2  -3   8  429.43   11.10
  -3   3  -8   96.84    5.35
  -3   3  -8  111.59    5.83
   3  -3   8   81.06    5.22
  -4   3  -8   -0.90    2.38
  -4   3  -8    1.66    2.38
  -5   3  -8    4.96    2.87
  -5   3  -8    6.37    2.75
  -6   3  -8   10.22    3.59
  -7   3  -8   33.58    5.00
  -8   3  -8  122.47    7.95
  -9   3  -8    3.58    4.17
 -10   3  -8   -4.32    4.36
 -11   3  -8    0.64    5.00
 -15  -2   8    0.67    5.75
 -14  -2   8  203.11   12.17
 -13  -2   8  776.87   22.17
 -12  -2   8  642.45   17.63
 -12  -2   8  688.36   19.80
 -11  -2   8   22.51    4.58
 -10  -2   8   -0.20    3.09
  -9  -2   8   10.97    3.69
  -8  -2   8   96.93    6.20
  -7  -2   8  221.46    8.43
  -6  -2   8  429.51   11.91
  -5  -2   8  299.06    9.35
  -4  -2   8   60.49    4.51
  -2  -2   8  630.63   14.10
   1   2  -8  292.22    7.82
   1   2  -8  302.43    8.64
  -1  -2   8  293.36    8.48
   0   2  -8    3.40    2.06
   0   2  -8    2.97    1.88
   0  -2   8    1.28    2.14
  -1   2  -8   63.02    4.35
  -1   2  -8   63.98    4.11
   1  -2   8   66.83    4.32
  -2   2  -8  226.44    7.47
  -2   2  -8  216.82    7.08
   2  -2   8  227.20    7.28
  -3   2  -8   23.30    3.16
  -3   2  -8   22.28    3.40
   3  -2   8   31.74    3.36
  -4   2  -8   44.77    4.37
  -4   2  -8   39.86    4.03
  -5   2  -8  390.10   11.39
  -5   2  -8  387.06   11.33
  -6   2  -8  711.00   17.04
  -6   2  -8  728.72   17.40
  -7   2  -8  113.38    7.55
  -8   2  -8   81.82    7.16
  -9   2  -8  535.07   16.09
 -10   2  -8  113.92    8.83
 -11   2  -8    7.62    4.93
 -15  -1   8   11.53    5.82
 -14  -1   8   98.05    9.67
 -13  -1   8   65.34    7.92
 -12  -1   8  138.79    9.09
 -12  -1   8  129.40    8.30
 -11  -1   8   24.81    4.40
 -10  -1   8  209.19    8.94
  -9  -1   8  390.64   11.97
  -8  -1   8  863.99   19.19
  -7  -1   8  319.27   10.15
  -6  -1   8   18.19    3.33
  -5  -1   8   93.94    5.32
  -4  -1   8   20.18    3.14
  -3  -1   8  389.90   10.26
   2   1  -8 1944.49   33.57
  -2  -1   8 1978.40   33.37
   1   1  -8  919.79   16.73
   1   1  -8  908.68   18.23
  -1  -1   8  920.49   17.93
   0   1  -8  137.07    5.82
   0   1  -8  143.50    5.09
   0  -1   8  150.60    5.75
  -1   1  -8  243.75    7.86
  -1   1  -8  234.13    6.82
   1  -1   8  242.43    7.24
  -2   1  -8  202.80    7.36
  -2   1  -8  182.74    6.32
   2  -1   8  196.52    6.37
  -3   1  -8   18.46    3.20
  -3   1  -8   32.02    3.49
  -4   1  -8   16.81    3.28
  -4   1  -8   17.10    3.27
  -5   1  -8   22.66    3.55
  -5   1  -8   31.53    4.44
  -6   1  -8  311.19   10.54
  -6   1  -8  298.54   10.84
  -7   1  -8    3.96    3.37
  -7   1  -8    5.21    3.43
  -8   1  -8  123.98    7.73
  -8   1  -8  107.83    7.57
  -9   1  -8  182.96    9.54
 -10   1  -8   55.92    6.74
 -11   1  -8   -1.01    4.90
 -15   0   8  256.82   13.53
 -14   0   8  148.92   10.33
 -13   0   8    5.31    4.50
 -13   0   8    3.95    4.85
 -12   0   8   -2.56    3.53
 -11   0   8   74.80    6.37
 -10   0   8  557.01   15.09
  -9   0   8  997.83   21.74
  -8   0   8  903.68   19.76
  -7   0   8  309.01    9.88
  -6   0   8   24.40    3.64
  -5   0   8  149.10    6.41
  -4   0   8   19.35    3.09
   3   0  -8  305.35    9.13
  -3   0   8  297.25    8.72
   2   0  -8  663.94   14.76
  -2   0   8  652.39   14.11
   1   0  -8  133.29    4.54
   1   0  -8  131.74    5.87
  -1   0   8  142.31    5.49
   0   0  -8  211.85    5.95
   0   0  -8  209.81    7.40
   0   0   8  211.91    6.74
  -1   0  -8   16.14    2.97
  -1   0  -8   17.49    2.33
   1   0   8   20.80    2.67
  -2   0  -8  143.31    5.50
  -2   0  -8  152.51    6.75
   2   0   8  142.74    5.30
  -3   0  -8  186.47    6.76
  -3   0  -8  195.46    7.83
  -4   0  -8   49.31    5.16
  -4   0  -8   60.41    4.53
  -5   0  -8   27.40    4.24
  -5   0  -8   22.26    3.51
  -6   0  -8   53.35    5.02
  -6   0  -8   52.18    5.57
  -7   0  -8    3.38    3.00
  -7   0  -8    8.01    4.14
  -8   0  -8  118.30    8.72
  -8   0  -8  112.15    7.46
  -9   0  -8   79.66    7.05
  -9   0  -8   75.21    7.76
 -10   0  -8   89.37    8.22
 -11   0  -8    0.24    4.30
 -15   1   8  333.07   15.32
 -14   1   8  180.88   10.89
 -13   1   8   36.38    5.63
 -13   1   8   25.58    5.71
 -12   1   8   -0.24    3.19
 -11   1   8  104.92    6.90
 -10   1   8  456.22   13.44
  -9   1   8  643.46   16.21
  -8   1   8  616.86   15.43
  -7   1   8  180.02    7.59
  -6   1   8    4.47    2.72
  -5   1   8    1.39    2.20
  -4   1   8  270.14    8.46
   3  -1  -8  574.40   13.72
  -3   1   8  574.82   13.20
   2  -1  -8   67.18    4.61
  -2   1   8   70.62    4.18
   1  -1  -8    7.76    1.50
   1  -1  -8    7.62    2.43
  -1   1   8    6.58    2.18
   0  -1  -8    4.78    1.56
   0  -1  -8    2.32    2.43
   0   1   8    4.41    1.89
  -1  -1  -8  320.54    7.85
  -1  -1  -8  327.03   10.21
   1   1   8  329.87    8.38
  -2  -1  -8  794.76   15.21
  -2  -1  -8  784.76   17.61
   2   1   8  761.36   14.79
  -3  -1  -8  370.85    9.63
  -3  -1  -8  371.69   11.60
  -4  -1  -8  107.12    5.54
  -4  -1  -8  106.96    7.14
  -5  -1  -8   33.18    4.77
  -5  -1  -8   26.70    3.82
  -6  -1  -8  126.67    7.91
  -6  -1  -8  121.28    6.56
  -7  -1  -8    6.78    4.30
  -7  -1  -8    0.36    3.43
  -8  -1  -8  323.36   11.55
  -8  -1  -8  318.04   12.76
  -9  -1  -8  225.09   11.96
  -9  -1  -8  258.15   11.31
 -10  -1  -8  114.36    9.86
 -10  -1  -8   94.92    7.96
 -11  -1  -8   -2.09    4.16
 -15   2   8   38.77    7.02
 -14   2   8  198.35   11.14
 -13   2   8  318.39   12.42
 -12   2   8  386.67   13.33
 -11   2   8  132.86    7.70
 -10   2   8   44.85    5.29
  -9   2   8   -1.88    2.99
  -8   2   8   24.77    4.00
  -7   2   8  275.04    9.48
  -6   2   8 1473.01   27.74
  -5   2   8 1875.45   33.19
   4  -2  -8 1159.83   23.17
  -4   2   8 1194.40   22.66
   3  -2  -8   34.14    3.84
  -3   2   8   48.24    4.07
   2  -2  -8  306.99    9.51
  -2   2   8  303.02    8.58
   1  -2  -8  157.59    6.85
   1  -2  -8  155.92    4.26
  -1   2   8  152.94    5.87
   0  -2  -8    1.85    1.33
   0  -2  -8    2.14    2.60
   0   2   8    6.33    2.04
  -1  -2  -8 1137.56   19.83
  -1  -2  -8 1154.68   23.48
   1   2   8 1190.81   20.72
  -2  -2  -8 1240.55   25.23
  -2  -2  -8 1233.40   21.82
   2   2   8 1293.15   23.27
  -3  -2  -8  391.42   12.11
  -3  -2  -8  389.83    9.78
  -4  -2  -8   22.93    3.24
  -4  -2  -8   19.84    4.60
  -5  -2  -8  102.93    7.30
  -5  -2  -8  103.36    5.94
  -6  -2  -8   57.41    5.27
  -6  -2  -8   69.34    7.09
  -7  -2  -8   51.87    6.65
  -7  -2  -8   37.22    4.93
  -8  -2  -8  135.72    8.29
  -8  -2  -8  144.69    9.54
  -9  -2  -8  221.67   11.65
  -9  -2  -8  209.01    9.96
 -10  -2  -8   -0.89    3.93
 -10  -2  -8    2.62    4.73
 -11  -2  -8   36.68    7.17
 -11  -2  -8   30.51    5.92
 -15   3   8   22.64    6.13
 -14   3   8   91.42    8.74
 -13   3   8  781.76   20.25
 -12   3   8 1015.63   23.52
 -11   3   8  117.75    7.52
 -10   3   8    2.79    3.44
  -9   3   8   84.55    6.30
   8  -3  -8    6.03    3.08
  -8   3   8    1.00    2.81
   7  -3  -8  179.36    7.93
   6  -3  -8  724.84   16.87
   5  -3  -8  944.97   19.85
   4  -3  -8  362.07   10.45
   4  -3  -8  384.07   11.06
   3  -3  -8   41.46    3.95
   3  -3  -8   40.26    4.26
   2  -3  -8  102.35    5.18
   2  -3  -8  106.78    5.92
  -2   3   8   99.22    5.06
   1  -3  -8   13.72    3.06
  -1   3   8   11.88    2.30
   0  -3  -8  546.03   14.10
   0   3   8  521.23   11.73
  -1  -3  -8  114.00    6.54
  -1  -3  -8  115.86    4.19
   1   3   8  101.57    4.69
  -2  -3  -8   67.37    5.88
  -2  -3  -8   75.09    3.88
  -3  -3  -8   45.52    3.66
  -3  -3  -8   47.44    5.38
  -4  -3  -8   89.35    5.12
  -4  -3  -8   94.05    7.02
  -5  -3  -8  460.68   14.71
  -5  -3  -8  463.22   11.93
  -6  -3  -8  468.75   15.67
  -6  -3  -8  471.68   12.88
  -7  -3  -8   69.20    6.06
  -7  -3  -8   59.32    7.36
  -8  -3  -8    2.82    3.44
  -8  -3  -8    1.27    4.40
  -9  -3  -8  223.42   10.66
  -9  -3  -8  233.84   13.03
 -10  -3  -8  205.62   13.00
 -10  -3  -8  177.56    9.94
 -14   4   8   31.85    5.72
 -13   4   8  308.94   12.33
 -12   4   8  158.11    9.39
 -11   4   8   35.44    5.51
  10  -4  -8   15.38    4.02
   9  -4  -8  201.59    9.43
   8  -4  -8   64.87    6.05
   7  -4  -8   68.04    5.82
   6  -4  -8    5.43    3.17
   5  -4  -8  248.87    8.95
   5  -4  -8  243.29    8.93
   4  -4  -8  164.73    7.35
   4  -4  -8  159.51    7.23
   3  -4  -8  688.26   15.51
   3  -4  -8  680.27   16.42
   2  -4  -8 2460.78   42.58
   2  -4  -8 2435.11   40.86
   1  -4  -8 1689.60   29.75
   1  -4  -8 1726.08   32.30
   0  -4  -8   21.14    2.85
   0  -4  -8   17.17    3.72
  -1  -4  -8   25.36    4.22
   1   4   8   35.97    3.20
  -2  -4  -8  327.10   11.40
  -3  -4  -8  166.63    8.64
  -3  -4  -8  168.65    6.21
  -4  -4  -8   16.19    4.36
  -4  -4  -8   18.24    3.01
  -5  -4  -8  938.44   19.30
  -5  -4  -8  919.39   22.79
  -6  -4  -8  572.53   17.41
  -6  -4  -8  526.09   13.99
  -7  -4  -8   27.09    4.38
  -7  -4  -8   25.08    5.70
  -8  -4  -8   40.40    6.81
  -8  -4  -8   42.65    5.78
  -9  -4  -8  129.97    8.71
  -9  -4  -8  120.12   10.46
 -10  -4  -8  126.28   11.13
 -10  -4  -8  128.71    8.73
 -14   5   8  128.42    9.18
 -13   5   8    9.46    4.26
  12  -5  -8   60.35    6.89
 -12   5   8   47.64    5.94
  11  -5  -8  431.89   14.31
  10  -5  -8  447.36   14.33
   9  -5  -8 1168.71   25.76
   8  -5  -8 1426.48   29.03
   7  -5  -8  194.33    8.83
   6  -5  -8   -0.92    2.69
   5  -5  -8  147.73    7.39
   5  -5  -8  144.99    7.20
   4  -5  -8   87.96    5.77
   4  -5  -8   77.49    5.85
   3  -5  -8  152.03    7.09
   3  -5  -8  163.06    7.52
   2  -5  -8 1653.85   30.07
   2  -5  -8 1702.98   32.07
   1  -5  -8  136.44    7.67
   1  -5  -8  134.23    5.96
   0  -5  -8   36.59    3.67
   0  -5  -8   36.98    4.88
  -1  -5  -8    4.50    2.30
  -1  -5  -8    7.52    3.49
  -2  -5  -8   56.66    5.91
  -3  -5  -8   -1.07    3.29
  -4  -5  -8   39.73    6.01
  -5  -5  -8   26.09    5.32
  -6  -5  -8    5.88    4.90
  -7  -5  -8    1.38    4.53
  -7  -5  -8    3.57    3.46
  -8  -5  -8   83.12    8.85
  -8  -5  -8   69.48    6.73
  -9  -5  -8   65.74    8.66
  -9  -5  -8   83.05    7.24
 -10  -5  -8   84.16    8.15
 -10  -5  -8   76.17    9.45
 -14   6   8    0.90    4.46
  13  -6  -8    4.68    4.51
  12  -6  -8    8.62    4.52
  11  -6  -8   71.74    7.19
  10  -6  -8  461.02   15.15
   9  -6  -8  772.50   19.85
   8  -6  -8  190.12    9.20
   7  -6  -8   28.50    4.51
   6  -6  -8    7.86    3.29
   5  -6  -8  287.11   10.14
   5  -6  -8  284.20   10.15
   4  -6  -8  625.28   15.45
   4  -6  -8  616.89   15.98
   3  -6  -8  353.25   11.59
   3  -6  -8  355.77   10.73
   2  -6  -8   63.54    5.14
   2  -6  -8   64.18    6.05
   1  -6  -8  238.12    9.88
   1  -6  -8  248.39    8.44
   0  -6  -8    0.75    2.18
   0  -6  -8   -0.97    2.93
  -1  -6  -8  154.38    8.42
  -1  -6  -8  150.71    6.19
  -2  -6  -8  553.84   16.11
  -3  -6  -8  450.71   14.76
  -4  -6  -8   29.44    5.75
  -5  -6  -8  165.17    9.96
  -6  -6  -8  238.89   12.06
  -7  -6  -8   27.33    6.45
  -8  -6  -8   82.54    9.15
  -9  -6  -8  167.43   12.93
  14  -7  -8  152.78   10.77
  13  -7  -8  142.76    9.66
  12  -7  -8  168.45   10.63
  11  -7  -8   -0.30    4.24
  10  -7  -8   67.13    7.02
   9  -7  -8   12.68    4.14
   8  -7  -8   69.70    6.57
   7  -7  -8  375.74   12.66
   6  -7  -8  591.80   15.67
   6  -7  -8  592.30   16.08
   5  -7  -8  780.82   18.81
   5  -7  -8  753.08   18.35
   4  -7  -8  378.60   11.75
   4  -7  -8  376.15   12.27
   3  -7  -8    1.95    2.90
   3  -7  -8    3.42    3.22
   2  -7  -8   74.39    6.45
   2  -7  -8   71.01    5.50
   1  -7  -8   52.95    5.81
   1  -7  -8   58.58    4.94
   0  -7  -8  271.10   10.90
   0  -7  -8  281.17    9.04
  -1  -7  -8  481.28   15.11
  -1  -7  -8  527.89   14.27
  -2  -7  -8  222.62   10.39
  -3  -7  -8  238.82   11.03
  -4  -7  -8    9.23    4.50
  -5  -7  -8   98.37    8.90
  -6  -7  -8   13.25    5.46
  -7  -7  -8   10.29    6.10
  -8  -7  -8   23.68    7.19
  -9  -7  -8   16.09    6.72
  14  -8  -8  179.53   11.10
  13  -8  -8  640.89   20.36
  12  -8  -8  843.24   23.08
  11  -8  -8  128.54    9.18
  10  -8  -8   28.89    5.43
   9  -8  -8   62.24    6.83
   8  -8  -8   -0.89    3.71
   7  -8  -8   70.63    6.63
   6  -8  -8   97.10    6.80
   6  -8  -8   94.55    6.93
   5  -8  -8  363.88   12.18
   5  -8  -8  360.28   12.16
   4  -8  -8  500.79   14.86
   4  -8  -8  498.53   14.19
   3  -8  -8   34.35    4.47
   3  -8  -8   39.49    5.03
   2  -8  -8    0.25    2.93
   2  -8  -8    2.01    2.73
   1  -8  -8    3.24    3.42
   1  -8  -8    3.83    2.95
   0  -8  -8  135.40    6.65
   0  -8  -8  112.37    7.77
  -1  -8  -8    9.73    4.39
  -2  -8  -8    3.49    3.87
  -3  -8  -8   42.33    6.18
  -4  -8  -8   29.31    5.91
  -5  -8  -8   79.51    8.40
  -6  -8  -8  156.22   10.90
  -7  -8  -8   32.72    6.99
  -8  -8  -8    2.42    6.36
  13  -9  -8  225.20   12.87
  12  -9  -8  376.21   15.77
  11  -9  -8  251.13   12.32
  10  -9  -8   80.69    8.31
   9  -9  -8   12.49    4.57
   8  -9  -8   46.06    6.10
   7  -9  -8  155.81    9.48
   6  -9  -8   17.99    4.43
   6  -9  -8   18.15    3.96
   5  -9  -8    6.33    3.31
   5  -9  -8    7.38    3.97
   4  -9  -8  106.63    7.55
   4  -9  -8   86.26    6.68
   3  -9  -8  251.97   10.83
   3  -9  -8  236.57    9.68
   2  -9  -8  396.38   12.45
   2  -9  -8  388.16   13.51
   1  -9  -8  257.76   11.16
   1  -9  -8  254.99    9.67
   0  -9  -8  165.84    9.32
   0  -9  -8  167.23    7.74
  -1  -9  -8    0.34    3.61
  -2  -9  -8   30.73    6.04
  -3  -9  -8   10.67    4.70
  -4  -9  -8   -5.69    3.98
  -5  -9  -8  173.07   11.91
  -6  -9  -8  350.72   16.01
  -7  -9  -8  137.16   11.75
  -8  -9  -8   -0.17    6.35
  12 -10  -8    7.67    5.18
  11 -10  -8    7.71    4.81
  10 -10  -8  222.53   11.84
   9 -10  -8  614.70   18.89
   8 -10  -8  805.93   21.82
   7 -10  -8  518.08   16.51
   6 -10  -8    5.89    4.37
   5 -10  -8    3.60    2.96
   5 -10  -8    6.22    3.80
   4 -10  -8   28.96    4.93
   4 -10  -8   22.76    4.83
   3 -10  -8  427.84   13.78
   3 -10  -8  421.79   14.51
   2 -10  -8  676.22   19.07
   2 -10  -8  696.41   17.83
   1 -10  -8  433.94   13.24
   1 -10  -8  422.45   15.03
   0 -10  -8   79.78    6.38
   0 -10  -8   98.08    8.60
  -1 -10  -8    2.74    4.39
  -2 -10  -8   31.83    5.90
  -3 -10  -8    4.23    4.50
  -4 -10  -8    8.14    5.01
  -5 -10  -8  208.39   12.94
  -6 -10  -8  108.81   10.36
  -7 -10  -8   28.50    7.70
  11 -11  -8    4.28    4.94
  10 -11  -8  171.99   10.95
   9 -11  -8  845.44   23.46
   8 -11  -8  863.67   23.53
   7 -11  -8  488.49   16.83
   6 -11  -8   54.45    6.68
   5 -11  -8   10.51    4.88
   4 -11  -8   -0.62    3.52
   4 -11  -8    2.10    4.07
   3 -11  -8  101.20    7.90
   3 -11  -8  113.40    9.02
   2 -11  -8  134.91    8.52
   2 -11  -8  157.25    9.67
   1 -11  -8  171.39    8.94
   1 -11  -8  153.77    9.49
   0 -11  -8   56.44    6.92
  -1 -11  -8  208.13   11.59
  -2 -11  -8  248.74   12.75
  -3 -11  -8  185.55   11.29
  -4 -11  -8   11.50    5.55
  -5 -11  -8    7.83    5.48
  -6 -11  -8   14.51    6.48
  10 -12  -8   30.21    7.34
   9 -12  -8   57.45    7.74
   8 -12  -8    6.61    4.84
   7 -12  -8   16.59    5.16
   6 -12  -8   83.48    8.43
   5 -12  -8  441.28   15.44
   4 -12  -8  240.32   11.26
   3 -12  -8   37.22    7.00
   3 -12  -8   53.87    6.73
   2 -12  -8    1.75    3.70
   2 -12  -8    3.46    3.72
   1 -12  -8    3.47    4.03
   1 -12  -8   13.82    5.13
   0 -12  -8    4.66    4.74
  -1 -12  -8  261.82   13.04
  -2 -12  -8  610.11   19.81
  -3 -12  -8  451.79   16.99
  -4 -12  -8   40.12    7.80
  -5 -12  -8    7.55    5.72
   8 -13  -8   18.15    5.85
   7 -13  -8   -5.20    4.10
   6 -13  -8   68.36    8.19
   5 -13  -8  551.85   18.02
   4 -13  -8  466.39   16.14
   3 -13  -8  100.37    8.80
   2 -13  -8   17.12    5.10
   1 -13  -8    1.95    4.33
   1 -13  -8    1.98    3.97
   0 -13  -8    4.71    5.16
  -1 -13  -8   68.22    7.90
  -2 -13  -8   87.41    8.94
  -3 -13  -8  180.47   11.69
  -4 -13  -8   37.77    7.28
   6 -14  -8   16.87    5.79
   5 -14  -8   14.64    5.88
   4 -14  -8   66.99    7.94
   3 -14  -8  157.44   10.09
   2 -14  -8  138.67    9.40
  -1 -14  -8   -5.22    4.70
  -2 -14  -8   24.32    6.14
   4 -15  -8   -2.41    5.49
   3 -15  -8   55.39    7.54
   2 -15  -8   68.91    8.25
  -6 -14   9  272.07   14.41
  -5 -14   9  386.82   16.54
  -4 -14   9  202.25   13.36
  -3 -14   9   30.77    7.40
  -2 -14   9   16.24    5.90
  -1 -14   9    3.48    5.30
   0 -14   9   31.64    6.81
   1 -14   9  377.36   16.16
   2 -14   9  462.46   17.88
   3 -14   9  361.20   16.02
  -4  14  -9   23.59    5.98
   4 -14   9   22.47    6.39
  -8 -13   9   22.62    6.78
  -7 -13   9  104.36   10.56
  -6 -13   9  156.91   12.02
  -5 -13   9  286.20   14.78
  -4 -13   9   84.27    8.85
  -3 -13   9   70.67    8.35
  -2 -13   9  121.87   10.62
  -1 -13   9  106.68    9.67
   0 -13   9   32.79    6.59
   1 -13   9   64.75    8.11
   2 -13   9   60.32    8.18
  -3  13  -9   88.44    8.23
   3 -13   9   82.87    8.81
  -4  13  -9   58.02    7.09
   4 -13   9   65.07    8.73
  -5  13  -9  220.50   11.61
   5 -13   9  217.53   13.12
 -10 -12   9   12.98    6.59
  -9 -12   9  142.81   11.55
  -9 -12   9  152.46   11.20
  -8 -12   9  190.36   12.02
  -7 -12   9  217.49   13.07
  -6 -12   9   11.09    5.97
  -5 -12   9    5.22    4.97
  -4 -12   9    0.72    5.27
  -3 -12   9  400.12   15.56
  -2 -12   9 1124.22   27.82
  -1 -12   9  688.32   20.52
   0 -12   9  105.55    9.64
   1 -12   9   -0.14    4.36
   2 -12   9    9.92    4.90
  -3  12  -9   38.14    5.99
   3 -12   9   41.68    6.63
  -4  12  -9  305.12   12.61
   4 -12   9  313.61   14.44
  -5  12  -9  801.77   21.67
   5 -12   9  865.21   27.39
  -6  12  -9  400.46   14.94
 -11 -11   9   16.94    7.24
 -10 -11   9  230.96   12.72
 -10 -11   9  239.99   13.21
  -9 -11   9 1137.82   28.56
  -9 -11   9 1109.08   27.88
  -8 -11   9 1246.65   29.81
  -8 -11   9 1245.22   29.14
  -7 -11   9  458.63   17.05
  -6 -11   9   19.50    5.69
  -5 -11   9   42.29    6.76
  -4 -11   9    3.11    4.66
  -3 -11   9  958.27   24.35
  -2 -11   9 1566.99   33.83
  -1 -11   9 1118.81   27.07
   0 -11   9  203.94   10.93
   1 -11   9  100.89    9.11
  -2  11  -9   10.50    4.80
   2 -11   9   21.05    5.33
  -3  11  -9  124.97    8.47
   3 -11   9  157.38   10.57
  -4  11  -9  186.50    9.87
   4 -11   9  197.01   11.03
  -5  11  -9  168.83    9.67
  -6  11  -9   50.98    6.80
  -7  11  -9  169.19   10.54
 -11 -10   9   99.90   10.49
 -10 -10   9  373.64   15.68
 -10 -10   9  379.15   16.06
  -9 -10   9  513.25   17.42
  -9 -10   9  525.59   17.59
  -8 -10   9  578.76   18.34
  -8 -10   9  596.44   18.39
  -7 -10   9  455.93   15.27
  -7 -10   9  463.08   16.06
  -6 -10   9  413.19   13.79
  -6 -10   9  437.33   15.42
  -5 -10   9  374.77   14.66
  -4 -10   9  579.31   18.03
  -3 -10   9  521.96   16.64
  -2 -10   9  176.03    9.91
  -1 -10   9   88.00    7.88
   0 -10   9  198.07   10.52
  -1  10  -9  520.22   15.52
   1 -10   9  539.09   17.09
  -2  10  -9 1229.16   26.19
   2 -10   9 1182.22   27.79
  -3  10  -9  962.38   22.36
   3 -10   9  944.01   24.39
  -4  10  -9  216.10   10.07
   4 -10   9  202.44   10.80
  -5  10  -9   60.42    6.75
  -6  10  -9   44.16    6.41
  -7  10  -9   61.27    7.31
  -8  10  -9  278.48   12.97
 -12  -9   9  291.98   15.58
 -11  -9   9  276.06   15.10
 -11  -9   9  261.50   13.60
 -10  -9   9   23.91    6.23
 -10  -9   9   23.34    6.04
  -9  -9   9   14.64    5.16
  -9  -9   9   -2.56    4.00
  -8  -9   9   28.00    5.46
  -8  -9   9   17.47    5.65
  -7  -9   9  358.01   13.47
  -7  -9   9  351.22   12.70
  -6  -9   9  608.79   17.76
  -6  -9   9  617.71   16.59
  -5  -9   9 1110.52   23.63
  -5  -9   9 1098.50   25.47
  -4  -9   9  998.44   23.81
  -3  -9   9  236.73   10.75
  -2  -9   9    8.84    4.29
  -1  -9   9   61.97    6.55
   0  -9   9  347.73   13.17
  -1   9  -9  386.89   12.48
   1  -9   9  383.60   13.71
  -2   9  -9 1250.19   26.10
   2  -9   9 1252.56   27.92
  -3   9  -9 1136.58   24.60
   3  -9   9 1136.80   26.43
  -4   9  -9  254.20   10.54
   4  -9   9  263.75   11.96
  -5   9  -9    3.11    3.86
  -6   9  -9   49.99    6.35
  -7   9  -9  290.82   12.51
  -8   9  -9  133.83   10.02
 -13  -8   9  249.98   14.46
 -12  -8   9  344.33   16.35
 -11  -8   9  298.06   14.09
 -11  -8   9  297.44   12.95
 -10  -8   9   30.74    6.42
 -10  -8   9   22.53    5.63
  -9  -8   9    2.20    4.16
  -9  -8   9    3.46    4.06
  -8  -8   9  110.39    7.96
  -8  -8   9  128.41    9.32
  -7  -8   9  433.14   13.96
  -7  -8   9  449.08   14.74
  -6  -8   9  420.56   14.02
  -5  -8   9  543.44   16.06
  -4  -8   9  761.36   19.35
  -3  -8   9  270.98   10.92
  -2  -8   9   50.98    5.79
  -1  -8   9  338.60   12.28
   0   8  -9  105.09    7.24
   0  -8   9   92.35    7.50
  -1   8  -9  143.70    7.89
   1  -8   9  152.82    8.44
  -2   8  -9  158.35    7.82
   2  -8   9  142.43    8.89
  -3   8  -9  798.96   18.75
   3  -8   9  741.95   19.84
  -4   8  -9  390.52   12.73
   4  -8   9  396.57   13.96
  -5   8  -9   91.26    7.47
  -6   8  -9  158.50    9.13
  -7   8  -9  184.76   10.17
  -8   8  -9    3.34    4.84
  -9   8  -9   13.39    5.35
 -13  -7   9  195.58   13.58
 -12  -7   9  436.02   17.17
 -11  -7   9  239.94   11.41
 -11  -7   9  222.02   12.12
 -10  -7   9  237.07   12.18
 -10  -7   9  252.19   11.39
  -9  -7   9   54.90    6.52
  -9  -7   9   58.00    7.07
  -8  -7   9  438.19   14.61
  -8  -7   9  441.81   14.46
  -7  -7   9  469.02   14.72
  -6  -7   9   15.78    4.32
  -5  -7   9   32.09    4.96
  -4  -7   9  255.21   10.39
  -3  -7   9  584.42   15.98
  -2  -7   9  815.70   19.66
  -1  -7   9  444.86   13.54
   0   7  -9  270.80    9.59
   0  -7   9  255.22   10.59
  -1   7  -9   11.58    3.43
   1  -7   9   15.43    4.10
  -2   7  -9   58.18    5.54
   2  -7   9   52.55    5.58
  -3   7  -9   24.73    4.19
   3  -7   9   25.08    4.60
  -4   7  -9   69.84    6.11
   4  -7   9   74.09    9.84
  -5   7  -9  228.06    9.86
  -6   7  -9  346.90   12.96
  -7   7  -9  162.79    9.38
  -8   7  -9   61.52    7.46
  -9   7  -9    5.33    4.78
 -14  -6   9   71.27    9.43
 -13  -6   9   40.31    7.51
 -12  -6   9   -0.67    4.82
 -11  -6   9  182.30   10.85
 -11  -6   9  190.87   10.48
 -10  -6   9  175.57   10.14
 -10  -6   9  162.27    9.67
  -9  -6   9  668.29   17.75
  -9  -6   9  613.88   17.89
  -8  -6   9  591.45   16.69
  -7  -6   9  439.75   13.68
  -6  -6   9   56.26    5.81
  -5  -6   9  169.43    8.35
  -4  -6   9    1.91    3.08
  -3  -6   9  627.66   16.35
  -2  -6   9 1290.78   26.29
  -1  -6   9 1146.81   24.18
   0   6  -9  462.08   12.57
   0  -6   9  486.83   13.65
  -1   6  -9   14.03    3.27
   1  -6   9   18.12    4.21
  -2   6  -9    3.46    2.80
   2  -6   9    0.78    3.21
  -3   6  -9   47.15    5.24
   3  -6   9   37.52    5.01
  -4   6  -9   91.93    6.86
  -5   6  -9  182.43    9.10
  -6   6  -9  206.72    9.67
  -7   6  -9  192.81   10.34
  -8   6  -9  116.30    9.33
  -9   6  -9   50.17    6.90
 -10   6  -9   26.44    6.11
 -14  -5   9  285.02   14.93
 -13  -5   9    9.77    5.52
 -12  -5   9   46.35    6.09
 -12  -5   9   47.53    7.18
 -11  -5   9  168.25    9.69
 -11  -5   9  173.13   10.89
 -10  -5   9    6.24    4.18
 -10  -5   9    2.69    3.68
  -9  -5   9  492.62   15.00
  -8  -5   9  549.70   15.69
  -7  -5   9 1214.78   25.46
  -6  -5   9    5.48    3.37
  -5  -5   9    0.54    3.03
  -4  -5   9   19.81    3.77
  -3  -5   9    0.56    3.09
  -2  -5   9  230.65    8.93
   1   5  -9  298.30    9.36
  -1  -5   9  303.80   10.22
   0   5  -9   86.27    5.84
   0  -5   9   85.99    6.48
  -1   5  -9 1003.48   20.52
  -1   5  -9  995.80   19.40
   1  -5   9 1044.30   21.62
  -2   5  -9   61.09    5.06
   2  -5   9   67.18    5.73
  -3   5  -9  904.92   19.75
   3  -5   9  949.62   20.53
  -4   5  -9    6.86    3.13
  -5   5  -9  116.82    7.15
  -6   5  -9   -2.66    3.12
  -7   5  -9   26.56    5.05
  -8   5  -9  454.61   15.54
  -9   5  -9  498.18   16.57
 -10   5  -9  186.63   11.15
 -14  -4   9   14.54    6.41
 -13  -4   9   59.30    8.02
 -12  -4   9  103.65    8.24
 -12  -4   9   89.95    8.78
 -11  -4   9    5.23    3.75
 -11  -4   9    5.11    4.27
 -10  -4   9  255.12   10.41
  -9  -4   9   -1.52    3.43
  -8  -4   9   86.79    6.37
  -7  -4   9   44.57    4.98
  -6  -4   9  144.35    7.39
  -5  -4   9  545.66   14.26
  -4  -4   9  608.49   15.16
  -3  -4   9  448.70   12.43
  -2  -4   9  133.75    6.66
   1   4  -9  299.36    9.07
  -1  -4   9  329.73   10.12
   0   4  -9   92.27    5.14
   0   4  -9  107.98    5.39
   0  -4   9  101.87    6.17
  -1   4  -9   83.46    4.93
  -1   4  -9   87.78    5.10
   1  -4   9   80.54    5.79
  -2   4  -9 2701.58   44.75
  -2   4  -9 2670.05   43.82
   2  -4   9 2679.38   45.25
  -3   4  -9 1204.72   23.58
  -3   4  -9 1147.85   22.60
   3  -4   9 1200.09   23.76
  -4   4  -9 1042.55   21.92
  -5   4  -9   10.22    3.82
  -6   4  -9    1.37    3.28
  -7   4  -9   -1.63    3.57
  -8   4  -9  213.30   10.38
  -9   4  -9  505.85   16.31
 -10   4  -9  283.78   13.26
 -15  -3   9   -3.28    5.32
 -14  -3   9    7.90    6.11
 -13  -3   9  170.24   10.98
 -12  -3   9  397.37   15.33
 -12  -3   9  420.64   14.22
 -11  -3   9  150.92    8.53
 -10  -3   9    2.42    3.38
  -9  -3   9  252.54   10.04
  -8  -3   9  152.15    7.82
  -7  -3   9  331.67   11.01
  -6  -3   9  260.74    9.52
  -5  -3   9 2502.52   43.08
  -4  -3   9 1084.57   22.04
  -3  -3   9  182.29    7.44
  -2  -3   9  305.91    9.57
   1   3  -9   60.02    4.53
   1   3  -9   52.68    4.07
  -1  -3   9   49.02    4.44
   0   3  -9    3.33    2.30
   0   3  -9    3.97    2.39
   0  -3   9    6.85    2.77
  -1   3  -9  654.68   14.59
  -1   3  -9  638.69   14.38
   1  -3   9  688.46   15.34
  -2   3  -9  842.60   17.45
  -2   3  -9  831.18   17.32
   2  -3   9  811.25   17.54
  -3   3  -9 1895.68   33.25
  -3   3  -9 1863.67   32.86
  -4   3  -9  146.69    6.89
  -4   3  -9  139.44    7.16
  -5   3  -9  104.96    6.57
  -6   3  -9   57.37    5.65
  -7   3  -9   24.87    4.57
  -8   3  -9  106.50    8.12
  -9   3  -9    3.16    4.64
 -10   3  -9    2.55    4.65
 -15  -2   9   22.06    7.03
 -14  -2   9    1.18    4.95
 -13  -2   9  378.01   15.34
 -13  -2   9  392.16   15.94
 -12  -2   9  679.22   19.96
 -12  -2   9  687.96   18.45
 -11  -2   9  195.59    9.76
 -10  -2   9  407.34   13.07
  -9  -2   9   94.41    6.71
  -8  -2   9  631.63   16.19
  -7  -2   9   69.66    5.71
  -6  -2   9  354.32   11.09
  -5  -2   9  221.34    8.41
  -4  -2   9  492.92   12.84
  -3  -2   9 1214.64   23.55
   2   2  -9 1696.42   30.54
  -2  -2   9 1730.94   30.65
   1   2  -9 1611.86   28.92
   1   2  -9 1618.60   27.75
  -1  -2   9 1604.81   28.84
   0   2  -9 1334.21   24.69
   0   2  -9 1321.49   23.65
   0  -2   9 1300.75   24.40
  -1   2  -9  225.62    7.82
  -1   2  -9  229.04    7.47
   1  -2   9  228.33    7.81
  -2   2  -9    1.93    2.08
  -2   2  -9   -1.59    2.33
   2  -2   9    1.18    2.34
  -3   2  -9    2.22    2.38
  -3   2  -9    6.15    2.86
  -4   2  -9   11.07    3.01
  -4   2  -9    4.59    3.06
  -5   2  -9  437.96   12.62
  -5   2  -9  450.19   12.60
  -6   2  -9  751.18   18.63
  -6   2  -9  755.74   18.38
  -7   2  -9  603.21   16.62
  -8   2  -9  221.70   10.71
  -9   2  -9    5.82    4.75
 -10   2  -9    8.64    5.07
 -15  -1   9   50.63    7.88
 -14  -1   9  249.56   12.95
 -13  -1   9  250.72   11.12
 -13  -1   9  238.28   12.23
 -12  -1   9  366.59   13.28
 -11  -1   9   51.65    6.09
 -10  -1   9  242.52   10.01
  -9  -1   9  559.18   15.27
  -8  -1   9 1021.57   22.15
  -7  -1   9 1257.31   25.29
  -6  -1   9  311.18   10.15
  -5  -1   9    2.44    2.49
  -4  -1   9  221.92    8.09
  -3  -1   9  741.17   16.42
   2   1  -9 2260.88   38.73
  -2  -1   9 2269.27   38.33
   1   1  -9 1775.79   31.75
   1   1  -9 1813.85   29.82
  -1  -1   9 1778.71   31.18
   0   1  -9 2125.89   36.78
   0   1  -9 2191.61   35.15
   0  -1   9 2112.86   35.94
  -1   1  -9  425.68   11.49
  -1   1  -9  421.50   10.29
   1  -1   9  424.74   10.70
  -2   1  -9   68.73    5.12
  -2   1  -9   64.67    4.19
   2  -1   9   61.53    4.43
  -3   1  -9    0.21    2.82
  -3   1  -9    2.96    2.46
  -4   1  -9  550.31   13.62
  -4   1  -9  554.10   14.54
  -5   1  -9  674.16   16.90
  -5   1  -9  708.87   16.63
  -6   1  -9  974.93   21.42
  -6   1  -9  995.92   22.35
  -7   1  -9  625.16   16.66
  -7   1  -9  611.63   16.80
  -8   1  -9  444.46   14.43
  -9   1  -9   61.02    6.90
 -10   1  -9   38.70    6.32
 -15   0   9  341.62   15.35
 -14   0   9  472.53   17.33
 -13   0   9  123.67    9.26
 -12   0   9   -3.36    3.30
 -11   0   9    3.25    3.44
 -10   0   9  221.48    9.91
  -9   0   9 1192.52   25.14
  -8   0   9 2312.78   41.18
  -7   0   9 2056.82   37.02
  -6   0   9  335.28   10.58
  -5   0   9    8.35    2.84
  -4   0   9  262.54    8.92
   3   0  -9  805.35   17.70
  -3   0   9  800.69   17.14
   2   0  -9 1453.31   27.36
  -2   0   9 1458.58   26.57
   1   0  -9  640.05   12.66
   1   0  -9  653.84   15.22
  -1   0   9  628.65   14.08
   0   0  -9 1235.05   21.61
   0   0  -9 1229.24   24.13
   0   0   9 1247.35   22.82
  -1   0  -9  928.70   19.69
  -1   0  -9  903.50   17.34
   1   0   9  935.02   17.95
  -2   0  -9  873.35   17.18
  -2   0  -9  867.79   19.24
   2   0   9  856.87   21.27
  -3   0  -9  672.70   15.00
  -3   0  -9  707.61   16.97
  -4   0  -9  879.81   18.49
  -4   0  -9  899.21   20.23
  -5   0  -9  217.22    8.37
  -5   0  -9  239.09    9.74
  -6   0  -9   67.48    6.71
  -6   0  -9   68.18    5.95
  -7   0  -9   28.42    4.96
  -7   0  -9   25.50    5.26
  -8   0  -9  299.66   12.62
  -8   0  -9  306.84   11.99
  -9   0  -9  422.83   14.69
 -10   0  -9  476.37   16.34
 -15   1   9  256.11   13.25
 -14   1   9  318.09   14.07
 -13   1   9   75.97    7.63
 -12   1   9    7.30    4.00
 -11   1   9   38.35    5.23
 -10   1   9  509.41   14.78
  -9   1   9  765.24   18.74
  -8   1   9 1391.21   27.71
  -7   1   9  449.07   12.82
  -6   1   9  542.68   14.02
  -5   1   9  290.69    9.51
   4  -1  -9 1700.47   31.35
  -4   1   9 1684.58   30.54
   3  -1  -9 2096.45   37.01
  -3   1   9 2097.90   36.04
   2  -1  -9  805.32   18.00
  -2   1   9  804.99   16.95
   1  -1  -9    0.32    1.36
   1  -1  -9   -0.56    2.29
  -1   1   9    1.16    2.04
   0  -1  -9   32.25    2.82
   0  -1  -9   35.36    4.21
   0   1   9   38.18    3.61
  -1  -1  -9  221.01    8.66
  -1  -1  -9  217.62    6.47
   1   1   9  204.07    6.91
  -2  -1  -9 1374.60   24.25
  -2  -1  -9 1374.77   27.28
  -3  -1  -9 1480.01   29.21
  -3  -1  -9 1477.61   26.38
  -4  -1  -9  782.48   19.04
  -4  -1  -9  792.00   16.86
  -5  -1  -9   32.82    5.20
  -5  -1  -9   28.79    4.17
  -6  -1  -9    0.48    3.17
  -6  -1  -9    4.67    4.20
  -7  -1  -9    2.76    4.27
  -7  -1  -9    4.23    3.69
  -8  -1  -9   75.42    6.76
  -8  -1  -9   81.66    7.87
  -9  -1  -9  354.44   14.27
  -9  -1  -9  349.22   12.83
 -10  -1  -9  374.69   23.46
 -10  -1  -9  363.79   14.10
 -15   2   9   10.36    5.75
 -14   2   9   92.25    8.61
 -14   2   9  107.44   10.00
 -13   2   9  191.36    9.92
 -12   2   9  411.02   14.20
 -11   2   9  329.86   12.15
 -10   2   9  338.94   11.97
  -9   2   9   30.96    4.62
  -8   2   9    2.18    2.90
  -7   2   9   12.61    3.42
  -6   2   9  660.90   16.03
  -5   2   9 1220.69   24.15
   4  -2  -9 1883.56   34.63
  -4   2   9 1928.33   33.81
   3  -2  -9  712.51   17.04
  -3   2   9  765.78   16.41
   2  -2  -9   86.97    5.73
  -2   2   9   93.14    5.11
   1  -2  -9  125.48    6.69
  -1   2   9  138.61    5.95
   0  -2  -9   21.74    3.98
   0   2   9   21.83    2.93
  -1  -2  -9  426.39   12.02
  -1  -2  -9  464.48   13.24
   1   2   9  451.48   10.71
  -2  -2  -9 1967.62   32.22
  -2  -2  -9 1918.96   35.93
  -3  -2  -9  716.98   15.40
  -3  -2  -9  782.62   18.74
  -4  -2  -9  183.15    7.13
  -4  -2  -9  184.00    9.03
  -5  -2  -9    5.84    3.10
  -5  -2  -9    4.40    4.12
  -6  -2  -9   -0.93    3.10
  -6  -2  -9    5.81    4.02
  -7  -2  -9    4.70    3.63
  -7  -2  -9   10.48    4.60
  -8  -2  -9  172.12   10.99
  -8  -2  -9  157.75    9.06
  -9  -2  -9  141.98    9.36
  -9  -2  -9  155.58   11.27
 -10  -2  -9    2.72    5.69
 -10  -2  -9    2.56    4.66
 -15   3   9  107.55    9.64
 -14   3   9    3.30    4.36
 -13   3   9  410.83   14.71
 -12   3   9  685.65   18.75
 -11   3   9  460.14   14.84
 -10   3   9   52.61    5.76
  -9   3   9    3.63    3.29
  -8   3   9   52.80    5.45
  -7   3   9   -0.11    2.77
  -6   3   9  473.27   13.27
   5  -3  -9  658.38   16.37
  -5   3   9  645.83   15.75
   4  -3  -9  168.26    7.77
  -4   3   9  183.99    7.48
   3  -3  -9  238.96    9.12
  -3   3   9  231.37    8.17
   2  -3  -9  278.93    9.84
  -2   3   9  278.12    8.65
   1  -3  -9  159.82    7.67
  -1   3   9  152.97    6.36
   0  -3  -9  114.65    6.85
   0   3   9  104.41    5.20
  -1  -3  -9  224.71    9.52
   1   3   9  250.15    7.53
  -2  -3  -9  363.90   12.20
  -3  -3  -9   52.21    5.78
  -4  -3  -9    5.65    3.72
  -4  -3  -9    6.37    2.68
  -5  -3  -9  391.33   11.28
  -5  -3  -9  392.57   13.86
  -6  -3  -9  434.96   15.05
  -6  -3  -9  433.64   12.59
  -7  -3  -9  446.37   15.81
  -7  -3  -9  420.10   12.88
  -8  -3  -9   96.59    7.36
  -8  -3  -9   91.71    9.27
  -9  -3  -9    4.23    4.35
  -9  -3  -9   -0.17    4.87
 -10  -3  -9   51.03    7.04
 -10  -3  -9   53.59    8.45
 -14   4   9   40.79    6.10
 -13   4   9  259.37   11.61
 -12   4   9  127.31    8.51
 -11   4   9   16.40    4.49
 -10   4   9   12.74    4.18
   9  -4  -9  497.21   14.99
  -9   4   9  501.93   14.97
   8  -4  -9  663.26   17.34
   7  -4  -9  220.17    9.27
   6  -4  -9  147.54    7.52
   5  -4  -9   57.91    5.30
   5  -4  -9   57.42    5.45
   4  -4  -9  292.67    9.80
   4  -4  -9  298.12   10.73
   3  -4  -9    9.64    3.24
   3  -4  -9   10.27    2.93
   2  -4  -9  856.19   18.11
   2  -4  -9  834.93   19.60
   1  -4  -9 1857.20   34.94
  -1   4   9 1847.07   32.28
   0  -4  -9  302.22   11.05
   0   4   9  325.23    9.08
  -1  -4  -9   86.64    6.65
  -2  -4  -9   70.40    6.47
  -3  -4  -9  270.02   11.05
  -4  -4  -9   21.42    4.88
  -5  -4  -9  542.76   16.92
  -6  -4  -9  855.63   22.66
  -7  -4  -9  758.55   21.73
  -8  -4  -9  127.05    9.63
  -8  -4  -9  123.09   10.41
  -9  -4  -9   20.93    6.81
  -9  -4  -9   12.52    5.31
 -14   5   9  119.58    9.72
 -13   5   9   17.38    4.97
 -12   5   9   64.35    7.22
  11  -5  -9  148.39    9.59
 -11   5   9  160.99    9.17
  10  -5  -9   17.31    4.48
   9  -5  -9 1114.63   25.16
   8  -5  -9 1833.27   35.60
   7  -5  -9  429.20   13.43
   6  -5  -9    4.82    3.15
   5  -5  -9  270.89   10.18
   5  -5  -9  260.65    9.75
   4  -5  -9   85.36    6.16
   4  -5  -9   81.19    5.78
   3  -5  -9  203.95    9.01
   3  -5  -9  208.96    8.19
   2  -5  -9  418.43   13.18
   2  -5  -9  438.10   11.88
   1  -5  -9  834.61   20.40
   1  -5  -9  886.35   18.37
   0  -5  -9  354.00    9.90
   0  -5  -9  329.03   11.96
  -1  -5  -9  268.95   10.89
  -2  -5  -9   69.20    6.67
  -3  -5  -9  126.28    8.33
  -4  -5  -9  193.06   10.70
  -5  -5  -9   48.74    6.60
  -6  -5  -9    5.43    5.10
  -7  -5  -9   91.50    9.03
  -8  -5  -9   47.36    7.52
  -9  -5  -9  339.94   16.28
 -14   6   9  100.61    9.22
 -13   6   9   39.46    6.15
  12  -6  -9   -0.32    3.92
  11  -6  -9   -0.88    4.15
  10  -6  -9   -0.90    3.73
   9  -6  -9   21.28    4.75
   8  -6  -9   25.55    4.83
   7  -6  -9   85.04    7.07
   6  -6  -9  187.52    8.86
   6  -6  -9  186.44    8.66
   5  -6  -9  515.16   14.60
   5  -6  -9  495.10   14.61
   4  -6  -9 1108.21   24.45
   4  -6  -9 1085.62   23.17
   3  -6  -9 1016.50   21.73
   3  -6  -9 1017.74   23.09
   2  -6  -9   33.71    4.37
   2  -6  -9   35.90    5.24
   1  -6  -9  111.24    6.27
   1  -6  -9   98.77    7.23
   0  -6  -9   11.30    2.93
   0  -6  -9   12.43    4.04
  -1  -6  -9  112.08    7.78
  -2  -6  -9 1360.47   29.47
  -3  -6  -9 1482.55   31.71
  -4  -6  -9  705.50   20.04
  -5  -6  -9    5.07    5.12
  -6  -6  -9  112.90   10.22
  -7  -6  -9    2.63    5.16
  -8  -6  -9   11.11    5.95
 -14   7   9   34.88    6.26
  13  -7  -9   26.24    6.42
  12  -7  -9   16.66    5.58
  11  -7  -9  197.53   10.77
  10  -7  -9   90.34    8.02
   9  -7  -9  116.91    8.38
   8  -7  -9    4.66    3.69
   7  -7  -9   81.88    7.24
   6  -7  -9   61.07    6.08
   6  -7  -9   54.09    5.91
   5  -7  -9  282.53   10.70
   5  -7  -9  278.02   10.87
   4  -7  -9  682.64   18.27
   4  -7  -9  651.14   16.78
   3  -7  -9  640.70   16.21
   3  -7  -9  664.03   18.06
   2  -7  -9   85.87    7.34
   2  -7  -9   80.68    6.16
   1  -7  -9  174.94    7.71
   1  -7  -9  173.02    9.64
   0  -7  -9   29.34    4.06
   0  -7  -9   37.17    5.54
  -1  -7  -9  342.17   13.19
  -2  -7  -9  304.87   12.46
  -3  -7  -9  932.38   23.65
  -4  -7  -9  240.11   11.93
  -5  -7  -9  130.90    9.91
  -6  -7  -9   89.22    9.23
  -7  -7  -9  283.33   14.93
  -8  -7  -9   33.67    8.03
  13  -8  -9  137.46   10.14
  12  -8  -9  504.39   17.59
  11  -8  -9  391.70   15.50
  10  -8  -9  327.83   13.58
   9  -8  -9   17.01    4.80
   8  -8  -9   23.32    4.98
   7  -8  -9  113.57    8.01
   6  -8  -9  407.01   13.65
   6  -8  -9  423.89   13.76
   5  -8  -9  666.52   18.42
   5  -8  -9  683.20   17.86
   4  -8  -9 1166.02   26.29
   4  -8  -9 1112.81   24.50
   3  -8  -9  662.47   18.43
   3  -8  -9  621.86   16.35
   2  -8  -9  176.13    8.36
   2  -8  -9  191.85   10.02
   1  -8  -9   74.35    7.31
   1  -8  -9   79.91    5.69
   0  -8  -9  260.78    9.33
   0  -8  -9  256.55   11.55
  -1  -8  -9  182.85    9.97
  -2  -8  -9  464.10   15.85
  -3  -8  -9  306.81   13.61
  -4  -8  -9  217.17   12.34
  -5  -8  -9  148.37   10.61
  -6  -8  -9  290.57   14.21
  -7  -8  -9  379.20   16.61
  12  -9  -9  229.87   13.02
  11  -9  -9  552.92   18.60
  10  -9  -9  347.62   14.34
   9  -9  -9  429.56   15.51
   8  -9  -9  279.42   12.25
   7  -9  -9  695.44   19.41
   6  -9  -9  334.07   12.42
   6  -9  -9  341.87   12.74
   5  -9  -9  277.14   11.67
   5  -9  -9  252.51   10.76
   4  -9  -9  140.79    9.08
   4  -9  -9  153.58    8.31
   3  -9  -9  232.04   10.82
   3  -9  -9  252.05   10.06
   2  -9  -9  442.34   15.10
   2  -9  -9  451.81   13.61
   1  -9  -9  953.35   24.27
   1  -9  -9 1006.93   21.73
   0  -9  -9  926.34   23.81
  -1  -9  -9  362.23   14.38
  -2  -9  -9   74.99    8.03
  -3  -9  -9    6.20    4.77
  -4  -9  -9    2.23    4.69
  -5  -9  -9   75.28    8.71
  -6  -9  -9  422.23   17.21
  -7  -9  -9  542.62   20.11
  11 -10  -9    3.77    4.70
  10 -10  -9  161.30   10.70
   9 -10  -9  596.74   19.24
   8 -10  -9  963.83   24.66
   7 -10  -9  525.35   16.88
   6 -10  -9   58.92    7.14
   6 -10  -9   42.69    5.81
   5 -10  -9   12.29    4.23
   5 -10  -9    6.93    4.37
   4 -10  -9    5.06    3.71
   4 -10  -9    3.27    3.61
   3 -10  -9  106.56    7.86
   3 -10  -9  110.37    8.97
   2 -10  -9  617.73   18.49
   2 -10  -9  584.73   16.25
   1 -10  -9 1226.88   28.87
   1 -10  -9 1224.04   25.86
   0 -10  -9  733.39   21.37
  -1 -10  -9  265.38   12.46
  -2 -10  -9   31.26    5.99
  -3 -10  -9   84.04    8.83
  -4 -10  -9   45.59    7.30
  -5 -10  -9  240.53   13.39
  -6 -10  -9  205.83   13.15
  10 -11  -9   10.33    5.31
   9 -11  -9  105.62    9.56
   8 -11  -9  481.93   16.91
   7 -11  -9  308.31   13.38
   6 -11  -9   75.91    7.75
   5 -11  -9  123.11    9.34
   5 -11  -9  120.82   11.06
   4 -11  -9  151.61    9.50
   4 -11  -9  172.18    9.45
   3 -11  -9  153.67    9.99
   3 -11  -9  157.02    9.33
   2 -11  -9  208.39    9.76
   2 -11  -9  198.97   11.19
   1 -11  -9  167.39   10.79
   1 -11  -9  180.71    9.32
   0 -11  -9   37.46    6.37
  -1 -11  -9   48.19    6.95
  -2 -11  -9  317.82   14.15
  -3 -11  -9  576.68   19.85
  -4 -11  -9  481.66   18.08
  -5 -11  -9  132.21   11.41
   9 -12  -9   74.88    8.45
   8 -12  -9   12.54    5.27
   7 -12  -9   35.41    6.66
   6 -12  -9   42.34    6.53
   5 -12  -9  445.07   15.70
   4 -12  -9  466.57   16.08
   3 -12  -9  221.84   10.74
   3 -12  -9  228.30   11.95
   2 -12  -9   -1.36    3.67
   2 -12  -9    5.68    4.30
   1 -12  -9   21.06    5.62
   0 -12  -9   31.78    6.32
  -1 -12  -9   37.45    6.71
  -2 -12  -9  300.84   14.15
  -3 -12  -9  580.26   19.88
  -4 -12  -9  197.21   12.54
   7 -13  -9    2.65    5.08
   6 -13  -9   27.09    6.10
   5 -13  -9  229.17   11.89
   4 -13  -9  305.94   13.74
   3 -13  -9  215.71   11.13
   2 -13  -9   13.54    4.94
   2 -13  -9    0.06    5.26
   1 -13  -9   -4.29    4.58
   0 -13  -9    1.32    5.00
  -1 -13  -9   43.01    7.21
  -2 -13  -9   62.18    8.49
   5 -14  -9   10.32    5.61
   4 -14  -9    9.98    5.03
   3 -14  -9   42.06    7.11
   0 -14  -9  242.16   13.61
  -3 -14  10   33.52    8.52
  -2 -14  10   23.73    6.92
  -1 -14  10  155.02   12.45
   0 -14  10   48.10    9.14
   1 -14  10   18.35    6.99
  -7 -13  10    7.49    6.41
  -6 -13  10   45.66    8.33
  -5 -13  10  135.31   11.24
  -4 -13  10   54.79    8.61
  -3 -13  10    1.04    5.75
  -2 -13  10    3.04    5.08
  -1 -13  10   15.09    5.74
   0 -13  10   40.25    7.17
   1 -13  10  120.36   10.60
   2 -13  10   34.16    6.72
   3 -13  10    5.98    5.54
  -4  13 -10   58.18    7.78
   4 -13  10   55.81    8.13
  -9 -12  10  149.07   11.83
  -8 -12  10  171.22   11.94
  -7 -12  10  329.79   14.95
  -6 -12  10   -0.31    4.94
  -5 -12  10    7.04    5.37
  -4 -12  10   94.59    9.27
  -3 -12  10   49.19    7.34
  -2 -12  10  381.79   16.23
  -1 -12  10  670.11   21.03
   0 -12  10  386.64   15.56
   1 -12  10   66.84    8.07
   2 -12  10   83.41    8.73
  -3  12 -10    4.96    4.42
   3 -12  10    0.05    4.94
  -4  12 -10   -0.54    4.25
   4 -12  10   -4.05    4.71
  -5  12 -10  374.42   14.55
 -10 -11  10   -5.61    5.79
 -10 -11  10   10.02    6.00
  -9 -11  10  415.25   17.18
  -9 -11  10  404.40   16.33
  -8 -11  10  568.60   19.15
  -8 -11  10  548.17   19.50
  -7 -11  10  156.17   11.64
  -6 -11  10    4.20    5.02
  -5 -11  10  148.09   10.47
  -4 -11  10   14.89    5.62
  -3 -11  10  122.10    9.77
  -2 -11  10  345.36   14.25
  -1 -11  10  758.56   21.65
   0 -11  10  132.79    9.77
   1 -11  10   54.04    7.16
  -2  11 -10    7.63    4.31
   2 -11  10    2.70    4.95
  -3  11 -10  133.65    8.91
   3 -11  10  175.86   11.17
  -4  11 -10  155.95    9.53
   4 -11  10  134.98   10.65
  -5  11 -10   89.41    8.42
  -6  11 -10   51.80    6.99
 -11 -10  10   21.98    6.53
 -11 -10  10   32.22    7.01
 -10 -10  10   12.47    6.19
 -10 -10  10    9.80    5.53
  -9 -10  10   11.58    5.53
  -9 -10  10   11.54    5.77
  -8 -10  10   10.08    5.92
  -8 -10  10   15.47    5.63
  -7 -10  10   46.29    6.41
  -7 -10  10   54.60    7.41
  -6 -10  10    0.74    4.69
  -5 -10  10  208.68   11.27
  -4 -10  10  169.84   10.44
  -3 -10  10  138.03   10.15
  -2 -10  10   16.92    5.03
  -1 -10  10    1.31    4.19
   0 -10  10   21.95    5.71
  -1  10 -10  223.79   10.15
   1 -10  10  223.89   11.36
  -2  10 -10  860.10   21.37
   2 -10  10  855.94   22.85
  -3  10 -10 1114.82   25.02
   3 -10  10 1073.26   26.80
  -4  10 -10  320.79   12.83
  -5  10 -10    0.93    4.11
  -6  10 -10   75.48    8.12
  -7  10 -10   12.13    5.22
 -12  -9  10   24.07    6.85
 -11  -9  10  199.57   11.63
 -11  -9  10  193.04   12.15
 -10  -9  10    2.54    5.37
 -10  -9  10    0.41    5.30
  -9  -9  10   26.00    6.48
  -9  -9  10   25.89    6.08
  -8  -9  10   41.53    6.15
  -8  -9  10   50.35    6.92
  -7  -9  10    0.21    4.14
  -7  -9  10    3.89    3.70
  -6  -9  10   48.58    6.49
  -6  -9  10   58.70    6.15
  -5  -9  10  387.59   14.60
  -4  -9  10  625.82   18.25
  -3  -9  10  348.49   13.35
  -2  -9  10   24.36    5.25
  -1  -9  10   40.62    6.07
   0  -9  10   -1.75    3.62
  -1   9 -10   58.39    6.39
   1  -9  10   40.01    6.00
  -2   9 -10  285.55   10.94
   2  -9  10  254.00   11.58
  -3   9 -10  378.06   12.98
   3  -9  10  406.25   14.92
  -4   9 -10  242.28   11.09
  -5   9 -10   30.56    5.51
  -7   9 -10  141.78    9.72
  -8   9 -10   19.87    5.86
 -12  -8  10  133.98   11.32
 -11  -8  10  432.85   17.29
 -11  -8  10  428.45   16.28
 -10  -8  10   58.57    7.36
 -10  -8  10   55.68    7.29
  -9  -8  10   44.55    6.70
  -9  -8  10   35.62    6.19
  -8  -8  10   25.54    5.15
  -8  -8  10   29.36    5.78
  -7  -8  10   12.23    4.84
  -6  -8  10   49.86    6.33
  -5  -8  10   54.30    6.42
  -4  -8  10  487.57   15.35
  -3  -8  10  389.12   13.45
  -2  -8  10    1.28    3.58
  -1  -8  10    0.57    3.72
   0   8 -10    4.89    3.64
   0  -8  10   -5.18    3.77
  -1   8 -10   14.18    3.91
   1  -8  10   11.61    4.58
  -2   8 -10    5.07    3.31
   2  -8  10    2.71    3.67
  -3   8 -10    2.79    3.52
   3  -8  10    3.44    3.70
  -4   8 -10   46.41    5.65
  -5   8 -10   40.41    5.76
  -6   8 -10  175.78   10.41
  -7   8 -10  326.92   13.28
  -8   8 -10   69.21    7.93
 -13  -7  10    1.83    5.51
 -12  -7  10    6.14    5.69
 -12  -7  10    6.34    5.49
 -11  -7  10   13.27    5.86
 -11  -7  10   11.86    5.63
 -10  -7  10   31.96    6.10
 -10  -7  10   25.04    5.50
  -9  -7  10   11.68    4.44
  -9  -7  10    5.77    4.70
  -8  -7  10  119.45    8.49
  -7  -7  10   88.12    7.64
  -6  -7  10   30.15    5.41
  -5  -7  10   36.64    5.39
  -4  -7  10    3.00    3.64
  -3  -7  10   56.07    6.06
  -2  -7  10   59.98    6.42
  -1  -7  10  256.75   10.90
   0   7 -10  390.41   12.23
   0  -7  10  380.75   12.87
  -1   7 -10   78.36    6.17
   1  -7  10   74.46    6.95
  -2   7 -10   59.91    5.66
   2  -7  10   48.31    5.95
  -3   7 -10   46.79    5.29
   3  -7  10   53.85    6.25
  -4   7 -10    9.18    3.87
  -5   7 -10   32.53    5.28
  -6   7 -10  249.87   11.16
  -7   7 -10  242.38   11.54
  -8   7 -10   31.82    6.05
  -9   7 -10    2.72    5.37
 -13  -6  10    9.80    6.51
 -12  -6  10   76.87    8.09
 -12  -6  10   60.57    8.55
 -11  -6  10    7.58    4.54
 -11  -6  10    1.54    5.06
 -10  -6  10   -1.01    4.23
 -10  -6  10    0.97    4.43
  -9  -6  10   77.95    7.48
  -8  -6  10  236.73   10.55
  -7  -6  10   71.90    6.76
  -6  -6  10    4.93    3.68
  -5  -6  10  182.03    9.06
  -4  -6  10  151.79    8.27
  -3  -6  10   -2.27    3.13
  -2  -6  10  245.65   10.32
  -1  -6  10  749.57   18.51
   0   6 -10  440.89   12.66
   0  -6  10  442.80   13.39
  -1   6 -10   34.09    4.44
   1  -6  10   43.96    5.54
  -2   6 -10   19.00    3.79
   2  -6  10   18.60    4.07
  -3   6 -10  104.81    7.29
   3  -6  10  100.68    7.74
  -4   6 -10    3.34    3.42
  -5   6 -10   20.21    4.38
  -6   6 -10  102.43    7.88
  -7   6 -10   86.36    7.75
  -8   6 -10   13.20    5.04
  -9   6 -10   13.39    5.37
 -14  -5  10  166.12   13.39
 -13  -5  10    0.45    4.91
 -12  -5  10  164.57    9.78
 -12  -5  10  177.02   11.18
 -11  -5  10  371.15   14.69
 -11  -5  10  370.42   13.58
 -10  -5  10  116.69    8.17
  -9  -5  10  143.03    8.61
  -8  -5  10  650.45   17.56
  -7  -5  10  192.62    9.22
  -6  -5  10   78.14    6.57
  -5  -5  10   46.00    5.34
  -4  -5  10  174.49    8.35
  -3  -5  10  121.30    7.09
  -2  -5  10   27.06    4.42
   1   5 -10   66.23    5.24
  -1  -5  10   69.48    6.13
   0   5 -10    2.30    2.81
   0  -5  10    3.11    3.06
  -1   5 -10   84.57    5.43
  -1   5 -10   97.72    6.21
   1  -5  10   82.82    6.06
  -2   5 -10  180.83    7.84
   2  -5  10  180.20    8.56
  -3   5 -10  101.95    6.83
  -4   5 -10   26.95    4.63
  -5   5 -10    4.23    3.54
  -6   5 -10    7.54    4.41
  -7   5 -10   18.27    4.77
  -8   5 -10   -1.62    4.56
  -9   5 -10  120.75    9.49
 -14  -4  10   -8.21    5.52
 -13  -4  10   17.84    6.34
 -13  -4  10   20.35    5.94
 -12  -4  10  113.21    8.31
 -12  -4  10  124.85    9.66
 -11  -4  10   39.17    5.96
 -10  -4  10   27.83    4.98
  -9  -4  10    6.42    3.54
  -8  -4  10   66.10    6.35
  -7  -4  10  395.55   12.65
  -6  -4  10   42.68    5.08
  -5  -4  10  768.92   18.31
  -4  -4  10  981.71   21.46
  -3  -4  10  510.53   13.90
  -2  -4  10    0.91    2.79
   1   4 -10  786.02   17.04
  -1  -4  10  757.84   17.77
   0   4 -10  867.33   18.34
   0   4 -10  872.29   18.38
   0  -4  10  895.16   19.66
  -1   4 -10   55.29    4.61
  -1   4 -10   61.92    4.92
   1  -4  10   50.99    4.94
  -2   4 -10  792.82   17.07
  -2   4 -10  780.47   17.48
   2  -4  10  789.37   18.14
  -3   4 -10  616.76   15.27
  -4   4 -10  258.92    9.97
  -5   4 -10   -2.96    3.38
  -6   4 -10  150.92    8.89
  -7   4 -10  142.03    8.77
  -8   4 -10   15.82    5.37
  -9   4 -10  234.03   12.31
 -14  -3  10   99.14   10.11
 -13  -3  10    1.84    4.82
 -13  -3  10   -1.17    4.28
 -12  -3  10  206.68   10.93
 -11  -3  10  339.65   12.73
 -10  -3  10   66.62    6.61
  -9  -3  10   18.37    4.34
  -8  -3  10  217.18    9.49
  -7  -3  10  217.28    9.35
  -6  -3  10   -1.55    2.85
  -5  -3  10  308.73   10.57
  -4  -3  10  681.19   16.45
  -3  -3  10  588.72   14.83
  -2  -3  10   14.62    3.36
   1   3 -10   62.01    5.15
   1   3 -10   52.73    4.37
  -1  -3  10   62.79    5.18
   0   3 -10   36.99    3.90
   0   3 -10   36.82    3.96
   0  -3  10   40.61    4.44
  -1   3 -10   26.58    3.51
  -1   3 -10   26.07    3.82
   1  -3  10   30.42    4.18
  -2   3 -10  261.51    9.01
  -2   3 -10  264.06    8.81
   2  -3  10  282.55    9.45
  -3   3 -10    9.68    3.09
  -3   3 -10    9.55    3.06
  -4   3 -10  173.27    7.88
  -4   3 -10  171.43    9.13
  -5   3 -10  100.43    7.27
  -6   3 -10  260.31   10.92
  -7   3 -10  374.18   13.48
  -8   3 -10  245.13   11.21
  -9   3 -10   53.15    6.78
 -14  -2  10   67.50    8.60
 -13  -2  10    8.95    4.83
 -13  -2  10    9.56    5.30
 -12  -2  10   51.59    6.69
 -11  -2  10   25.73    5.00
 -10  -2  10   58.05    6.17
  -9  -2  10   23.37    4.54
  -8  -2  10   17.59    4.07
  -7  -2  10   77.21    6.31
  -6  -2  10    0.60    3.04
  -5  -2  10    4.07    2.79
  -4  -2  10    5.62    2.98
  -3  -2  10   27.49    4.15
   2   2 -10  339.57   10.54
  -2  -2  10  373.07   10.95
   1   2 -10  271.29    8.26
   1   2 -10  279.29    9.24
  -1  -2  10  287.40    9.22
   0   2 -10  504.99   12.06
   0   2 -10  502.27   13.16
   0  -2  10  516.69   12.90
  -1   2 -10 1059.50   21.61
  -1   2 -10 1061.89   20.70
   1  -2  10 1089.19   21.47
  -2   2 -10    7.47    3.07
  -2   2 -10    4.46    2.75
  -3   2 -10  105.71    6.57
  -3   2 -10  103.07    6.17
  -4   2 -10    3.83    3.22
  -4   2 -10    6.31    3.23
  -5   2 -10  811.69   19.11
  -5   2 -10  857.74   19.80
  -6   2 -10  661.27   17.28
  -7   2 -10  866.26   21.16
  -8   2 -10  177.53    9.75
  -9   2 -10   -3.43    4.54
 -15  -1  10   15.47    6.54
 -14  -1  10    5.95    5.73
 -13  -1  10    7.51    4.63
 -12  -1  10   14.25    4.67
 -11  -1  10   56.39    6.61
 -10  -1  10   26.05    4.74
  -9  -1  10    4.83    3.74
  -8  -1  10  582.37   15.82
  -7  -1  10  106.00    6.83
  -6  -1  10  501.49   13.86
  -5  -1  10  116.81    6.60
  -4  -1  10  206.99    8.25
   3   1 -10   51.95    4.89
  -3  -1  10   59.09    4.98
   2   1 -10  239.69    8.71
  -2  -1  10  228.44    8.52
   1   1 -10 1147.62   20.93
   1   1 -10 1127.14   22.87
  -1  -1  10 1135.36   22.45
   0   1 -10 1791.94   32.96
   0   1 -10 1835.73   30.98
   0  -1  10 1842.32   32.13
  -1   1 -10  575.63   13.07
  -1   1 -10  582.93   14.59
   1  -1  10  580.15   13.61
  -2   1 -10  385.28   10.58
  -2   1 -10  413.94   12.17
  -3   1 -10   67.09    5.72
  -3   1 -10   71.19    4.96
  -4   1 -10   60.91    5.48
  -4   1 -10   64.30    5.98
  -5   1 -10   32.22    4.90
  -5   1 -10   26.58    4.16
  -6   1 -10  390.45   12.72
  -6   1 -10  367.85   12.65
  -7   1 -10  287.66   11.55
  -8   1 -10  169.57    9.92
  -9   1 -10   93.73    8.15
 -15   0  10   59.82    8.73
 -14   0  10   83.63    8.89
 -14   0  10  110.52    9.12
 -13   0  10    2.92    4.50
 -12   0  10   43.65    5.90
 -11   0  10  190.94   10.13
 -10   0  10   58.04    6.06
  -9   0  10  194.04    9.13
  -8   0  10   32.40    4.70
  -7   0  10 1028.26   22.43
  -6   0  10   21.14    3.78
  -5   0  10  192.23    8.13
  -4   0  10    2.63    3.00
   3   0 -10    8.14    2.98
  -3   0  10   -0.43    2.64
   2   0 -10  171.76    7.65
  -2   0  10  185.14    7.49
   1   0 -10  104.45    6.25
   1   0 -10  102.66    4.66
  -1   0  10  102.63    5.52
   0   0 -10  181.59    6.33
   0   0 -10  193.57    8.13
   0   0  10  214.67    7.60
  -1   0 -10   35.47    3.52
  -1   0 -10   32.44    4.31
   1   0  10   39.10    3.85
  -2   0 -10    8.10    2.67
  -2   0 -10   12.44    3.69
  -3   0 -10  340.20   10.05
  -3   0 -10  345.85   11.62
  -4   0 -10   11.29    4.00
  -4   0 -10    9.38    3.00
  -5   0 -10   63.44    5.69
  -5   0 -10   55.26    5.98
  -6   0 -10   12.66    4.10
  -6   0 -10    6.96    3.92
  -7   0 -10    6.39    3.72
  -7   0 -10   11.97    4.64
  -8   0 -10   44.65    5.88
  -8   0 -10   54.06    7.82
  -9   0 -10  112.09    8.94
 -15   1  10   22.41    6.76
 -14   1  10   99.56    8.93
 -13   1  10    6.78    4.24
 -12   1  10  104.66    8.66
 -11   1  10   73.01    7.19
 -10   1  10   10.43    3.77
  -9   1  10   31.58    4.83
  -8   1  10   74.44    6.23
  -7   1  10  223.17    9.20
  -6   1  10  195.00    8.36
  -5   1  10   31.73    4.16
   4  -1 -10  598.66   15.51
  -4   1  10  594.75   14.75
   3  -1 -10  363.19   11.39
  -3   1  10  356.61   10.79
   2  -1 -10   55.51    5.21
  -2   1  10   61.91    5.01
   1  -1 -10   19.51    3.73
  -1   1  10   26.53    3.39
   0  -1 -10  195.89    8.42
   0   1  10  193.51    7.25
  -1  -1 -10   26.62    4.42
   1   1  10   31.89    3.57
  -2  -1 -10  413.49   10.77
  -2  -1 -10  444.38   13.31
  -3  -1 -10  654.09   17.08
  -3  -1 -10  624.28   14.42
  -4  -1 -10  609.42   16.75
  -4  -1 -10  616.82   14.75
  -5  -1 -10  177.87    9.75
  -5  -1 -10  181.89    8.16
  -6  -1 -10   42.44    5.33
  -6  -1 -10   39.93    5.90
  -7  -1 -10   65.78    7.49
  -7  -1 -10   69.58    6.67
  -8  -1 -10    4.37    4.24
  -8  -1 -10    0.19    4.81
  -9  -1 -10   61.53    7.20
  -9  -1 -10   45.64    7.29
 -15   2  10   25.52    6.67
 -14   2  10   81.01    7.99
 -13   2  10   48.94    6.83
 -12   2  10   56.40    6.51
 -11   2  10  112.93    8.01
 -10   2  10  220.54   10.08
  -9   2  10    4.15    3.49
  -8   2  10  269.55   10.46
  -7   2  10  572.99   15.45
  -6   2  10   26.21    4.16
  -5   2  10  367.64   11.36
   4  -2 -10 1127.88   23.82
  -4   2  10 1095.65   22.63
   3  -2 -10  410.37   12.57
  -3   2  10  422.20   11.66
   2  -2 -10   97.80    6.81
  -2   2  10  104.79    5.62
   1  -2 -10  168.49    8.02
  -1   2  10  164.45    6.97
   0  -2 -10  170.25    8.55
   0   2  10  183.74    6.96
  -1  -2 -10   14.78    4.20
  -2  -2 -10  454.49   14.03
  -3  -2 -10   77.68    7.02
  -4  -2 -10  290.87   11.57
  -5  -2 -10   47.40    6.56
  -5  -2 -10   42.31    5.42
  -6  -2 -10   46.78    5.25
  -6  -2 -10   40.12    6.04
  -7  -2 -10    5.57    3.96
  -7  -2 -10    2.10    4.41
  -8  -2 -10  126.00    9.64
  -8  -2 -10  121.87    8.51
  -9  -2 -10   91.51    9.06
  -9  -2 -10   93.12    8.23
 -15   3  10  225.86   12.31
 -14   3  10  150.30   10.13
 -13   3  10    2.54    4.38
 -12   3  10  188.53   10.10
 -11   3  10  438.64   14.61
 -10   3  10  145.28    8.55
  -9   3  10   12.09    4.25
  -8   3  10   43.43    5.29
  -7   3  10  165.11    8.53
  -6   3  10    6.30    3.06
   5  -3 -10  196.76    8.92
  -5   3  10  198.77    8.61
   4  -3 -10    9.54    3.62
  -4   3  10    6.57    3.07
   3  -3 -10    4.54    3.04
  -3   3  10    7.62    2.79
   2  -3 -10   -1.53    2.58
  -2   3  10   -1.49    2.43
   1  -3 -10    5.21    3.23
  -1   3  10   10.66    2.78
   0  -3 -10   55.30    5.87
   0   3  10   62.88    4.70
  -1  -3 -10  143.19    8.16
  -2  -3 -10   80.02    6.95
  -3  -3 -10   55.41    6.18
  -4  -3 -10   18.37    4.72
  -5  -3 -10   45.50    6.37
  -6  -3 -10  191.24   10.74
  -7  -3 -10  296.27   13.31
  -8  -3 -10   68.84    8.16
  -9  -3 -10   14.50    5.58
 -14   4  10    2.10    4.65
 -13   4  10    1.88    3.94
 -12   4  10    8.71    4.19
 -11   4  10   15.17    4.58
 -10   4  10   54.93    6.33
  -9   4  10   21.57    4.48
  -8   4  10  257.78   10.63
  -7   4  10   74.34    6.43
  -6   4  10  281.60   10.48
   5  -4 -10   65.79    6.37
  -5   4  10   66.67    5.76
   4  -4 -10  329.78   11.93
  -4   4  10  327.04   10.72
   3  -4 -10  289.36   11.03
  -3   4  10  302.90   10.11
   2  -4 -10    2.89    3.42
  -2   4  10    4.84    2.69
   1  -4 -10  798.13   19.69
  -1   4  10  787.23   17.21
   0  -4 -10  733.06   19.18
   0   4  10  734.93   16.03
  -1  -4 -10  255.98   10.86
  -2  -4 -10   30.28    5.13
  -3  -4 -10  367.55   13.41
  -4  -4 -10  221.36   10.96
  -5  -4 -10    0.81    4.31
  -6  -4 -10  128.98    9.63
  -7  -4 -10  322.70   14.27
  -8  -4 -10   38.29    7.00
 -14   5  10   19.82    5.68
 -13   5  10   -2.25    4.36
 -12   5  10  210.34   10.88
 -11   5  10  191.64   10.79
 -10   5  10  108.59    8.79
   9  -5 -10   11.41    4.13
   8  -5 -10  248.08   10.66
   7  -5 -10  151.32    8.34
   6  -5 -10   97.76    7.47
   5  -5 -10   37.46    5.14
   5  -5 -10   29.75    4.53
   4  -5 -10  160.31    7.82
   4  -5 -10  176.87    8.80
   3  -5 -10   22.16    4.70
   3  -5 -10   29.51    4.13
   2  -5 -10    9.93    3.31
   2  -5 -10   10.00    3.70
   1  -5 -10  263.91   10.91
  -1   5  10  274.26    9.25
   0  -5 -10  158.25    8.95
   0   5  10  167.57    7.30
  -1  -5 -10   22.71    4.88
  -2  -5 -10    4.17    3.81
  -3  -5 -10   17.79    4.79
  -4  -5 -10    2.93    4.39
  -5  -5 -10    1.73    4.94
  -6  -5 -10   -0.50    5.08
  -7  -5 -10   20.85    6.07
  -8  -5 -10    1.72    5.12
 -14   6  10  107.00    9.60
 -13   6  10   37.26    6.70
 -12   6  10   47.15    6.58
  11  -6 -10   -3.76    4.26
  10  -6 -10   63.80    7.07
   9  -6 -10   11.47    4.68
   8  -6 -10   43.68    5.80
   7  -6 -10    7.28    3.76
   6  -6 -10   25.76    4.79
   6  -6 -10   22.32    4.65
   5  -6 -10  139.00    7.82
   5  -6 -10  140.60    8.56
   4  -6 -10  105.80    6.82
   4  -6 -10  101.26    7.34
   3  -6 -10  133.28    8.48
   3  -6 -10  106.65    7.01
   2  -6 -10  292.45   10.07
   2  -6 -10  288.56   11.61
   1  -6 -10   66.32    6.76
   1  -6 -10   73.35    5.75
   0  -6 -10  130.69    8.56
   0  -6 -10  132.22    7.73
  -1  -6 -10    7.23    4.21
  -2  -6 -10  292.90   12.34
  -3  -6 -10  668.34   19.50
  -4  -6 -10  705.92   20.57
  -5  -6 -10   51.18    7.26
  -6  -6 -10  120.39   10.29
  -7  -6 -10    6.70    5.39
  -8  -6 -10   94.89   10.01
  13  -7 -10    3.52    4.73
 -13   7  10   -1.24    4.20
  12  -7 -10   12.38    5.63
  11  -7 -10  237.63   11.92
  10  -7 -10  128.56    9.26
   9  -7 -10   33.27    5.64
   8  -7 -10   42.94    6.00
   7  -7 -10  238.90   10.80
   6  -7 -10  185.82    9.55
   6  -7 -10  228.64   10.19
   5  -7 -10   22.08    4.51
   5  -7 -10    7.30    3.74
   4  -7 -10  544.53   15.33
   4  -7 -10  545.45   16.58
   3  -7 -10 1069.18   25.13
   3  -7 -10 1060.91   23.11
   2  -7 -10   47.73    5.36
   2  -7 -10   45.02    6.18
   1  -7 -10   29.74    4.27
   1  -7 -10   27.64    5.18
   0  -7 -10  108.51    8.27
  -1  -7 -10   48.38    6.51
  -2  -7 -10   29.06    5.76
  -3  -7 -10  160.87   10.86
  -4  -7 -10  439.69   16.73
  -5  -7 -10  216.33   12.22
  -6  -7 -10   68.71    8.57
  -7  -7 -10  100.25   10.26
  12  -8 -10    5.83    4.90
  11  -8 -10  313.74   13.99
  10  -8 -10  183.92   10.76
   9  -8 -10    1.74    4.06
   8  -8 -10   18.05    4.99
   7  -8 -10   28.17    5.29
   6  -8 -10    6.72    3.96
   6  -8 -10    4.42    3.93
   5  -8 -10   68.54    7.26
   5  -8 -10   53.45    6.09
   4  -8 -10  174.58    8.87
   4  -8 -10  171.58    9.63
   3  -8 -10  203.33   10.36
   3  -8 -10  179.43    9.15
   2  -8 -10   70.53    6.26
   2  -8 -10   63.37    7.11
   1  -8 -10   23.37    5.23
   1  -8 -10   14.42    3.79
   0  -8 -10   71.96    7.98
  -1  -8 -10  170.63   10.31
  -2  -8 -10  105.21    9.01
  -3  -8 -10   14.70    5.76
  -4  -8 -10   -1.77    4.48
  -5  -8 -10    5.20    5.71
  -6  -8 -10   34.03    7.61
  12  -9 -10    5.33    8.17
  11  -9 -10   35.91    6.74
  10  -9 -10   22.37    5.82
   9  -9 -10   53.03    7.03
   8  -9 -10   18.04    5.22
   7  -9 -10    8.60    4.44
   6  -9 -10   54.90    6.52
   6  -9 -10   69.82    7.31
   5  -9 -10   61.84    7.30
   5  -9 -10   74.46    7.00
   4  -9 -10    4.61    4.13
   4  -9 -10    2.43    3.55
   3  -9 -10   34.47    6.04
   3  -9 -10   40.05    5.48
   2  -9 -10   52.97    6.79
   2  -9 -10   57.65    5.89
   1  -9 -10  288.50   13.37
   1  -9 -10  297.16   10.99
   0  -9 -10  712.89   21.14
  -1  -9 -10  329.40   14.05
  -2  -9 -10   92.55    8.83
  -3  -9 -10   57.12    7.68
  -4  -9 -10    9.81    5.46
  -5  -9 -10    3.23    5.20
  -6  -9 -10  293.16   15.13
  10 -10 -10  190.57   12.27
   9 -10 -10    9.23    5.40
   8 -10 -10  135.77    9.89
   7 -10 -10  339.56   14.14
   6 -10 -10   93.03    8.64
   6 -10 -10   85.48    8.32
   5 -10 -10    3.15    3.97
   5 -10 -10    6.66    3.98
   4 -10 -10  142.13    9.49
   4 -10 -10  137.47    9.11
   3 -10 -10  117.12    8.96
   3 -10 -10  138.42    8.82
   2 -10 -10    2.52    4.05
   2 -10 -10    5.63    4.06
   1 -10 -10  384.55   15.56
   0 -10 -10  370.94   15.47
  -1 -10 -10  261.69   13.49
  -2 -10 -10   17.05    5.92
  -3 -10 -10    7.41    5.92
  -4 -10 -10    5.87    5.28
  -5 -10 -10   59.76    8.63
   9 -11 -10    4.46    4.79
   8 -11 -10  201.11   11.56
   7 -11 -10    6.22    5.13
   6 -11 -10   14.51    5.50
   5 -11 -10   11.55    4.74
   5 -11 -10    8.50    4.59
   4 -11 -10   -0.30    4.30
   4 -11 -10    0.50    4.33
   3 -11 -10    7.69    4.46
   3 -11 -10    3.76    4.54
   2 -11 -10   43.85    5.98
   2 -11 -10   50.58    7.34
   1 -11 -10    7.92    4.96
   0 -11 -10   16.51    5.47
  -1 -11 -10   79.83    8.90
  -2 -11 -10    6.29    5.70
  -3 -11 -10   30.02    7.20
  -4 -11 -10  177.73   12.20
   8 -12 -10  163.14   11.77
   7 -12 -10  159.46   10.67
   6 -12 -10   52.96    7.33
   5 -12 -10  116.49    9.36
   4 -12 -10  363.36   15.13
   4 -12 -10  382.99   14.33
   3 -12 -10  323.98   13.06
   3 -12 -10  363.43   15.41
   2 -12 -10    8.68    4.93
   2 -12 -10   10.96    4.91
   1 -12 -10  106.05   10.07
   0 -12 -10  335.06   15.04
  -1 -12 -10   90.96    9.49
  -2 -12 -10    7.49    5.77
  -3 -12 -10  119.00   11.06
   6 -13 -10    1.31    4.50
   5 -13 -10   21.68    5.60
   4 -13 -10   46.25    6.74
   3 -13 -10   23.31    5.45
   2 -13 -10   -5.31    4.40
   1 -13 -10    1.02    5.19
   0 -13 -10   12.30    5.55
  -1 -13 -10   29.04    6.54
   4 -14 -10   17.93    5.65
   3 -14 -10   34.84    6.35
  -5 -13  11   58.31    9.73
  -4 -13  11   47.07    8.13
  -3 -13  11   -4.01    5.16
  -2 -13  11   43.83    8.09
  -1 -13  11   13.19    6.55
   0 -13  11    2.26    5.90
   1 -13  11   -1.34    4.66
   2 -13  11   14.58    5.67
   3 -13  11  154.12   12.57
  -8 -12  11   20.82   10.99
  -7 -12  11   95.26    9.91
  -6 -12  11   -5.92    4.99
  -5 -12  11   74.97    8.93
  -4 -12  11  366.10   16.23
  -3 -12  11  343.64   15.12
  -2 -12  11   16.81    5.90
  -1 -12  11  123.89   10.77
   0 -12  11  163.16   11.12
   1 -12  11   22.20    6.61
   2 -12  11   87.02    9.21
  -3  12 -11  218.04   11.91
   3 -12  11  223.94   13.28
  -4  12 -11  245.73   12.20
 -10 -11  11  197.90   13.02
  -9 -11  11    5.34    5.23
  -9 -11  11    0.67    5.51
  -8 -11  11   58.97    8.69
  -7 -11  11   57.01    8.04
  -6 -11  11    3.02    5.27
  -5 -11  11  164.96   11.18
  -4 -11  11  369.01   15.31
  -3 -11  11  159.36   10.76
  -2 -11  11   13.51    5.47
  -1 -11  11   26.62    6.16
   0 -11  11    4.35    4.99
   1 -11  11   -2.28    4.17
  -2  11 -11    9.52    5.05
   2 -11  11   13.83    5.79
  -3  11 -11    1.22    4.29
   3 -11  11    1.32    4.88
  -4  11 -11    1.08    4.38
  -5  11 -11   -6.52    4.18
 -10 -10  11   25.60    6.44
 -10 -10  11   44.74    7.46
  -9 -10  11   14.86    5.88
  -9 -10  11   13.76    5.39
  -8 -10  11   18.32    5.97
  -8 -10  11   38.36    6.25
  -7 -10  11   -3.14    4.65
  -6 -10  11   24.33    6.15
  -5 -10  11   17.13    5.61
  -4 -10  11    0.89    4.77
  -3 -10  11    3.44    4.70
  -2 -10  11   96.01    8.70
  -1 -10  11  223.37   11.64
   0 -10  11  257.78   12.92
  -1  10 -11   47.00    6.10
   1 -10  11   30.16    6.11
  -2  10 -11    2.75    3.88
   2 -10  11   -1.92    4.30
  -3  10 -11   86.37    7.72
   3 -10  11   74.43    8.02
  -4  10 -11  138.89    9.14
  -5  10 -11   20.78    5.44
  -6  10 -11   59.70    7.32
 -11  -9  11   86.47    9.63
 -11  -9  11  105.00   10.56
 -10  -9  11   19.25    5.89
 -10  -9  11   16.73    6.40
  -9  -9  11   66.42    7.70
  -9  -9  11   58.19    8.10
  -8  -9  11  359.34   14.32
  -8  -9  11  355.30   14.58
  -7  -9  11  204.51   11.93
  -7  -9  11  193.63   10.32
  -6  -9  11  174.66   10.52
  -5  -9  11    7.33    4.95
  -4  -9  11   52.24    6.77
  -3  -9  11  244.23   11.72
  -2  -9  11   90.91    8.59
  -1  -9  11  268.67   12.18
   0  -9  11  269.62   12.15
  -1   9 -11  217.01    9.95
   1  -9  11  199.33   10.79
  -2   9 -11   17.36    4.56
   2  -9  11   15.85    4.97
  -3   9 -11   57.79    6.45
   3  -9  11   43.49    6.89
  -4   9 -11   42.76    6.03
  -5   9 -11   53.21    7.06
  -6   9 -11   12.13    5.49
  -7   9 -11   19.65    5.76
 -12  -8  11   19.55    6.20
 -12  -8  11   32.75    7.15
 -11  -8  11  127.15   10.37
 -11  -8  11  118.55   10.60
 -10  -8  11   34.72    6.84
 -10  -8  11   32.94    6.40
  -9  -8  11   55.00    7.07
  -9  -8  11   46.81    7.03
  -8  -8  11  254.91   12.18
  -7  -8  11  417.67   15.10
  -6  -8  11   43.09    6.34
  -5  -8  11   25.77    5.53
  -4  -8  11  130.33    8.89
  -3  -8  11    5.91    4.22
  -2  -8  11   23.97    5.21
  -1  -8  11   -3.21    3.67
   0   8 -11    9.40    3.82
   0  -8  11   14.03    4.96
  -1   8 -11   19.60    4.41
   1  -8  11   13.78    5.05
  -2   8 -11    6.83    4.03
   2  -8  11    8.28    4.29
  -3   8 -11   60.18    6.31
  -4   8 -11   67.51    7.09
  -5   8 -11   88.50    7.85
  -6   8 -11   25.72    5.56
  -7   8 -11  128.79    9.84
 -13  -7  11   40.15    8.04
 -12  -7  11   65.49    8.22
 -12  -7  11   51.32    7.94
 -11  -7  11    3.24    5.02
 -11  -7  11    4.77    5.23
 -10  -7  11   -3.94    4.05
 -10  -7  11   -0.33    4.33
  -9  -7  11   74.26    7.63
  -8  -7  11   17.20    5.08
  -7  -7  11   21.06    5.23
  -6  -7  11   -1.60    4.25
  -5  -7  11    7.42    4.12
  -4  -7  11  189.65    9.80
  -3  -7  11  190.77   10.13
  -2  -7  11  171.77    9.27
  -1  -7  11   62.45    6.45
   0   7 -11  297.45   10.93
   0  -7  11  279.03   11.81
  -1   7 -11   52.04    5.43
   1  -7  11   43.02    5.75
  -2   7 -11    7.06    3.53
   2  -7  11    1.65    3.56
  -3   7 -11  422.76   13.35
  -4   7 -11  251.73   10.68
  -5   7 -11   74.23    7.05
  -6   7 -11   14.65    4.94
  -7   7 -11  136.17   10.16
  -8   7 -11   44.92    7.33
 -13  -6  11    3.55    6.08
 -12  -6  11   64.96    8.09
 -12  -6  11   58.37    8.27
 -11  -6  11  183.08   11.14
 -11  -6  11  172.31   10.97
 -10  -6  11  466.28   15.75
  -9  -6  11   69.32    7.23
  -8  -6  11  104.09    8.25
  -7  -6  11   55.08    6.35
  -6  -6  11  271.34   11.23
  -5  -6  11   43.25    5.62
  -4  -6  11  555.71   16.08
  -3  -6  11  768.56   19.70
  -2  -6  11  209.74    9.69
  -1  -6  11   11.03    4.34
   0   6 -11   30.78    4.62
   0  -6  11   17.43    4.49
  -1   6 -11    1.59    3.24
   1  -6  11    3.45    3.42
  -2   6 -11    4.39    3.44
   2  -6  11   -2.07    3.55
  -3   6 -11  338.11   11.90
  -4   6 -11    9.16    3.95
  -5   6 -11   32.95    5.69
  -6   6 -11   15.61    5.19
  -7   6 -11   17.56    5.17
  -8   6 -11   95.35    8.72
 -13  -5  11   -0.25    4.43
 -13  -5  11   10.33    5.61
 -12  -5  11  163.46   11.19
 -12  -5  11  175.54   10.86
 -11  -5  11  278.69   12.79
 -10  -5  11   92.14    7.99
  -9  -5  11   18.84    4.86
  -8  -5  11  296.40   11.91
  -7  -5  11   -1.40    3.57
  -6  -5  11   21.63    4.61
  -5  -5  11  283.78   11.06
  -4  -5  11  276.67   10.76
  -3  -5  11   97.29    7.42
  -2  -5  11   13.58    3.99
   1   5 -11   15.81    3.70
  -1  -5  11   19.26    4.40
   0   5 -11   88.56    6.39
   0  -5  11   79.78    6.73
  -1   5 -11  117.30    6.95
   1  -5  11  126.92    7.78
  -2   5 -11    1.93    2.91
   2  -5  11    2.75    3.54
  -3   5 -11  150.20    7.81
  -4   5 -11   12.54    3.90
  -5   5 -11   40.29    5.70
  -6   5 -11    9.88    4.74
  -7   5 -11  311.51   12.73
  -8   5 -11  238.79   12.33
 -14  -4  11   17.42    6.54
 -13  -4  11    9.86    5.39
 -13  -4  11   -1.42    4.04
 -12  -4  11    4.75    4.76
 -11  -4  11   23.05    5.54
 -10  -4  11    6.29    4.16
  -9  -4  11  118.98    8.03
  -8  -4  11  288.26   11.33
  -7  -4  11 1079.33   24.29
  -6  -4  11    1.56    3.26
  -5  -4  11  315.01   11.58
  -4  -4  11  554.83   15.33
  -3  -4  11  252.28    9.93
  -2  -4  11   51.33    5.35
   1   4 -11  733.85   16.93
  -1  -4  11  759.44   18.08
   0   4 -11  993.89   20.81
   0   4 -11 1003.43   20.94
   0  -4  11 1012.20   22.09
  -1   4 -11  214.07    8.24
  -1   4 -11  204.28    8.03
   1  -4  11  189.98    8.50
  -2   4 -11  333.56   14.62
  -2   4 -11  321.20   10.72
  -3   4 -11   66.86    5.75
  -4   4 -11  299.45   11.12
  -5   4 -11   -4.61    3.15
  -6   4 -11  161.63    9.06
  -7   4 -11  278.06   12.26
  -8   4 -11   99.26    8.62
 -14  -3  11  313.25   15.94
 -13  -3  11  125.74    9.68
 -13  -3  11  129.51   10.84
 -12  -3  11    2.66    4.51
 -11  -3  11  230.08   11.52
 -10  -3  11  187.62    9.84
  -9  -3  11   11.21    4.13
  -8  -3  11  343.26   12.70
  -7  -3  11 1399.02   28.94
  -6  -3  11  238.03    9.89
  -5  -3  11   -1.92    2.88
  -4  -3  11   29.40    4.40
  -3  -3  11   68.62    5.75
  -2  -3  11    6.39    3.20
   1   3 -11    7.17    2.53
   1   3 -11   10.84    3.39
  -1  -3  11   11.13    3.56
   0   3 -11    2.46    2.71
   0   3 -11    1.65    2.79
   0  -3  11    3.38    3.15
  -1   3 -11    9.08    3.13
  -1   3 -11   10.13    3.18
   1  -3  11    5.01    3.00
  -2   3 -11    4.29    3.06
  -2   3 -11    8.33    3.28
  -3   3 -11  300.51   10.31
  -3   3 -11  267.44    9.70
  -4   3 -11   44.83    5.40
  -5   3 -11   50.38    5.66
  -6   3 -11   11.70    4.24
  -7   3 -11   92.82    7.87
  -8   3 -11   -5.63    4.53
  -9   3 -11   30.06    6.57
 -14  -2  11  135.32   11.47
 -14  -2  11  154.64   11.16
 -13  -2  11   47.91    7.04
 -12  -2  11   26.50    5.50
 -11  -2  11    7.98    4.61
 -10  -2  11    0.33    3.59
  -9  -2  11   -1.80    3.42
  -8  -2  11    1.34    3.38
  -7  -2  11  101.00    7.57
  -6  -2  11    3.89    3.50
  -5  -2  11   33.37    4.62
  -4  -2  11  208.19    8.79
  -3  -2  11  378.43   11.72
   2   2 -11  192.60    8.48
  -2  -2  11  192.41    8.10
   1   2 -11   30.27    3.64
   1   2 -11   26.77    4.16
  -1  -2  11   25.69    3.90
   0   2 -11  138.33    6.34
   0   2 -11  159.93    7.34
   0  -2  11  142.78    7.18
  -1   2 -11   13.14    3.65
  -1   2 -11   18.32    3.32
   1  -2  11   17.01    3.60
  -2   2 -11  347.30   11.38
  -2   2 -11  355.32   10.44
  -3   2 -11  594.50   15.05
  -3   2 -11  626.03   16.06
  -4   2 -11  556.54   14.82
  -4   2 -11  551.06   15.35
  -5   2 -11   83.96    6.64
  -6   2 -11    6.91    4.25
  -7   2 -11  235.28   11.14
  -8   2 -11   37.18    5.93
  -9   2 -11   -0.75    4.22
 -14  -1  11    6.05    4.70
 -14  -1  11    7.48    5.30
 -13  -1  11   10.33    4.72
 -12  -1  11   98.13    8.48
 -11  -1  11  265.82   11.63
 -10  -1  11  276.68   11.84
  -9  -1  11  105.74    7.60
  -8  -1  11   39.25    5.25
  -7  -1  11  117.68    7.42
  -6  -1  11  212.07    9.17
  -5  -1  11   53.23    5.41
  -4  -1  11  535.36   14.40
   3   1 -11 1054.62   22.56
  -3  -1  11 1010.46   21.77
   2   1 -11 1418.56   28.10
  -2  -1  11 1451.49   27.65
   1   1 -11   81.36    5.85
  -1  -1  11   87.53    5.95
   0   1 -11   68.52    4.57
   0   1 -11   60.80    5.71
   0  -1  11   58.44    5.07
  -1   1 -11    3.97    3.29
  -1   1 -11    5.64    2.67
   1  -1  11    9.10    3.04
  -2   1 -11   45.00    4.39
  -2   1 -11   36.69    4.71
  -3   1 -11  279.49   10.46
  -3   1 -11  267.06    9.39
  -4   1 -11   53.95    5.29
  -4   1 -11   57.83    6.19
  -5   1 -11   21.91    4.53
  -5   1 -11   23.42    4.56
  -6   1 -11    2.87    3.75
  -6   1 -11    4.45    3.91
  -7   1 -11    1.29    3.67
  -8   1 -11   -0.76    4.34
  -9   1 -11    4.57    4.69
 -14   0  11   13.99    5.49
 -13   0  11   -0.74    4.68
 -12   0  11   71.55    7.87
 -11   0  11  144.55    9.03
 -10   0  11  282.48   11.71
  -9   0  11  143.85    8.47
  -8   0  11   79.52    6.80
  -7   0  11   14.62    3.91
  -6   0  11   -1.74    2.86
  -5   0  11   88.08    6.24
  -4   0  11  263.96    9.97
   3   0 -11  112.56    6.83
  -3   0  11  119.45    6.59
   2   0 -11  267.93   10.26
  -2   0  11  267.77    9.57
   1   0 -11   29.85    4.43
  -1   0  11   29.17    3.85
   0   0 -11    3.70    2.95
   0   0  11   -0.94    2.42
  -1   0 -11   54.74    5.51
  -2   0 -11   17.55    4.07
  -3   0 -11   47.63    4.74
  -3   0 -11   56.15    6.18
  -4   0 -11   59.60    6.51
  -4   0 -11   53.74    5.18
  -5   0 -11   24.43    4.81
  -5   0 -11   34.78    4.78
  -6   0 -11    5.48    3.95
  -6   0 -11    4.80    3.53
  -7   0 -11  165.69    9.52
  -7   0 -11  178.49   10.04
  -8   0 -11  229.85   11.27
 -14   1  11   11.32    5.56
 -13   1  11   -2.21    4.00
 -12   1  11   38.66    5.99
 -11   1  11   36.70    6.07
 -10   1  11   18.42    4.66
  -9   1  11   44.03    5.65
  -8   1  11  234.22   10.11
  -7   1  11  192.20    8.99
  -6   1  11  198.69    8.92
  -5   1  11   -1.36    2.75
   4  -1 -11   10.41    3.66
  -4   1  11    9.43    3.23
   3  -1 -11  116.52    7.43
  -3   1  11  113.51    6.43
   2  -1 -11   89.88    6.91
  -2   1  11   85.19    5.93
   1  -1 -11   30.39    4.57
  -1   1  11   28.32    3.91
   0  -1 -11  222.40    9.82
   0   1  11  241.86    8.47
  -1  -1 -11   59.75    5.94
  -2  -1 -11  104.97    7.30
  -3  -1 -11   78.93    7.03
  -4  -1 -11   21.21    5.13
  -5  -1 -11  439.09   15.02
  -6  -1 -11   13.51    4.75
  -7  -1 -11   52.99    9.24
  -7  -1 -11   60.13    7.30
  -8  -1 -11  277.18   13.35
  -8  -1 -11  281.27   13.47
 -14   2  11  178.25   11.30
 -13   2  11   92.18    8.39
 -12   2  11    3.46    4.00
 -11   2  11  195.09   10.15
 -10   2  11  183.25    9.63
  -9   2  11    1.49    3.40
  -8   2  11  100.99    7.31
  -7   2  11 1373.58   28.39
  -6   2  11  139.53    7.68
  -5   2  11   36.82    4.65
   4  -2 -11  278.13   10.62
  -4   2  11  250.69    9.48
   3  -2 -11   99.70    6.89
  -3   2  11   86.83    6.17
   2  -2 -11   15.31    3.91
  -2   2  11   21.74    3.77
   1  -2 -11   43.96    5.24
  -1   2  11   45.30    4.53
   0  -2 -11  323.07   11.54
   0   2  11  293.31    9.47
  -1  -2 -11  239.94   10.28
  -2  -2 -11    2.00    3.52
  -3  -2 -11   19.47    4.83
  -4  -2 -11   50.99    6.32
  -5  -2 -11   19.45    5.44
  -6  -2 -11   65.22    7.40
  -7  -2 -11   26.60    5.94
  -8  -2 -11    5.48    4.82
 -14   3  11  285.00   13.09
 -13   3  11  186.71   11.16
 -12   3  11    0.64    3.97
 -11   3  11   19.28    4.83
 -10   3  11   21.86    4.91
  -9   3  11   17.67    4.76
  -8   3  11  219.44    9.93
  -7   3  11   19.24    4.23
  -6   3  11  293.94   10.84
   5  -3 -11  180.09    9.14
  -5   3  11  208.07    8.85
   4  -3 -11   61.94    6.22
  -4   3  11   50.02    5.09
   3  -3 -11   28.20    4.59
  -3   3  11   29.90    4.13
   2  -3 -11  104.32    7.22
  -2   3  11   95.88    6.32
   1  -3 -11   -2.04    3.43
  -1   3  11    0.18    2.70
   0  -3 -11   23.33    4.52
  -1  -3 -11    4.23    4.02
  -2  -3 -11   37.44    5.67
  -3  -3 -11   68.00    7.19
  -4  -3 -11  608.35   18.43
  -5  -3 -11   68.79    7.59
  -6  -3 -11   14.11    5.89
  -7  -3 -11  122.19   10.07
  -8  -3 -11   54.51    8.15
 -14   4  11   -4.24    4.59
 -13   4  11   55.15    7.19
 -12   4  11   75.24    7.71
 -11   4  11   56.25    6.89
 -10   4  11  154.28    9.33
  -9   4  11   44.36    5.93
  -8   4  11  131.16    8.11
  -7   4  11    5.91    3.56
  -6   4  11  363.45   12.33
   5  -4 -11   77.99    7.12
  -5   4  11   78.64    6.52
   4  -4 -11  152.88    8.62
  -4   4  11  153.08    7.60
   3  -4 -11  997.73   23.61
  -3   4  11 1028.83   21.81
   2  -4 -11  503.02   15.19
  -2   4  11  467.80   13.08
   1  -4 -11   29.72    5.06
  -1   4  11   25.28    3.98
   0  -4 -11  287.16   11.65
  -1  -4 -11  184.63    9.80
  -2  -4 -11    4.17    4.22
  -3  -4 -11  348.21   13.99
  -4  -4 -11  260.87   12.19
  -5  -4 -11   72.52    7.87
  -6  -4 -11   10.87    5.75
  -7  -4 -11   57.76    7.77
  -8  -4 -11   27.25    6.63
 -14   5  11   36.06    8.14
 -13   5  11   66.01    7.65
 -12   5  11   -4.24    4.19
 -11   5  11   45.55    6.60
 -10   5  11  269.94   12.01
  -9   5  11  285.08   12.04
  -8   5  11   31.98    5.25
  -7   5  11  112.71    8.42
   6  -5 -11   61.70    6.33
   6  -5 -11   62.46    6.57
  -6   5  11   68.91    6.42
   5  -5 -11    1.23    3.18
   5  -5 -11    5.66    3.56
  -5   5  11    0.85    3.32
   4  -5 -11  157.74    9.31
  -4   5  11  158.44    8.02
   3  -5 -11  319.42   12.52
  -3   5  11  328.75   11.20
   2  -5 -11  333.02   12.76
  -2   5  11  357.83   11.33
   1  -5 -11   36.70    5.47
  -1   5  11   23.59    3.91
   0  -5 -11   42.66    5.95
  -1  -5 -11   44.37    6.24
  -2  -5 -11   18.36    5.12
  -3  -5 -11   30.89    6.24
  -4  -5 -11    2.91    5.05
  -5  -5 -11   25.67    6.07
  -6  -5 -11    4.06    5.06
  -7  -5 -11  104.34   10.33
 -13   6  11   58.24    7.27
 -12   6  11    0.71    4.27
 -11   6  11   17.44    5.17
  10  -6 -11   48.14    6.65
 -10   6  11   48.05    6.56
   9  -6 -11  116.42    8.68
   8  -6 -11   44.10    6.13
   7  -6 -11   -1.03    3.50
   6  -6 -11    0.28    3.34
   6  -6 -11    0.14    3.38
   5  -6 -11    4.88    3.55
   5  -6 -11    4.05    3.65
   4  -6 -11   11.48    4.24
   4  -6 -11   19.10    4.43
   3  -6 -11   59.43    6.01
   3  -6 -11   57.03    6.55
   2  -6 -11  196.67   10.18
   2  -6 -11  185.82    8.63
   1  -6 -11   45.20    6.22
  -1   6  11   39.72    4.65
   0  -6 -11   86.78    7.99
  -1  -6 -11  211.68   11.11
  -2  -6 -11  187.72   10.85
  -3  -6 -11    5.76    4.68
  -4  -6 -11   56.16    7.44
  -5  -6 -11   15.22    6.11
  -6  -6 -11   87.82    9.30
  -7  -6 -11   86.38    9.66
  12  -7 -11  148.12   10.49
 -12   7  11  125.02   10.42
  11  -7 -11   87.94    8.70
  10  -7 -11  118.08    9.51
   9  -7 -11   43.14    6.30
   8  -7 -11   50.03    7.00
   7  -7 -11  376.38   14.18
   6  -7 -11  401.77   13.95
   6  -7 -11  404.46   14.86
   5  -7 -11  380.44   13.19
   5  -7 -11  381.70   14.19
   4  -7 -11   90.56    7.21
   4  -7 -11   93.17    8.33
   3  -7 -11  439.99   13.66
   3  -7 -11  466.87   15.98
   2  -7 -11   62.64    5.99
   2  -7 -11   65.49    7.56
   1  -7 -11   15.90    4.06
   1  -7 -11   21.35    5.24
   0  -7 -11  477.91   16.56
  -1  -7 -11  861.54   23.64
  -2  -7 -11  557.73   18.42
  -3  -7 -11    7.45    5.33
  -4  -7 -11   85.63    9.00
  -5  -7 -11   74.22    9.27
  -6  -7 -11   -4.66    4.83
  12  -8 -11  301.00   16.78
  11  -8 -11   58.31    7.74
  10  -8 -11   69.72    8.09
   9  -8 -11    1.36    4.06
   8  -8 -11   65.59    7.34
   7  -8 -11  286.77   12.35
   6  -8 -11  185.15    9.93
   6  -8 -11  177.88   10.11
   5  -8 -11   64.94    6.93
   5  -8 -11   59.04    7.03
   4  -8 -11   32.20    5.91
   4  -8 -11   30.07    5.31
   3  -8 -11    8.80    4.40
   3  -8 -11    2.55    3.84
   2  -8 -11  200.12    9.49
   2  -8 -11  194.40   10.81
   1  -8 -11    8.43    4.88
   0  -8 -11    2.18    4.71
  -1  -8 -11    1.82    4.59
  -2  -8 -11    1.57    5.05
  -3  -8 -11   54.17    7.86
  -4  -8 -11  194.93   12.08
  -5  -8 -11  279.83   14.93
  11  -9 -11   25.31    7.49
  10  -9 -11   98.97    9.68
   9  -9 -11  174.98   10.94
   8  -9 -11  139.50   10.61
   7  -9 -11    3.53    4.70
   6  -9 -11   49.32    6.61
   6  -9 -11   42.31    6.22
   5  -9 -11   52.30    6.80
   5  -9 -11   34.74    6.12
   4  -9 -11  143.00    9.20
   4  -9 -11  136.89   10.15
   3  -9 -11  402.13   13.88
   3  -9 -11  398.83   15.35
   2  -9 -11  856.59   21.06
   2  -9 -11  886.37   24.23
   1  -9 -11    9.45    4.77
   0  -9 -11   67.91    8.44
  -1  -9 -11  123.19   10.33
  -2  -9 -11   50.04    7.66
  -3  -9 -11  131.20   10.76
  -4  -9 -11  258.46   13.87
  -5  -9 -11  129.48   11.38
  10 -10 -11  311.54   16.94
   9 -10 -11  252.66   13.56
   8 -10 -11   10.59    5.15
   7 -10 -11   48.05    6.78
   6 -10 -11  239.21   12.14
   6 -10 -11  191.40   11.43
   5 -10 -11    0.14    4.48
   5 -10 -11    8.39    4.44
   4 -10 -11  241.49   12.49
   4 -10 -11  266.04   11.63
   3 -10 -11  553.20   18.63
   3 -10 -11  549.35   16.80
   2 -10 -11  223.61   12.16
   2 -10 -11  251.25   11.45
   1 -10 -11    1.71    4.40
   0 -10 -11   12.72    5.79
  -1 -10 -11    7.20    5.52
  -2 -10 -11   21.90    6.25
  -3 -10 -11   64.93    8.49
  -4 -10 -11   26.58    6.83
   8 -11 -11   15.86    5.69
   7 -11 -11    7.64    5.05
   6 -11 -11   -3.85    4.63
   6 -11 -11    1.62    4.38
   5 -11 -11   10.02    5.36
   5 -11 -11    7.07    4.67
   4 -11 -11   40.47    6.29
   4 -11 -11   38.79    6.91
   3 -11 -11   -0.07    4.17
   3 -11 -11   -3.41    4.32
   2 -11 -11    0.82    5.15
   1 -11 -11   38.43    7.41
   0 -11 -11   36.75    6.87
  -1 -11 -11  162.46   11.46
  -2 -11 -11   14.12    6.03
  -3 -11 -11    5.91    5.49
   7 -12 -11  305.27   14.90
   6 -12 -11  147.87   10.34
   5 -12 -11    2.57    5.10
   4 -12 -11   99.85    9.03
   4 -12 -11  115.84   10.64
   3 -12 -11  207.13   12.67
   3 -12 -11  188.99   10.98
   2 -12 -11   98.64    9.75
   1 -12 -11    0.22    4.65
   0 -12 -11   59.21    8.20
  -1 -12 -11  145.06   11.26
   5 -13 -11   36.94    6.65
   4 -13 -11    2.31    4.67
   3 -13 -11   -1.30    4.63
   2 -13 -11    4.53    5.41
   1 -13 -11    2.79    4.87
  -5 -12  12   -3.18    5.06
  -4 -12  12   67.93    9.06
  -3 -12  12  162.65   11.61
  -2 -12  12   45.68    8.23
  -1 -12  12   28.17    7.18
   0 -12  12  213.79   12.73
   1 -12  12  141.80   11.43
   2 -12  12    4.59    5.24
  -3  12 -12  164.16   11.54
  -8 -11  12   69.76   10.35
  -7 -11  12  223.11   13.14
  -6 -11  12  252.48   13.64
  -5 -11  12   16.13    6.22
  -4 -11  12   28.60    6.62
  -3 -11  12  110.49   10.01
  -2 -11  12   78.73    8.83
  -1 -11  12   29.68    6.96
   0 -11  12   27.86    6.58
   1 -11  12    4.84    5.06
  -2  11 -12    5.16    5.05
   2 -11  12    7.00    5.71
  -3  11 -12    5.54    4.67
  -4  11 -12    4.85    5.30
 -10 -10  12    5.60    5.45
  -9 -10  12    3.65    5.38
  -9 -10  12    8.57    5.04
  -8 -10  12   20.38    6.30
  -8 -10  12   25.00    6.13
  -7 -10  12    8.11    5.40
  -6 -10  12   -4.05    4.52
  -5 -10  12    3.60    5.13
  -4 -10  12   48.53    7.32
  -3 -10  12  126.24   10.17
  -2 -10  12   25.05    6.49
  -1 -10  12    5.42    4.96
   0 -10  12   54.79    7.34
   1 -10  12  185.79   11.33
  -2  10 -12   47.29    6.60
   2 -10  12   64.87    7.84
  -3  10 -12   15.56    4.92
  -4  10 -12  273.01   12.32
  -5  10 -12   88.23    8.44
 -11  -9  12   17.46    6.75
 -10  -9  12  187.59   11.63
 -10  -9  12  198.85   12.83
  -9  -9  12  114.77   10.43
  -9  -9  12   90.55    8.93
  -8  -9  12   -2.28    4.70
  -8  -9  12    3.43    4.65
  -7  -9  12   80.15    8.55
  -6  -9  12  201.33   11.44
  -5  -9  12   12.73    5.28
  -4  -9  12  202.14   11.29
  -3  -9  12  482.86   16.69
  -2  -9  12  171.20   10.59
  -1  -9  12    0.37    4.88
   0  -9  12   48.02    7.11
  -1   9 -12  208.08   10.11
   1  -9  12  196.68   11.01
  -2   9 -12   78.83    7.30
   2  -9  12   78.89    8.49
  -3   9 -12    3.51    4.01
  -4   9 -12   39.82    6.11
  -5   9 -12   11.93    5.51
  -6   9 -12    5.15    5.39
 -11  -8  12  137.17   10.84
 -11  -8  12  138.20   11.32
 -10  -8  12  320.10   14.88
 -10  -8  12  327.85   14.43
  -9  -8  12  165.83   10.75
  -9  -8  12  157.95   10.12
  -8  -8  12   -0.55    4.93
  -7  -8  12  129.42   10.18
  -6  -8  12   48.78    7.02
  -5  -8  12    0.90    4.25
  -4  -8  12   39.84    6.29
  -3  -8  12    6.13    4.35
  -2  -8  12   10.03    4.62
  -1  -8  12   17.66    5.12
   0  -8  12   -1.35    4.02
  -1   8 -12   34.50    5.31
   1  -8  12   35.68    5.88
  -2   8 -12    9.25    4.06
   2  -8  12    7.47    4.88
  -3   8 -12   58.91    6.88
  -4   8 -12  209.04   10.88
  -5   8 -12   75.03    7.62
  -6   8 -12    6.78    4.77
 -12  -7  12   68.50    8.71
 -12  -7  12   57.68    8.47
 -11  -7  12   85.45    8.78
 -11  -7  12   80.76    9.13
 -10  -7  12   36.19    6.99
  -9  -7  12   -3.26    4.79
  -8  -7  12    6.38    4.82
  -7  -7  12    1.35    4.39
  -6  -7  12   83.47    8.03
  -5  -7  12   33.61    5.79
  -4  -7  12   51.70    6.92
  -3  -7  12  431.71   14.74
  -2  -7  12  297.53   12.19
  -1  -7  12   31.04    5.43
   0   7 -12   55.89    6.05
   0  -7  12   45.39    6.44
  -1   7 -12  408.32   13.38
   1  -7  12  405.09   14.65
  -2   7 -12  136.52    8.07
  -3   7 -12  147.09    8.54
  -4   7 -12  466.76   14.94
  -5   7 -12  197.55   10.90
  -6   7 -12   18.42    5.63
  -7   7 -12    7.35    5.16
 -13  -6  12  358.38   17.10
 -13  -6  12  341.35   14.92
 -12  -6  12   31.69    7.40
 -12  -6  12   34.85    6.66
 -11  -6  12   79.80    8.32
 -10  -6  12  304.08   13.20
  -9  -6  12   83.65    8.06
  -8  -6  12  104.90    8.60
  -7  -6  12  292.83   12.32
  -6  -6  12  461.89   15.53
  -5  -6  12  150.00    9.00
  -4  -6  12  225.50   10.61
  -3  -6  12  304.87   12.10
  -2  -6  12  126.41    8.25
  -1  -6  12   25.63    5.31
   0   6 -12   32.15    4.78
   0  -6  12   36.42    5.69
  -1   6 -12   13.44    4.03
   1  -6  12    5.37    3.84
  -2   6 -12   12.84    4.25
  -3   6 -12  173.09    8.82
  -4   6 -12   96.88    7.97
  -5   6 -12   24.54    5.09
  -6   6 -12    3.25    4.46
  -7   6 -12   41.80    6.70
 -13  -5  12  107.47    9.94
 -13  -5  12  119.37   11.08
 -12  -5  12    1.40    4.75
 -12  -5  12    7.19    5.41
 -11  -5  12  120.16    9.89
 -10  -5  12   92.63    8.43
  -9  -5  12   44.43    6.36
  -8  -5  12  247.26   11.86
  -7  -5  12    2.06    3.86
  -6  -5  12   10.22    4.19
  -5  -5  12   15.15    4.84
  -4  -5  12   25.88    4.88
  -3  -5  12   10.46    4.09
  -2  -5  12  418.91   13.99
  -1  -5  12   73.20    6.69
   0   5 -12  131.34    7.04
   0  -5  12  119.77    7.71
  -1   5 -12  357.86   11.69
   1  -5  12  351.77   12.52
  -2   5 -12  172.16    8.63
  -3   5 -12    8.16    4.17
  -4   5 -12  171.72    8.96
  -5   5 -12  238.27   11.15
  -6   5 -12   38.06    6.28
  -7   5 -12  157.97   10.57
 -13  -4  12    6.29    5.61
 -13  -4  12   13.89    5.40
 -12  -4  12   20.95    5.30
 -11  -4  12   82.24    7.95
 -10  -4  12  108.36    8.77
  -9  -4  12   41.93    6.03
  -8  -4  12   33.36    5.77
  -7  -4  12  555.59   16.36
  -6  -4  12  123.05    7.96
  -5  -4  12   60.32    6.57
  -4  -4  12  127.35    7.92
  -3  -4  12  290.83   11.07
  -2  -4  12   12.53    4.14
   1   4 -12   41.75    4.78
  -1  -4  12   35.83    5.06
   0   4 -12  180.41    8.00
   0   4 -12  181.76    8.26
   0  -4  12  180.25    9.02
  -1   4 -12  153.24    7.71
  -1   4 -12  171.86    8.01
   1  -4  12  151.60    8.44
  -2   4 -12   59.44    5.49
  -3   4 -12   21.68    4.30
  -4   4 -12  120.21    8.07
  -5   4 -12    7.82    3.95
  -6   4 -12   52.65    6.40
  -7   4 -12   64.91    7.24
 -14  -3  12   46.14    7.39
 -14  -3  12   44.29    8.45
 -13  -3  12  101.78    9.36
 -12  -3  12   23.06    5.72
 -11  -3  12  280.77   12.51
 -10  -3  12  373.36   14.37
  -9  -3  12  266.53   11.62
  -8  -3  12   -1.81    3.95
  -7  -3  12  458.69   14.61
  -6  -3  12  127.23    8.41
  -5  -3  12   50.13    5.79
  -4  -3  12   73.17    6.61
  -3  -3  12  109.92    7.51
  -2  -3  12    5.45    3.59
   1   3 -12   11.09    3.34
   1   3 -12   11.71    3.41
  -1  -3  12   15.77    3.85
   0   3 -12   18.27    3.75
   0   3 -12   16.69    3.38
   0  -3  12   28.04    4.64
  -1   3 -12   53.99    5.48
  -1   3 -12   67.43    5.50
  -2   3 -12   10.87    3.81
  -2   3 -12   16.12    3.80
  -3   3 -12  163.45    8.29
  -4   3 -12   23.58    4.46
  -5   3 -12    3.91    4.05
  -6   3 -12    7.78    4.22
  -7   3 -12   72.09    7.61
  -8   3 -12    6.08    4.73
 -14  -2  12    5.05    5.30
 -14  -2  12   14.20    5.48
 -13  -2  12   11.84    5.02
 -12  -2  12   20.47    5.78
 -11  -2  12   20.97    5.66
 -10  -2  12   78.19    7.53
  -9  -2  12   33.26    5.90
  -8  -2  12  125.24    8.21
  -7  -2  12   35.09    5.26
  -6  -2  12  131.00    7.95
  -5  -2  12   78.05    6.61
  -4  -2  12  161.48    8.29
  -3  -2  12  136.53    7.51
   2   2 -12  125.01    7.17
  -2  -2  12  119.92    6.96
   1   2 -12    1.87    3.26
  -1  -2  12    4.83    3.45
   0   2 -12  369.20   14.63
   0   2 -12  414.19   12.70
   0  -2  12  384.62   12.03
  -1   2 -12  528.66   13.58
  -1   2 -12  552.23   15.23
  -2   2 -12  166.75    8.49
  -2   2 -12  159.88    7.65
  -3   2 -12  141.26    7.34
  -3   2 -12  166.20    8.66
  -4   2 -12  255.89   10.22
  -4   2 -12  245.66   11.02
  -5   2 -12  191.03    9.17
  -6   2 -12   50.94    6.49
  -7   2 -12   15.13    5.28
  -8   2 -12   40.81    6.30
 -14  -1  12  162.43   11.42
 -13  -1  12  187.80   11.04
 -12  -1  12    2.18    4.35
 -11  -1  12   19.37    5.13
 -10  -1  12   88.10    7.78
  -9  -1  12  193.96    9.95
  -8  -1  12    3.39    3.70
  -7  -1  12  191.28    9.41
  -6  -1  12  899.56   21.34
  -5  -1  12  216.24    9.46
  -4  -1  12    1.33    3.00
   3   1 -12   12.15    4.04
  -3  -1  12    9.46    3.43
   2   1 -12   31.15    4.55
  -2  -1  12   38.50    4.94
   1   1 -12   12.52    3.95
  -1  -1  12   15.12    3.49
   0   1 -12  156.59    8.47
   0  -1  12  147.55    7.47
  -1   1 -12  252.12   10.01
  -2   1 -12  124.12    7.54
  -3   1 -12   60.55    6.34
  -4   1 -12   21.65    4.93
  -4   1 -12   26.85    4.91
  -5   1 -12   57.40    6.22
  -5   1 -12   62.83    6.91
  -6   1 -12   21.43    4.66
  -7   1 -12   -0.21    4.32
  -8   1 -12   24.81    5.49
 -14   0  12  254.72   13.43
 -13   0  12  369.98   15.18
 -12   0  12   60.21    7.34
 -11   0  12   -1.16    4.45
 -10   0  12   37.65    5.92
  -9   0  12   16.55    4.76
  -8   0  12   -1.92    3.40
  -7   0  12  142.70    8.34
  -6   0  12  471.32   14.34
  -5   0  12  402.00   13.10
  -4   0  12   42.16    5.29
   3   0 -12   22.98    4.34
  -3   0  12   19.93    3.86
   2   0 -12   13.36    4.17
  -2   0  12   23.17    4.11
   1   0 -12   -1.14    3.20
  -1   0  12    1.88    3.08
   0   0 -12   40.99    5.38
   0   0  12   45.93    4.80
  -1   0 -12   87.04    6.78
  -2   0 -12   49.18    5.95
  -3   0 -12   12.23    4.12
  -4   0 -12  113.93    8.70
  -5   0 -12  122.00    9.18
  -6   0 -12   37.46    6.00
 -14   1  12   42.22    7.18
 -13   1  12   43.20    7.19
 -12   1  12    4.38    4.39
 -11   1  12   39.08    6.51
 -10   1  12  115.52    8.49
  -9   1  12  289.41   11.98
  -8   1  12  181.20    9.44
  -7   1  12   10.21    4.23
  -6   1  12  123.78    7.71
  -5   1  12   63.65    6.02
   4  -1 -12    8.72    3.63
  -4   1  12    8.02    3.30
   3  -1 -12   30.41    4.86
  -3   1  12   27.76    4.25
   2  -1 -12   12.60    3.83
  -2   1  12   19.99    3.72
   1  -1 -12   79.05    6.87
  -1   1  12   83.57    6.10
   0  -1 -12   17.25    4.18
  -1  -1 -12  409.69   13.63
  -2  -1 -12  261.18   11.42
  -3  -1 -12    1.88    4.11
  -4  -1 -12   43.17    6.10
  -5  -1 -12  224.10   11.31
  -6  -1 -12   13.30    5.47
  -7  -1 -12    2.79    4.97
 -14   2  12   41.03    6.81
 -13   2  12   27.77    5.87
 -12   2  12   -6.18    3.77
 -11   2  12  296.98   13.18
 -10   2  12  322.17   12.93
  -9   2  12  273.38   12.04
  -8   2  12    7.49    3.69
  -7   2  12  210.48    9.79
  -6   2  12  412.07   13.52
  -5   2  12   44.92    5.44
   4  -2 -12  105.15    7.42
  -4   2  12  103.05    6.83
   3  -2 -12  237.96   10.39
  -3   2  12  240.15    9.72
   2  -2 -12   50.03    6.09
  -2   2  12   36.94    4.69
   1  -2 -12   51.39    6.28
  -1   2  12   47.48    4.94
   0  -2 -12  101.40    7.52
  -1  -2 -12   89.16    7.54
  -2  -2 -12   48.33    6.15
  -3  -2 -12   -1.74    3.91
  -4  -2 -12    6.55    4.94
  -5  -2 -12    9.99    4.84
  -6  -2 -12   26.74    6.09
  -7  -2 -12    9.45    5.16
 -13   3  12   60.78    7.87
 -12   3  12   10.73    5.23
 -11   3  12   54.28    6.78
 -10   3  12  114.91    9.30
  -9   3  12  104.86    8.46
  -8   3  12   12.92    4.28
  -7   3  12    8.96    3.95
  -6   3  12   32.51    4.95
   5  -3 -12   38.62    5.58
  -5   3  12   43.74    5.34
   4  -3 -12    3.06    3.55
  -4   3  12   -1.74    3.19
   3  -3 -12    8.07    3.88
  -3   3  12    3.52    3.55
   2  -3 -12   34.11    5.36
  -2   3  12   37.41    4.76
   1  -3 -12    4.01    3.68
  -1   3  12    3.99    3.03
   0  -3 -12   47.38    6.16
  -1  -3 -12  230.06   10.94
  -2  -3 -12   55.30    6.92
  -3  -3 -12    6.24    4.59
  -4  -3 -12  164.68   10.34
  -5  -3 -12  222.71   12.45
  -6  -3 -12   98.40    9.18
  -7  -3 -12    7.13    5.82
 -13   4  12   47.37    6.90
 -12   4  12   19.02    5.41
 -11   4  12    6.19    4.83
 -10   4  12    5.75    4.40
  -9   4  12   13.98    4.64
  -8   4  12    2.29    3.58
  -7   4  12  205.98    9.97
  -6   4  12  183.42    9.17
   5  -4 -12  162.01    9.38
  -5   4  12  186.30    8.92
   4  -4 -12    8.26    3.86
  -4   4  12   10.95    3.59
   3  -4 -12  105.78    7.88
  -3   4  12  116.08    6.98
   2  -4 -12  169.03    9.40
  -2   4  12  163.09    8.15
   1  -4 -12   -2.56    3.34
  -1   4  12    1.53    3.22
   0  -4 -12  234.31   11.07
  -1  -4 -12  361.85   13.98
  -2  -4 -12    0.89    4.04
  -3  -4 -12    4.56    5.04
  -4  -4 -12  153.35   11.01
  -5  -4 -12   20.32    5.77
  -6  -4 -12   37.02    7.05
  -7  -4 -12   35.40    7.63
 -13   5  12  242.54   14.79
 -12   5  12   98.14    9.01
 -11   5  12    7.11    5.20
 -10   5  12   28.04    5.61
  -9   5  12  102.30    8.41
  -8   5  12   -0.20    3.74
  -7   5  12  181.68    9.59
   6  -5 -12  790.29   21.39
  -6   5  12  778.76   20.03
   5  -5 -12  187.61   10.20
  -5   5  12  179.47    8.99
   4  -5 -12  148.00    9.67
  -4   5  12  142.18    7.88
   3  -5 -12   87.99    8.14
  -3   5  12   71.23    6.18
   2  -5 -12  140.53    8.94
  -2   5  12  121.59    7.36
   1  -5 -12   66.74    7.25
   0  -5 -12    7.43    4.41
  -1  -5 -12   -2.83    3.85
  -2  -5 -12   29.30    6.14
  -3  -5 -12   -0.88    4.96
  -4  -5 -12  143.53   11.01
  -5  -5 -12    3.07    5.02
  -6  -5 -12   56.31    8.38
 -12   6  12  108.64    9.63
 -11   6  12   49.54    7.24
 -10   6  12   55.16    7.15
  -9   6  12    4.70    4.29
  -8   6  12    6.88    4.19
  -7   6  12  123.65    8.47
   6  -6 -12   38.94    6.10
  -6   6  12   40.00    5.95
   5  -6 -12   56.60    6.96
  -5   6  12   51.95    6.00
   4  -6 -12    8.77    4.33
  -4   6  12    7.71    3.76
   3  -6 -12  213.95   11.61
  -3   6  12  204.42    9.24
   2  -6 -12   14.17    4.95
  -2   6  12   23.02    4.32
   1  -6 -12   61.90    7.23
   0  -6 -12   11.82    4.90
  -1  -6 -12   72.48    8.13
  -2  -6 -12  297.58   13.72
  -3  -6 -12    0.36    4.59
  -4  -6 -12   41.20    7.13
  -5  -6 -12  174.32   11.81
  -6  -6 -12    5.13    5.55
 -11   7  12   28.92    6.52
  10  -7 -12  327.29   14.36
 -10   7  12  371.14   14.91
   9  -7 -12  370.18   15.05
   8  -7 -12  105.15    9.11
   7  -7 -12   63.39    7.12
   6  -7 -12  112.98    8.28
   6  -7 -12  106.00    9.36
   5  -7 -12  417.71   15.54
   5  -7 -12  424.69   14.30
   4  -7 -12  112.81    8.31
   4  -7 -12  140.04    9.51
   3  -7 -12  252.99   12.35
   3  -7 -12  268.29   10.78
   2  -7 -12  676.91   20.25
  -2   7  12  646.91   17.04
   1  -7 -12  140.78    9.86
   0  -7 -12   -3.19    4.16
  -1  -7 -12  147.12   10.57
  -2  -7 -12  132.09   10.96
  -3  -7 -12   -3.08    4.59
  -4  -7 -12  129.94   10.92
  -5  -7 -12   36.66    7.96
  11  -8 -12   38.67    8.61
  10  -8 -12  300.91   13.95
   9  -8 -12  213.89   12.37
   8  -8 -12   49.82    7.38
   7  -8 -12   -2.70    3.93
   6  -8 -12   34.23    6.09
   6  -8 -12   30.89    6.10
   5  -8 -12    4.01    4.50
   5  -8 -12    3.54    4.73
   4  -8 -12   11.84    4.81
   4  -8 -12   13.46    4.34
   3  -8 -12   30.43    6.56
   3  -8 -12   27.96    5.30
   2  -8 -12    8.02    4.80
   2  -8 -12    4.64    3.76
   1  -8 -12    5.69    4.67
   0  -8 -12   32.88    6.76
  -1  -8 -12   35.48    6.85
  -2  -8 -12   19.14    6.11
  -3  -8 -12    0.39    4.94
  -4  -8 -12   59.91    8.43
  10  -9 -12   11.46    6.44
   9  -9 -12   -4.85    4.43
   8  -9 -12    2.36    4.67
   7  -9 -12   52.35    7.11
   6  -9 -12  289.73   13.50
   6  -9 -12  290.40   13.18
   5  -9 -12  380.45   14.55
   5  -9 -12  394.60   15.84
   4  -9 -12    3.97    4.05
   4  -9 -12    5.79    5.12
   3  -9 -12   70.76    8.28
   3  -9 -12   61.35    6.61
   2  -9 -12  454.63   17.58
   1  -9 -12   27.36    6.18
   0  -9 -12   30.20    6.93
  -1  -9 -12  229.88   13.70
  -2  -9 -12  241.81   13.49
  -3  -9 -12    7.10    6.27
   9 -10 -12   68.82   13.02
   8 -10 -12    1.47    5.11
   7 -10 -12   79.99    8.41
   6 -10 -12  367.45   14.57
   6 -10 -12  362.84   15.81
   5 -10 -12  269.41   12.40
   5 -10 -12  291.43   14.43
   4 -10 -12   49.29    7.54
   4 -10 -12   72.07    7.76
   3 -10 -12  101.98    8.57
   3 -10 -12  127.65   11.23
   2 -10 -12    8.02    5.66
   1 -10 -12   -0.25    4.83
   0 -10 -12   52.80    8.44
  -1 -10 -12   16.71    5.97
  -2 -10 -12   -2.91    5.55
   7 -11 -12   -0.99    4.37
   6 -11 -12    5.35    4.90
   6 -11 -12    2.05    4.85
   5 -11 -12    0.46    4.42
   5 -11 -12    0.81    4.39
   4 -11 -12    5.09    5.08
   4 -11 -12    1.52    4.74
   3 -11 -12   92.63   10.14
   3 -11 -12   69.50   11.57
   2 -11 -12   81.72    9.53
   1 -11 -12   61.72    8.40
   0 -11 -12    4.42    5.39
  -1 -11 -12  102.73   10.64
   5 -12 -12   33.84    6.99
   5 -12 -12   35.90    7.39
   4 -12 -12   14.75    6.42
   4 -12 -12   13.02    5.62
   3 -12 -12   41.63    7.42
   2 -12 -12   56.62    8.33
   1 -12 -12   10.65    6.34
  -5 -11  13  217.39   13.78
  -4 -11  13  119.08   11.12
  -3 -11  13   16.47    6.28
  -2 -11  13    0.11    5.00
  -1 -11  13   10.40    5.94
   0 -11  13  106.38   10.69
   1 -11  13   93.86    9.88
   2 -11  13  139.10   14.40
  -9 -10  13   19.45    5.86
  -7 -10  13    1.05    5.67
  -6 -10  13   16.21    6.07
  -5 -10  13    5.69    5.96
  -4 -10  13  259.53   13.47
  -3 -10  13  517.78   18.41
  -2 -10  13  554.64   19.02
  -1 -10  13  121.71   10.29
   0 -10  13   -0.72    5.19
   1 -10  13   65.71    8.41
  -2  10 -13    0.72    4.67
  -3  10 -13   21.83    6.07
 -10  -9  13  341.22   15.79
  -9  -9  13  489.70   17.38
  -9  -9  13  493.80   18.28
  -8  -9  13  358.61   16.02
  -7  -9  13    5.56    5.86
  -6  -9  13   47.04    7.36
  -5  -9  13   98.92    9.22
  -4  -9  13   39.31    6.89
  -3  -9  13  420.94   16.49
  -2  -9  13  769.83   22.07
  -1  -9  13  143.68   10.18
   0  -9  13   17.42    5.99
  -1   9 -13   16.31    5.22
   1  -9  13   18.39    5.46
  -2   9 -13    5.26    4.54
  -3   9 -13   12.23    5.25
  -4   9 -13  105.80    8.98
 -11  -8  13   70.31    9.25
 -10  -8  13  581.59   19.55
 -10  -8  13  587.50   20.19
  -9  -8  13  558.82   18.95
  -8  -8  13  191.45   11.53
  -7  -8  13    6.43    5.20
  -6  -8  13   -2.47    4.46
  -5  -8  13   33.17    6.71
  -4  -8  13  175.56   10.76
  -3  -8  13  126.20    9.82
  -2  -8  13  143.59    9.88
  -1  -8  13   17.98    5.25
   0  -8  13   67.11    7.58
  -1   8 -13  283.36   11.87
   1  -8  13  250.26   12.16
  -2   8 -13  462.93   14.98
  -3   8 -13  102.23    8.53
  -4   8 -13   16.77    5.49
  -5   8 -13   40.65    6.41
 -11  -7  13  120.09   10.94
 -11  -7  13  125.33   10.86
 -10  -7  13  113.11    9.88
  -8  -7  13   58.49    7.52
  -7  -7  13  186.04   10.94
  -6  -7  13  760.33   21.73
  -5  -7  13 1249.65   28.94
  -4  -7  13  651.69   19.27
  -3  -7  13    1.69    4.76
  -2  -7  13   24.69    5.44
  -1  -7  13   10.19    4.76
   0   7 -13  125.11    8.35
   0  -7  13  135.27    9.74
  -1   7 -13  686.46   18.14
   1  -7  13  654.98   19.54
  -2   7 -13  716.26   18.84
  -3   7 -13  118.71    8.75
  -4   7 -13   51.77    6.80
  -5   7 -13   82.35    7.88
 -12  -6  13  485.93   18.65
 -12  -6  13  507.13   20.74
 -11  -6  13   69.31    8.07
 -10  -6  13    1.71    4.72
  -9  -6  13   39.45    6.55
  -8  -6  13  255.00   12.69
  -7  -6  13  516.36   17.31
  -6  -6  13  675.47   19.44
  -5  -6  13  864.00   22.37
  -4  -6  13  182.14   10.16
  -3  -6  13   12.03    4.71
  -2  -6  13   13.53    4.68
  -1  -6  13  149.87    9.21
   0   6 -13  256.12   10.51
   0  -6  13  226.81   11.29
  -1   6 -13  292.71   11.08
   1  -6  13  325.24   14.96
  -2   6 -13  196.62    9.32
  -3   6 -13   60.87    6.45
  -4   6 -13    8.56    4.38
  -5   6 -13   94.14    8.21
  -6   6 -13  140.57    9.66
 -12  -5  13  352.06   15.49
 -11  -5  13   63.94    7.84
 -10  -5  13    2.36    5.43
  -9  -5  13  211.57   11.86
  -8  -5  13  243.64   11.80
  -7  -5  13   71.99    7.37
  -6  -5  13    9.16    4.48
  -5  -5  13  103.57    8.35
  -4  -5  13  239.10   10.96
  -3  -5  13  389.59   13.66
  -2  -5  13  892.67   22.32
  -1  -5  13  537.43   16.45
   0   5 -13    7.80    3.68
   0  -5  13    9.15    4.64
  -1   5 -13   31.45    4.94
  -2   5 -13   15.08    4.11
  -3   5 -13   52.48    5.90
  -4   5 -13  256.89   11.03
  -5   5 -13  677.39   19.13
  -6   5 -13  369.26   14.01
 -13  -4  13   67.94    9.77
 -12  -4  13   96.10    9.08
 -11  -4  13  162.48   10.96
 -10  -4  13  427.49   15.47
  -9  -4  13  706.55   20.07
  -8  -4  13  311.83   13.16
  -7  -4  13   41.75    6.01
  -6  -4  13    3.60    3.86
  -5  -4  13   10.81    4.77
  -4  -4  13  169.31    9.21
  -3  -4  13  439.85   14.25
  -2  -4  13  717.07   18.77
   1   4 -13  229.65    9.01
  -1  -4  13  232.76   10.23
   0   4 -13   17.06    4.05
   0   4 -13   14.43    3.67
   0  -4  13   12.43    4.51
  -1   4 -13   15.49    3.94
  -2   4 -13    4.43    3.34
  -3   4 -13   64.96    6.23
  -4   4 -13   58.36    6.60
  -5   4 -13  129.15    9.23
  -6   4 -13  165.95   10.46
 -13  -3  13   10.12    5.35
 -12  -3  13   10.45    5.18
 -11  -3  13  150.59   10.12
 -10  -3  13  794.97   22.05
  -9  -3  13  941.30   24.05
  -8  -3  13  411.24   14.57
  -7  -3  13   29.66    5.29
  -6  -3  13   -0.15    3.64
  -5  -3  13   80.10    7.04
  -4  -3  13  175.41    9.04
  -3  -3  13  718.76   18.61
  -2  -3  13  319.32   11.70
   1   3 -13  174.44    8.89
  -1  -3  13  179.36    9.20
   0   3 -13   85.01    6.97
   0  -3  13   81.98    6.97
  -1   3 -13  192.74    9.28
  -2   3 -13  172.05    8.24
  -2   3 -13  164.75   10.27
  -3   3 -13   82.95    6.78
  -4   3 -13   85.07    7.24
  -5   3 -13   29.94    5.53
  -6   3 -13    2.32    4.65
 -13  -2  13    8.97    5.37
 -12  -2  13    2.06    5.03
 -11  -2  13   21.91    5.69
 -10  -2  13  223.40   11.40
  -9  -2  13  320.79   13.11
  -8  -2  13  147.27    9.24
  -7  -2  13  239.95   10.92
  -6  -2  13  544.02   16.22
  -5  -2  13  465.06   14.69
  -4  -2  13  516.23   15.22
  -3  -2  13   58.93    5.91
   2   2 -13   12.39    4.22
  -2  -2  13    6.32    3.58
   1   2 -13    6.19    3.74
  -1  -2  13    0.43    3.43
   0   2 -13  476.95   14.56
   0  -2  13  461.94   15.59
  -1   2 -13  883.74   21.19
  -2   2 -13  468.79   14.79
  -3   2 -13  241.72   10.76
 -13  -1  13  565.21   18.95
 -12  -1  13  120.23   10.23
 -11  -1  13  134.39   10.41
 -10  -1  13   29.83    5.80
  -9  -1  13    1.16    4.32
  -8  -1  13   43.85    6.13
  -7  -1  13  118.65    8.25
  -6  -1  13  677.20   18.55
  -5  -1  13  675.07   18.03
  -4  -1  13  189.45    9.12
   3   1 -13   13.66    3.99
  -3  -1  13   20.45    4.28
   2   1 -13  437.03   13.80
  -2  -1  13  400.17   12.81
   1   1 -13    7.07    3.61
  -1  -1  13    9.21    3.76
   0   1 -13  205.01    9.51
  -1   1 -13  511.50   15.43
  -2   1 -13  530.37   16.04
  -3   1 -13  257.38   11.45
  -4   1 -13  132.09    9.09
 -13   0  13  477.97   17.36
 -12   0  13  580.38   19.12
 -11   0  13  141.95   10.71
 -10   0  13    2.81    4.34
  -9   0  13   25.93    5.39
  -8   0  13   30.91    5.42
  -7   0  13   28.43    5.15
  -6   0  13   43.16    5.66
  -5   0  13   85.26    7.02
  -4   0  13  268.95   10.96
   3   0 -13  181.51    9.69
  -3   0  13  169.52    8.47
   2   0 -13  103.51    7.38
  -2   0  13   76.93    6.37
   1   0 -13  238.90   10.33
  -1   0  13  220.28    9.46
   0   0 -13  203.36    9.89
  -1   0 -13    9.75    4.09
  -2   0 -13   12.33    4.30
  -3   0 -13    0.31    3.76
  -4   0 -13  151.23   10.04
  -5   0 -13  419.59   15.57
 -13   1  13   40.93    6.88
 -12   1  13   44.07    7.03
 -11   1  13   40.35    6.96
 -10   1  13  102.86    8.74
  -9   1  13  329.50   13.26
  -8   1  13  556.71   17.01
  -7   1  13  164.24    9.74
  -6   1  13    0.13    3.39
  -5   1  13    3.75    3.47
   4  -1 -13  105.74    7.78
  -4   1  13   92.86    7.34
   3  -1 -13  696.27   18.87
  -3   1  13  688.67   17.74
   2  -1 -13 1044.17   24.24
  -2   1  13  997.06   22.46
   1  -1 -13  712.56   19.14
  -1   1  13  696.63   17.37
   0  -1 -13  113.38    8.44
  -1  -1 -13   25.79    5.14
  -2  -1 -13   93.73    8.07
  -3  -1 -13   12.65    4.99
  -4  -1 -13   68.39    7.60
  -5  -1 -13  416.76   15.97
  -6  -1 -13  259.99   12.72
 -13   2  13   12.76    5.29
 -12   2  13   46.76    7.04
 -11   2  13  167.78   10.57
 -10   2  13  534.41   17.45
  -9   2  13  935.36   23.72
  -8   2  13  605.85   17.93
  -7   2  13  138.61    8.69
  -6   2  13    7.83    3.95
  -5   2  13   79.79    6.98
   4  -2 -13  238.50   10.96
  -4   2  13  228.49    9.88
   3  -2 -13  579.24   17.19
  -3   2  13  558.04   15.81
   2  -2 -13  287.52   11.80
  -2   2  13  259.65   10.09
   1  -2 -13  206.74   10.44
   0  -2 -13   33.35    5.54
  -1  -2 -13  144.09    9.19
  -2  -2 -13  179.22   10.14
  -3  -2 -13  199.42   11.03
  -4  -2 -13   44.58    6.82
  -5  -2 -13    1.05    4.57
  -6  -2 -13    1.85    4.77
 -13   3  13    3.88    8.63
 -12   3  13   26.05    6.10
 -11   3  13  230.34   12.41
 -10   3  13  484.47   16.86
  -9   3  13  579.24   17.84
  -8   3  13  291.86   12.26
  -7   3  13  232.02   11.14
  -6   3  13   55.89    6.25
   5  -3 -13  386.86   14.29
  -5   3  13  380.18   12.98
   4  -3 -13  331.58   13.10
  -4   3  13  324.05   11.72
   3  -3 -13  207.73   10.55
  -3   3  13  194.75    9.08
   2  -3 -13   -0.63    4.16
  -2   3  13    2.42    3.29
   1  -3 -13   24.38    5.14
   0  -3 -13  208.48   11.29
  -1  -3 -13  583.84   18.11
  -2  -3 -13  467.45   16.37
  -3  -3 -13  381.04   15.04
  -4  -3 -13   13.80    5.48
  -5  -3 -13   11.78    6.10
  -6  -3 -13   15.98    6.29
 -12   4  13  249.38   12.75
 -11   4  13  287.32   13.31
 -10   4  13   72.47    7.73
  -9   4  13   49.05    6.45
  -8   4  13   49.48    6.50
  -7   4  13  456.97   15.22
  -6   4  13  654.90   18.22
   5  -4 -13  732.57   20.81
  -5   4  13  739.94   19.26
   4  -4 -13  431.57   15.28
  -4   4  13  412.02   13.77
   3  -4 -13   53.19    6.69
  -3   4  13   52.50    5.66
   2  -4 -13   33.55    6.03
  -2   4  13   35.67    5.03
   1  -4 -13   -1.37    3.81
   0  -4 -13  247.63   12.42
  -1  -4 -13  515.98   17.32
  -2  -4 -13  369.16   14.92
  -3  -4 -13  295.59   14.27
  -4  -4 -13   70.61    8.68
  -5  -4 -13   32.63    7.26
 -12   5  13  529.43   21.49
 -11   5  13  324.49   14.58
 -10   5  13   83.82    8.40
  -9   5  13   22.99    5.68
  -8   5  13    3.32    4.10
  -7   5  13  297.12   12.39
   6  -5 -13  433.66   15.81
  -6   5  13  406.14   14.21
   5  -5 -13  480.74   16.65
  -5   5  13  472.03   14.95
   4  -5 -13  473.20   16.78
  -4   5  13  443.07   14.18
   3  -5 -13  247.92   12.08
  -3   5  13  239.83   10.09
   2  -5 -13  137.20   10.17
  -2   5  13  116.03    7.88
   1  -5 -13  140.16   10.27
   0  -5 -13  162.27   10.39
  -1  -5 -13  274.21   13.07
  -2  -5 -13    9.02    5.65
  -3  -5 -13   48.87    7.53
  -4  -5 -13  151.10   11.12
  -5  -5 -13  142.47   11.93
 -11   6  13   62.57    7.94
 -10   6  13  190.38   11.20
  -9   6  13   74.25    7.88
  -8   6  13   65.82    7.23
  -7   6  13  259.72   11.83
   6  -6 -13   79.06    8.23
  -6   6  13   67.51    6.85
   5  -6 -13  130.91    9.60
  -5   6  13  120.94    8.68
   4  -6 -13  176.77   10.81
  -4   6  13  205.02    9.79
   3  -6 -13  587.89   19.10
  -3   6  13  600.00   16.89
   2  -6 -13  809.15   22.77
   1  -6 -13  354.12   14.71
   0  -6 -13  222.66   12.12
  -1  -6 -13   22.79    5.96
  -2  -6 -13   25.83    6.89
  -3  -6 -13    7.92    6.04
  -4  -6 -13   78.00    9.16
 -10   7  13  610.25   20.18
  -9   7  13 1041.26   26.88
  -8   7  13  552.13   18.02
  -7   7  13  241.43   12.09
   6  -7 -13   -0.23    4.47
  -6   7  13   -5.71    3.93
   5  -7 -13   49.60    7.62
  -5   7  13   32.71    5.48
   4  -7 -13   14.46    5.69
  -4   7  13   21.70    4.79
   3  -7 -13  193.85   11.68
  -3   7  13  207.53   10.13
   2  -7 -13  598.03   19.59
   1  -7 -13  287.54   13.64
   0  -7 -13  161.53   10.99
  -1  -7 -13   67.70    8.38
  -2  -7 -13   18.25    6.18
  -3  -7 -13  164.45   11.82
  -4  -7 -13   52.68    8.80
 -10   8  13  231.38   20.67
   9  -8 -13  381.78   16.03
   8  -8 -13  312.69   13.80
   7  -8 -13  122.04    9.74
   6  -8 -13   56.43    7.03
   6  -8 -13   56.89    8.13
   5  -8 -13   21.74    6.26
   5  -8 -13   12.90    5.22
   4  -8 -13  248.42   11.61
   4  -8 -13  220.17   12.44
   3  -8 -13   11.18    5.36
  -3   8  13    4.67    3.82
   2  -8 -13  168.81   11.24
   1  -8 -13    4.61    4.99
   0  -8 -13  118.98   10.84
  -1  -8 -13  153.67   11.48
  -2  -8 -13  341.63   15.83
  -3  -8 -13  182.63   12.64
   8  -9 -13    2.63    4.93
   7  -9 -13   77.89    8.60
   6  -9 -13  155.68   11.48
   6  -9 -13  140.74   10.38
   5  -9 -13  789.64   21.39
   5  -9 -13  755.16   23.77
   4  -9 -13  301.64   14.52
   4  -9 -13  273.42   12.56
   3  -9 -13   62.93    8.58
   3  -9 -13   51.06   10.45
   2  -9 -13    5.57    5.25
   1  -9 -13   -3.41    5.20
   0  -9 -13    7.90    5.98
  -1  -9 -13  253.65   14.07
  -2  -9 -13  411.51   17.69
   7 -10 -13   14.16    5.49
   6 -10 -13  296.56   13.56
   6 -10 -13  282.91   14.31
   5 -10 -13  299.52   15.33
   5 -10 -13  274.47   13.38
   4 -10 -13  371.34   14.44
   4 -10 -13  417.04   17.63
   3 -10 -13    3.63    5.79
   2 -10 -13   71.18    9.09
   1 -10 -13   -2.54    5.53
   0 -10 -13   80.35    9.84
  -1 -10 -13   36.18    7.62
   6 -11 -13    4.69    4.98
   6 -11 -13   -4.59    4.37
   5 -11 -13   46.69    7.02
   5 -11 -13   62.88    8.49
   4 -11 -13   15.33    5.27
   4 -11 -13   10.79    6.15
   3 -11 -13   73.30    9.84
   2 -11 -13  312.28   15.52
   1 -11 -13  181.55   13.27
   0 -11  14   16.93   11.42
  -5 -10  14    1.14    6.07
  -4 -10  14   31.72    7.00
  -3 -10  14  162.90   11.61
  -2 -10  14  344.63   15.54
  -1 -10  14   59.40    8.58
   0 -10  14   49.38    8.12
   1 -10  14   38.65    7.48
  -2  10 -14   14.60    5.25
  -7  -9  14   30.41    7.61
  -6  -9  14   16.71    6.10
  -5  -9  14  160.67   11.19
  -4  -9  14   11.61    5.71
  -3  -9  14  111.77   10.04
  -2  -9  14  417.94   16.44
  -1  -9  14  454.05   17.63
   0  -9  14  206.00   12.63
  -2   9 -14    3.16    4.76
  -3   9 -14   -3.85    4.59
  -8  -8  14  350.51   15.81
  -7  -8  14   52.67    8.09
  -6  -8  14   64.92    8.20
  -5  -8  14  119.49   10.01
  -4  -8  14  250.28   12.81
  -3  -8  14   57.20    7.60
  -2  -8  14   55.22    7.45
  -1  -8  14   10.03    5.29
   0  -8  14   82.94    9.02
  -1   8 -14  205.97   10.97
  -2   8 -14  505.65   16.58
  -3   8 -14  241.92   12.01
 -10  -7  14   28.84   11.22
  -9  -7  14   -2.09    4.83
  -8  -7  14    2.18    4.89
  -7  -7  14    1.98    5.42
  -6  -7  14  296.26   13.65
  -5  -7  14  915.17   24.30
  -4  -7  14  866.61   23.45
  -3  -7  14    7.45    5.01
  -2  -7  14   10.63    5.36
  -1  -7  14   12.18    5.50
   0  -7  14   70.98    7.86
  -1   7 -14  578.78   17.15
  -2   7 -14 1201.57   26.89
  -3   7 -14  716.29   19.82
  -4   7 -14  121.91    9.30
 -10  -6  14    3.09    5.05
  -9  -6  14    6.78    5.50
  -8  -6  14   -2.49    4.65
  -7  -6  14   20.19    5.68
  -6  -6  14  242.95   12.06
  -5  -6  14  792.43   21.77
  -4  -6  14  633.41   19.17
  -3  -6  14   73.15    7.68
  -2  -6  14  148.40   10.21
  -1  -6  14  134.34    9.94
   0   6 -14  206.88    9.68
   0  -6  14  226.71   11.57
  -1   6 -14  329.73   12.50
  -2   6 -14  275.35   11.64
  -3   6 -14  179.26   10.13
  -4   6 -14   29.47    5.64
  -5   6 -14  117.74    9.60
 -11  -5  14  111.06    9.88
 -10  -5  14  107.32    9.62
  -9  -5  14  248.92   12.52
  -8  -5  14  188.08   10.98
  -7  -5  14  252.01   12.19
  -6  -5  14   83.74    8.44
  -5  -5  14  156.37    9.74
  -4  -5  14  156.37    9.67
  -3  -5  14  155.62    9.52
  -2  -5  14  535.64   17.10
  -1  -5  14  496.01   16.34
   0   5 -14  213.40    9.82
   0  -5  14  211.90   11.22
  -1   5 -14   82.50    6.96
  -2   5 -14    7.01    4.32
  -3   5 -14   13.69    4.40
  -4   5 -14  107.39    8.39
  -5   5 -14  564.17   17.70
 -11  -4  14   28.23    6.22
 -10  -4  14  180.23   11.00
  -9  -4  14  586.14   18.58
  -8  -4  14  418.84   15.30
  -7  -4  14  358.42   13.96
  -6  -4  14   11.81    4.79
  -4  -4  14   43.16    6.39
  -3  -4  14  267.74   11.99
  -2  -4  14  800.58   20.73
  -1  -4  14  750.89   20.20
  -4   4 -14   63.40   11.14
  -5   4 -14  200.05   12.57
 -12  -3  14   42.52    8.28
 -11  -3  14    4.25    4.88
 -10  -3  14  132.31    9.84
  -9  -3  14  637.64   19.32
  -8  -3  14  287.75   12.62
  -7  -3  14  307.62   12.82
  -6  -3  14    0.05    3.74
  -5  -3  14   -4.37    3.82
  -4  -3  14   65.84    6.87
  -3  -3  14  244.93   10.88
  -2  -3  14  159.21    9.45
   1   3 -14   51.51    6.10
  -1  -3  14   47.44    6.15
   0   3 -14   81.82    6.97
  -1   3 -14  306.61   11.96
 -12  -2  14   -2.17    4.63
 -11  -2  14    4.30    4.94
 -10  -2  14   46.81    6.94
  -9  -2  14   26.61    5.79
  -8  -2  14   58.60    7.17
  -7  -2  14   22.59    5.43
  -6  -2  14   25.35    5.28
  -5  -2  14  147.24    8.98
  -4  -2  14  251.23   11.30
  -3  -2  14   54.51    6.50
   2   2 -14   50.30    6.11
  -2  -2  14   46.94    6.03
   1   2 -14  206.59    9.78
  -1  -2  14  179.23    9.50
   0   2 -14    3.71    3.65
  -1   2 -14  423.43   14.37
  -2   2 -14  314.53   12.62
 -12  -1  14  158.06   11.02
 -11  -1  14  141.63   10.24
 -10  -1  14   10.88    5.04
  -9  -1  14  177.26   11.08
  -8  -1  14  555.61   17.54
  -7  -1  14   -0.57    3.77
  -6  -1  14  151.17    9.17
  -5  -1  14  555.99   16.88
  -4  -1  14  490.38   15.25
  -3  -1  14   30.46    5.01
   2   1 -14   50.83    6.19
  -2  -1  14   48.22    5.90
   1   1 -14  197.14    9.82
  -1  -1  14  184.28    9.61
   0   1 -14    2.22    3.72
  -1   1 -14  233.18   11.29
  -2   1 -14  144.79    9.51
  -3   1 -14  268.74   12.26
  -4   1 -14   17.17    9.42
 -12   0  14   96.21    9.48
 -11   0  14  140.35   10.22
 -10   0  14   24.36    5.74
  -9   0  14    4.29    4.91
  -8   0  14    2.05    4.12
  -7   0  14  181.69   10.56
  -6   0  14  238.25   11.39
  -5   0  14  137.68    8.63
  -4   0  14    6.47    4.21
   3   0 -14   11.89    4.81
  -3   0  14   10.01    4.34
   2   0 -14   45.50    6.14
  -2   0  14   42.18    5.41
   1   0 -14  231.63   10.88
   0   0 -14  142.78    9.46
  -1   0 -14   49.05    6.51
  -2   0 -14   33.27    5.71
  -3   0 -14   19.79    5.61
  -4   0 -14    0.32    4.72
  -5   0 -14  158.13   10.52
 -12   1  14    7.13    5.27
 -11   1  14    0.82    4.70
 -10   1  14  127.79   10.04
  -9   1  14  347.63   14.04
  -8   1  14  315.05   13.14
  -7   1  14  160.84   10.09
  -6   1  14   59.60    6.98
  -5   1  14  254.26   11.10
   4  -1 -14   29.54    5.60
  -4   1  14   30.31    5.06
   3  -1 -14   35.08    5.86
  -3   1  14   35.76    5.23
   2  -1 -14 1122.51   26.40
  -2   1  14 1105.17   24.60
   1  -1 -14 1081.33   25.79
   0  -1 -14  730.84   20.42
  -1  -1 -14    3.67    4.14
  -2  -1 -14   88.17    8.23
  -3  -1 -14    6.59    4.63
  -4  -1 -14   31.38    6.25
  -5  -1 -14  274.42   13.85
 -12   2  14  136.70   12.84
 -11   2  14    1.61    4.44
 -10   2  14    9.47    5.41
  -9   2  14  139.50    9.69
  -8   2  14  306.33   13.00
  -7   2  14   93.99    8.34
  -6   2  14   10.10    4.74
  -5   2  14    5.60    4.01
   4  -2 -14  100.85    8.64
  -4   2  14   77.50    6.98
   3  -2 -14  203.40   10.70
  -3   2  14  200.93    9.91
   2  -2 -14   67.29    7.32
  -2   2  14   67.17    6.19
   1  -2 -14  298.85   12.89
   0  -2 -14  154.29   10.37
  -1  -2 -14  224.85   12.06
  -2  -2 -14  316.03   13.65
  -3  -2 -14  438.18   16.60
  -4  -2 -14  281.31   13.98
  -5  -2 -14   37.78    7.37
 -11   3  14   13.01    5.36
 -10   3  14  160.50   10.51
  -9   3  14   65.29    7.41
  -8   3  14   27.21    5.59
  -7   3  14  137.19    9.18
  -6   3  14  133.72    8.88
   5  -3 -14  397.40   15.18
  -5   3  14  414.47   14.17
   4  -3 -14  548.15   17.93
  -4   3  14  584.39   16.69
   3  -3 -14  168.45   10.28
  -3   3  14  188.32    9.67
   2  -3 -14   26.40    5.90
   1  -3 -14   10.89    4.86
   0  -3 -14   50.71    6.95
  -1  -3 -14  344.49   14.31
  -2  -3 -14  564.96   18.68
  -3  -3 -14  654.46   20.91
  -4  -3 -14  269.96   13.64
  -5  -3 -14   19.75    6.15
 -11   4  14  245.91   12.82
 -10   4  14   51.31    7.32
  -9   4  14   -1.81    4.06
  -8   4  14   14.07    5.26
  -7   4  14   88.68    8.02
  -6   4  14  573.29   17.31
   5  -4 -14  898.39   24.53
  -5   4  14  888.18   22.38
   4  -4 -14  550.29   18.28
  -4   4  14  570.93   16.52
   3  -4 -14  239.90   12.61
  -3   4  14  241.82   10.88
   2  -4 -14   31.68    6.32
   1  -4 -14    4.07    4.50
   0  -4 -14   90.14    9.15
  -1  -4 -14  224.53   12.72
  -2  -4 -14  335.54   14.74
  -3  -4 -14  209.89   12.40
  -4  -4 -14  178.02   12.54
 -11   5  14  300.16   21.46
 -10   5  14  111.25   10.01
  -9   5  14    7.02    4.74
  -8   5  14   14.80    5.48
  -7   5  14   78.88    7.78
   6  -5 -14  257.92   12.93
  -6   5  14  270.48   11.95
   5  -5 -14  278.77   13.69
  -5   5  14  266.14   11.64
   4  -5 -14  177.27   11.06
  -4   5  14  193.06    9.84
   3  -5 -14  171.92   10.88
  -3   5  14  228.21   10.12
   2  -5 -14  202.37   11.72
   1  -5 -14  174.94   11.04
   0  -5 -14  145.79   10.55
  -1  -5 -14  209.17   12.20
  -2  -5 -14    8.49    5.47
  -3  -5 -14   16.30    6.25
  -4  -5 -14   41.06    8.19
 -10   6  14  123.48   10.11
  -9   6  14  114.36   10.06
  -8   6  14  104.79    9.07
  -7   6  14  150.04    9.78
   6  -6 -14   20.50    6.21
  -6   6  14   25.87    5.81
   5  -6 -14    1.42    4.47
  -5   6  14    4.60    4.28
   4  -6 -14   20.60    5.68
  -4   6  14   28.78    5.54
   3  -6 -14   29.36    6.35
  -3   6  14   27.99    6.08
   2  -6 -14  331.84   14.82
   1  -6 -14  496.60   18.11
   0  -6 -14  377.37   15.93
  -1  -6 -14   70.80    8.48
  -2  -6 -14   14.45    6.08
  -3  -6 -14   23.70    6.68
  -9   7  14  217.91   12.05
  -8   7  14  132.26    9.72
  -7   7  14   93.80    8.56
   6  -7 -14   -0.26    4.31
  -6   7  14   -0.16    3.89
   5  -7 -14    6.84    5.57
  -5   7  14   14.09    4.64
   4  -7 -14   -3.84    4.19
  -4   7  14    5.83    4.09
   3  -7 -14    2.27    4.75
   2  -7 -14  195.67   12.07
   1  -7 -14  181.82   11.93
   0  -7 -14  101.39    9.90
  -1  -7 -14   22.07    6.77
  -2  -7 -14   26.84    7.43
  -8   8  14   90.98    8.99
  -7   8  14   97.95    9.00
   6  -8 -14   36.36    7.16
  -6   8  14   46.57    6.74
   5  -8 -14   67.26    9.23
  -5   8  14   71.37    7.85
   4  -8 -14   86.75    9.48
  -4   8  14   84.34    7.80
   3  -8 -14   14.11    5.99
   2  -8 -14   12.92    6.27
   1  -8 -14   -1.34    4.83
   0  -8 -14    6.82    6.16
  -1  -8 -14   44.99    7.79
   7  -9 -14   32.09    6.60
  -7   9  14   28.35    6.06
   6  -9 -14   10.65    5.20
   6  -9 -14    6.31    5.82
  -6   9  14   12.25    4.92
   5  -9 -14  231.28   13.57
  -5   9  14  235.11   11.74
   4  -9 -14  279.15   15.22
  -4   9  14  278.91   14.58
   3  -9 -14   18.02    6.19
   2  -9 -14   -3.34    4.86
   1  -9 -14   44.78    7.93
   0  -9 -14   15.35    6.33
   6 -10 -14    1.28    4.68
   6 -10 -14    2.74    4.88
   5 -10 -14   63.80    9.44
   5 -10 -14   47.20    7.44
   4 -10 -14  146.38   12.40
   3 -10 -14   -5.68    5.66
   2 -10 -14   38.84    7.65
  -4  -9  15  232.55   13.12
  -3  -9  15   32.65    7.24
  -2  -9  15   75.69    8.96
  -1  -9  15  244.36   13.43
   0  -9  15  105.22   10.08
  -6  -8  15    7.65    6.18
  -5  -8  15   -2.93    4.93
  -4  -8  15    4.43    5.12
  -3  -8  15   25.57    6.88
  -2  -8  15   30.56    6.79
  -1  -8  15   -3.69    5.25
   0  -8  15   29.88    8.23
  -1   8 -15    4.23    4.31
  -2   8 -15   38.61    6.57
  -8  -7  15  126.14   12.37
  -7  -7  15  174.04   11.65
  -6  -7  15   -1.81    5.45
  -5  -7  15  156.07   11.52
  -4  -7  15  270.00   13.32
  -3  -7  15    1.65    4.97
  -2  -7  15   21.80    5.89
  -1  -7  15  192.94   11.31
  -1   7 -15   43.98    6.38
  -2   7 -15  168.30    9.83
  -9  -6  15   39.32    8.23
  -8  -6  15  204.84   12.11
  -7  -6  15   51.44    7.38
  -6  -6  15    0.39    4.54
  -5  -6  15   85.62    9.13
  -4  -6  15   84.76    8.61
  -3  -6  15    2.45    4.59
  -2  -6  15   42.14    7.01
  -1  -6  15   20.24    5.91
  -2   6 -15    7.34    7.24
  -3   6 -15   13.53    5.55
  -9  -5  15   11.68    5.55
  -8  -5  15   -0.89    4.71
  -7  -5  15    5.69    4.90
  -6  -5  15    0.00    4.43
  -5  -5  15   43.78    7.05
  -4  -5  15   50.20    6.78
  -3  -5  15   35.56    6.16
  -2  -5  15   47.43    7.08
  -1  -5  15  213.34   11.08
 -10  -4  15  128.70   10.55
  -9  -4  15    0.46    4.46
  -8  -4  15   25.61    6.05
  -7  -4  15  257.24   12.60
  -6  -4  15   19.57    5.97
  -5  -4  15  154.01   10.44
  -4  -4  15  325.45   13.35
  -3  -4  15  106.40    8.78
  -2  -4  15   81.97    7.86
  -1  -4  15  252.72   11.54
 -10  -3  15   27.50    6.35
  -9  -3  15   19.64    5.69
  -8  -3  15    0.55    4.48
  -7  -3  15   40.93    6.56
  -6  -3  15   20.87    5.68
  -5  -3  15  134.50    9.95
  -4  -3  15  161.09    9.83
  -3  -3  15    4.63    4.11
  -2  -3  15   19.50    5.29
   1   3 -15    2.29    3.78
   0   3 -15    4.35    4.34
 -11  -2  15   14.76   10.11
 -10  -2  15   -4.83    4.38
  -9  -2  15    9.10    5.54
  -8  -2  15  253.37   12.49
  -7  -2  15    4.79    4.68
  -6  -2  15   -0.04    4.60
  -5  -2  15   78.60    7.67
  -4  -2  15   81.61    7.53
  -3  -2  15   34.66    5.62
  -2  -2  15   26.70    5.55
   1   2 -15  326.99   13.20
   0   2 -15  307.72   12.45
  -1   2 -15   -2.91    3.65
 -11  -1  15  347.44   17.61
 -10  -1  15  119.42   10.34
  -9  -1  15   22.00    5.80
  -8  -1  15  682.02   20.28
  -7  -1  15   98.11    8.69
  -6  -1  15   -0.33    3.81
  -5  -1  15  198.89   10.48
  -4  -1  15  270.44   12.11
  -3  -1  15   22.68    5.29
   2   1 -15   19.09    5.30
  -2  -1  15   23.69    5.18
   1   1 -15  163.74   10.18
   0   1 -15  113.99    9.07
  -1   1 -15    2.63    3.95
  -2   1 -15   34.61    6.45
  -3   1 -15    2.71    5.02
 -11   0  15   42.16    8.54
 -10   0  15   16.79    5.81
  -9   0  15   55.23    7.38
  -8   0  15  145.49   10.00
  -7   0  15   10.67    4.85
  -6   0  15   -1.32    4.33
  -5   0  15    2.43    4.11
  -4   0  15   36.53    6.08
   3   0 -15  127.10    9.64
  -3   0  15  118.43    8.87
   2   0 -15    6.01    4.38
  -2   0  15   -0.11    4.03
   1   0 -15  122.85    9.00
   0   0 -15  149.24    9.59
  -1   0 -15   25.55    5.62
  -2   0 -15  212.43   11.87
  -3   0 -15   91.38    8.59
  -4   0 -15   42.40    7.36
 -11   1  15  214.91   14.51
 -10   1  15  129.74   10.70
  -9   1  15    1.07    4.94
  -8   1  15   72.72    7.84
  -7   1  15  318.08   13.73
  -6   1  15   21.29    5.60
  -5   1  15  278.58   11.99
   4  -1 -15  406.88   15.64
  -4   1  15  419.04   14.73
   3  -1 -15  294.42   13.39
  -3   1  15  313.71   12.47
   2  -1 -15   11.25    5.41
   1  -1 -15  312.56   13.31
   0  -1 -15  268.65   12.64
  -1  -1 -15    4.60    4.68
  -2  -1 -15  164.03   11.16
  -3  -1 -15   29.80    6.66
  -4  -1 -15    0.99    5.35
 -10   2  15   30.27    6.38
  -9   2  15    3.15    4.71
  -8   2  15   78.14    8.07
  -7   2  15  109.91    9.02
  -6   2  15    4.54    4.24
  -5   2  15  148.99    9.80
   4  -2 -15  133.41    9.62
  -4   2  15  121.53    9.04
   3  -2 -15  138.34    9.71
  -3   2  15  148.44    9.24
   2  -2 -15    0.01    4.31
   1  -2 -15   -1.06    4.71
   0  -2 -15   -1.87    4.25
  -1  -2 -15   -3.37    4.75
  -2  -2 -15    1.46    4.67
  -3  -2 -15   10.43    5.43
 -10   3  15    4.22    5.06
  -9   3  15   48.45    7.25
  -8   3  15  100.21    8.97
  -7   3  15   56.81    7.52
  -6   3  15   -0.42    4.35
   5  -3 -15   34.45    6.82
  -5   3  15   34.13    5.67
   4  -3 -15  104.76    9.45
  -4   3  15   98.67    8.14
   3  -3 -15   44.17    6.84
  -3   3  15   46.75    6.28
   2  -3 -15    1.66    4.91
   1  -3 -15  213.13   11.93
   0  -3 -15  331.13   14.52
  -1  -3 -15   44.99    7.62
  -2  -3 -15   25.00    6.46
  -3  -3 -15  106.78   10.16
 -10   4  15    8.71    6.17
  -9   4  15   84.58    8.56
  -8   4  15  261.55   12.61
  -7   4  15  182.30   11.12
  -6   4  15    1.10    4.01
   5  -4 -15   28.90    6.15
  -5   4  15   23.60    5.51
   4  -4 -15   85.71    8.88
  -4   4  15   95.06    8.35
   3  -4 -15   15.15    5.54
   2  -4 -15   21.31    6.28
   1  -4 -15  108.31   10.08
   0  -4 -15   16.02    5.74
  -1  -4 -15   16.51    5.87
  -2  -4 -15   27.92    7.13
  -3  -4 -15   16.60    6.33
  -9   5  15   55.15    7.96
  -8   5  15  158.74   10.47
  -7   5  15  129.27   10.15
  -6   5  15   -3.76    4.36
   5  -5 -15   -4.29    4.87
  -5   5  15    4.67    4.43
   4  -5 -15   -1.74    4.29
  -4   5  15    6.84    4.53
   3  -5 -15   -3.75    4.89
   2  -5 -15   -2.83    4.63
   1  -5 -15   39.15    7.18
   0  -5 -15    2.84    5.11
  -1  -5 -15    8.31    6.03
  -2  -5 -15    3.84    6.21
  -8   6  15   73.81    8.29
  -7   6  15   69.38    7.75
   6  -6 -15    9.70    5.37
  -6   6  15   15.78    5.09
   5  -6 -15   47.30    7.81
  -5   6  15   52.89    6.80
   4  -6 -15  324.90   15.38
  -4   6  15  362.21   13.99
   3  -6 -15  308.01   14.77
   2  -6 -15    9.20    5.88
   1  -6 -15  167.35   12.39
   0  -6 -15  292.48   14.74
  -1  -6 -15   40.30    7.88
  -8   7  15   83.49   10.29
  -7   7  15   79.33    8.36
   6  -7 -15   13.61    6.04
  -6   7  15   19.93    5.80
   5  -7 -15   26.06    6.61
  -5   7  15   15.62    5.55
   4  -7 -15   96.61   10.12
   3  -7 -15   86.72    9.64
   2  -7 -15   -3.57    5.47
   1  -7 -15   46.38    8.28
   0  -7 -15   21.73    6.90
  -7   8  15    5.01    5.62
   6  -8 -15   15.30    6.16
  -6   8  15   10.40    5.67
   5  -8 -15   17.31    6.20
  -5   8  15    7.07    5.21
   4  -8 -15    9.68    5.84
   3  -8 -15   -0.11    5.12
   2  -8 -15    2.97    5.61
   1  -8 -15   15.73    6.29
   6  -9 -15   44.78    8.41
   5  -9 -15   15.50    6.43
  -5   9  15   23.08    5.99
   4  -9 -15   78.46    9.87
  -3  -8  16   13.45    7.15
  -2  -8  16   39.70    8.03
  -1  -8  16    0.30    5.99
  -5  -7  16   11.75    6.37
  -4  -7  16  124.40   10.70
  -3  -7  16   64.47    8.36
  -2  -7  16    5.86    5.68
  -1  -7  16   94.72   11.08
  -7  -6  16  116.64   12.12
  -6  -6  16   45.09    7.50
  -5  -6  16   13.78    5.90
  -4  -6  16   15.21    6.09
  -3  -6  16   17.46    6.29
  -2  -6  16    1.63    4.82
  -7  -5  16   -0.48    5.58
  -6  -5  16    2.10    5.04
  -5  -5  16   15.24    5.72
  -4  -5  16  142.65   10.97
  -3  -5  16  115.18   10.22
  -2  -5  16   55.57    7.67
  -8  -4  16   60.45    8.43
  -7  -4  16  172.07   11.17
  -6  -4  16   86.00    8.71
  -5  -4  16  149.38   10.30
  -4  -4  16  649.84   19.76
  -3  -4  16  372.43   14.65
  -2  -4  16   34.99    6.80
  -9  -3  16    3.96    5.80
  -8  -3  16    4.33    5.00
  -7  -3  16   61.57    7.72
  -6  -3  16    0.08    5.07
  -5  -3  16   23.76    6.32
  -4  -3  16   75.61    7.86
  -3  -3  16    5.30    4.58
  -2  -3  16   -1.17    4.10
  -9  -2  16   -6.78    4.89
  -8  -2  16   22.72    6.05
  -7  -2  16   62.80    7.65
  -6  -2  16    9.41    5.39
  -5  -2  16   -3.60    4.31
  -4  -2  16   47.51    6.55
  -3  -2  16  123.31    9.56
   1   2 -16  122.07    9.66
   0   2 -16  242.47   12.20
  -1   2 -16  136.46   11.91
  -9  -1  16   -0.10    4.87
  -8  -1  16  344.75   15.20
  -7  -1  16  185.24   11.81
  -6  -1  16  102.37    9.08
  -5  -1  16   -4.69    3.87
  -4  -1  16  134.17    9.70
  -3  -1  16   87.16    8.24
   2   1 -16   -0.19    4.30
   1   1 -16   35.66    6.60
   0   1 -16   49.42    7.22
  -1   1 -16   32.76    6.32
  -2   1 -16   11.94    5.61
  -9   0  16    8.97    5.67
  -8   0  16   23.33    5.95
  -7   0  16    5.51    4.88
  -6   0  16   11.84    5.00
  -5   0  16   31.92    5.93
  -4   0  16   64.55    7.61
   3   0 -16  124.12    9.52
  -3   0  16  112.84    8.98
   2   0 -16   24.70    6.02
   1   0 -16   40.15    6.50
   0   0 -16   74.10    8.53
  -1   0 -16   18.29    6.02
  -2   0 -16   50.77    7.81
  -9   1  16   19.87    5.98
  -8   1  16   36.84    7.07
  -7   1  16  299.34   13.99
  -6   1  16   76.70    7.97
  -5   1  16   28.59    6.09
  -4   1  16  309.54   12.84
   3  -1 -16  464.15   16.91
  -3   1  16  460.35   15.87
   2  -1 -16   70.94    8.51
   1  -1 -16    3.64    5.25
   0  -1 -16   10.32    5.63
  -1  -1 -16    7.33    5.31
  -2  -1 -16   84.41    9.29
  -9   2  16   35.96    7.08
  -8   2  16   20.19    5.73
  -7   2  16  179.46   10.98
  -6   2  16   56.83    7.49
  -5   2  16    6.45    4.35
   4  -2 -16  111.61    9.98
  -4   2  16   98.41    8.68
   3  -2 -16  204.50   11.83
   2  -2 -16   21.02    6.06
   1  -2 -16    2.56    4.87
   0  -2 -16   32.29    6.72
  -1  -2 -16   58.12    8.51
  -2  -2 -16   36.30    7.43
  -9   3  16    0.96    5.57
  -8   3  16   20.70    5.77
  -7   3  16   50.82    7.15
  -6   3  16   58.53    7.31
  -5   3  16   12.53    4.74
   4  -3 -16   25.70    6.74
  -4   3  16   30.07    5.66
   3  -3 -16   47.12    7.46
   2  -3 -16   78.16    9.24
   1  -3 -16   14.37    6.11
   0  -3 -16  208.11   12.60
  -1  -3 -16  148.27   11.80
  -8   4  16   98.86    9.88
  -7   4  16  335.18   14.44
  -6   4  16  170.93   10.52
   5  -4 -16    9.51    6.06
  -5   4  16   -1.57    4.65
   4  -4 -16   58.71    8.55
  -4   4  16   64.84    7.22
   3  -4 -16   61.73    8.34
   2  -4 -16   62.77    8.40
   1  -4 -16   23.45    6.53
   0  -4 -16  105.31   10.48
  -1  -4 -16  100.38   10.17
  -7   5  16   45.82    7.33
  -6   5  16   -5.66    4.55
   5  -5 -16    4.84    5.22
  -5   5  16    3.25    4.64
   4  -5 -16    9.12    5.54
   3  -5 -16   58.65    8.72
   2  -5 -16    1.12    4.95
   1  -5 -16    5.12    5.55
   0  -5 -16    8.49    5.92
  -7   6  16   71.61    8.34
   6  -6 -16  114.76   11.13
  -6   6  16   96.89    9.02
   5  -6 -16   -2.05    4.90
  -5   6  16    3.62    4.82
   4  -6 -16  169.91   12.91
   3  -6 -16  274.77   14.72
   2  -6 -16   36.23    7.52
   1  -6 -16   25.35    7.23
   6  -7 -16  190.71   13.03
  -6   7  16  172.13   11.25
   5  -7 -16   12.13    5.96
  -5   7  16   -6.54    3.92
   4  -7 -16  108.10   11.57
   3  -7 -16  230.07   13.92
  -3  -6  17   49.73    7.83
  -2  -6  17    2.75    6.62
  -5  -5  17   79.57    9.09
  -4  -5  17    6.78    5.92
  -3  -5  17   -7.28    5.12
  -6  -4  17  477.64   18.08
  -5  -4  17  112.94    9.92
  -4  -4  17   25.09    6.36
  -3  -4  17    0.79    4.81
  -6  -3  17  230.32   13.30
  -5  -3  17  128.62   10.53
  -4  -3  17   25.62    6.13
  -3  -3  17   77.97    8.93
  -7  -2  17   23.99    6.72
  -6  -2  17    5.68    4.91
  -5  -2  17   -4.10    4.14
  -4  -2  17   49.84    7.37
  -3  -2  17  267.49   12.66
   1   2 -17   67.13    7.84
   0   2 -17    5.76    5.34
  -7  -1  17   58.90    7.94
  -6  -1  17    9.41    5.79
  -5  -1  17   -0.31    5.04
  -4  -1  17   92.29    8.62
   2   1 -17   96.09    9.66
   1   1 -17   17.16    5.98
   0   1 -17    9.37    5.14
  -7   0  17   72.76    8.68
  -6   0  17   49.85    7.27
  -5   0  17   90.39    8.73
  -4   0  17    4.47    5.07
   2   0 -17   25.03    6.64
   1   0 -17   24.20    6.71
   0   0 -17  105.27    9.85
  -7   1  17  238.01   13.21
  -6   1  17  457.13   16.73
  -5   1  17  201.43   11.39
  -4   1  17   38.52    6.80
   3  -1 -17   24.60    6.89
   2  -1 -17   18.22    6.32
   1  -1 -17   70.28    9.04
   0  -1 -17  352.50   15.51
  -7   2  17  307.59   14.55
  -6   2  17  315.07   14.00
  -5   2  17  266.35   13.25
   4  -2 -17  119.80   10.95
  -4   2  17  119.39   11.90
   3  -2 -17   51.11    7.83
   2  -2 -17   77.28    8.94
   1  -2 -17  106.45   10.32
  -7   3  17    4.69    6.13
  -6   3  17   -7.25    4.07
  -5   3  17    7.09    5.24
   4  -3 -17   54.12    8.06
   3  -3 -17  207.58   12.80
   2  -3 -17  292.75   14.75
   1  -3 -17   47.43    7.90
  -6   4  17   21.43    6.10
   5  -4 -17    8.14    5.55
  -5   4  17    1.18    4.43
   4  -4 -17   43.20    8.01
   3  -4 -17  157.62   11.81
   2  -4 -17  221.45   13.56
   5  -5 -17   53.57    8.58
  -5   5  17   74.65   10.05
   4  -5 -17   68.02    9.59
  -4  -2  18  121.75   10.59
  -5  -1  18   12.22    7.07
  -4  -1  18  119.52   11.02
  -5   0  18  379.15   17.75
  -5   1  18  556.76   19.27
   0   0   0    0.00    0.00


 _exptl_absorpt_process_details 'SADABS 2014/5'
 _exptl_absorpt_correction_type   multi-scan
 _exptl_absorpt_correction_T_max  0.7456
 _exptl_absorpt_correction_T_min  0.5551
 _exptl_special_details
)
 The following wavelength and cell were deduced by SADABS from the
 direction cosines etc. They are given here for emergency use only:
 CELL 0.71064   12.137   13.511   13.906   92.687  107.562   93.632
)

_computing_structure_solution     'SHELXT 2014/5 (Sheldrick, 2014)'
;
_shelx_hkl_checksum              94737
_shelx_fab_file
;
    2    0    0    -93.53      0.00
    3    0    0      5.06      0.00
    4    0    0     46.42      0.00
    5    0    0      7.17      0.00
    6    0    0    -32.44      0.00
    7    0    0     -5.70      0.00
    8    0    0     18.56      0.00
    9    0    0      4.29      0.00
   10    0    0    -10.82      0.00
   11    0    0     -1.70      0.00
   12    0    0      5.16      0.00
   13    0    0      1.83      0.00
   14    0    0     -1.53      0.00
   15    0    0     -1.01      0.00
  -15    1    0      0.30      0.00
  -14    1    0     -2.34      0.00
  -13    1    0     -3.13      0.00
  -12    1    0      3.08      0.00
  -11    1    0      4.47      0.00
  -10    1    0     -3.63      0.00
   -9    1    0     -7.32      0.00
   -8    1    0      3.49      0.00
   -7    1    0     14.84      0.00
   -6    1    0     -2.91      0.00
   -5    1    0    -27.99      0.00
   -4    1    0     11.24      0.00
   -3    1    0     49.54      0.00
   -2    1    0    -30.56      0.00
    0    1    0      0.10      0.00
    2    1    0     28.11      0.00
    3    1    0    -45.59      0.00
    4    1    0     -6.85      0.00
    5    1    0     31.09      0.00
    6    1    0     -0.14      0.00
    7    1    0    -14.04      0.00
    8    1    0     -1.46      0.00
    9    1    0      6.24      0.00
   10    1    0      2.45      0.00
   11    1    0     -3.37      0.00
   12    1    0     -2.97      0.00
   13    1    0      2.12      0.00
   14    1    0      1.17      0.00
  -15    2    0      0.12      0.00
  -14    2    0      2.77      0.00
  -13    2    0      0.46      0.00
  -12    2    0     -4.19      0.00
  -11    2    0     -2.57      0.00
  -10    2    0      6.12      0.00
   -9    2    0      3.30      0.00
   -8    2    0     -7.00      0.00
   -7    2    0     -6.50      0.00
   -6    2    0      8.90      0.00
   -5    2    0      8.91      0.00
   -4    2    0    -10.04      0.00
   -3    2    0    -23.66      0.00
   -2    2    0     25.49      0.00
   -1    2    0     32.66      0.00
    0    2    0    -55.19      0.00
    1    2    0      9.73      0.00
    2    2    0     33.35      0.00
    3    2    0    -17.70      0.00
    4    2    0    -15.10      0.00
    5    2    0      5.28      0.00
    6    2    0     14.48      0.00
    7    2    0     -3.57      0.00
    8    2    0    -12.76      0.00
    9    2    0      4.29      0.00
   10    2    0      9.42      0.00
   11    2    0     -4.34      0.00
   12    2    0     -5.39      0.00
   13    2    0      1.97      0.00
   14    2    0      1.95      0.00
  -15    3    0     -0.87      0.00
  -14    3    0      0.44      0.00
  -13    3    0      0.56      0.00
  -12    3    0     -0.24      0.00
  -11    3    0     -0.88      0.00
  -10    3    0      0.02      0.00
   -9    3    0     -1.27      0.00
   -8    3    0      2.93      0.00
   -7    3    0      1.70      0.00
   -6    3    0     -3.22      0.00
   -5    3    0      0.17      0.00
   -4    3    0     -0.58      0.00
   -3    3    0     -0.57      0.00
   -2    3    0     15.83      0.00
   -1    3    0    -20.65      0.00
    0    3    0    -13.47      0.00
    1    3    0     26.82      0.00
    2    3    0      3.06      0.00
    3    3    0     -5.35      0.00
    4    3    0    -14.45      0.00
    5    3    0     -1.78      0.00
    6    3    0     19.51      0.00
    7    3    0     -0.05      0.00
    8    3    0    -13.00      0.00
    9    3    0      0.24      0.00
   10    3    0      7.11      0.00
   11    3    0      2.02      0.00
   12    3    0     -3.75      0.00
   13    3    0     -2.49      0.00
   14    3    0      1.64      0.00
  -14    4    0      1.15      0.00
  -13    4    0      0.18      0.00
  -12    4    0     -3.49      0.00
  -11    4    0     -1.03      0.00
  -10    4    0      5.43      0.00
   -9    4    0      0.77      0.00
   -8    4    0     -8.33      0.00
   -7    4    0     -0.76      0.00
   -6    4    0     11.20      0.00
   -5    4    0      0.99      0.00
   -4    4    0    -14.20      0.00
   -3    4    0      4.05      0.00
   -2    4    0      9.87      0.00
   -1    4    0    -10.52      0.00
    0    4    0      8.68      0.00
    1    4    0     -6.44      0.00
    2    4    0     -4.00      0.00
    3    4    0     14.16      0.00
    4    4    0     -3.29      0.00
    5    4    0     -6.50      0.00
    6    4    0     -2.26      0.00
    7    4    0      2.79      0.00
    8    4    0      6.67      0.00
    9    4    0     -5.22      0.00
   10    4    0     -5.65      0.00
   11    4    0      4.80      0.00
   12    4    0      3.44      0.00
   13    4    0     -2.53      0.00
   14    4    0     -1.19      0.00
  -14    5    0     -2.12      0.00
  -13    5    0      5.05      0.00
  -12    5    0      3.74      0.00
  -11    5    0     -6.96      0.00
  -10    5    0     -6.39      0.00
   -9    5    0      8.50      0.00
   -8    5    0      7.90      0.00
   -7    5    0     -7.98      0.00
   -6    5    0    -11.95      0.00
   -5    5    0      5.43      0.00
   -4    5    0     18.81      0.00
   -3    5    0      1.01      0.00
   -2    5    0    -30.75      0.00
   -1    5    0      0.14      0.00
    0    5    0     30.10      0.00
    1    5    0     -3.73      0.00
    2    5    0    -14.23      0.00
    3    5    0     -6.48      0.00
    4    5    0     10.76      0.00
    5    5    0      9.25      0.00
    6    5    0    -12.15      0.00
    7    5    0     -1.42      0.00
    8    5    0      7.34      0.00
    9    5    0     -1.58      0.00
   10    5    0     -1.63      0.00
   11    5    0     -0.72      0.00
   12    5    0      0.32      0.00
   13    5    0      1.29      0.00
   14    5    0     -0.75      0.00
  -14    6    0     -1.93      0.00
  -13    6    0     -2.09      0.00
  -12    6    0      3.23      0.00
  -11    6    0      5.91      0.00
  -10    6    0     -5.84      0.00
   -9    6    0     -8.49      0.00
   -8    6    0      9.17      0.00
   -7    6    0      9.13      0.00
   -6    6    0    -11.65      0.00
   -5    6    0     -8.78      0.00
   -4    6    0     13.07      0.00
   -3    6    0      7.65      0.00
   -2    6    0    -11.28      0.00
   -1    6    0     -1.47      0.00
    0    6    0     -2.42      0.00
    1    6    0      3.09      0.00
    2    6    0      8.07      0.00
    3    6    0     -3.79      0.00
    4    6    0     -2.17      0.00
    5    6    0     -5.12      0.00
    6    6    0      2.72      0.00
    7    6    0      8.76      0.00
    8    6    0     -6.44      0.00
    9    6    0     -3.48      0.00
   10    6    0      4.40      0.00
   11    6    0      0.86      0.00
   12    6    0     -1.81      0.00
   13    6    0     -0.73      0.00
  -14    7    0      2.70      0.00
  -13    7    0     -0.25      0.00
  -12    7    0     -3.38      0.00
  -11    7    0      0.96      0.00
  -10    7    0      2.71      0.00
   -9    7    0     -2.09      0.00
   -8    7    0     -1.83      0.00
   -7    7    0      1.28      0.00
   -6    7    0      2.47      0.00
   -5    7    0     -2.12      0.00
   -4    7    0     -1.47      0.00
   -3    7    0      2.22      0.00
   -2    7    0      3.41      0.00
   -1    7    0     -3.57      0.00
    0    7    0     -6.04      0.00
    1    7    0      6.95      0.00
    2    7    0      1.26      0.00
    3    7    0     -1.36      0.00
    4    7    0     -1.36      0.00
    5    7    0     -3.85      0.00
    6    7    0      5.77      0.00
    7    7    0      0.03      0.00
    8    7    0     -4.56      0.00
    9    7    0      3.38      0.00
   10    7    0     -0.25      0.00
   11    7    0     -0.83      0.00
   12    7    0      1.23      0.00
   13    7    0     -0.39      0.00
  -13    8    0      0.45      0.00
  -12    8    0      2.26      0.00
  -11    8    0     -0.82      0.00
  -10    8    0     -0.88      0.00
   -9    8    0      0.04      0.00
   -8    8    0     -2.01      0.00
   -7    8    0      1.22      0.00
   -6    8    0      5.95      0.00
   -5    8    0     -5.02      0.00
   -4    8    0     -9.68      0.00
   -3    8    0      9.27      0.00
   -2    8    0     14.83      0.00
   -1    8    0    -14.32      0.00
    0    8    0    -15.94      0.00
    1    8    0     13.46      0.00
    2    8    0     15.03      0.00
    3    8    0     -8.08      0.00
    4    8    0    -15.22      0.00
    5    8    0      7.08      0.00
    6    8    0     11.53      0.00
    7    8    0     -7.65      0.00
    8    8    0     -3.35      0.00
    9    8    0      2.70      0.00
   10    8    0      0.64      0.00
   11    8    0      0.18      0.00
   12    8    0     -0.83      0.00
  -13    9    0     -0.12      0.00
  -12    9    0      0.75      0.00
  -11    9    0     -0.21      0.00
  -10    9    0      0.09      0.00
   -9    9    0      1.04      0.00
   -8    9    0     -1.61      0.00
   -7    9    0     -1.82      0.00
   -6    9    0      2.15      0.00
   -5    9    0      3.44      0.00
   -4    9    0     -3.54      0.00
   -3    9    0     -4.00      0.00
   -2    9    0      5.25      0.00
   -1    9    0      4.95      0.00
    0    9    0     -6.19      0.00
    1    9    0     -7.00      0.00
    2    9    0      5.64      0.00
    3    9    0      6.72      0.00
    4    9    0     -3.12      0.00
    5    9    0     -3.75      0.00
    6    9    0     -2.40      0.00
    7    9    0      3.65      0.00
    8    9    0      4.35      0.00
    9    9    0     -4.71      0.00
   10    9    0     -1.05      0.00
   11    9    0      1.49      0.00
   12    9    0      0.69      0.00
  -13   10    0      0.54      0.00
  -12   10    0      1.08      0.00
  -11   10    0      1.95      0.00
  -10   10    0     -2.51      0.00
   -9   10    0     -3.11      0.00
   -8   10    0      4.58      0.00
   -7   10    0      3.26      0.00
   -6   10    0     -6.41      0.00
   -5   10    0     -3.78      0.00
   -4   10    0      7.13      0.00
   -3   10    0      5.13      0.00
   -2   10    0     -8.85      0.00
   -1   10    0     -3.44      0.00
    0   10    0      9.22      0.00
    1   10    0      1.03      0.00
    2   10    0     -8.44      0.00
    3   10    0      0.04      0.00
    4   10    0      8.60      0.00
    5   10    0     -1.59      0.00
    6   10    0     -8.11      0.00
    7   10    0      4.56      0.00
    8   10    0      3.20      0.00
    9   10    0     -2.99      0.00
   10   10    0     -0.45      0.00
   11   10    0      0.34      0.00
  -12   11    0     -1.93      0.00
  -11   11    0      1.59      0.00
  -10   11    0      3.30      0.00
   -9   11    0     -2.16      0.00
   -8   11    0     -4.55      0.00
   -7   11    0      1.85      0.00
   -6   11    0      7.25      0.00
   -5   11    0     -3.63      0.00
   -4   11    0     -6.61      0.00
   -3   11    0      3.86      0.00
   -2   11    0      5.81      0.00
   -1   11    0     -1.76      0.00
    0   11    0     -5.96      0.00
    1   11    0     -1.90      0.00
    2   11    0      5.27      0.00
    3   11    0      4.33      0.00
    4   11    0     -3.46      0.00
    5   11    0     -6.29      0.00
    6   11    0      3.56      0.00
    7   11    0      5.03      0.00
    8   11    0     -2.93      0.00
    9   11    0     -1.49      0.00
   10   11    0     -0.09      0.00
  -10   12    0      0.47      0.00
   -9   12    0      5.07      0.00
   -8   12    0     -2.21      0.00
   -7   12    0     -6.82      0.00
   -6   12    0      2.52      0.00
   -5   12    0      6.22      0.00
   -4   12    0     -0.04      0.00
   -3   12    0     -8.39      0.00
   -2   12    0      1.18      0.00
   -1   12    0     10.01      0.00
    0   12    0     -2.07      0.00
    1   12    0     -9.66      0.00
    2   12    0      1.74      0.00
    3   12    0      7.73      0.00
    4   12    0     -2.17      0.00
    5   12    0     -4.74      0.00
    6   12    0      2.40      0.00
    7   12    0      0.92      0.00
    8   12    0     -0.39      0.00
    9   12    0      0.58      0.00
   10   12    0     -0.92      0.00
  -10   13    0     -2.37      0.00
   -9   13    0     -1.11      0.00
   -8   13    0      2.31      0.00
   -7   13    0      2.70      0.00
   -6   13    0     -3.72      0.00
   -5   13    0     -1.97      0.00
   -4   13    0      3.16      0.00
   -3   13    0      0.36      0.00
   -2   13    0     -0.30      0.00
   -1   13    0     -0.09      0.00
    0   13    0     -1.96      0.00
    1   13    0      1.40      0.00
    2   13    0      1.97      0.00
    3   13    0     -2.32      0.00
    4   13    0     -0.68      0.00
    5   13    0      2.56      0.00
    6   13    0     -1.94      0.00
    7   13    0     -1.45      0.00
    8   13    0      2.60      0.00
    9   13    0      0.00      0.00
   -9   14    0     -1.21      0.00
   -8   14    0     -0.92      0.00
   -7   14    0      0.55      0.00
   -6   14    0      0.62      0.00
   -5   14    0      0.74      0.00
   -4   14    0     -2.00      0.00
   -3   14    0     -0.40      0.00
   -2   14    0      2.11      0.00
   -1   14    0     -0.67      0.00
    0   14    0      0.05      0.00
    1   14    0      1.75      0.00
    2   14    0     -3.19      0.00
    3   14    0     -1.69      0.00
    4   14    0      4.83      0.00
    6   14    0     -4.22      0.00
    7   14    0     -0.96      0.00
    8   14    0      1.57      0.00
   -7   15    0     -1.18      0.00
   -6   15    0     -0.85      0.00
   -5   15    0      0.72      0.00
   -4   15    0      0.87      0.00
   -3   15    0      1.59      0.00
   -2   15    0     -1.43      0.00
   -1   15    0     -3.38      0.00
    0   15    0      2.96      0.00
    1   15    0      1.51      0.00
    2   15    0     -2.40      0.00
    3   15    0     -0.33      0.00
   -5   16    0     -0.93      0.00
   -4   16    0     -0.02      0.00
   -3   16    0      0.72      0.00
   -2   16    0      0.00      0.00
   -1   16    0      2.16      0.00
    0   16    0     -0.46      0.00
    1   16    0     -4.03      0.00
    2   16    0      1.73      0.00
    3   16    0      2.47      0.00
   -1   17    0      3.02      0.00
    0   17    0      0.42      0.00
    1   17    0     -0.72      0.00
    2   17    0     -0.87      0.00
   -2  -17    1     -0.26      0.00
   -1  -17    1      1.32      0.00
    0  -17    1     -1.48      0.00
   -3  -16    1      1.68      0.00
   -2  -16    1      1.58      0.00
   -1  -16    1     -4.00      0.00
    0  -16    1      0.14      0.00
    1  -16    1      3.92      0.00
    2  -16    1     -1.45      0.00
    3  -16    1     -1.51      0.00
    4  -16    1      1.11      0.00
    5  -16    1      1.16      0.00
   -4  -15    1     -1.46      0.00
   -3  -15    1      2.25      0.00
   -2  -15    1      0.49      0.00
   -1  -15    1     -2.13      0.00
    0  -15    1      0.92      0.00
    1  -15    1     -1.34      0.00
    2  -15    1      0.64      0.00
    3  -15    1      1.04      0.00
    4  -15    1     -1.05      0.00
    5  -15    1      0.58      0.00
    6  -15    1      0.21      0.00
    7  -15    1     -0.33      0.00
   -8  -14    1      0.76      0.00
   -7  -14    1     -0.59      0.00
   -4  -14    1      6.54      0.00
   -3  -14    1     -1.17      0.00
   -2  -14    1     -6.85      0.00
   -1  -14    1      3.14      0.00
    0  -14    1      4.36      0.00
    1  -14    1     -2.80      0.00
    2  -14    1     -1.46      0.00
    3  -14    1      1.08      0.00
    4  -14    1      0.36      0.00
    5  -14    1      0.58      0.00
    6  -14    1     -0.37      0.00
    7  -14    1     -1.03      0.00
    8  -14    1      0.41      0.00
    9  -14    1      0.25      0.00
   -9  -13    1     -0.02      0.00
   -8  -13    1      3.97      0.00
   -7  -13    1      0.14      0.00
   -6  -13    1     -5.40      0.00
   -5  -13    1      1.32      0.00
   -4  -13    1      3.55      0.00
   -3  -13    1     -1.74      0.00
   -2  -13    1     -1.55      0.00
   -1  -13    1      1.52      0.00
    0  -13    1     -1.26      0.00
    1  -13    1     -0.36      0.00
    2  -13    1      1.10      0.00
    3  -13    1      0.57      0.00
    4  -13    1      0.64      0.00
    5  -13    1     -2.14      0.00
    6  -13    1     -0.69      0.00
    7  -13    1      3.56      0.00
    8  -13    1     -0.77      0.00
    9  -13    1     -2.94      0.00
   10  -13    1     -0.11      0.00
  -10  -12    1     -1.30      0.00
   -9  -12    1      0.47      0.00
   -8  -12    1      1.71      0.00
   -7  -12    1     -2.24      0.00
   -6  -12    1      0.44      0.00
   -5  -12    1      1.79      0.00
   -4  -12    1     -1.59      0.00
   -3  -12    1      0.18      0.00
   -2  -12    1      2.18      0.00
   -1  -12    1     -2.64      0.00
    0  -12    1     -1.67      0.00
    1  -12    1      4.32      0.00
    2  -12    1     -0.97      0.00
    3  -12    1     -4.05      0.00
    4  -12    1      4.28      0.00
    5  -12    1      1.33      0.00
    6  -12    1     -3.05      0.00
    7  -12    1     -1.41      0.00
    8  -12    1      2.56      0.00
    9  -12    1      2.43      0.00
   10  -12    1     -3.47      0.00
   11  -12    1     -0.92      0.00
  -11  -11    1      0.57      0.00
  -10  -11    1     -0.82      0.00
   -9  -11    1      0.41      0.00
   -8  -11    1     -2.15      0.00
   -7  -11    1      2.26      0.00
   -6  -11    1      3.92      0.00
   -5  -11    1     -6.09      0.00
   -4  -11    1     -3.91      0.00
   -3  -11    1      7.74      0.00
   -2  -11    1      5.87      0.00
   -1  -11    1     -9.33      0.00
    0  -11    1     -6.82      0.00
    1  -11    1      7.72      0.00
    2  -11    1      6.65      0.00
    3  -11    1     -5.34      0.00
    4  -11    1     -7.55      0.00
    5  -11    1      5.40      0.00
    6  -11    1      7.95      0.00
    7  -11    1     -6.17      0.00
    8  -11    1     -5.08      0.00
    9  -11    1      3.80      0.00
   10  -11    1      3.13      0.00
   11  -11    1     -0.89      0.00
   12  -11    1     -1.77      0.00
  -11  -10    1      0.35      0.00
  -10  -10    1      1.55      0.00
   -9  -10    1     -2.31      0.00
   -8  -10    1     -2.33      0.00
   -7  -10    1      5.36      0.00
   -6  -10    1     -0.13      0.00
   -5  -10    1     -4.62      0.00
   -4  -10    1      0.02      0.00
   -3  -10    1      2.88      0.00
   -2  -10    1      0.97      0.00
   -1  -10    1      0.54      0.00
    0  -10    1     -0.05      0.00
    1  -10    1     -5.20      0.00
    2  -10    1     -0.13      0.00
    3  -10    1      7.42      0.00
    4  -10    1     -1.27      0.00
    5  -10    1     -6.10      0.00
    6  -10    1      0.40      0.00
    7  -10    1      5.93      0.00
    8  -10    1     -0.59      0.00
    9  -10    1     -5.41      0.00
   10  -10    1      0.90      0.00
   11  -10    1      3.65      0.00
   12  -10    1     -0.34      0.00
  -12   -9    1      0.69      0.00
  -11   -9    1      0.71      0.00
  -10   -9    1     -1.16      0.00
   -9   -9    1     -5.30      0.00
   -8   -9    1      6.19      0.00
   -7   -9    1      6.30      0.00
   -6   -9    1     -8.50      0.00
   -5   -9    1     -6.17      0.00
   -4   -9    1      6.75      0.00
   -3   -9    1      7.74      0.00
   -2   -9    1     -7.25      0.00
   -1   -9    1     -6.80      0.00
    0   -9    1      6.86      0.00
    1   -9    1      5.19      0.00
    2   -9    1     -6.71      0.00
    3   -9    1     -4.09      0.00
    4   -9    1      7.55      0.00
    5   -9    1      2.64      0.00
    6   -9    1     -6.19      0.00
    7   -9    1     -1.16      0.00
    8   -9    1      3.73      0.00
    9   -9    1      0.46      0.00
   10   -9    1     -2.47      0.00
   11   -9    1     -0.84      0.00
   12   -9    1      0.96      0.00
   13   -9    1      1.62      0.00
  -13   -8    1     -0.97      0.00
  -12   -8    1     -0.33      0.00
  -11   -8    1      2.97      0.00
  -10   -8    1     -0.95      0.00
   -9   -8    1     -2.63      0.00
   -8   -8    1      0.86      0.00
   -7   -8    1     -0.37      0.00
   -6   -8    1      5.75      0.00
   -5   -8    1     -0.50      0.00
   -4   -8    1    -11.39      0.00
   -3   -8    1      0.34      0.00
   -2   -8    1     15.34      0.00
   -1   -8    1      3.13      0.00
    0   -8    1    -17.63      0.00
    1   -8    1     -5.45      0.00
    2   -8    1     16.46      0.00
    3   -8    1      3.81      0.00
    4   -8    1    -12.32      0.00
    5   -8    1     -3.55      0.00
    6   -8    1     10.38      0.00
    7   -8    1      2.13      0.00
    8   -8    1     -6.59      0.00
    9   -8    1     -1.10      0.00
   10   -8    1      2.76      0.00
   11   -8    1      0.43      0.00
   12   -8    1      0.64      0.00
   13   -8    1     -1.51      0.00
  -13   -7    1      0.37      0.00
  -12   -7    1      0.41      0.00
  -11   -7    1     -1.59      0.00
  -10   -7    1     -0.81      0.00
   -9   -7    1      6.09      0.00
   -8   -7    1     -3.65      0.00
   -7   -7    1     -7.66      0.00
   -6   -7    1      7.02      0.00
   -5   -7    1      9.08      0.00
   -4   -7    1     -6.01      0.00
   -3   -7    1    -16.60      0.00
   -2   -7    1      4.97      0.00
   -1   -7    1     23.75      0.00
    0   -7    1     -6.66      0.00
    1   -7    1    -21.11      0.00
    2   -7    1      4.92      0.00
    3   -7    1     15.62      0.00
    4   -7    1     -2.59      0.00
    5   -7    1    -10.11      0.00
    6   -7    1      1.27      0.00
    7   -7    1      4.33      0.00
    8   -7    1      1.50      0.00
    9   -7    1     -1.97      0.00
   10   -7    1     -2.91      0.00
   11   -7    1      0.70      0.00
   12   -7    1      1.81      0.00
   13   -7    1      0.18      0.00
  -13   -6    1     -1.19      0.00
  -12   -6    1      0.85      0.00
  -11   -6    1      0.33      0.00
  -10   -6    1      1.35      0.00
   -9   -6    1     -1.49      0.00
   -8   -6    1     -4.18      0.00
   -7   -6    1      6.44      0.00
   -6   -6    1      1.96      0.00
   -5   -6    1     -6.83      0.00
   -4   -6    1      0.62      0.00
   -3   -6    1      3.65      0.00
   -2   -6    1      3.31      0.00
   -1   -6    1     -4.77      0.00
    0   -6    1     -4.37      0.00
    1   -6    1      7.66      0.00
    2   -6    1     -3.76      0.00
    3   -6    1     -2.56      0.00
    4   -6    1      4.26      0.00
    5   -6    1      0.92      0.00
    6   -6    1     -3.58      0.00
    7   -6    1      0.57      0.00
    8   -6    1      3.21      0.00
    9   -6    1     -2.21      0.00
   10   -6    1     -1.14      0.00
   11   -6    1      2.55      0.00
   12   -6    1     -1.44      0.00
   13   -6    1     -0.64      0.00
   14   -6    1      0.61      0.00
  -14   -5    1      1.39      0.00
  -13   -5    1      0.08      0.00
  -12   -5    1     -2.21      0.00
  -11   -5    1      0.41      0.00
  -10   -5    1      3.45      0.00
   -9   -5    1     -2.96      0.00
   -8   -5    1     -1.95      0.00
   -7   -5    1      2.59      0.00
   -6   -5    1      1.80      0.00
   -5   -5    1      1.30      0.00
   -4   -5    1     -7.24      0.00
   -3   -5    1     -2.42      0.00
   -2   -5    1      8.64      0.00
   -1   -5    1     -4.01      0.00
    0   -5    1      7.34      0.00
    1   -5    1      1.79      0.00
    2   -5    1    -17.10      0.00
    3   -5    1      1.46      0.00
    4   -5    1     14.91      0.00
    5   -5    1      0.82      0.00
    6   -5    1    -13.12      0.00
    7   -5    1     -0.13      0.00
    8   -5    1      9.67      0.00
    9   -5    1     -0.22      0.00
   10   -5    1     -7.24      0.00
   11   -5    1     -0.89      0.00
   12   -5    1      4.75      0.00
   13   -5    1      2.38      0.00
   14   -5    1     -2.53      0.00
  -14   -4    1     -2.26      0.00
  -13   -4    1     -0.81      0.00
  -12   -4    1      4.44      0.00
  -11   -4    1      2.51      0.00
  -10   -4    1     -7.25      0.00
   -9   -4    1     -3.47      0.00
   -8   -4    1     10.36      0.00
   -7   -4    1      1.27      0.00
   -6   -4    1    -10.41      0.00
   -5   -4    1     -2.39      0.00
   -4   -4    1     10.08      0.00
   -3   -4    1     12.12      0.00
   -2   -4    1    -19.30      0.00
   -1   -4    1    -12.92      0.00
    0   -4    1     27.86      0.00
    1   -4    1      0.73      0.00
    2   -4    1    -13.05      0.00
    3   -4    1     -4.29      0.00
    4   -4    1      3.03      0.00
    5   -4    1      6.82      0.00
    6   -4    1      1.12      0.00
    7   -4    1     -6.61      0.00
    8   -4    1     -2.06      0.00
    9   -4    1      6.98      0.00
   10   -4    1      1.86      0.00
   11   -4    1     -6.28      0.00
   12   -4    1     -2.25      0.00
   13   -4    1      3.30      0.00
   14   -4    1      0.82      0.00
  -14   -3    1     -0.46      0.00
  -13   -3    1     -5.26      0.00
  -12   -3    1     -0.62      0.00
  -11   -3    1      7.24      0.00
  -10   -3    1      2.74      0.00
   -9   -3    1     -6.64      0.00
   -8   -3    1     -6.81      0.00
   -7   -3    1      9.51      0.00
   -6   -3    1     12.48      0.00
   -5   -3    1    -14.14      0.00
   -4   -3    1    -12.01      0.00
   -3   -3    1      7.98      0.00
   -2   -3    1      2.73      0.00
   -1   -3    1     16.29      0.00
    0   -3    1    -13.19      0.00
    1   -3    1    -23.41      0.00
    2   -3    1     23.38      0.00
    3   -3    1     12.41      0.00
    4   -3    1    -12.76      0.00
    5   -3    1    -11.05      0.00
    6   -3    1      7.35      0.00
    7   -3    1      8.69      0.00
    8   -3    1     -4.38      0.00
    9   -3    1     -6.47      0.00
   10   -3    1      3.74      0.00
   11   -3    1      3.62      0.00
   12   -3    1     -2.23      0.00
   13   -3    1     -2.04      0.00
   14   -3    1      0.46      0.00
  -15   -2    1      0.21      0.00
  -14   -2    1      3.68      0.00
  -13   -2    1      1.71      0.00
  -12   -2    1     -8.34      0.00
  -11   -2    1     -5.28      0.00
  -10   -2    1     12.22      0.00
   -9   -2    1      6.47      0.00
   -8   -2    1    -17.02      0.00
   -7   -2    1     -8.79      0.00
   -6   -2    1     18.72      0.00
   -5   -2    1     16.29      0.00
   -4   -2    1    -12.31      0.00
   -3   -2    1    -35.32      0.00
   -2   -2    1     19.37      0.00
   -1   -2    1     44.83      0.00
    0   -2    1    -35.25      0.00
    1   -2    1    -11.48      0.00
    2   -2    1     10.35      0.00
    3   -2    1     -0.48      0.00
    4   -2    1      3.91      0.00
    5   -2    1     -0.30      0.00
    6   -2    1     -3.49      0.00
    7   -2    1     -1.55      0.00
    8   -2    1      3.12      0.00
    9   -2    1      1.09      0.00
   10   -2    1     -0.37      0.00
   11   -2    1     -1.54      0.00
   12   -2    1     -0.08      0.00
   13   -2    1      0.30      0.00
   14   -2    1      0.48      0.00
  -15   -1    1     -1.50      0.00
  -14   -1    1      1.73      0.00
  -13   -1    1      3.82      0.00
  -12   -1    1     -2.12      0.00
  -11   -1    1     -5.13      0.00
  -10   -1    1      3.44      0.00
   -9   -1    1      7.31      0.00
   -8   -1    1     -2.78      0.00
   -7   -1    1    -13.28      0.00
   -6   -1    1      2.11      0.00
   -5   -1    1     25.32      0.00
   -4   -1    1    -11.69      0.00
   -3   -1    1    -37.93      0.00
   -2   -1    1     37.21      0.00
   -1   -1    1     11.66      0.00
    1   -1    1      8.27      0.00
    2   -1    1     -1.14      0.00
    3   -1    1      8.14      0.00
    4   -1    1     -7.00      0.00
    5   -1    1     -4.37      0.00
    6   -1    1      9.29      0.00
    7   -1    1      0.24      0.00
    8   -1    1     -5.75      0.00
    9   -1    1      0.41      0.00
   10   -1    1      3.19      0.00
   11   -1    1     -0.61      0.00
   12   -1    1     -0.99      0.00
   13   -1    1     -0.62      0.00
   14   -1    1      0.28      0.00
  -15    0    1     -0.59      0.00
  -13    0    1      0.56      0.00
  -12    0    1      1.62      0.00
  -11    0    1     -1.64      0.00
  -10    0    1     -5.20      0.00
   -9    0    1      5.52      0.00
   -8    0    1      9.60      0.00
   -7    0    1    -10.90      0.00
   -6    0    1    -15.74      0.00
   -5    0    1     19.77      0.00
   -4    0    1     18.34      0.00
   -3    0    1    -13.74      0.00
   -2    0    1    -41.15      0.00
    1    0    1    -29.54      0.00
    2    0    1    -68.88      0.00
    3    0    1     27.26      0.00
    4    0    1     32.07      0.00
    5    0    1    -10.10      0.00
    6    0    1    -22.91      0.00
    7    0    1      5.37      0.00
    8    0    1     14.57      0.00
    9    0    1     -1.66      0.00
   10    0    1     -8.98      0.00
   11    0    1      1.06      0.00
   12    0    1      5.11      0.00
   13    0    1      0.17      0.00
   14    0    1     -1.46      0.00
  -15    1    1      0.51      0.00
  -14    1    1     -3.27      0.00
  -13    1    1     -1.49      0.00
  -12    1    1      5.80      0.00
  -11    1    1      3.27      0.00
  -10    1    1     -9.37      0.00
   -9    1    1     -5.16      0.00
   -8    1    1     12.99      0.00
   -7    1    1     12.48      0.00
   -6    1    1    -19.49      0.00
   -5    1    1    -27.71      0.00
   -4    1    1     36.70      0.00
   -3    1    1     55.20      0.00
   -2    1    1    -76.32      0.00
    1    1    1     34.24      0.00
    2    1    1    -24.66      0.00
    3    1    1    -43.16      0.00
    4    1    1     23.32      0.00
    5    1    1     33.19      0.00
    6    1    1    -19.61      0.00
    7    1    1    -16.91      0.00
    8    1    1      8.93      0.00
    9    1    1      7.90      0.00
   10    1    1     -3.85      0.00
   11    1    1     -4.05      0.00
   12    1    1     -0.49      0.00
   13    1    1      2.63      0.00
   14    1    1      0.40      0.00
  -15    2    1      1.20      0.00
  -14    2    1      1.46      0.00
  -13    2    1     -2.87      0.00
  -12    2    1     -3.33      0.00
  -11    2    1      3.01      0.00
  -10    2    1      5.81      0.00
   -9    2    1     -5.40      0.00
   -8    2    1     -9.26      0.00
   -7    2    1      8.28      0.00
   -6    2    1     12.86      0.00
   -5    2    1    -12.35      0.00
   -4    2    1    -13.91      0.00
   -3    2    1      3.51      0.00
   -2    2    1     28.24      0.00
   -1    2    1     17.52      0.00
    0    2    1    -61.48      0.00
    1    2    1      8.89      0.00
    2    2    1     43.81      0.00
    3    2    1    -21.05      0.00
    4    2    1    -19.51      0.00
    5    2    1      6.32      0.00
    6    2    1     14.72      0.00
    7    2    1     -0.67      0.00
    8    2    1    -10.86      0.00
    9    2    1      1.95      0.00
   10    2    1      7.96      0.00
   11    2    1     -1.82      0.00
   12    2    1     -4.61      0.00
   13    2    1      0.93      0.00
   14    2    1      0.74      0.00
  -15    3    1     -1.93      0.00
  -14    3    1      2.43      0.00
  -13    3    1      3.56      0.00
  -12    3    1     -2.71      0.00
  -11    3    1     -6.42      0.00
  -10    3    1      3.40      0.00
   -9    3    1      7.61      0.00
   -8    3    1      0.06      0.00
   -7    3    1    -12.34      0.00
   -6    3    1     -3.43      0.00
   -5    3    1     22.80      0.00
   -4    3    1      3.56      0.00
   -3    3    1    -37.61      0.00
   -2    3    1      8.93      0.00
   -1    3    1     22.05      0.00
    0    3    1    -10.30      0.00
    1    3    1     -0.97      0.00
    2    3    1     -0.95      0.00
    3    3    1     10.81      0.00
    4    3    1     -6.05      0.00
    5    3    1    -11.05      0.00
    6    3    1     13.84      0.00
    7    3    1      1.40      0.00
    8    3    1    -11.58      0.00
    9    3    1      1.47      0.00
   10    3    1      6.55      0.00
   11    3    1     -0.67      0.00
   12    3    1     -2.66      0.00
   13    3    1     -0.71      0.00
   14    3    1      1.43      0.00
  -15    4    1      0.65      0.00
  -14    4    1      0.21      0.00
  -13    4    1     -0.79      0.00
  -12    4    1     -0.33      0.00
  -11    4    1      1.20      0.00
  -10    4    1     -0.25      0.00
   -9    4    1     -2.73      0.00
   -8    4    1      0.25      0.00
   -7    4    1      2.61      0.00
   -6    4    1      2.23      0.00
   -5    4    1     -2.52      0.00
   -4    4    1     -7.82      0.00
   -3    4    1     12.22      0.00
   -2    4    1     10.56      0.00
   -1    4    1    -26.96      0.00
    0    4    1      3.11      0.00
    1    4    1     13.40      0.00
    2    4    1      0.92      0.00
    3    4    1      0.21      0.00
    4    4    1    -14.49      0.00
    5    4    1      2.36      0.00
    6    4    1     11.63      0.00
    7    4    1     -3.45      0.00
    8    4    1     -2.62      0.00
    9    4    1     -0.77      0.00
   10    4    1      0.20      0.00
   11    4    1      2.34      0.00
   12    4    1     -0.43      0.00
   13    4    1     -1.96      0.00
   14    4    1      1.12      0.00
  -14    5    1      0.14      0.00
  -13    5    1      2.94      0.00
  -12    5    1     -1.14      0.00
  -11    5    1     -5.20      0.00
  -10    5    1      1.80      0.00
   -9    5    1      8.54      0.00
   -8    5    1     -4.80      0.00
   -7    5    1     -8.42      0.00
   -6    5    1      5.05      0.00
   -5    5    1      5.16      0.00
   -4    5    1     -2.12      0.00
   -3    5    1      1.97      0.00
   -2    5    1     -9.21      0.00
   -1    5    1     -0.76      0.00
    0    5    1     13.98      0.00
    1    5    1     -7.26      0.00
    2    5    1     -3.31      0.00
    3    5    1      0.63      0.00
    4    5    1      3.73      0.00
    5    5    1      6.76      0.00
    6    5    1    -11.77      0.00
    7    5    1     -0.85      0.00
    8    5    1     10.02      0.00
    9    5    1     -3.47      0.00
   10    5    1     -4.47      0.00
   11    5    1      2.07      0.00
   12    5    1      1.92      0.00
   13    5    1     -0.51      0.00
  -14    6    1     -3.63      0.00
  -13    6    1      1.30      0.00
  -12    6    1      6.89      0.00
  -11    6    1     -1.00      0.00
  -10    6    1    -10.54      0.00
   -9    6    1     -0.88      0.00
   -8    6    1     14.30      0.00
   -7    6    1      3.61      0.00
   -6    6    1    -18.99      0.00
   -5    6    1     -5.60      0.00
   -4    6    1     24.06      0.00
   -3    6    1      8.30      0.00
   -2    6    1    -27.33      0.00
   -1    6    1     -5.38      0.00
    0    6    1     16.81      0.00
    1    6    1      8.58      0.00
    2    6    1     -6.38      0.00
    3    6    1    -15.71      0.00
    4    6    1      9.72      0.00
    5    6    1      6.43      0.00
    6    6    1     -7.97      0.00
    7    6    1      3.23      0.00
    8    6    1      0.29      0.00
    9    6    1     -1.47      0.00
   10    6    1      1.93      0.00
   11    6    1     -0.91      0.00
   12    6    1     -1.28      0.00
   13    6    1      1.52      0.00
  -14    7    1      1.99      0.00
  -13    7    1     -3.18      0.00
  -12    7    1     -2.94      0.00
  -11    7    1      7.10      0.00
  -10    7    1      3.45      0.00
   -9    7    1    -11.72      0.00
   -8    7    1     -0.83      0.00
   -7    7    1     10.72      0.00
   -6    7    1     -0.70      0.00
   -5    7    1     -9.10      0.00
   -4    7    1      1.68      0.00
   -3    7    1      6.15      0.00
   -2    7    1      2.18      0.00
   -1    7    1     -3.93      0.00
    0    7    1     -8.60      0.00
    1    7    1      5.44      0.00
    2    7    1      4.44      0.00
    3    7    1      2.05      0.00
    4    7    1     -0.84      0.00
    5    7    1    -10.94      0.00
    6    7    1      5.88      0.00
    7    7    1      6.89      0.00
    8    7    1     -6.84      0.00
    9    7    1     -0.60      0.00
   10    7    1      2.68      0.00
   11    7    1      0.64      0.00
   12    7    1     -0.66      0.00
  -14    8    1      0.96      0.00
  -13    8    1      3.14      0.00
  -12    8    1     -1.30      0.00
  -11    8    1     -4.41      0.00
  -10    8    1      1.66      0.00
   -9    8    1      4.98      0.00
   -8    8    1     -2.49      0.00
   -7    8    1     -5.27      0.00
   -6    8    1      4.73      0.00
   -5    8    1      2.09      0.00
   -4    8    1     -5.68      0.00
   -3    8    1      1.32      0.00
   -2    8    1      8.26      0.00
   -1    8    1     -5.63      0.00
    0    8    1     -7.01      0.00
    1    8    1      5.25      0.00
    2    8    1      4.13      0.00
    3    8    1     -0.05      0.00
    4    8    1     -8.15      0.00
    5    8    1      1.26      0.00
    6    8    1      9.95      0.00
    7    8    1     -5.24      0.00
    8    8    1     -4.49      0.00
    9    8    1      3.09      0.00
   10    8    1      0.51      0.00
   11    8    1     -0.43      0.00
   12    8    1      0.06      0.00
  -13    9    1     -0.70      0.00
  -12    9    1      3.60      0.00
  -11    9    1      1.07      0.00
  -10    9    1     -3.11      0.00
   -9    9    1     -0.15      0.00
   -8    9    1      0.36      0.00
   -7    9    1      0.43      0.00
   -6    9    1      1.92      0.00
   -5    9    1     -0.52      0.00
   -4    9    1     -6.55      0.00
   -3    9    1      2.41      0.00
   -2    9    1      9.74      0.00
   -1    9    1     -3.09      0.00
    0    9    1    -11.94      0.00
    1    9    1      1.15      0.00
    2    9    1     15.07      0.00
    3    9    1     -1.28      0.00
    4    9    1    -14.27      0.00
    5    9    1      3.31      0.00
    6    9    1      7.32      0.00
    7    9    1     -2.22      0.00
    8    9    1     -1.03      0.00
    9    9    1     -1.29      0.00
   10    9    1      1.19      0.00
   11    9    1      0.48      0.00
  -12   10    1      0.31      0.00
  -11   10    1      1.59      0.00
  -10   10    1     -0.88      0.00
   -9   10    1     -1.92      0.00
   -8   10    1      1.94      0.00
   -7   10    1      1.07      0.00
   -6   10    1     -2.55      0.00
   -5   10    1      0.51      0.00
   -4   10    1      2.48      0.00
   -3   10    1     -0.16      0.00
   -2   10    1     -3.28      0.00
   -1   10    1      2.45      0.00
    0   10    1      2.02      0.00
    1   10    1     -3.69      0.00
    2   10    1     -2.38      0.00
    3   10    1      2.11      0.00
    4   10    1      5.18      0.00
    5   10    1     -1.62      0.00
    6   10    1     -7.53      0.00
    7   10    1      3.84      0.00
    8   10    1      5.07      0.00
    9   10    1     -3.46      0.00
   10   10    1     -1.71      0.00
   11   10    1      0.45      0.00
  -11   11    1      2.31      0.00
  -10   11    1      0.75      0.00
   -9   11    1     -3.93      0.00
   -8   11    1      0.30      0.00
   -7   11    1      3.63      0.00
   -6   11    1      0.49      0.00
   -5   11    1     -6.40      0.00
   -4   11    1      0.95      0.00
   -3   11    1      7.46      0.00
   -2   11    1     -1.69      0.00
   -1   11    1     -7.32      0.00
    0   11    1      2.17      0.00
    1   11    1      6.11      0.00
    2   11    1     -3.06      0.00
    3   11    1     -2.74      0.00
    4   11    1      3.72      0.00
    5   11    1     -1.68      0.00
    6   11    1     -2.73      0.00
    7   11    1      3.70      0.00
    8   11    1      0.40      0.00
    9   11    1     -1.47      0.00
   10   11    1     -0.41      0.00
  -11   12    1     -1.29      0.00
  -10   12    1      3.24      0.00
   -9   12    1      2.91      0.00
   -8   12    1     -5.83      0.00
   -7   12    1     -3.80      0.00
   -6   12    1      7.31      0.00
   -5   12    1      2.17      0.00
   -4   12    1     -4.87      0.00
   -3   12    1     -3.19      0.00
   -2   12    1      5.01      0.00
   -1   12    1      5.33      0.00
    0   12    1     -4.96      0.00
    1   12    1     -8.19      0.00
    2   12    1      3.26      0.00
    3   12    1      9.62      0.00
    4   12    1     -2.81      0.00
    5   12    1     -8.12      0.00
    6   12    1      2.89      0.00
    7   12    1      4.24      0.00
    8   12    1     -1.77      0.00
    9   12    1     -0.54      0.00
  -11   13    1     -1.24      0.00
  -10   13    1     -1.67      0.00
   -9   13    1      3.46      0.00
   -8   13    1      1.95      0.00
   -7   13    1     -3.16      0.00
   -6   13    1     -3.54      0.00
   -5   13    1      3.10      0.00
   -4   13    1      3.90      0.00
   -3   13    1     -4.59      0.00
   -2   13    1     -2.93      0.00
   -1   13    1      6.04      0.00
    0   13    1      1.82      0.00
    1   13    1     -4.88      0.00
    2   13    1     -0.16      0.00
    3   13    1      2.43      0.00
    4   13    1     -0.89      0.00
    5   13    1     -0.40      0.00
    6   13    1     -0.03      0.00
    7   13    1     -0.77      0.00
    8   13    1      1.04      0.00
   -9   14    1     -3.26      0.00
   -8   14    1      0.62      0.00
   -7   14    1      3.44      0.00
   -6   14    1     -0.74      0.00
   -5   14    1     -1.41      0.00
   -4   14    1     -0.94      0.00
   -3   14    1      0.93      0.00
   -2   14    1      2.79      0.00
   -1   14    1     -2.23      0.00
    0   14    1     -3.19      0.00
    1   14    1      2.89      0.00
    2   14    1      1.82      0.00
    3   14    1     -3.05      0.00
    5   14    1      2.60      0.00
    6   14    1     -1.90      0.00
    7   14    1     -1.66      0.00
   -7   15    1     -2.26      0.00
   -6   15    1     -0.07      0.00
   -5   15    1      2.11      0.00
   -4   15    1     -0.31      0.00
   -3   15    1     -0.65      0.00
   -2   15    1      0.54      0.00
   -1   15    1     -1.02      0.00
    0   15    1      1.41      0.00
    1   15    1      0.97      0.00
    2   15    1     -2.38      0.00
    3   15    1     -1.00      0.00
   -5   16    1     -2.34      0.00
   -4   16    1      0.66      0.00
   -3   16    1      2.74      0.00
   -2   16    1     -0.66      0.00
   -1   16    1     -0.77      0.00
    0   16    1      0.05      0.00
    1   16    1     -1.22      0.00
    2   16    1      0.87      0.00
   -1   17    1      3.27      0.00
    0   17    1      0.61      0.00
    1   17    1     -1.91      0.00
    2   17    1     -0.52      0.00
   -3  -17    2     -1.25      0.00
   -2  -17    2     -0.61      0.00
   -1  -17    2      1.47      0.00
   -4  -16    2     -1.31      0.00
   -3  -16    2     -1.75      0.00
   -2  -16    2      1.95      0.00
   -1  -16    2     -0.64      0.00
    0  -16    2     -1.01      0.00
    1  -16    2      1.96      0.00
    2  -16    2     -1.53      0.00
    3  -16    2     -0.34      0.00
    4  -16    2      2.02      0.00
   -4  -15    2     -3.08      0.00
   -3  -15    2      3.67      0.00
   -2  -15    2      1.97      0.00
   -1  -15    2     -5.47      0.00
    0  -15    2      0.41      0.00
    1  -15    2      2.76      0.00
    2  -15    2      0.70      0.00
    3  -15    2     -2.20      0.00
    4  -15    2     -1.87      0.00
    5  -15    2      3.19      0.00
    6  -15    2      0.42      0.00
    7  -15    2     -1.16      0.00
    8  -15    2     -1.15      0.00
   -8  -14    2     -0.85      0.00
   -7  -14    2     -0.74      0.00
   -5  -14    2     -1.25      0.00
   -4  -14    2      2.24      0.00
   -3  -14    2      0.89      0.00
   -2  -14    2     -3.71      0.00
   -1  -14    2      2.18      0.00
    0  -14    2      2.10      0.00
    1  -14    2     -3.72      0.00
    2  -14    2      0.61      0.00
    3  -14    2      2.51      0.00
    4  -14    2     -0.86      0.00
    5  -14    2     -1.01      0.00
    6  -14    2      0.93      0.00
    7  -14    2     -0.14      0.00
    8  -14    2     -0.20      0.00
    9  -14    2     -0.61      0.00
   -9  -13    2      0.64      0.00
   -8  -13    2      3.75      0.00
   -7  -13    2      0.84      0.00
   -6  -13    2     -7.43      0.00
   -5  -13    2      0.30      0.00
   -4  -13    2      8.71      0.00
   -3  -13    2     -1.61      0.00
   -2  -13    2     -8.27      0.00
   -1  -13    2      2.41      0.00
    0  -13    2      4.91      0.00
    1  -13    2     -1.04      0.00
    2  -13    2     -3.36      0.00
    3  -13    2      0.04      0.00
    4  -13    2      3.09      0.00
    5  -13    2     -0.62      0.00
    6  -13    2     -1.60      0.00
    7  -13    2      1.69      0.00
    8  -13    2     -0.32      0.00
    9  -13    2     -1.79      0.00
   10  -13    2      1.23      0.00
  -10  -12    2     -2.07      0.00
   -9  -12    2     -1.00      0.00
   -8  -12    2      4.22      0.00
   -7  -12    2     -0.47      0.00
   -6  -12    2     -3.87      0.00
   -5  -12    2      1.73      0.00
   -4  -12    2      1.89      0.00
   -3  -12    2     -0.64      0.00
   -2  -12    2      0.77      0.00
   -1  -12    2     -1.75      0.00
    0  -12    2     -1.50      0.00
    1  -12    2      2.17      0.00
    2  -12    2     -0.17      0.00
    3  -12    2     -1.03      0.00
    4  -12    2      3.55      0.00
    5  -12    2     -2.60      0.00
    6  -12    2     -2.74      0.00
    7  -12    2      3.57      0.00
    8  -12    2      1.58      0.00
    9  -12    2     -1.22      0.00
   10  -12    2     -3.51      0.00
   11  -12    2      0.65      0.00
  -11  -11    2      0.29      0.00
  -10  -11    2     -1.54      0.00
   -9  -11    2      1.91      0.00
   -8  -11    2      0.50      0.00
   -7  -11    2     -2.66      0.00
   -6  -11    2      1.11      0.00
   -5  -11    2      0.49      0.00
   -4  -11    2     -2.01      0.00
   -3  -11    2      2.04      0.00
   -2  -11    2      3.68      0.00
   -1  -11    2     -5.02      0.00
    0  -11    2     -3.34      0.00
    1  -11    2      5.98      0.00
    2  -11    2      1.71      0.00
    3  -11    2     -5.84      0.00
    4  -11    2     -1.61      0.00
    5  -11    2      6.39      0.00
    6  -11    2      2.03      0.00
    7  -11    2     -7.95      0.00
    8  -11    2      0.38      0.00
    9  -11    2      6.30      0.00
   10  -11    2     -0.69      0.00
   11  -11    2     -2.39      0.00
  -12  -10    2      0.69      0.00
  -11  -10    2     -0.53      0.00
  -10  -10    2      0.88      0.00
   -9  -10    2     -0.15      0.00
   -8  -10    2     -3.72      0.00
   -7  -10    2      4.11      0.00
   -6  -10    2      4.15      0.00
   -5  -10    2     -7.17      0.00
   -4  -10    2     -4.94      0.00
   -3  -10    2      8.06      0.00
   -2  -10    2      6.91      0.00
   -1  -10    2     -6.24      0.00
    0  -10    2     -8.52      0.00
    1  -10    2      2.55      0.00
    2  -10    2      9.99      0.00
    3  -10    2     -0.33      0.00
    4  -10    2    -11.63      0.00
    5  -10    2      2.25      0.00
    6  -10    2      8.97      0.00
    7  -10    2     -1.18      0.00
    8  -10    2     -7.13      0.00
    9  -10    2     -1.28      0.00
   10  -10    2      4.89      0.00
   11  -10    2      2.16      0.00
   12  -10    2     -1.91      0.00
  -12   -9    2     -0.16      0.00
  -11   -9    2     -0.37      0.00
  -10   -9    2      1.66      0.00
   -9   -9    2     -3.79      0.00
   -8   -9    2      0.87      0.00
   -7   -9    2      6.09      0.00
   -6   -9    2     -2.47      0.00
   -5   -9    2     -5.90      0.00
   -4   -9    2      1.45      0.00
   -3   -9    2      4.98      0.00
   -2   -9    2     -2.72      0.00
   -1   -9    2     -0.81      0.00
    0   -9    2      3.26      0.00
    1   -9    2     -1.98      0.00
    2   -9    2     -4.29      0.00
    3   -9    2      2.55      0.00
    4   -9    2      6.50      0.00
    5   -9    2     -4.54      0.00
    6   -9    2     -6.36      0.00
    7   -9    2      7.13      0.00
    8   -9    2      3.65      0.00
    9   -9    2     -5.84      0.00
   10   -9    2     -2.37      0.00
   11   -9    2      2.86      0.00
   12   -9    2      0.56      0.00
  -13   -8    2     -0.36      0.00
  -12   -8    2      0.54      0.00
  -11   -8    2      3.33      0.00
  -10   -8    2     -2.58      0.00
   -9   -8    2     -6.01      0.00
   -8   -8    2      5.28      0.00
   -7   -8    2      5.59      0.00
   -6   -8    2     -3.30      0.00
   -5   -8    2     -6.89      0.00
   -4   -8    2      0.76      0.00
   -3   -8    2      7.70      0.00
   -2   -8    2      1.56      0.00
   -1   -8    2     -7.08      0.00
    0   -8    2     -3.36      0.00
    1   -8    2      6.54      0.00
    2   -8    2      2.00      0.00
    3   -8    2     -5.36      0.00
    4   -8    2      0.33      0.00
    5   -8    2      1.71      0.00
    6   -8    2      2.11      0.00
    7   -8    2     -1.48      0.00
    8   -8    2     -2.27      0.00
    9   -8    2      1.50      0.00
   10   -8    2      1.05      0.00
   11   -8    2     -1.55      0.00
   12   -8    2      0.77      0.00
   13   -8    2     -0.35      0.00
  -13   -7    2     -0.72      0.00
  -12   -7    2     -0.24      0.00
  -11   -7    2      1.41      0.00
  -10   -7    2     -1.14      0.00
   -9   -7    2      1.90      0.00
   -8   -7    2     -2.12      0.00
   -7   -7    2     -3.91      0.00
   -6   -7    2      6.23      0.00
   -5   -7    2      6.39      0.00
   -4   -7    2     -8.67      0.00
   -3   -7    2    -13.04      0.00
   -2   -7    2     11.86      0.00
   -1   -7    2     19.58      0.00
    0   -7    2    -13.37      0.00
    1   -7    2    -21.41      0.00
    2   -7    2     11.39      0.00
    3   -7    2     19.63      0.00
    4   -7    2     -9.66      0.00
    5   -7    2    -15.53      0.00
    6   -7    2      7.93      0.00
    7   -7    2      8.86      0.00
    8   -7    2     -2.93      0.00
    9   -7    2     -4.64      0.00
   10   -7    2     -1.16      0.00
   11   -7    2      2.88      0.00
   12   -7    2      2.70      0.00
   13   -7    2     -1.84      0.00
  -14   -6    2     -0.93      0.00
  -13   -6    2      0.62      0.00
  -12   -6    2      1.74      0.00
  -11   -6    2     -2.10      0.00
  -10   -6    2     -0.66      0.00
   -9   -6    2      3.55      0.00
   -8   -6    2     -0.96      0.00
   -7   -6    2     -2.93      0.00
   -6   -6    2     -1.61      0.00
   -5   -6    2      5.66      0.00
   -4   -6    2      5.24      0.00
   -3   -6    2    -10.59      0.00
   -2   -6    2     -6.70      0.00
   -1   -6    2     12.42      0.00
    0   -6    2      6.83      0.00
    1   -6    2     -9.33      0.00
    2   -6    2     -8.57      0.00
    3   -6    2      7.13      0.00
    4   -6    2      6.35      0.00
    5   -6    2     -1.48      0.00
    6   -6    2     -5.84      0.00
    7   -6    2     -1.75      0.00
    8   -6    2      6.23      0.00
    9   -6    2      1.39      0.00
   10   -6    2     -5.19      0.00
   11   -6    2     -0.78      0.00
   12   -6    2      0.89      0.00
   13   -6    2      2.14      0.00
  -14   -5    2      0.56      0.00
  -13   -5    2     -1.32      0.00
  -12   -5    2     -0.67      0.00
  -11   -5    2      1.86      0.00
  -10   -5    2      2.38      0.00
   -9   -5    2     -4.89      0.00
   -8   -5    2     -2.98      0.00
   -7   -5    2      7.01      0.00
   -6   -5    2      5.14      0.00
   -5   -5    2     -9.20      0.00
   -4   -5    2    -11.70      0.00
   -3   -5    2     12.68      0.00
   -2   -5    2     18.43      0.00
   -1   -5    2    -19.01      0.00
    0   -5    2    -11.66      0.00
    1   -5    2     17.72      0.00
    2   -5    2      3.30      0.00
    3   -5    2    -13.18      0.00
    4   -5    2     -0.10      0.00
    5   -5    2      9.55      0.00
    6   -5    2     -2.73      0.00
    7   -5    2     -3.40      0.00
    8   -5    2      1.95      0.00
    9   -5    2      0.52      0.00
   10   -5    2     -0.38      0.00
   11   -5    2     -0.15      0.00
   12   -5    2     -0.54      0.00
   13   -5    2      1.05      0.00
   14   -5    2     -0.31      0.00
  -14   -4    2     -0.13      0.00
  -13   -4    2     -0.86      0.00
  -12   -4    2      0.75      0.00
  -11   -4    2      2.06      0.00
  -10   -4    2     -1.21      0.00
   -9   -4    2     -1.43      0.00
   -8   -4    2      1.74      0.00
   -7   -4    2     -1.17      0.00
   -6   -4    2      3.25      0.00
   -5   -4    2      3.10      0.00
   -4   -4    2     -9.03      0.00
   -3   -4    2      0.27      0.00
   -2   -4    2      3.31      0.00
   -1   -4    2     -2.06      0.00
    0   -4    2      7.94      0.00
    1   -4    2     -2.66      0.00
    2   -4    2     -7.30      0.00
    3   -4    2     -0.32      0.00
    4   -4    2      6.67      0.00
    5   -4    2      1.57      0.00
    6   -4    2     -5.05      0.00
    7   -4    2     -1.51      0.00
    8   -4    2      3.46      0.00
    9   -4    2      2.72      0.00
   10   -4    2     -2.73      0.00
   11   -4    2     -3.94      0.00
   12   -4    2      1.19      0.00
   13   -4    2      2.51      0.00
   14   -4    2     -0.01      0.00
  -15   -3    2      2.77      0.00
  -14   -3    2     -2.44      0.00
  -13   -3    2     -4.81      0.00
  -12   -3    2      3.13      0.00
  -11   -3    2      6.30      0.00
  -10   -3    2     -3.94      0.00
   -9   -3    2     -7.36      0.00
   -8   -3    2      2.77      0.00
   -7   -3    2     10.29      0.00
   -6   -3    2     -2.41      0.00
   -5   -3    2    -16.78      0.00
   -4   -3    2      7.55      0.00
   -3   -3    2     17.86      0.00
   -2   -3    2    -18.53      0.00
   -1   -3    2     -0.58      0.00
    0   -3    2     12.82      0.00
    1   -3    2     -8.40      0.00
    2   -3    2     -0.63      0.00
    3   -3    2      6.11      0.00
    4   -3    2     -2.71      0.00
    5   -3    2     -6.44      0.00
    6   -3    2      5.39      0.00
    7   -3    2      2.75      0.00
    8   -3    2     -4.13      0.00
    9   -3    2     -1.13      0.00
   10   -3    2      4.04      0.00
   11   -3    2      0.95      0.00
   12   -3    2     -3.15      0.00
   13   -3    2     -0.98      0.00
   14   -3    2      0.63      0.00
  -15   -2    2      1.30      0.00
  -14   -2    2      3.10      0.00
  -13   -2    2     -1.65      0.00
  -12   -2    2     -7.49      0.00
  -11   -2    2      0.91      0.00
  -10   -2    2     12.19      0.00
   -9   -2    2     -0.81      0.00
   -8   -2    2    -17.33      0.00
   -7   -2    2      2.33      0.00
   -6   -2    2     20.23      0.00
   -5   -2    2      2.76      0.00
   -4   -2    2    -13.48      0.00
   -3   -2    2    -23.62      0.00
   -2   -2    2     13.40      0.00
   -1   -2    2     42.49      0.00
    0   -2    2    -23.82      0.00
    1   -2    2    -31.45      0.00
    2   -2    2     10.80      0.00
    3   -2    2     20.45      0.00
    4   -2    2      1.51      0.00
    5   -2    2    -14.69      0.00
    6   -2    2     -3.09      0.00
    7   -2    2      9.25      0.00
    8   -2    2      3.87      0.00
    9   -2    2     -6.69      0.00
   10   -2    2     -2.34      0.00
   11   -2    2      3.73      0.00
   12   -2    2      1.47      0.00
   13   -2    2     -1.93      0.00
   14   -2    2     -1.07      0.00
  -15   -1    2     -2.35      0.00
  -14   -1    2      3.28      0.00
  -13   -1    2      6.08      0.00
  -12   -1    2     -4.52      0.00
  -11   -1    2     -9.32      0.00
  -10   -1    2      5.48      0.00
   -9   -1    2     12.01      0.00
   -8   -1    2     -5.42      0.00
   -7   -1    2    -20.11      0.00
   -6   -1    2      1.44      0.00
   -5   -1    2     34.31      0.00
   -4   -1    2     -3.21      0.00
   -3   -1    2    -50.01      0.00
   -2   -1    2     18.52      0.00
   -1   -1    2     32.85      0.00
    0   -1    2    -11.57      0.00
    1   -1    2     -1.58      0.00
    2   -1    2     -7.95      0.00
    3   -1    2     -1.12      0.00
    4   -1    2      2.68      0.00
    5   -1    2      3.22      0.00
    6   -1    2      0.50      0.00
    7   -1    2     -5.44      0.00
    8   -1    2     -0.36      0.00
    9   -1    2      4.63      0.00
   10   -1    2      1.05      0.00
   11   -1    2     -3.77      0.00
   12   -1    2      0.06      0.00
   13   -1    2      1.82      0.00
   14   -1    2      0.19      0.00
  -15    0    2     -0.82      0.00
  -14    0    2     -1.59      0.00
  -13    0    2      0.03      0.00
  -12    0    2      2.51      0.00
  -11    0    2     -0.45      0.00
  -10    0    2     -3.95      0.00
   -9    0    2      4.21      0.00
   -8    0    2      7.47      0.00
   -7    0    2     -9.36      0.00
   -6    0    2     -7.49      0.00
   -5    0    2     17.93      0.00
   -4    0    2     -0.76      0.00
   -3    0    2    -11.29      0.00
   -2    0    2      2.37      0.00
   -1    0    2    -13.07      0.00
    0    0    2     20.35      0.00
    1    0    2     -0.40      0.00
    2    0    2    -15.34      0.00
    3    0    2     13.16      0.00
    4    0    2     -1.32      0.00
    5    0    2     -4.89      0.00
    6    0    2      1.04      0.00
    7    0    2      2.62      0.00
    8    0    2     -0.36      0.00
    9    0    2     -1.27      0.00
   10    0    2      0.10      0.00
   11    0    2      0.00      0.00
   12    0    2     -0.02      0.00
   13    0    2     -0.18      0.00
   14    0    2      0.63      0.00
  -14    1    2     -1.29      0.00
  -13    1    2     -1.20      0.00
  -12    1    2      1.82      0.00
  -11    1    2      0.96      0.00
  -10    1    2     -5.16      0.00
   -9    1    2     -0.63      0.00
   -8    1    2      6.91      0.00
   -7    1    2      1.86      0.00
   -6    1    2    -10.80      0.00
   -5    1    2     -9.69      0.00
   -4    1    2     22.21      0.00
   -3    1    2     27.09      0.00
   -2    1    2    -55.35      0.00
   -1    1    2    -19.73      0.00
    0    1    2     69.98      0.00
    1    1    2      0.78      0.00
    2    1    2    -41.84      0.00
    3    1    2    -11.69      0.00
    4    1    2     30.64      0.00
    5    1    2     14.66      0.00
    6    1    2    -26.24      0.00
    7    1    2     -7.02      0.00
    8    1    2     15.14      0.00
    9    1    2      3.75      0.00
   10    1    2     -8.19      0.00
   11    1    2     -1.59      0.00
   12    1    2      2.77      0.00
   13    1    2      1.22      0.00
   14    1    2     -0.59      0.00
  -15    2    2      0.89      0.00
  -14    2    2     -1.54      0.00
  -13    2    2     -2.39      0.00
  -12    2    2      1.85      0.00
  -11    2    2      4.35      0.00
  -10    2    2     -0.85      0.00
   -9    2    2     -7.78      0.00
   -8    2    2     -0.54      0.00
   -7    2    2     16.25      0.00
   -6    2    2     -0.48      0.00
   -5    2    2    -28.21      0.00
   -4    2    2      8.87      0.00
   -3    2    2     32.50      0.00
   -2    2    2    -14.31      0.00
   -1    2    2    -20.27      0.00
    0    2    2     -9.99      0.00
    1    2    2     32.50      0.00
    2    2    2     12.70      0.00
    3    2    2    -40.01      0.00
    4    2    2      1.14      0.00
    5    2    2     22.46      0.00
    6    2    2      0.40      0.00
    7    2    2     -9.79      0.00
    8    2    2     -2.73      0.00
    9    2    2      5.92      0.00
   10    2    2      2.85      0.00
   11    2    2     -3.15      0.00
   12    2    2     -2.79      0.00
   13    2    2      1.89      0.00
   14    2    2      0.02      0.00
  -15    3    2     -0.46      0.00
  -14    3    2      3.04      0.00
  -13    3    2      0.81      0.00
  -12    3    2     -4.89      0.00
  -11    3    2     -3.29      0.00
  -10    3    2      7.19      0.00
   -9    3    2      3.53      0.00
   -8    3    2     -7.17      0.00
   -7    3    2     -7.17      0.00
   -6    3    2      5.22      0.00
   -5    3    2     18.31      0.00
   -4    3    2     -6.09      0.00
   -3    3    2    -37.13      0.00
   -2    3    2     20.97      0.00
   -1    3    2     33.68      0.00
    0    3    2    -27.16      0.00
    1    3    2    -12.58      0.00
    2    3    2     12.51      0.00
    3    3    2     15.97      0.00
    4    3    2     -9.17      0.00
    5    3    2    -18.76      0.00
    6    3    2     13.06      0.00
    7    3    2      7.32      0.00
    8    3    2    -10.72      0.00
    9    3    2     -1.35      0.00
   10    3    2      6.74      0.00
   11    3    2      0.27      0.00
   12    3    2     -2.54      0.00
   13    3    2     -0.81      0.00
  -15    4    2     -1.40      0.00
  -14    4    2      1.08      0.00
  -13    4    2      2.49      0.00
  -12    4    2      0.13      0.00
  -11    4    2     -3.31      0.00
  -10    4    2     -2.64      0.00
   -9    4    2      4.27      0.00
   -8    4    2      7.48      0.00
   -7    4    2     -8.18      0.00
   -6    4    2    -10.14      0.00
   -5    4    2     12.93      0.00
   -4    4    2      8.88      0.00
   -3    4    2     -9.19      0.00
   -2    4    2     -6.81      0.00
   -1    4    2     -7.08      0.00
    0    4    2     16.74      0.00
    1    4    2      2.44      0.00
    2    4    2    -14.20      0.00
    3    4    2      8.25      0.00
    4    4    2     -3.98      0.00
    5    4    2     -1.42      0.00
    6    4    2     10.54      0.00
    7    4    2     -3.77      0.00
    8    4    2     -5.78      0.00
    9    4    2      1.68      0.00
   10    4    2      2.61      0.00
   11    4    2     -0.57      0.00
   12    4    2     -1.14      0.00
   13    4    2     -0.64      0.00
  -15    5    2      1.55      0.00
  -14    5    2      0.44      0.00
  -13    5    2     -1.06      0.00
  -12    5    2     -1.32      0.00
  -11    5    2      1.11      0.00
  -10    5    2      1.51      0.00
   -9    5    2      0.15      0.00
   -8    5    2     -5.76      0.00
   -7    5    2      0.94      0.00
   -6    5    2     10.20      0.00
   -5    5    2     -5.44      0.00
   -4    5    2    -12.52      0.00
   -3    5    2     15.64      0.00
   -2    5    2      7.41      0.00
   -1    5    2    -18.02      0.00
    0    5    2     -3.40      0.00
    1    5    2      7.21      0.00
    2    5    2     13.61      0.00
    3    5    2     -5.33      0.00
    4    5    2    -15.98      0.00
    5    5    2      9.66      0.00
    6    5    2      3.02      0.00
    7    5    2     -3.66      0.00
    8    5    2      2.71      0.00
    9    5    2     -1.75      0.00
   10    5    2     -1.45      0.00
   11    5    2      2.68      0.00
   12    5    2     -0.11      0.00
   13    5    2     -1.51      0.00
  -14    6    2     -1.71      0.00
  -13    6    2      3.28      0.00
  -12    6    2      3.11      0.00
  -11    6    2     -6.68      0.00
  -10    6    2     -3.39      0.00
   -9    6    2      8.61      0.00
   -8    6    2      3.18      0.00
   -7    6    2     -6.72      0.00
   -6    6    2     -6.56      0.00
   -5    6    2      4.45      0.00
   -4    6    2     11.50      0.00
   -3    6    2     -2.33      0.00
   -2    6    2    -16.22      0.00
   -1    6    2      5.68      0.00
    0    6    2     10.55      0.00
    1    6    2     -3.62      0.00
    2    6    2     -3.15      0.00
    3    6    2     -9.12      0.00
    4    6    2     10.69      0.00
    5    6    2      7.82      0.00
    6    6    2    -13.95      0.00
    7    6    2      0.62      0.00
    8    6    2      7.36      0.00
    9    6    2     -1.59      0.00
   10    6    2     -2.71      0.00
   11    6    2      0.10      0.00
   12    6    2      1.23      0.00
   13    6    2      1.24      0.00
  -14    7    2     -0.78      0.00
  -13    7    2     -2.07      0.00
  -12    7    2      2.99      0.00
  -11    7    2      5.14      0.00
  -10    7    2     -4.55      0.00
   -9    7    2    -11.56      0.00
   -8    7    2      9.39      0.00
   -7    7    2     12.67      0.00
   -6    7    2    -13.84      0.00
   -5    7    2    -11.59      0.00
   -4    7    2     15.98      0.00
   -3    7    2     10.99      0.00
   -2    7    2    -13.15      0.00
   -1    7    2    -10.93      0.00
    0    7    2      5.37      0.00
    1    7    2     15.38      0.00
    2    7    2     -5.57      0.00
    3    7    2    -11.19      0.00
    4    7    2      8.12      0.00
    5    7    2     -1.34      0.00
    6    7    2     -0.88      0.00
    7    7    2      3.43      0.00
    8    7    2     -4.17      0.00
    9    7    2     -0.06      0.00
   10    7    2      3.40      0.00
   11    7    2     -0.85      0.00
   12    7    2     -1.93      0.00
  -14    8    2      1.72      0.00
  -13    8    2      1.55      0.00
  -12    8    2     -4.40      0.00
  -11    8    2      0.11      0.00
  -10    8    2      6.70      0.00
   -9    8    2     -1.27      0.00
   -8    8    2     -6.36      0.00
   -7    8    2      0.55      0.00
   -6    8    2      6.90      0.00
   -5    8    2     -1.61      0.00
   -4    8    2     -7.35      0.00
   -3    8    2      2.24      0.00
   -2    8    2      8.57      0.00
   -1    8    2     -3.68      0.00
    0    8    2     -6.17      0.00
    1    8    2      1.18      0.00
    2    8    2      0.76      0.00
    3    8    2      7.43      0.00
    4    8    2     -4.06      0.00
    5    8    2     -8.29      0.00
    6    8    2      8.21      0.00
    7    8    2      2.48      0.00
    8    8    2     -5.48      0.00
    9    8    2     -0.12      0.00
   10    8    2      1.03      0.00
   11    8    2      1.36      0.00
   12    8    2      0.04      0.00
  -12    9    2      3.59      0.00
  -11    9    2     -3.06      0.00
  -10    9    2     -5.08      0.00
   -9    9    2      5.31      0.00
   -8    9    2      2.80      0.00
   -7    9    2     -5.13      0.00
   -6    9    2     -0.34      0.00
   -5    9    2      3.59      0.00
   -4    9    2     -2.70      0.00
   -3    9    2      0.36      0.00
   -2    9    2      4.21      0.00
   -1    9    2     -2.36      0.00
    0    9    2     -4.42      0.00
    1    9    2     -0.07      0.00
    2    9    2      9.11      0.00
    3    9    2     -0.61      0.00
    4    9    2    -12.78      0.00
    5    9    2      3.66      0.00
    6    9    2      9.82      0.00
    7    9    2     -3.99      0.00
    8    9    2     -3.71      0.00
    9    9    2      0.93      0.00
   10    9    2      1.75      0.00
   11    9    2     -0.44      0.00
  -11   10    2      4.41      0.00
  -10   10    2     -0.94      0.00
   -9   10    2     -4.88      0.00
   -8   10    2      1.07      0.00
   -7   10    2      4.07      0.00
   -6   10    2     -0.35      0.00
   -5   10    2     -2.18      0.00
   -4   10    2     -2.38      0.00
   -3   10    2      1.54      0.00
   -2   10    2      4.07      0.00
   -1   10    2      1.12      0.00
    0   10    2     -8.47      0.00
    1   10    2     -2.18      0.00
    2   10    2     10.74      0.00
    3   10    2      0.27      0.00
    4   10    2     -6.81      0.00
    5   10    2      0.22      0.00
    6   10    2      0.73      0.00
    7   10    2      1.75      0.00
    8   10    2      1.73      0.00
    9   10    2     -3.26      0.00
   10   10    2      0.16      0.00
  -11   11    2      1.41      0.00
  -10   11    2      1.26      0.00
   -9   11    2     -3.05      0.00
   -8   11    2     -0.05      0.00
   -7   11    2      1.39      0.00
   -6   11    2      0.19      0.00
   -5   11    2     -1.90      0.00
   -4   11    2      1.83      0.00
   -3   11    2      2.08      0.00
   -2   11    2     -2.19      0.00
   -1   11    2     -1.82      0.00
    0   11    2      2.14      0.00
    1   11    2      3.09      0.00
    2   11    2     -4.87      0.00
    3   11    2     -2.45      0.00
    4   11    2      7.00      0.00
    5   11    2     -0.16      0.00
    6   11    2     -6.86      0.00
    7   11    2      2.30      0.00
    8   11    2      3.70      0.00
    9   11    2     -1.00      0.00
   10   11    2     -1.51      0.00
  -11   12    2     -0.50      0.00
  -10   12    2      2.20      0.00
   -9   12    2      1.08      0.00
   -8   12    2     -2.87      0.00
   -7   12    2     -0.50      0.00
   -6   12    2      3.37      0.00
   -5   12    2     -2.89      0.00
   -4   12    2     -2.05      0.00
   -3   12    2      4.31      0.00
   -2   12    2      1.90      0.00
   -1   12    2     -4.37      0.00
    0   12    2     -1.14      0.00
    1   12    2      1.96      0.00
    2   12    2     -0.75      0.00
    3   12    2      2.11      0.00
    4   12    2      0.60      0.00
    5   12    2     -3.85      0.00
    6   12    2      0.33      0.00
    7   12    2      3.20      0.00
    8   12    2     -1.28      0.00
    9   12    2     -0.45      0.00
  -11   13    2     -1.86      0.00
  -10   13    2      0.00      0.00
   -9   13    2      4.41      0.00
   -8   13    2     -1.68      0.00
   -7   13    2     -4.57      0.00
   -6   13    2      1.69      0.00
   -5   13    2      4.28      0.00
   -4   13    2     -1.28      0.00
   -3   13    2     -5.08      0.00
   -2   13    2      0.63      0.00
   -1   13    2      7.90      0.00
    0   13    2      0.16      0.00
    1   13    2     -9.13      0.00
    2   13    2      0.31      0.00
    3   13    2      7.54      0.00
    4   13    2     -1.70      0.00
    5   13    2     -4.33      0.00
    6   13    2      1.18      0.00
    7   13    2      1.49      0.00
    8   13    2     -0.10      0.00
   -9   14    2     -1.52      0.00
   -8   14    2      2.74      0.00
   -7   14    2      1.45      0.00
   -6   14    2     -3.50      0.00
   -5   14    2      0.12      0.00
   -4   14    2      3.31      0.00
   -3   14    2     -1.21      0.00
   -2   14    2     -2.21      0.00
   -1   14    2     -0.02      0.00
    0   14    2      0.74      0.00
    1   14    2      0.96      0.00
    2   14    2      1.16      0.00
    4   14    2     -0.31      0.00
    5   14    2      1.49      0.00
    6   14    2     -0.23      0.00
    7   14    2     -1.24      0.00
   -7   15    2     -0.23      0.00
   -6   15    2      0.86      0.00
   -5   15    2      0.14      0.00
   -4   15    2     -1.69      0.00
   -3   15    2      0.58      0.00
   -2   15    2      3.79      0.00
   -1   15    2     -1.40      0.00
    0   15    2     -2.73      0.00
    1   15    2      0.90      0.00
    2   15    2      0.74      0.00
   -5   16    2     -0.95      0.00
   -4   16    2      0.14      0.00
   -3   16    2      0.70      0.00
   -2   16    2     -0.75      0.00
   -1   16    2      0.42      0.00
    0   16    2      0.75      0.00
    1   16    2     -0.36      0.00
   -1   17    2      1.04      0.00
    0   17    2     -0.20      0.00
    1   17    2     -0.71      0.00
   -5  -16    3      3.20      0.00
   -4  -16    3     -0.65      0.00
   -3  -16    3     -2.95      0.00
   -2  -16    3      1.54      0.00
   -1  -16    3      0.99      0.00
    0  -16    3     -2.13      0.00
    1  -16    3      0.18      0.00
    2  -16    3      0.38      0.00
    3  -16    3      1.06      0.00
    4  -16    3      0.66      0.00
   -5  -15    3      2.40      0.00
   -4  -15    3     -2.69      0.00
   -3  -15    3      0.22      0.00
   -2  -15    3      2.23      0.00
   -1  -15    3     -3.06      0.00
    0  -15    3      0.51      0.00
    1  -15    3      2.39      0.00
    2  -15    3     -1.40      0.00
    3  -15    3     -1.62      0.00
    4  -15    3     -0.16      0.00
    5  -15    3      3.61      0.00
    6  -15    3     -0.64      0.00
    7  -15    3     -1.55      0.00
   -8  -14    3     -1.79      0.00
   -5  -14    3     -2.28      0.00
   -4  -14    3     -2.58      0.00
   -3  -14    3      4.09      0.00
   -2  -14    3      0.43      0.00
   -1  -14    3     -2.00      0.00
    0  -14    3     -1.07      0.00
    1  -14    3     -0.13      0.00
    2  -14    3      3.62      0.00
    3  -14    3     -0.52      0.00
    4  -14    3     -3.80      0.00
    5  -14    3      0.81      0.00
    6  -14    3      2.79      0.00
    7  -14    3     -0.41      0.00
    8  -14    3     -1.76      0.00
    9  -14    3     -0.69      0.00
   -9  -13    3      1.57      0.00
   -8  -13    3      1.10      0.00
   -7  -13    3      0.02      0.00
   -6  -13    3     -3.49      0.00
   -5  -13    3      0.31      0.00
   -4  -13    3      6.48      0.00
   -3  -13    3     -2.22      0.00
   -2  -13    3     -7.41      0.00
   -1  -13    3      4.10      0.00
    0  -13    3      4.70      0.00
    1  -13    3     -3.56      0.00
    2  -13    3     -3.16      0.00
    3  -13    3      2.04      0.00
    4  -13    3      3.95      0.00
    5  -13    3     -2.15      0.00
    6  -13    3     -2.50      0.00
    7  -13    3      2.55      0.00
    8  -13    3      0.87      0.00
    9  -13    3     -2.04      0.00
   10  -13    3      0.55      0.00
  -10  -12    3     -2.30      0.00
   -9  -12    3     -1.93      0.00
   -8  -12    3      5.59      0.00
   -7  -12    3      2.18      0.00
   -6  -12    3     -9.05      0.00
   -5  -12    3     -1.19      0.00
   -4  -12    3      9.36      0.00
   -3  -12    3      1.26      0.00
   -2  -12    3     -6.38      0.00
   -1  -12    3     -3.56      0.00
    0  -12    3      5.21      0.00
    1  -12    3      3.75      0.00
    2  -12    3     -5.28      0.00
    3  -12    3     -2.77      0.00
    4  -12    3      5.88      0.00
    5  -12    3     -0.58      0.00
    6  -12    3     -3.71      0.00
    7  -12    3      2.41      0.00
    8  -12    3      0.84      0.00
    9  -12    3     -1.01      0.00
   10  -12    3     -1.50      0.00
  -11  -11    3      0.78      0.00
  -10  -11    3     -2.30      0.00
   -9  -11    3      0.56      0.00
   -8  -11    3      3.25      0.00
   -7  -11    3     -1.93      0.00
   -6  -11    3     -1.97      0.00
   -5  -11    3      1.78      0.00
   -4  -11    3     -0.83      0.00
   -3  -11    3      0.58      0.00
   -2  -11    3      3.05      0.00
   -1  -11    3     -2.96      0.00
    0  -11    3     -2.24      0.00
    1  -11    3      2.68      0.00
    2  -11    3      0.18      0.00
    3  -11    3     -1.65      0.00
    4  -11    3      0.48      0.00
    5  -11    3      1.61      0.00
    6  -11    3      0.33      0.00
    7  -11    3     -3.78      0.00
    8  -11    3      2.03      0.00
    9  -11    3      3.73      0.00
   10  -11    3     -2.77      0.00
   11  -11    3     -1.67      0.00
  -12  -10    3      1.44      0.00
  -11  -10    3     -1.42      0.00
  -10  -10    3     -1.38      0.00
   -9  -10    3      3.15      0.00
   -8  -10    3     -0.91      0.00
   -7  -10    3     -1.69      0.00
   -6  -10    3      2.38      0.00
   -5  -10    3     -1.59      0.00
   -4  -10    3     -3.52      0.00
   -3  -10    3      4.53      0.00
   -2  -10    3      4.12      0.00
   -1  -10    3     -4.70      0.00
    0  -10    3     -6.13      0.00
    1  -10    3      4.34      0.00
    2  -10    3      9.25      0.00
    3  -10    3     -5.11      0.00
    4  -10    3    -11.69      0.00
    5  -10    3      8.47      0.00
    6  -10    3      8.51      0.00
    7  -10    3     -8.12      0.00
    8  -10    3     -5.75      0.00
    9  -10    3      4.12      0.00
   10  -10    3      4.20      0.00
   11  -10    3     -1.02      0.00
   12  -10    3     -1.50      0.00
  -12   -9    3      0.25      0.00
  -11   -9    3     -0.93      0.00
  -10   -9    3      2.41      0.00
   -9   -9    3     -2.05      0.00
   -8   -9    3     -3.26      0.00
   -7   -9    3      5.70      0.00
   -6   -9    3      4.21      0.00
   -5   -9    3     -7.74      0.00
   -4   -9    3     -5.85      0.00
   -3   -9    3      6.89      0.00
   -2   -9    3      6.85      0.00
   -1   -9    3     -1.81      0.00
    0   -9    3     -9.63      0.00
    1   -9    3     -2.16      0.00
    2   -9    3     10.18      0.00
    3   -9    3      1.99      0.00
    4   -9    3     -6.30      0.00
    5   -9    3     -3.20      0.00
    6   -9    3      3.65      0.00
    7   -9    3      7.90      0.00
    8   -9    3     -4.37      0.00
    9   -9    3     -7.68      0.00
   10   -9    3      2.41      0.00
   11   -9    3      4.77      0.00
   12   -9    3     -1.75      0.00
  -13   -8    3      0.65      0.00
  -12   -8    3     -0.56      0.00
  -11   -8    3      1.36      0.00
  -10   -8    3     -0.33      0.00
   -9   -8    3     -5.05      0.00
   -8   -8    3      2.57      0.00
   -7   -8    3      5.43      0.00
   -6   -8    3     -2.22      0.00
   -5   -8    3     -5.29      0.00
   -4   -8    3      1.89      0.00
   -3   -8    3      4.01      0.00
   -2   -8    3     -1.57      0.00
   -1   -8    3     -2.34      0.00
    0   -8    3      1.90      0.00
    1   -8    3      4.05      0.00
    2   -8    3     -6.62      0.00
    3   -8    3     -3.03      0.00
    4   -8    3     10.50      0.00
    5   -8    3     -3.57      0.00
    6   -8    3     -7.68      0.00
    7   -8    3      4.88      0.00
    8   -8    3      4.81      0.00
    9   -8    3     -2.83      0.00
   10   -8    3     -3.05      0.00
   11   -8    3      1.11      0.00
   12   -8    3      2.39      0.00
  -13   -7    3     -1.09      0.00
  -12   -7    3      1.29      0.00
  -11   -7    3      3.64      0.00
  -10   -7    3     -2.98      0.00
   -9   -7    3     -2.92      0.00
   -8   -7    3      2.42      0.00
   -7   -7    3      3.05      0.00
   -6   -7    3     -0.88      0.00
   -5   -7    3     -3.39      0.00
   -4   -7    3     -0.66      0.00
   -3   -7    3      0.90      0.00
   -2   -7    3      4.52      0.00
   -1   -7    3     -0.22      0.00
    0   -7    3     -5.52      0.00
    1   -7    3     -1.44      0.00
    2   -7    3      3.01      0.00
    3   -7    3      6.03      0.00
    4   -7    3     -4.22      0.00
    5   -7    3     -6.30      0.00
    6   -7    3      6.69      0.00
    7   -7    3      2.26      0.00
    8   -7    3     -3.95      0.00
    9   -7    3     -0.21      0.00
   10   -7    3     -0.33      0.00
   11   -7    3     -0.24      0.00
   12   -7    3      2.58      0.00
   13   -7    3     -0.88      0.00
  -14   -6    3     -0.62      0.00
  -13   -6    3      0.34      0.00
  -12   -6    3      0.90      0.00
  -11   -6    3     -1.22      0.00
  -10   -6    3     -0.74      0.00
   -9   -6    3      2.87      0.00
   -8   -6    3     -0.69      0.00
   -7   -6    3     -3.83      0.00
   -6   -6    3     -0.94      0.00
   -5   -6    3      8.39      0.00
   -4   -6    3      1.62      0.00
   -3   -6    3    -14.62      0.00
   -2   -6    3     -1.97      0.00
   -1   -6    3     20.89      0.00
    0   -6    3      4.68      0.00
    1   -6    3    -25.13      0.00
    2   -6    3     -4.08      0.00
    3   -6    3     22.30      0.00
    4   -6    3      0.46      0.00
    5   -6    3    -13.03      0.00
    6   -6    3     -1.69      0.00
    7   -6    3      5.43      0.00
    8   -6    3      4.44      0.00
    9   -6    3     -2.29      0.00
   10   -6    3     -5.24      0.00
   11   -6    3      1.63      0.00
   12   -6    3      2.14      0.00
   13   -6    3      0.84      0.00
  -14   -5    3     -1.41      0.00
  -13   -5    3      0.12      0.00
  -12   -5    3      1.55      0.00
  -11   -5    3      0.09      0.00
  -10   -5    3     -0.52      0.00
   -9   -5    3     -1.64      0.00
   -8   -5    3      1.77      0.00
   -7   -5    3      3.06      0.00
   -6   -5    3     -2.11      0.00
   -5   -5    3     -4.09      0.00
   -4   -5    3      0.16      0.00
   -3   -5    3      6.65      0.00
   -2   -5    3      0.66      0.00
   -1   -5    3    -10.98      0.00
    0   -5    3      0.78      0.00
    1   -5    3     12.64      0.00
    2   -5    3      0.72      0.00
    3   -5    3    -15.39      0.00
    4   -5    3      0.57      0.00
    5   -5    3     14.57      0.00
    6   -5    3     -2.61      0.00
    7   -5    3     -8.69      0.00
    8   -5    3      2.12      0.00
    9   -5    3      4.81      0.00
   10   -5    3     -0.41      0.00
   11   -5    3     -3.71      0.00
   12   -5    3     -2.09      0.00
   13   -5    3      3.32      0.00
  -14   -4    3      0.76      0.00
  -13   -4    3     -2.83      0.00
  -12   -4    3     -0.84      0.00
  -11   -4    3      4.37      0.00
  -10   -4    3      1.71      0.00
   -9   -4    3     -4.35      0.00
   -8   -4    3     -4.66      0.00
   -7   -4    3      3.10      0.00
   -6   -4    3     14.51      0.00
   -5   -4    3     -4.24      0.00
   -4   -4    3    -27.26      0.00
   -3   -4    3      7.43      0.00
   -2   -4    3     33.08      0.00
   -1   -4    3     -8.53      0.00
    0   -4    3    -29.47      0.00
    1   -4    3      8.29      0.00
    2   -4    3     21.10      0.00
    3   -4    3     -8.87      0.00
    4   -4    3     -9.59      0.00
    5   -4    3      3.33      0.00
    6   -4    3      4.00      0.00
    7   -4    3      0.67      0.00
    8   -4    3     -3.05      0.00
    9   -4    3     -0.47      0.00
   10   -4    3      2.15      0.00
   11   -4    3     -0.19      0.00
   12   -4    3     -0.54      0.00
   13   -4    3     -0.29      0.00
  -15   -3    3      1.00      0.00
  -14   -3    3     -0.69      0.00
  -13   -3    3     -3.00      0.00
  -12   -3    3      1.11      0.00
  -11   -3    3      2.48      0.00
  -10   -3    3     -2.35      0.00
   -9   -3    3     -1.12      0.00
   -8   -3    3      1.13      0.00
   -7   -3    3      0.17      0.00
   -6   -3    3      2.09      0.00
   -5   -3    3     -0.22      0.00
   -4   -3    3      1.41      0.00
   -3   -3    3     -1.29      0.00
   -2   -3    3    -12.41      0.00
   -1   -3    3     11.15      0.00
    0   -3    3     14.30      0.00
    1   -3    3    -13.16      0.00
    2   -3    3    -13.12      0.00
    3   -3    3     12.22      0.00
    4   -3    3      8.15      0.00
    5   -3    3     -9.50      0.00
    6   -3    3     -2.13      0.00
    7   -3    3      3.00      0.00
    8   -3    3      2.08      0.00
    9   -3    3     -0.03      0.00
   10   -3    3     -1.77      0.00
   11   -3    3     -0.58      0.00
   12   -3    3      0.55      0.00
   13   -3    3     -0.26      0.00
   14   -3    3     -0.06      0.00
  -15   -2    3      2.29      0.00
  -14   -2    3      0.18      0.00
  -13   -2    3     -3.11      0.00
  -12   -2    3     -1.18      0.00
  -11   -2    3      5.01      0.00
  -10   -2    3      4.18      0.00
   -9   -2    3     -7.94      0.00
   -8   -2    3     -7.29      0.00
   -7   -2    3     13.16      0.00
   -6   -2    3      4.99      0.00
   -5   -2    3    -16.79      0.00
   -4   -2    3      5.42      0.00
   -3   -2    3      6.12      0.00
   -2   -2    3    -11.42      0.00
   -1   -2    3      8.42      0.00
    0   -2    3      8.22      0.00
    1   -2    3    -10.78      0.00
    2   -2    3     -7.90      0.00
    3   -2    3     11.62      0.00
    4   -2    3      5.22      0.00
    5   -2    3     -9.72      0.00
    6   -2    3     -2.09      0.00
    7   -2    3      5.47      0.00
    8   -2    3      2.31      0.00
    9   -2    3     -4.64      0.00
   10   -2    3     -1.28      0.00
   11   -2    3      3.66      0.00
   12   -2    3      0.32      0.00
   13   -2    3     -1.45      0.00
   14   -2    3     -0.75      0.00
  -15   -1    3     -1.54      0.00
  -14   -1    3      3.61      0.00
  -13   -1    3      3.27      0.00
  -12   -1    3     -8.08      0.00
  -11   -1    3     -5.88      0.00
  -10   -1    3     10.91      0.00
   -9   -1    3      7.80      0.00
   -8   -1    3    -12.41      0.00
   -7   -1    3    -12.23      0.00
   -6   -1    3     10.22      0.00
   -5   -1    3     25.95      0.00
   -4   -1    3     -7.87      0.00
   -3   -1    3    -43.17      0.00
   -2   -1    3     14.13      0.00
   -1   -1    3     39.91      0.00
    0   -1    3     -9.06      0.00
    1   -1    3    -23.00      0.00
    2   -1    3     -2.93      0.00
    3   -1    3     11.83      0.00
    4   -1    3      6.15      0.00
    5   -1    3     -6.26      0.00
    6   -1    3     -6.11      0.00
    7   -1    3      2.82      0.00
    8   -1    3      5.30      0.00
    9   -1    3     -1.10      0.00
   10   -1    3     -2.71      0.00
   11   -1    3     -0.66      0.00
   12   -1    3      1.56      0.00
   13   -1    3      1.04      0.00
   14   -1    3     -0.93      0.00
  -15    0    3     -1.80      0.00
  -14    0    3     -0.42      0.00
  -13    0    3      3.74      0.00
  -12    0    3      2.82      0.00
  -11    0    3     -5.09      0.00
  -10    0    3     -4.90      0.00
   -9    0    3      8.95      0.00
   -8    0    3      8.75      0.00
   -7    0    3    -17.02      0.00
   -6    0    3    -11.04      0.00
   -5    0    3     26.41      0.00
   -4    0    3      3.94      0.00
   -3    0    3    -23.39      0.00
   -2    0    3      1.65      0.00
   -1    0    3      1.66      0.00
    0    0    3      5.52      0.00
    1    0    3      5.16      0.00
    2    0    3     -3.38      0.00
    3    0    3      0.78      0.00
    4    0    3     -5.79      0.00
    5    0    3      2.98      0.00
    6    0    3      5.39      0.00
    7    0    3     -4.06      0.00
    8    0    3     -4.29      0.00
    9    0    3      3.02      0.00
   10    0    3      3.62      0.00
   11    0    3     -3.31      0.00
   12    0    3     -2.03      0.00
   13    0    3      1.32      0.00
   14    0    3      1.33      0.00
  -15    1    3      1.60      0.00
  -14    1    3     -1.16      0.00
  -13    1    3     -3.79      0.00
  -12    1    3      0.48      0.00
  -11    1    3      3.31      0.00
  -10    1    3     -1.88      0.00
   -9    1    3     -1.45      0.00
   -8    1    3      2.30      0.00
   -7    1    3      0.18      0.00
   -6    1    3      1.03      0.00
   -5    1    3     -2.90      0.00
   -4    1    3     -1.88      0.00
   -3    1    3     12.92      0.00
   -2    1    3     -8.45      0.00
   -1    1    3     -8.75      0.00
    0    1    3     18.75      0.00
    1    1    3     -7.86      0.00
    2    1    3    -10.92      0.00
    3    1    3      5.27      0.00
    4    1    3      5.12      0.00
    5    1    3      1.59      0.00
    6    1    3     -7.73      0.00
    7    1    3      1.03      0.00
    8    1    3      5.54      0.00
   10    1    3     -3.39      0.00
   11    1    3      0.83      0.00
   12    1    3      1.08      0.00
   13    1    3     -0.92      0.00
  -15    2    3      0.83      0.00
  -14    2    3     -0.85      0.00
  -13    2    3      0.58      0.00
  -12    2    3      0.84      0.00
  -11    2    3     -0.07      0.00
  -10    2    3     -0.85      0.00
   -9    2    3     -1.28      0.00
   -8    2    3     -0.92      0.00
   -7    2    3      6.78      0.00
   -6    2    3     -2.43      0.00
   -5    2    3    -16.12      0.00
   -4    2    3     15.29      0.00
   -3    2    3     19.32      0.00
   -2    2    3    -34.04      0.00
   -1    2    3    -12.09      0.00
    0    2    3     29.75      0.00
    1    2    3     20.53      0.00
    2    2    3    -18.78      0.00
    3    2    3    -30.82      0.00
    4    2    3     21.48      0.00
    5    2    3     21.12      0.00
    6    2    3    -16.99      0.00
    7    2    3    -11.53      0.00
    8    2    3      8.95      0.00
    9    2    3      7.24      0.00
   10    2    3     -4.79      0.00
   11    2    3     -3.38      0.00
   12    2    3      1.29      0.00
   13    2    3      2.17      0.00
  -15    3    3      0.42      0.00
  -14    3    3     -0.42      0.00
  -13    3    3     -1.86      0.00
  -12    3    3     -0.28      0.00
  -11    3    3      1.95      0.00
  -10    3    3      1.99      0.00
   -9    3    3     -4.01      0.00
   -8    3    3     -2.34      0.00
   -7    3    3      7.13      0.00
   -6    3    3     -0.23      0.00
   -5    3    3     -4.54      0.00
   -4    3    3      2.35      0.00
   -3    3    3     -1.93      0.00
   -2    3    3      7.46      0.00
   -1    3    3     -2.23      0.00
    0    3    3    -18.92      0.00
    1    3    3     16.07      0.00
    2    3    3     10.04      0.00
    3    3    3    -10.77      0.00
    4    3    3     -3.89      0.00
    5    3    3     -0.79      0.00
    6    3    3      8.54      0.00
    7    3    3     -0.49      0.00
    8    3    3     -7.78      0.00
    9    3    3      1.34      0.00
   10    3    3      5.92      0.00
   11    3    3     -1.21      0.00
   12    3    3     -2.96      0.00
   13    3    3      0.30      0.00
  -15    4    3     -1.74      0.00
  -14    4    3      4.09      0.00
  -13    4    3      2.14      0.00
  -12    4    3     -4.09      0.00
  -11    4    3     -3.43      0.00
  -10    4    3      3.06      0.00
   -9    4    3      4.86      0.00
   -8    4    3      1.31      0.00
   -7    4    3    -11.70      0.00
   -6    4    3     -5.71      0.00
   -5    4    3     20.75      0.00
   -4    4    3      5.07      0.00
   -3    4    3    -24.86      0.00
   -2    4    3     -1.03      0.00
   -1    4    3     15.98      0.00
    0    4    3      8.42      0.00
    1    4    3    -15.63      0.00
    2    4    3    -12.18      0.00
    3    4    3     23.43      0.00
    4    4    3     -0.24      0.00
    5    4    3    -15.49      0.00
    6    4    3      7.91      0.00
    7    4    3      5.14      0.00
    8    4    3     -6.50      0.00
    9    4    3     -1.96      0.00
   10    4    3      3.99      0.00
   11    4    3      0.55      0.00
   12    4    3     -1.22      0.00
   13    4    3     -1.06      0.00
  -15    5    3      0.34      0.00
  -14    5    3     -0.41      0.00
  -13    5    3     -0.11      0.00
  -12    5    3      0.91      0.00
  -11    5    3      0.16      0.00
  -10    5    3     -3.07      0.00
   -9    5    3      1.08      0.00
   -8    5    3      3.29      0.00
   -7    5    3     -0.38      0.00
   -6    5    3     -0.35      0.00
   -5    5    3     -3.76      0.00
   -4    5    3     -0.86      0.00
   -3    5    3     12.95      0.00
   -2    5    3     -4.36      0.00
   -1    5    3    -17.66      0.00
    0    5    3      9.11      0.00
    1    5    3      7.72      0.00
    2    5    3      2.37      0.00
    3    5    3     -3.74      0.00
    4    5    3    -13.25      0.00
    5    5    3      8.69      0.00
    6    5    3      7.40      0.00
    7    5    3     -5.43      0.00
    8    5    3     -1.98      0.00
    9    5    3      1.56      0.00
   10    5    3      0.52      0.00
   11    5    3      0.40      0.00
   12    5    3     -0.97      0.00
   13    5    3     -0.45      0.00
  -15    6    3      0.96      0.00
  -14    6    3      0.35      0.00
  -13    6    3      0.58      0.00
  -12    6    3     -0.37      0.00
  -11    6    3     -3.23      0.00
  -10    6    3      2.10      0.00
   -9    6    3      5.40      0.00
   -8    6    3     -7.37      0.00
   -7    6    3     -4.28      0.00
   -6    6    3      8.43      0.00
   -5    6    3      1.77      0.00
   -4    6    3     -6.62      0.00
   -3    6    3      0.16      0.00
   -2    6    3      6.25      0.00
   -1    6    3      3.26      0.00
    0    6    3    -11.74      0.00
    1    6    3     -4.75      0.00
    2    6    3     17.27      0.00
    3    6    3     -4.88      0.00
    4    6    3     -7.16      0.00
    5    6    3      6.80      0.00
    6    6    3     -3.56      0.00
    7    6    3     -0.89      0.00
    8    6    3      4.19      0.00
    9    6    3     -1.64      0.00
   10    6    3     -2.00      0.00
   11    6    3      1.85      0.00
   12    6    3      0.71      0.00
  -14    7    3     -1.26      0.00
  -13    7    3      1.74      0.00
  -12    7    3      3.79      0.00
  -11    7    3     -3.28      0.00
  -10    7    3     -4.83      0.00
   -9    7    3      1.43      0.00
   -8    7    3      9.62      0.00
   -7    7    3      0.05      0.00
   -6    7    3    -16.03      0.00
   -5    7    3      0.80      0.00
   -4    7    3     19.22      0.00
   -3    7    3     -1.81      0.00
   -2    7    3    -18.19      0.00
   -1    7    3      0.67      0.00
    0    7    3     12.23      0.00
    1    7    3      8.10      0.00
    2    7    3    -12.34      0.00
    3    7    3    -12.44      0.00
    4    7    3     16.10      0.00
    5    7    3      5.17      0.00
    6    7    3    -10.27      0.00
    7    7    3     -0.91      0.00
    8    7    3      2.86      0.00
    9    7    3      0.88      0.00
   10    7    3      0.05      0.00
   11    7    3     -1.86      0.00
   12    7    3     -0.27      0.00
  -11    8    3      4.66      0.00
  -10    8    3      0.46      0.00
   -9    8    3    -10.48      0.00
   -8    8    3      1.77      0.00
   -7    8    3     11.73      0.00
   -6    8    3     -2.93      0.00
   -5    8    3    -11.70      0.00
   -4    8    3      1.19      0.00
   -3    8    3     13.78      0.00
   -2    8    3      0.23      0.00
   -1    8    3    -16.05      0.00
    0    8    3      0.86      0.00
    1    8    3     14.24      0.00
    2    8    3     -4.70      0.00
    3    8    3     -3.68      0.00
    4    8    3      0.69      0.00
    5    8    3     -3.26      0.00
    6    8    3      5.19      0.00
    7    8    3      2.59      0.00
    8    8    3     -5.22      0.00
    9    8    3     -0.20      0.00
   10    8    3      1.90      0.00
   11    8    3      1.07      0.00
  -12    9    3     -0.82      0.00
  -11    9    3     -2.91      0.00
  -10    9    3      1.75      0.00
   -9    9    3      5.51      0.00
   -8    9    3     -3.70      0.00
   -7    9    3     -6.03      0.00
   -6    9    3      6.04      0.00
   -5    9    3      4.84      0.00
   -4    9    3     -6.95      0.00
   -3    9    3     -1.66      0.00
   -2    9    3      5.55      0.00
   -1    9    3      0.26      0.00
    0    9    3     -2.69      0.00
    1    9    3     -5.11      0.00
    2    9    3      4.60      0.00
    3    9    3      7.41      0.00
    4    9    3     -8.31      0.00
    5    9    3     -4.27      0.00
    6    9    3      8.15      0.00
    7    9    3      0.10      0.00
    8    9    3     -3.87      0.00
    9    9    3      0.10      0.00
   10    9    3      0.78      0.00
   11    9    3      0.49      0.00
  -12   10    3      2.82      0.00
  -11   10    3      2.02      0.00
  -10   10    3     -4.43      0.00
   -9   10    3     -1.70      0.00
   -8   10    3      4.01      0.00
   -7   10    3      0.81      0.00
   -6   10    3     -3.21      0.00
   -5   10    3     -1.08      0.00
   -4   10    3      1.21      0.00
   -3   10    3      1.41      0.00
   -2   10    3      1.41      0.00
   -1   10    3      0.94      0.00
    0   10    3     -6.02      0.00
    1   10    3     -2.15      0.00
    2   10    3     11.11      0.00
    3   10    3     -0.66      0.00
    4   10    3    -10.57      0.00
    5   10    3      1.71      0.00
    6   10    3      5.88      0.00
    7   10    3      0.00      0.00
    8   10    3     -1.64      0.00
    9   10    3     -2.75      0.00
   10   10    3      2.42      0.00
  -12   11    3     -1.57      0.00
  -11   11    3      3.27      0.00
  -10   11    3      3.11      0.00
   -9   11    3     -5.02      0.00
   -8   11    3     -2.16      0.00
   -7   11    3      3.97      0.00
   -6   11    3      2.60      0.00
   -5   11    3     -2.13      0.00
   -4   11    3     -2.41      0.00
   -3   11    3     -0.35      0.00
   -2   11    3      3.48      0.00
   -1   11    3      2.10      0.00
    0   11    3     -6.09      0.00
    1   11    3     -0.74      0.00
    2   11    3      4.07      0.00
    3   11    3     -0.28      0.00
    4   11    3      0.55      0.00
    5   11    3     -0.67      0.00
    6   11    3     -3.78      0.00
    7   11    3      2.35      0.00
    8   11    3      2.91      0.00
    9   11    3     -1.64      0.00
  -12   12    3     -0.85      0.00
  -11   12    3     -0.89      0.00
  -10   12    3      1.26      0.00
   -9   12    3      1.33      0.00
   -8   12    3     -0.83      0.00
   -7   12    3     -2.07      0.00
   -6   12    3     -0.14      0.00
   -5   12    3     -0.03      0.00
   -4   12    3      1.23      0.00
   -3   12    3      2.74      0.00
   -2   12    3     -1.34      0.00
   -1   12    3     -4.44      0.00
    0   12    3      2.70      0.00
    1   12    3      5.07      0.00
    2   12    3     -5.67      0.00
    3   12    3     -2.53      0.00
    4   12    3      5.21      0.00
    5   12    3      0.10      0.00
    6   12    3     -2.80      0.00
    7   12    3      0.56      0.00
    8   12    3      0.34      0.00
  -11   13    3     -1.20      0.00
  -10   13    3     -0.51      0.00
   -9   13    3      2.57      0.00
   -8   13    3     -0.64      0.00
   -7   13    3     -1.47      0.00
   -6   13    3      1.96      0.00
   -5   13    3     -0.32      0.00
   -4   13    3     -3.04      0.00
   -3   13    3      1.35      0.00
   -2   13    3      2.28      0.00
   -1   13    3     -0.05      0.00
    0   13    3     -0.65      0.00
    1   13    3     -2.62      0.00
    2   13    3      0.33      0.00
    3   13    3      4.63      0.00
    4   13    3     -2.06      0.00
    5   13    3     -3.42      0.00
    6   13    3      1.30      0.00
    7   13    3      1.82      0.00
   -9   14    3      0.59      0.00
   -8   14    3      0.48      0.00
   -7   14    3     -1.52      0.00
   -6   14    3     -1.34      0.00
   -5   14    3      2.86      0.00
   -4   14    3      2.42      0.00
   -3   14    3     -4.33      0.00
   -2   14    3     -2.66      0.00
   -1   14    3      4.90      0.00
    0   14    3      2.22      0.00
    1   14    3     -5.06      0.00
    2   14    3      0.20      0.00
    4   14    3     -0.57      0.00
    5   14    3     -1.07      0.00
    6   14    3      0.19      0.00
   -7   15    3      1.42      0.00
   -6   15    3     -1.29      0.00
   -5   15    3     -1.62      0.00
   -4   15    3      0.93      0.00
   -3   15    3      1.98      0.00
   -2   15    3      0.96      0.00
   -1   15    3     -2.37      0.00
    0   15    3     -1.46      0.00
    1   15    3      1.78      0.00
   -5   16    3      0.00      0.00
   -4   16    3     -2.93      0.00
   -3   16    3     -0.57      0.00
   -2   16    3      2.36      0.00
   -1   16    3      1.64      0.00
    0   16    3     -1.41      0.00
    1   16    3     -0.62      0.00
    0   17    3      0.07      0.00
   -5  -16    4      1.08      0.00
   -4  -16    4      1.65      0.00
   -3  -16    4     -1.71      0.00
   -2  -16    4     -1.26      0.00
   -1  -16    4      0.63      0.00
    0  -16    4     -0.19      0.00
    1  -16    4     -0.25      0.00
    2  -16    4      0.64      0.00
    3  -16    4      0.00      0.00
   -6  -15    4     -0.20      0.00
   -5  -15    4      4.84      0.00
   -4  -15    4     -1.64      0.00
   -3  -15    4     -3.19      0.00
   -2  -15    4      2.27      0.00
   -1  -15    4      1.06      0.00
    0  -15    4     -0.42      0.00
    1  -15    4     -0.47      0.00
    2  -15    4     -1.71      0.00
    3  -15    4      1.92      0.00
    4  -15    4      0.40      0.00
    5  -15    4      0.15      0.00
    6  -15    4     -0.65      0.00
    7  -15    4     -0.46      0.00
   -6  -14    4      2.87      0.00
   -5  -14    4      0.55      0.00
   -4  -14    4     -3.38      0.00
   -3  -14    4      2.75      0.00
   -2  -14    4      1.05      0.00
   -1  -14    4     -2.72      0.00
    0  -14    4     -0.68      0.00
    1  -14    4      1.55      0.00
    2  -14    4      2.06      0.00
    3  -14    4     -2.31      0.00
    4  -14    4     -2.76      0.00
    5  -14    4      3.36      0.00
    6  -14    4      1.45      0.00
    7  -14    4     -1.39      0.00
    8  -14    4     -1.03      0.00
   -9  -13    4      2.14      0.00
   -8  -13    4     -2.47      0.00
   -7  -13    4     -0.82      0.00
   -6  -13    4      2.97      0.00
   -5  -13    4     -0.97      0.00
   -4  -13    4     -0.18      0.00
   -3  -13    4     -0.03      0.00
   -2  -13    4     -1.14      0.00
   -1  -13    4      2.07      0.00
    0  -13    4     -0.73      0.00
    1  -13    4     -2.22      0.00
    2  -13    4      2.76      0.00
    3  -13    4      0.51      0.00
    4  -13    4     -0.65      0.00
    5  -13    4     -1.59      0.00
    6  -13    4      0.22      0.00
    7  -13    4      2.44      0.00
    8  -13    4     -0.64      0.00
    9  -13    4     -2.27      0.00
  -10  -12    4     -1.23      0.00
   -9  -12    4     -0.83      0.00
   -8  -12    4      3.64      0.00
   -7  -12    4      1.59      0.00
   -6  -12    4     -8.22      0.00
   -5  -12    4     -0.82      0.00
   -4  -12    4     11.11      0.00
   -3  -12    4     -0.72      0.00
   -2  -12    4     -8.96      0.00
   -1  -12    4     -0.97      0.00
    0  -12    4      8.14      0.00
    1  -12    4      1.44      0.00
    2  -12    4     -9.33      0.00
    3  -12    4     -1.05      0.00
    4  -12    4      9.68      0.00
    5  -12    4     -0.89      0.00
    6  -12    4     -6.23      0.00
    7  -12    4      2.10      0.00
    8  -12    4      2.34      0.00
    9  -12    4     -0.60      0.00
   10  -12    4     -1.11      0.00
  -11  -11    4      1.18      0.00
  -10  -11    4     -2.96      0.00
   -9  -11    4     -1.97      0.00
   -8  -11    4      6.26      0.00
   -7  -11    4      2.55      0.00
   -6  -11    4     -7.31      0.00
   -5  -11    4     -2.68      0.00
   -4  -11    4      4.79      0.00
   -3  -11    4      5.26      0.00
   -2  -11    4     -2.64      0.00
   -1  -11    4     -8.25      0.00
    0  -11    4      3.83      0.00
    1  -11    4      7.44      0.00
    2  -11    4     -4.46      0.00
    3  -11    4     -4.19      0.00
    4  -11    4      2.15      0.00
    5  -11    4      2.37      0.00
    6  -11    4     -0.09      0.00
    7  -11    4     -2.97      0.00
    8  -11    4      0.77      0.00
    9  -11    4      2.43      0.00
   10  -11    4     -1.76      0.00
   11  -11    4     -0.43      0.00
  -12  -10    4      1.21      0.00
  -11  -10    4     -0.67      0.00
  -10  -10    4     -2.85      0.00
   -9  -10    4      3.02      0.00
   -8  -10    4      1.53      0.00
   -7  -10    4     -3.95      0.00
   -6  -10    4      0.78      0.00
   -5  -10    4      2.66      0.00
   -4  -10    4     -3.83      0.00
   -3  -10    4      1.23      0.00
   -2  -10    4      3.57      0.00
   -1  -10    4     -1.23      0.00
    0  -10    4     -4.19      0.00
    1  -10    4     -0.50      0.00
    2  -10    4      6.90      0.00
    3  -10    4     -0.72      0.00
    4  -10    4     -9.03      0.00
    5  -10    4      5.26      0.00
    6  -10    4      6.53      0.00
    7  -10    4     -6.55      0.00
    8  -10    4     -3.19      0.00
    9  -10    4      3.98      0.00
   10  -10    4      1.81      0.00
   11  -10    4     -2.18      0.00
  -12   -9    4      1.50      0.00
  -11   -9    4     -1.75      0.00
  -10   -9    4     -0.25      0.00
   -9   -9    4      1.21      0.00
   -8   -9    4     -1.44      0.00
   -7   -9    4      1.41      0.00
   -6   -9    4      2.93      0.00
   -5   -9    4     -4.52      0.00
   -4   -9    4     -3.57      0.00
   -3   -9    4      4.87      0.00
   -2   -9    4      4.71      0.00
   -1   -9    4     -0.87      0.00
    0   -9    4    -10.57      0.00
    1   -9    4     -1.11      0.00
    2   -9    4     15.82      0.00
    3   -9    4     -2.49      0.00
    4   -9    4    -12.93      0.00
    5   -9    4      3.31      0.00
    6   -9    4      8.27      0.00
    7   -9    4      1.13      0.00
    8   -9    4     -7.17      0.00
    9   -9    4     -3.29      0.00
   10   -9    4      4.96      0.00
   11   -9    4      2.53      0.00
   12   -9    4     -2.75      0.00
  -13   -8    4      0.89      0.00
  -12   -8    4     -1.40      0.00
  -11   -8    4      0.38      0.00
  -10   -8    4      2.67      0.00
   -9   -8    4     -3.48      0.00
   -8   -8    4     -2.99      0.00
   -7   -8    4      5.10      0.00
   -6   -8    4      4.48      0.00
   -5   -8    4     -5.12      0.00
   -4   -8    4     -5.39      0.00
   -3   -8    4      1.74      0.00
   -2   -8    4      7.56      0.00
   -1   -8    4      2.57      0.00
    0   -8    4     -9.39      0.00
    1   -8    4     -0.95      0.00
    2   -8    4      3.15      0.00
    3   -8    4      0.50      0.00
    4   -8    4      4.22      0.00
    5   -8    4     -7.83      0.00
    6   -8    4     -3.76      0.00
    7   -8    4     11.23      0.00
    8   -8    4      2.08      0.00
    9   -8    4     -8.41      0.00
   10   -8    4     -1.63      0.00
   11   -8    4      4.88      0.00
   12   -8    4      1.43      0.00
  -14   -7    4     -0.56      0.00
  -13   -7    4      0.26      0.00
  -12   -7    4      1.32      0.00
  -11   -7    4      1.86      0.00
  -10   -7    4     -2.35      0.00
   -9   -7    4     -2.70      0.00
   -8   -7    4      2.99      0.00
   -7   -7    4      2.59      0.00
   -6   -7    4     -3.36      0.00
   -5   -7    4     -3.23      0.00
   -4   -7    4      3.56      0.00
   -3   -7    4      2.14      0.00
   -2   -7    4     -1.43      0.00
   -1   -7    4     -5.53      0.00
    0   -7    4      4.06      0.00
    1   -7    4      8.59      0.00
    2   -7    4    -10.77      0.00
    3   -7    4     -1.70      0.00
    4   -7    4      9.80      0.00
    5   -7    4     -2.23      0.00
    6   -7    4     -5.29      0.00
    7   -7    4     -0.12      0.00
    8   -7    4      3.26      0.00
    9   -7    4      1.79      0.00
   10   -7    4     -4.72      0.00
   11   -7    4     -1.42      0.00
   12   -7    4      4.98      0.00
  -14   -6    4     -1.47      0.00
  -13   -6    4     -1.41      0.00
  -12   -6    4      2.11      0.00
  -11   -6    4      1.58      0.00
  -10   -6    4     -2.60      0.00
   -9   -6    4     -1.28      0.00
   -8   -6    4      2.60      0.00
   -7   -6    4      3.08      0.00
   -6   -6    4     -3.52      0.00
   -5   -6    4     -2.09      0.00
   -4   -6    4      2.47      0.00
   -3   -6    4      0.31      0.00
   -2   -6    4     -1.00      0.00
   -1   -6    4      1.98      0.00
    0   -6    4      4.51      0.00
    1   -6    4    -11.74      0.00
    2   -6    4     -2.44      0.00
    3   -6    4     15.58      0.00
    4   -6    4     -4.91      0.00
    5   -6    4     -8.71      0.00
    6   -6    4      5.28      0.00
    7   -6    4      3.25      0.00
    8   -6    4     -1.20      0.00
    9   -6    4     -0.46      0.00
   10   -6    4     -1.68      0.00
   11   -6    4      0.46      0.00
   12   -6    4     -0.07      0.00
   13   -6    4      0.17      0.00
  -14   -5    4     -1.13      0.00
  -13   -5    4      0.86      0.00
  -12   -5    4      1.09      0.00
  -11   -5    4     -0.17      0.00
  -10   -5    4     -0.71      0.00
   -9   -5    4     -0.49      0.00
   -8   -5    4      1.85      0.00
   -7   -5    4      0.27      0.00
   -6   -5    4     -3.62      0.00
   -5   -5    4      1.89      0.00
   -4   -5    4      2.98      0.00
   -3   -5    4     -3.61      0.00
   -2   -5    4     -7.34      0.00
   -1   -5    4      8.72      0.00
    0   -5    4      9.97      0.00
    1   -5    4    -11.63      0.00
    2   -5    4     -2.71      0.00
    3   -5    4      3.28      0.00
    4   -5    4      2.17      0.00
    5   -5    4      1.97      0.00
    6   -5    4     -4.67      0.00
    7   -5    4     -1.96      0.00
    8   -5    4      4.41      0.00
    9   -5    4      0.34      0.00
   10   -5    4     -2.18      0.00
   11   -5    4     -0.70      0.00
   12   -5    4     -0.30      0.00
   13   -5    4      2.40      0.00
  -15   -4    4      0.79      0.00
  -14   -4    4     -0.84      0.00
  -13   -4    4     -2.44      0.00
  -12   -4    4      0.28      0.00
  -11   -4    4      3.36      0.00
  -10   -4    4     -0.31      0.00
   -9   -4    4     -4.12      0.00
   -8   -4    4     -0.99      0.00
   -7   -4    4      4.29      0.00
   -6   -4    4      8.39      0.00
   -5   -4    4     -6.06      0.00
   -4   -4    4    -16.66      0.00
   -3   -4    4      9.62      0.00
   -2   -4    4     22.84      0.00
   -1   -4    4    -11.43      0.00
    0   -4    4    -29.69      0.00
    1   -4    4     16.79      0.00
    2   -4    4     26.41      0.00
    3   -4    4    -20.69      0.00
    4   -4    4    -12.97      0.00
    5   -4    4     11.86      0.00
    6   -4    4      7.23      0.00
    7   -4    4     -4.25      0.00
    8   -4    4     -6.00      0.00
    9   -4    4      3.00      0.00
   10   -4    4      4.93      0.00
   11   -4    4     -2.84      0.00
   12   -4    4     -2.65      0.00
   13   -4    4      0.97      0.00
  -15   -3    4      0.50      0.00
  -14   -3    4      1.66      0.00
  -13   -3    4     -2.92      0.00
  -12   -3    4     -1.35      0.00
  -11   -3    4      2.92      0.00
  -10   -3    4      2.17      0.00
   -9   -3    4     -0.28      0.00
   -8   -3    4     -6.93      0.00
   -7   -3    4     -3.30      0.00
   -6   -3    4     16.27      0.00
   -5   -3    4      5.97      0.00
   -4   -3    4    -23.24      0.00
   -3   -3    4    -11.42      0.00
   -2   -3    4     24.39      0.00
   -1   -3    4     17.59      0.00
    0   -3    4    -21.45      0.00
    1   -3    4    -13.59      0.00
    2   -3    4      9.14      0.00
    3   -3    4     13.98      0.00
    4   -3    4     -3.26      0.00
    5   -3    4    -13.60      0.00
    6   -3    4      3.71      0.00
    7   -3    4      7.40      0.00
    8   -3    4     -1.91      0.00
    9   -3    4     -3.29      0.00
   10   -3    4     -1.13      0.00
   11   -3    4      1.96      0.00
   12   -3    4      2.03      0.00
   13   -3    4     -1.74      0.00
  -15   -2    4      0.97      0.00
  -14   -2    4     -1.00      0.00
  -13   -2    4     -1.73      0.00
  -12   -2    4      1.20      0.00
  -11   -2    4      2.01      0.00
  -10   -2    4     -0.96      0.00
   -9   -2    4     -3.46      0.00
   -8   -2    4     -0.06      0.00
   -7   -2    4      6.22      0.00
   -6   -2    4     -4.04      0.00
   -5   -2    4     -8.24      0.00
   -4   -2    4     17.01      0.00
   -3   -2    4      3.46      0.00
   -2   -2    4    -27.64      0.00
   -1   -2    4      1.70      0.00
    0   -2    4     32.28      0.00
    1   -2    4     -4.53      0.00
    2   -2    4    -29.80      0.00
    3   -2    4      9.62      0.00
    4   -2    4     15.97      0.00
    5   -2    4     -5.97      0.00
    6   -2    4     -7.52      0.00
    7   -2    4      0.20      0.00
    8   -2    4      6.95      0.00
    9   -2    4      0.31      0.00
   10   -2    4     -4.86      0.00
   11   -2    4      0.47      0.00
   12   -2    4      1.42      0.00
   13   -2    4     -0.03      0.00
  -15   -1    4      0.85      0.00
  -14   -1    4      1.18      0.00
  -13   -1    4     -1.24      0.00
  -12   -1    4     -4.51      0.00
  -11   -1    4      2.45      0.00
  -10   -1    4      8.81      0.00
   -9   -1    4     -4.33      0.00
   -8   -1    4    -10.61      0.00
   -7   -1    4      7.54      0.00
   -6   -1    4      7.76      0.00
   -5   -1    4     -5.31      0.00
   -4   -1    4     -3.55      0.00
   -3   -1    4     -2.74      0.00
   -2   -1    4      3.28      0.00
   -1   -1    4      3.94      0.00
    0   -1    4      0.94      0.00
    1   -1    4     -4.61      0.00
    2   -1    4     -2.42      0.00
    3   -1    4      3.40      0.00
    4   -1    4      3.98      0.00
    5   -1    4     -2.84      0.00
    6   -1    4     -5.25      0.00
    7   -1    4      3.05      0.00
    8   -1    4      4.95      0.00
    9   -1    4     -3.52      0.00
   10   -1    4     -2.19      0.00
   11   -1    4      1.66      0.00
   12   -1    4      0.08      0.00
   13   -1    4      0.45      0.00
  -15    0    4     -2.26      0.00
  -14    0    4      2.31      0.00
  -13    0    4      4.75      0.00
  -12    0    4     -3.08      0.00
  -11    0    4     -7.99      0.00
  -10    0    4      2.09      0.00
   -9    0    4     11.37      0.00
   -8    0    4     -0.27      0.00
   -7    0    4    -20.20      0.00
   -6    0    4     -0.80      0.00
   -5    0    4     32.28      0.00
   -4    0    4     -3.26      0.00
   -3    0    4    -35.38      0.00
   -2    0    4      5.64      0.00
   -1    0    4     28.21      0.00
    0    0    4     -1.79      0.00
    1    0    4    -18.49      0.00
    2    0    4     -0.65      0.00
    3    0    4     10.62      0.00
    4    0    4      1.18      0.00
    5    0    4     -4.28      0.00
    6    0    4     -1.96      0.00
    7    0    4      1.12      0.00
    8    0    4      0.73      0.00
    9    0    4      0.47      0.00
   10    0    4      1.25      0.00
   11    0    4     -2.34      0.00
   12    0    4     -0.36      0.00
   13    0    4      1.05      0.00
  -15    1    4      0.14      0.00
  -14    1    4     -1.91      0.00
  -13    1    4     -1.31      0.00
  -12    1    4      4.01      0.00
  -11    1    4      1.16      0.00
  -10    1    4     -5.84      0.00
   -9    1    4      2.06      0.00
   -8    1    4      8.51      0.00
   -7    1    4     -6.27      0.00
   -6    1    4     -6.21      0.00
   -5    1    4      6.51      0.00
   -4    1    4      2.55      0.00
   -3    1    4     -2.57      0.00
   -2    1    4     -3.82      0.00
   -1    1    4      1.06      0.00
    0    1    4      4.71      0.00
    1    1    4     -4.27      0.00
    2    1    4      0.41      0.00
    3    1    4      4.44      0.00
    4    1    4     -6.69      0.00
    5    1    4      0.51      0.00
    6    1    4      4.87      0.00
    7    1    4     -0.42      0.00
    8    1    4     -3.60      0.00
    9    1    4      1.57      0.00
   10    1    4      2.02      0.00
   11    1    4     -0.86      0.00
   12    1    4     -1.22      0.00
   13    1    4     -0.70      0.00
  -14    2    4     -0.16      0.00
  -13    2    4     -1.65      0.00
  -12    2    4     -2.35      0.00
  -11    2    4      0.99      0.00
  -10    2    4      2.61      0.00
   -9    2    4     -0.66      0.00
   -8    2    4     -6.37      0.00
   -7    2    4      2.90      0.00
   -6    2    4      7.07      0.00
   -5    2    4     -6.04      0.00
   -4    2    4      1.26      0.00
   -3    2    4      4.38      0.00
   -2    2    4    -12.45      0.00
   -1    2    4      1.16      0.00
    0    2    4     14.67      0.00
    1    2    4      1.24      0.00
    2    2    4     -9.45      0.00
    3    2    4     -8.93      0.00
    4    2    4     11.97      0.00
    5    2    4      7.33      0.00
    6    2    4    -12.68      0.00
    7    2    4     -4.40      0.00
    8    2    4      8.54      0.00
    9    2    4      3.38      0.00
   10    2    4     -5.93      0.00
   11    2    4     -0.51      0.00
   12    2    4      2.08      0.00
   13    2    4      0.58      0.00
  -15    3    4     -0.20      0.00
  -14    3    4     -1.80      0.00
  -13    3    4      1.30      0.00
  -12    3    4      2.36      0.00
  -11    3    4     -0.45      0.00
  -10    3    4     -1.84      0.00
   -9    3    4     -0.83      0.00
   -8    3    4      1.78      0.00
   -7    3    4      5.62      0.00
   -6    3    4     -7.81      0.00
   -5    3    4     -8.29      0.00
   -4    3    4     14.62      0.00
   -3    3    4      9.44      0.00
   -2    3    4    -14.76      0.00
   -1    3    4    -16.54      0.00
    0    3    4      7.69      0.00
    1    3    4     28.54      0.00
    2    3    4     -9.42      0.00
    3    3    4    -27.05      0.00
    4    3    4     12.15      0.00
    5    3    4     15.83      0.00
    6    3    4     -5.26      0.00
    7    3    4    -10.64      0.00
    8    3    4      1.78      0.00
    9    3    4      6.06      0.00
   10    3    4      0.50      0.00
   11    3    4     -3.59      0.00
   12    3    4     -0.62      0.00
   13    3    4      1.45      0.00
  -15    4    4     -0.89      0.00
  -14    4    4      3.20      0.00
  -13    4    4     -2.57      0.00
  -12    4    4     -3.46      0.00
  -11    4    4      3.28      0.00
  -10    4    4      3.68      0.00
   -9    4    4     -4.59      0.00
   -8    4    4     -0.87      0.00
   -7    4    4      1.48      0.00
   -6    4    4     -1.35      0.00
   -5    4    4      4.81      0.00
   -4    4    4     -1.28      0.00
   -3    4    4     -6.06      0.00
   -2    4    4      7.65      0.00
   -1    4    4     -0.76      0.00
    0    4    4     -5.35      0.00
    1    4    4      1.27      0.00
    2    4    4     -1.30      0.00
    3    4    4      9.71      0.00
    4    4    4     -4.21      0.00
    5    4    4    -10.44      0.00
    6    4    4      9.02      0.00
    7    4    4      5.07      0.00
    8    4    4     -7.74      0.00
    9    4    4     -2.69      0.00
   10    4    4      5.82      0.00
   11    4    4      0.68      0.00
   12    4    4     -2.28      0.00
  -15    5    4     -1.05      0.00
  -14    5    4      2.14      0.00
  -13    5    4      2.08      0.00
  -12    5    4     -2.52      0.00
  -11    5    4     -3.31      0.00
  -10    5    4      1.20      0.00
   -9    5    4      5.66      0.00
   -8    5    4      1.48      0.00
   -7    5    4     -8.72      0.00
   -6    5    4     -1.72      0.00
   -5    5    4      7.63      0.00
   -4    5    4      2.40      0.00
   -3    5    4     -3.71      0.00
   -2    5    4     -8.17      0.00
   -1    5    4      2.68      0.00
    0    5    4     15.62      0.00
    1    5    4    -11.29      0.00
    2    5    4     -8.93      0.00
    3    5    4     13.51      0.00
    4    5    4     -2.73      0.00
    5    5    4     -5.51      0.00
    6    5    4      3.36      0.00
    7    5    4      2.18      0.00
    8    5    4     -1.81      0.00
    9    5    4     -0.88      0.00
   10    5    4      0.62      0.00
   11    5    4      1.03      0.00
   12    5    4     -0.55      0.00
  -13    6    4     -0.26      0.00
  -12    6    4      1.41      0.00
  -11    6    4     -1.61      0.00
  -10    6    4     -1.76      0.00
   -9    6    4      3.33      0.00
   -8    6    4     -2.77      0.00
   -7    6    4     -1.11      0.00
   -6    6    4      5.95      0.00
   -5    6    4     -2.50      0.00
   -4    6    4     -4.29      0.00
   -3    6    4      4.63      0.00
   -2    6    4      3.20      0.00
   -1    6    4     -2.66      0.00
    0    6    4     -8.01      0.00
    1    6    4     -0.40      0.00
    2    6    4     16.13      0.00
    3    6    4     -5.19      0.00
    4    6    4    -12.31      0.00
    5    6    4      8.03      0.00
    6    6    4      3.68      0.00
    7    6    4     -4.08      0.00
    8    6    4     -0.81      0.00
    9    6    4      1.01      0.00
   10    6    4      0.36      0.00
   11    6    4      0.72      0.00
   12    6    4     -0.69      0.00
  -12    7    4      0.54      0.00
  -11    7    4     -4.60      0.00
  -10    7    4      0.72      0.00
   -9    7    4      6.22      0.00
   -8    7    4     -0.31      0.00
   -7    7    4     -6.03      0.00
   -6    7    4     -4.93      0.00
   -5    7    4      7.54      0.00
   -4    7    4      7.11      0.00
   -3    7    4    -10.49      0.00
   -2    7    4     -3.64      0.00
   -1    7    4     10.19      0.00
    0    7    4     -2.02      0.00
    1    7    4     -1.65      0.00
    2    7    4      0.93      0.00
    3    7    4     -6.01      0.00
    4    7    4      5.57      0.00
    5    7    4      3.93      0.00
    6    7    4     -6.37      0.00
    7    7    4     -0.69      0.00
    8    7    4      3.23      0.00
    9    7    4     -0.18      0.00
   10    7    4     -1.14      0.00
   11    7    4     -0.43      0.00
  -12    8    4      4.31      0.00
  -11    8    4      0.68      0.00
  -10    8    4     -6.67      0.00
   -9    8    4     -5.87      0.00
   -8    8    4     11.84      0.00
   -7    8    4      8.64      0.00
   -6    8    4    -15.16      0.00
   -5    8    4     -8.09      0.00
   -4    8    4     13.55      0.00
   -3    8    4     11.42      0.00
   -2    8    4    -12.02      0.00
   -1    8    4    -16.21      0.00
    0    8    4     11.34      0.00
    1    8    4     18.16      0.00
    2    8    4    -13.11      0.00
    3    8    4    -12.36      0.00
    4    8    4      9.65      0.00
    5    8    4      5.67      0.00
    6    8    4     -2.77      0.00
    7    8    4     -2.78      0.00
    8    8    4     -0.71      0.00
    9    8    4      2.63      0.00
   10    8    4      0.46      0.00
   11    8    4     -1.23      0.00
  -12    9    4     -0.70      0.00
  -11    9    4      3.90      0.00
  -10    9    4      3.41      0.00
   -9    9    4     -5.83      0.00
   -8    9    4     -5.45      0.00
   -7    9    4      5.53      0.00
   -6    9    4      7.86      0.00
   -5    9    4     -6.40      0.00
   -4    9    4     -9.54      0.00
   -3    9    4      9.39      0.00
   -2    9    4      7.75      0.00
   -1    9    4     -9.95      0.00
    0    9    4     -3.90      0.00
    1    9    4      3.99      0.00
    2    9    4      3.79      0.00
    3    9    4      2.79      0.00
    4    9    4     -6.89      0.00
    5    9    4     -4.58      0.00
    6    9    4      7.41      0.00
    7    9    4      1.87      0.00
    8    9    4     -4.15      0.00
    9    9    4     -0.75      0.00
   10    9    4      0.86      0.00
  -12   10    4     -0.13      0.00
  -11   10    4     -3.03      0.00
  -10   10    4     -0.26      0.00
   -8   10    4     -0.62      0.00
   -7   10    4     -6.70      0.00
   -6   10    4      1.50      0.00
   -5   10    4      4.83      0.00
   -4   10    4     -0.48      0.00
   -3   10    4     -3.67      0.00
   -2   10    4      0.64      0.00
   -1   10    4      5.63      0.00
    0   10    4     -2.39      0.00
    1   10    4     -8.12      0.00
    2   10    4      5.87      0.00
    3   10    4      5.54      0.00
    4   10    4     -6.85      0.00
    5   10    4     -2.08      0.00
    6   10    4      4.94      0.00
    7   10    4      1.11      0.00
    8   10    4     -1.76      0.00
    9   10    4     -2.70      0.00
   10   10    4      2.00      0.00
  -12   11    4      0.73      0.00
  -11   11    4      3.60      0.00
  -10   11    4     -0.51      0.00
   -9   11    4     -4.64      0.00
   -8   11    4      1.13      0.00
   -7   11    4      4.45      0.00
   -6   11    4     -1.46      0.00
   -5   11    4     -3.16      0.00
   -4   11    4      0.12      0.00
   -3   11    4      0.17      0.00
   -2   11    4      2.32      0.00
   -1   11    4      2.59      0.00
    0   11    4     -6.59      0.00
    1   11    4     -1.65      0.00
    2   11    4      7.99      0.00
    3   11    4     -0.26      0.00
    4   11    4     -5.11      0.00
    5   11    4     -0.36      0.00
    6   11    4      1.08      0.00
    7   11    4      2.67      0.00
    8   11    4     -0.24      0.00
    9   11    4     -2.48      0.00
  -12   12    4     -2.26      0.00
  -11   12    4      0.32      0.00
  -10   12    4      2.98      0.00
   -9   12    4     -0.74      0.00
   -8   12    4     -2.36      0.00
   -7   12    4     -0.30      0.00
   -6   12    4      1.61      0.00
   -5   12    4      1.81      0.00
   -4   12    4     -1.27      0.00
   -3   12    4     -1.28      0.00
   -2   12    4      1.92      0.00
   -1   12    4      0.05      0.00
    0   12    4     -1.62      0.00
    1   12    4      2.22      0.00
    2   12    4     -2.35      0.00
    3   12    4     -1.56      0.00
    4   12    4      4.04      0.00
    5   12    4     -0.63      0.00
    6   12    4     -2.49      0.00
    7   12    4      0.49      0.00
    8   12    4      0.82      0.00
  -10   13    4     -1.41      0.00
   -9   13    4      1.97      0.00
   -8   13    4      2.10      0.00
   -7   13    4     -1.79      0.00
   -6   13    4     -1.67      0.00
   -5   13    4     -1.02      0.00
   -4   13    4      0.40      0.00
   -3   13    4      3.64      0.00
   -2   13    4     -0.31      0.00
   -1   13    4     -5.12      0.00
    0   13    4      2.41      0.00
    1   13    4      3.78      0.00
    2   13    4     -3.14      0.00
    3   13    4     -0.48      0.00
    4   13    4      0.75      0.00
    5   13    4     -0.09      0.00
    6   13    4     -0.05      0.00
    7   13    4     -0.26      0.00
   -9   14    4     -0.05      0.00
   -8   14    4     -1.09      0.00
   -7   14    4      0.24      0.00
   -6   14    4      1.59      0.00
   -5   14    4     -0.01      0.00
   -4   14    4     -1.00      0.00
   -3   14    4     -0.83      0.00
   -2   14    4      0.43      0.00
   -1   14    4      2.37      0.00
    0   14    4      0.23      0.00
    1   14    4     -5.06      0.00
    3   14    4      4.15      0.00
    4   14    4     -2.07      0.00
    5   14    4     -1.34      0.00
    6   14    4      0.25      0.00
   -7   15    4      0.02      0.00
   -6   15    4     -2.07      0.00
   -5   15    4      0.36      0.00
   -4   15    4      2.18      0.00
   -3   15    4     -0.67      0.00
   -2   15    4     -2.03      0.00
   -1   15    4      1.53      0.00
    0   15    4      1.31      0.00
    1   15    4     -1.09      0.00
   -4   16    4     -3.35      0.00
   -3   16    4      0.71      0.00
   -2   16    4      2.80      0.00
   -1   16    4     -0.30      0.00
    0   16    4     -2.25      0.00
   -5  -16    5     -0.67      0.00
   -4  -16    5      2.01      0.00
   -3  -16    5     -0.60      0.00
   -2  -16    5     -1.61      0.00
   -1  -16    5      0.57      0.00
    0  -16    5      1.00      0.00
    1  -16    5     -1.10      0.00
    2  -16    5     -0.40      0.00
   -6  -15    5     -1.72      0.00
   -5  -15    5      2.42      0.00
   -4  -15    5      1.20      0.00
   -3  -15    5     -2.42      0.00
   -2  -15    5     -0.41      0.00
   -1  -15    5      1.95      0.00
    0  -15    5      0.49      0.00
    1  -15    5     -1.04      0.00
    2  -15    5     -1.26      0.00
    3  -15    5      2.15      0.00
    4  -15    5     -0.60      0.00
    5  -15    5     -1.78      0.00
    6  -15    5      0.79      0.00
   -7  -14    5     -4.22      0.00
   -6  -14    5      0.37      0.00
   -5  -14    5      4.75      0.00
   -4  -14    5     -2.48      0.00
   -3  -14    5     -1.70      0.00
   -2  -14    5      0.46      0.00
   -1  -14    5      0.37      0.00
    0  -14    5      0.79      0.00
    1  -14    5     -0.63      0.00
    2  -14    5     -0.66      0.00
    3  -14    5      0.78      0.00
    4  -14    5     -0.03      0.00
    5  -14    5      1.83      0.00
    6  -14    5     -1.04      0.00
    7  -14    5     -0.86      0.00
   -9  -13    5      2.51      0.00
   -8  -13    5     -2.87      0.00
   -7  -13    5     -2.23      0.00
   -6  -13    5      5.09      0.00
   -5  -13    5     -0.58      0.00
   -4  -13    5     -2.99      0.00
   -3  -13    5      1.27      0.00
   -2  -13    5      1.72      0.00
   -1  -13    5     -0.15      0.00
    0  -13    5     -2.94      0.00
    1  -13    5     -0.27      0.00
    2  -13    5      5.09      0.00
    3  -13    5     -2.86      0.00
    4  -13    5     -3.20      0.00
    5  -13    5      2.28      0.00
    6  -13    5      1.75      0.00
    7  -13    5     -0.42      0.00
    8  -13    5     -1.60      0.00
    9  -13    5     -0.86      0.00
  -10  -12    5      1.22      0.00
   -9  -12    5      1.36      0.00
   -8  -12    5     -1.03      0.00
   -7  -12    5     -0.47      0.00
   -6  -12    5     -1.69      0.00
   -5  -12    5      0.32      0.00
   -4  -12    5      4.99      0.00
   -3  -12    5     -2.68      0.00
   -2  -12    5     -3.48      0.00
   -1  -12    5      1.77      0.00
    0  -12    5      2.27      0.00
    1  -12    5     -0.28      0.00
    2  -12    5     -3.87      0.00
    3  -12    5      0.76      0.00
    4  -12    5      5.79      0.00
    5  -12    5     -2.93      0.00
    6  -12    5     -3.29      0.00
    7  -12    5      3.26      0.00
    8  -12    5      1.29      0.00
    9  -12    5     -1.63      0.00
  -11  -11    5     -0.04      0.00
  -10  -11    5     -2.93      0.00
   -9  -11    5     -2.36      0.00
   -8  -11    5      7.22      0.00
   -7  -11    5      3.76      0.00
   -6  -11    5    -10.42      0.00
   -5  -11    5     -3.22      0.00
   -4  -11    5      9.77      0.00
   -3  -11    5      5.20      0.00
   -2  -11    5     -8.13      0.00
   -1  -11    5     -9.15      0.00
    0  -11    5     10.27      0.00
    1  -11    5      9.45      0.00
    2  -11    5    -12.53      0.00
    3  -11    5     -5.84      0.00
    4  -11    5      8.49      0.00
    5  -11    5      3.74      0.00
    6  -11    5     -4.63      0.00
    7  -11    5     -2.84      0.00
    8  -11    5      2.17      0.00
    9  -11    5      2.36      0.00
   10  -11    5     -1.38      0.00
  -12  -10    5      0.87      0.00
  -11  -10    5      1.26      0.00
  -10  -10    5     -3.14      0.00
   -9  -10    5     -1.29      0.00
   -8  -10    5      3.70      0.00
   -7  -10    5      0.80      0.00
   -6  -10    5     -2.18      0.00
   -5  -10    5     -2.07      0.00
   -4  -10    5     -1.87      0.00
   -3  -10    5      7.38      0.00
   -2  -10    5      1.87      0.00
   -1  -10    5     -8.37      0.00
    0  -10    5     -1.11      0.00
    1  -10    5      3.68      0.00
    2  -10    5      4.56      0.00
    3  -10    5     -1.14      0.00
    4  -10    5     -7.88      0.00
    5  -10    5      3.97      0.00
    6  -10    5      6.24      0.00
    7  -10    5     -4.65      0.00
    8  -10    5     -3.59      0.00
    9  -10    5      2.51      0.00
   10  -10    5      1.36      0.00
   11  -10    5     -0.98      0.00
  -13   -9    5      0.36      0.00
  -12   -9    5      1.46      0.00
  -11   -9    5     -1.70      0.00
  -10   -9    5     -2.02      0.00
   -9   -9    5      3.51      0.00
   -8   -9    5      0.71      0.00
   -7   -9    5     -3.05      0.00
   -6   -9    5      1.51      0.00
   -5   -9    5      0.98      0.00
   -4   -9    5     -2.00      0.00
   -3   -9    5     -0.63      0.00
   -2   -9    5      1.18      0.00
   -1   -9    5      5.67      0.00
    0   -9    5     -5.98      0.00
    1   -9    5     -7.85      0.00
    2   -9    5     12.81      0.00
    3   -9    5      1.13      0.00
    4   -9    5    -12.00      0.00
    5   -9    5      2.56      0.00
    6   -9    5      7.69      0.00
    7   -9    5     -0.62      0.00
    8   -9    5     -4.77      0.00
    9   -9    5     -1.20      0.00
   10   -9    5      3.78      0.00
   11   -9    5     -0.09      0.00
  -13   -8    5      1.11      0.00
  -12   -8    5      0.44      0.00
  -11   -8    5     -0.40      0.00
  -10   -8    5      1.18      0.00
   -9   -8    5     -1.19      0.00
   -8   -8    5     -3.15      0.00
   -7   -8    5      3.30      0.00
   -6   -8    5      3.78      0.00
   -5   -8    5     -4.66      0.00
   -4   -8    5     -3.54      0.00
   -3   -8    5      1.39      0.00
   -2   -8    5      7.08      0.00
   -1   -8    5      3.57      0.00
    0   -8    5    -14.09      0.00
    1   -8    5     -1.00      0.00
    2   -8    5     12.59      0.00
    3   -8    5     -1.90      0.00
    4   -8    5     -4.24      0.00
    5   -8    5     -3.65      0.00
    6   -8    5      2.00      0.00
    7   -8    5      7.42      0.00
    8   -8    5     -2.60      0.00
    9   -8    5     -6.94      0.00
   10   -8    5      2.27      0.00
   11   -8    5      4.27      0.00
   12   -8    5     -0.22      0.00
  -14   -7    5      0.06      0.00
  -13   -7    5      0.66      0.00
  -12   -7    5     -0.97      0.00
  -11   -7    5     -0.05      0.00
  -10   -7    5      1.52      0.00
   -9   -7    5     -0.95      0.00
   -8   -7    5     -1.24      0.00
   -7   -7    5      0.79      0.00
   -6   -7    5      2.20      0.00
   -5   -7    5      0.21      0.00
   -4   -7    5     -3.81      0.00
   -3   -7    5     -2.84      0.00
   -2   -7    5      7.40      0.00
   -1   -7    5     -0.62      0.00
    0   -7    5     -3.72      0.00
    1   -7    5      6.31      0.00
    2   -7    5     -7.91      0.00
    3   -7    5     -0.62      0.00
    4   -7    5     10.70      0.00
    5   -7    5     -5.82      0.00
    6   -7    5     -7.35      0.00
    7   -7    5      5.52      0.00
    8   -7    5      4.73      0.00
    9   -7    5     -2.12      0.00
   10   -7    5     -6.09      0.00
   11   -7    5      1.20      0.00
   12   -7    5      5.05      0.00
  -14   -6    5     -1.75      0.00
  -13   -6    5     -0.55      0.00
  -12   -6    5      3.49      0.00
  -11   -6    5      1.33      0.00
  -10   -6    5     -4.23      0.00
   -9   -6    5     -1.90      0.00
   -8   -6    5      5.65      0.00
   -7   -6    5      3.42      0.00
   -6   -6    5     -6.76      0.00
   -5   -6    5     -4.84      0.00
   -4   -6    5      5.74      0.00
   -3   -6    5      6.80      0.00
   -2   -6    5     -4.76      0.00
   -1   -6    5    -11.89      0.00
    0   -6    5     11.53      0.00
    1   -6    5      5.21      0.00
    2   -6    5    -11.53      0.00
    3   -6    5      2.81      0.00
    4   -6    5      2.56      0.00
    5   -6    5      1.19      0.00
    6   -6    5      0.36      0.00
    7   -6    5     -3.84      0.00
    8   -6    5      0.87      0.00
    9   -6    5      4.17      0.00
   10   -6    5     -3.24      0.00
   11   -6    5     -2.00      0.00
   12   -6    5      0.69      0.00
  -14   -5    5     -0.94      0.00
  -13   -5    5     -1.06      0.00
  -12   -5    5      1.01      0.00
  -11   -5    5      2.28      0.00
  -10   -5    5     -1.90      0.00
   -9   -5    5     -3.87      0.00
   -8   -5    5      2.11      0.00
   -7   -5    5      6.20      0.00
   -6   -5    5     -2.43      0.00
   -5   -5    5     -5.85      0.00
   -4   -5    5      1.14      0.00
   -3   -5    5      6.39      0.00
   -2   -5    5     -6.16      0.00
   -1   -5    5      2.48      0.00
    0   -5    5      9.14      0.00
    1   -5    5    -14.74      0.00
    2   -5    5      1.08      0.00
    3   -5    5     10.43      0.00
    4   -5    5     -5.00      0.00
    5   -5    5     -4.39      0.00
    6   -5    5      1.05      0.00
    7   -5    5      2.93      0.00
    8   -5    5      1.11      0.00
    9   -5    5     -3.16      0.00
   10   -5    5      0.71      0.00
   11   -5    5      2.35      0.00
   12   -5    5     -1.47      0.00
  -15   -4    5      0.07      0.00
  -14   -4    5     -0.71      0.00
  -13   -4    5     -0.41      0.00
  -12   -4    5      0.00      0.00
  -11   -4    5      1.65      0.00
  -10   -4    5      0.12      0.00
   -9   -4    5     -2.00      0.00
   -8   -4    5      0.27      0.00
   -7   -4    5      1.38      0.00
   -6   -4    5      2.24      0.00
   -5   -4    5     -0.65      0.00
   -4   -4    5     -4.26      0.00
   -3   -4    5     -0.69      0.00
   -2   -4    5      2.41      0.00
   -1   -4    5      5.90      0.00
    0   -4    5    -10.56      0.00
    1   -4    5      0.80      0.00
    2   -4    5     13.77      0.00
    3   -4    5    -11.38      0.00
    4   -4    5     -2.85      0.00
    5   -4    5      7.14      0.00
    6   -4    5     -0.14      0.00
    7   -4    5     -1.81      0.00
    8   -4    5     -1.42      0.00
    9   -4    5      1.11      0.00
   10   -4    5      1.39      0.00
   11   -4    5     -3.08      0.00
   12   -4    5      0.06      0.00
   13   -4    5      2.57      0.00
  -15   -3    5      1.05      0.00
  -14   -3    5      0.53      0.00
  -13   -3    5     -2.58      0.00
  -12   -3    5     -0.09      0.00
  -11   -3    5      2.73      0.00
  -10   -3    5      0.76      0.00
   -9   -3    5     -1.99      0.00
   -8   -3    5     -5.48      0.00
   -7   -3    5     -0.68      0.00
   -6   -3    5     14.40      0.00
   -5   -3    5      2.78      0.00
   -4   -3    5    -22.43      0.00
   -3   -3    5     -7.34      0.00
   -2   -3    5     32.93      0.00
   -1   -3    5      8.51      0.00
    0   -3    5    -38.45      0.00
    1   -3    5      0.44      0.00
    2   -3    5     25.26      0.00
    3   -3    5      0.09      0.00
    4   -3    5    -13.56      0.00
    5   -3    5     -6.43      0.00
    6   -3    5     11.57      0.00
    7   -3    5      4.46      0.00
    8   -3    5     -8.82      0.00
    9   -3    5     -0.45      0.00
   10   -3    5      3.84      0.00
   11   -3    5      0.32      0.00
   12   -3    5     -0.96      0.00
   13   -3    5     -1.23      0.00
  -15   -2    5      0.12      0.00
  -14   -2    5      0.39      0.00
  -13   -2    5     -1.84      0.00
  -12   -2    5     -1.03      0.00
  -11   -2    5      1.52      0.00
  -10   -2    5      1.99      0.00
   -9   -2    5      1.38      0.00
   -8   -2    5     -4.12      0.00
   -7   -2    5     -3.21      0.00
   -6   -2    5      4.99      0.00
   -5   -2    5      6.32      0.00
   -4   -2    5     -1.27      0.00
   -3   -2    5    -13.08      0.00
   -2   -2    5     -3.57      0.00
   -1   -2    5     13.40      0.00
    0   -2    5     13.02      0.00
    1   -2    5    -13.08      0.00
    2   -2    5    -18.69      0.00
    3   -2    5     18.15      0.00
    4   -2    5      9.59      0.00
    5   -2    5    -12.27      0.00
    6   -2    5     -3.85      0.00
    7   -2    5      3.53      0.00
    8   -2    5      5.90      0.00
    9   -2    5     -1.17      0.00
   10   -2    5     -6.40      0.00
   11   -2    5      1.34      0.00
   12   -2    5      2.96      0.00
   13   -2    5     -0.79      0.00
  -15   -1    5      1.43      0.00
  -14   -1    5     -0.73      0.00
  -13   -1    5     -1.75      0.00
  -12   -1    5      0.13      0.00
  -11   -1    5      3.13      0.00
  -10   -1    5      1.21      0.00
   -9   -1    5     -7.08      0.00
   -8   -1    5     -1.81      0.00
   -7   -1    5     12.51      0.00
   -6   -1    5     -3.02      0.00
   -5   -1    5    -16.25      0.00
   -4   -1    5     10.78      0.00
   -3   -1    5     18.36      0.00
   -2   -1    5    -17.16      0.00
   -1   -1    5    -19.74      0.00
    0   -1    5     23.30      0.00
    1   -1    5     12.02      0.00
    2   -1    5    -17.86      0.00
    3   -1    5     -6.42      0.00
    4   -1    5      9.89      0.00
    5   -1    5      6.20      0.00
    6   -1    5     -8.56      0.00
    7   -1    5     -4.15      0.00
    8   -1    5      7.89      0.00
    9   -1    5      0.38      0.00
   10   -1    5     -3.46      0.00
   11   -1    5      0.31      0.00
   12   -1    5     -0.37      0.00
   13   -1    5      0.91      0.00
  -15    0    5     -0.68      0.00
  -14    0    5      2.43      0.00
  -13    0    5      0.41      0.00
  -12    0    5     -5.19      0.00
  -11    0    5     -1.59      0.00
  -10    0    5      8.52      0.00
   -9    0    5      2.39      0.00
   -8    0    5     -9.48      0.00
   -7    0    5     -5.45      0.00
   -6    0    5     11.48      0.00
   -5    0    5     11.30      0.00
   -4    0    5    -15.85      0.00
   -3    0    5    -13.74      0.00
   -2    0    5     15.32      0.00
   -1    0    5     15.66      0.00
    0    0    5    -11.84      0.00
    1    0    5    -14.10      0.00
    2    0    5      7.98      0.00
    3    0    5      7.38      0.00
    4    0    5     -0.32      0.00
    5    0    5     -5.26      0.00
    6    0    5     -3.79      0.00
    7    0    5      5.40      0.00
    8    0    5      2.47      0.00
    9    0    5     -3.66      0.00
   10    0    5      0.70      0.00
   11    0    5      0.37      0.00
   12    0    5     -0.28      0.00
   13    0    5      0.20      0.00
  -15    1    5     -1.94      0.00
  -14    1    5      0.31      0.00
  -13    1    5      3.83      0.00
  -12    1    5      1.39      0.00
  -11    1    5     -6.41      0.00
  -10    1    5     -4.47      0.00
   -9    1    5     10.51      0.00
   -8    1    5      7.86      0.00
   -7    1    5    -18.90      0.00
   -6    1    5     -7.81      0.00
   -5    1    5     24.89      0.00
   -4    1    5      7.85      0.00
   -3    1    5    -28.08      0.00
   -2    1    5    -10.67      0.00
   -1    1    5     28.76      0.00
    0    1    5      9.27      0.00
    1    1    5    -20.78      0.00
    2    1    5     -5.95      0.00
    3    1    5     12.88      0.00
    4    1    5      1.59      0.00
    5    1    5     -6.32      0.00
    6    1    5      0.83      0.00
    7    1    5      2.07      0.00
    8    1    5     -2.75      0.00
    9    1    5      1.55      0.00
   10    1    5      1.68      0.00
   11    1    5     -2.17      0.00
   12    1    5      0.10      0.00
  -15    2    5      2.65      0.00
  -14    2    5     -2.57      0.00
  -13    2    5     -2.83      0.00
  -12    2    5      2.15      0.00
  -11    2    5      3.45      0.00
  -10    2    5     -2.70      0.00
   -9    2    5     -2.38      0.00
   -8    2    5      1.08      0.00
   -7    2    5      3.39      0.00
   -6    2    5     -0.29      0.00
   -5    2    5     -4.60      0.00
   -4    2    5      5.99      0.00
   -3    2    5      1.41      0.00
   -2    2    5     -9.26      0.00
   -1    2    5      0.31      0.00
    0    2    5      6.57      0.00
    1    2    5     -0.26      0.00
    2    2    5     -0.70      0.00
    3    2    5     -0.79      0.00
    4    2    5     -0.72      0.00
    5    2    5      1.07      0.00
    6    2    5     -0.27      0.00
    7    2    5     -1.91      0.00
    8    2    5      0.65      0.00
    9    2    5      2.71      0.00
   10    2    5     -1.74      0.00
   11    2    5      0.10      0.00
   12    2    5     -0.26      0.00
  -15    3    5      1.02      0.00
  -14    3    5     -0.31      0.00
  -13    3    5      0.99      0.00
  -12    3    5     -1.49      0.00
  -11    3    5     -1.02      0.00
  -10    3    5      2.81      0.00
   -9    3    5      1.31      0.00
   -8    3    5     -5.40      0.00
   -7    3    5      1.40      0.00
   -6    3    5      0.09      0.00
   -5    3    5     -2.79      0.00
   -4    3    5      6.56      0.00
   -3    3    5      3.47      0.00
   -2    3    5     -7.46      0.00
   -1    3    5     -8.15      0.00
    0    3    5      5.97      0.00
    1    3    5     15.62      0.00
    2    3    5     -8.44      0.00
    3    3    5    -18.11      0.00
    4    3    5     12.15      0.00
    5    3    5     13.60      0.00
    6    3    5     -9.24      0.00
    7    3    5     -9.83      0.00
    8    3    5      6.75      0.00
    9    3    5      5.16      0.00
   10    3    5     -3.52      0.00
   11    3    5     -2.32      0.00
   12    3    5      1.06      0.00
  -14    4    5      0.51      0.00
  -13    4    5     -1.75      0.00
  -12    4    5      0.74      0.00
  -11    4    5      3.60      0.00
  -10    4    5     -1.18      0.00
   -9    4    5     -5.71      0.00
   -8    4    5      4.50      0.00
   -7    4    5      7.00      0.00
   -6    4    5     -6.76      0.00
   -5    4    5     -6.25      0.00
   -4    4    5      3.44      0.00
   -3    4    5      9.47      0.00
   -2    4    5      1.33      0.00
   -1    4    5    -18.59      0.00
    0    4    5     -1.24      0.00
    1    4    5     22.71      0.00
    2    4    5     -2.85      0.00
    3    4    5    -13.17      0.00
    4    4    5     -0.28      0.00
    5    4    5      6.06      0.00
    6    4    5      3.66      0.00
    7    4    5     -4.29      0.00
    8    4    5     -3.59      0.00
    9    4    5      1.94      0.00
   10    4    5      4.01      0.00
   11    4    5     -1.75      0.00
   12    4    5     -1.19      0.00
  -12    5    5     -5.98      0.00
  -11    5    5      1.43      0.00
  -10    5    5      6.51      0.00
   -9    5    5     -0.61      0.00
   -8    5    5     -5.02      0.00
   -7    5    5     -4.05      0.00
   -6    5    5      5.89      0.00
   -5    5    5      5.65      0.00
   -4    5    5     -6.23      0.00
   -3    5    5     -3.29      0.00
   -2    5    5      3.28      0.00
   -1    5    5      3.72      0.00
    0    5    5      3.35      0.00
    1    5    5    -12.42      0.00
    2    5    5     -3.87      0.00
    3    5    5     17.04      0.00
    4    5    5     -1.84      0.00
    5    5    5    -11.68      0.00
    6    5    5      3.62      0.00
    7    5    5      7.09      0.00
    8    5    5     -3.18      0.00
    9    5    5     -3.98      0.00
   10    5    5      2.21      0.00
   11    5    5      2.30      0.00
   12    5    5     -1.32      0.00
  -12    6    5      0.29      0.00
  -11    6    5     -6.39      0.00
  -10    6    5     -1.44      0.00
   -9    6    5      9.62      0.00
   -8    6    5      0.24      0.00
   -7    6    5     -8.62      0.00
   -6    6    5      0.51      0.00
   -5    6    5      4.77      0.00
   -4    6    5      3.09      0.00
   -3    6    5     -3.93      0.00
   -2    6    5     -8.93      0.00
   -1    6    5      6.91      0.00
    0    6    5      8.78      0.00
    1    6    5     -9.05      0.00
    2    6    5     -0.44      0.00
    3    6    5      4.22      0.00
    4    6    5     -2.58      0.00
    5    6    5      0.57      0.00
    6    6    5     -0.27      0.00
    7    6    5     -0.53      0.00
    8    6    5      0.05      0.00
    9    6    5      0.23      0.00
   10    6    5     -0.05      0.00
   11    6    5      0.63      0.00
  -12    7    5      1.62      0.00
  -11    7    5     -2.52      0.00
  -10    7    5     -1.41      0.00
   -9    7    5      3.83      0.00
   -8    7    5     -0.55      0.00
   -7    7    5     -2.33      0.00
   -6    7    5     -1.78      0.00
   -5    7    5      3.23      0.00
   -4    7    5      3.37      0.00
   -3    7    5     -5.74      0.00
   -2    7    5      1.26      0.00
   -1    7    5      5.40      0.00
    0    7    5     -8.15      0.00
    1    7    5     -0.53      0.00
    2    7    5      9.08      0.00
    3    7    5     -5.11      0.00
    4    7    5     -4.71      0.00
    5    7    5      5.28      0.00
    6    7    5      2.07      0.00
    7    7    5     -2.19      0.00
    8    7    5     -1.76      0.00
    9    7    5      0.88      0.00
   10    7    5      0.83      0.00
   11    7    5     -0.25      0.00
  -12    8    5      3.33      0.00
  -11    8    5     -1.78      0.00
  -10    8    5     -4.54      0.00
   -9    8    5      0.28      0.00
   -8    8    5      8.71      0.00
   -7    8    5      0.60      0.00
   -6    8    5    -13.23      0.00
   -5    8    5      1.35      0.00
   -4    8    5     12.41      0.00
   -3    8    5     -0.36      0.00
   -2    8    5     -9.00      0.00
   -1    8    5     -4.72      0.00
    0    8    5      6.91      0.00
    1    8    5      9.05      0.00
    2    8    5     -7.68      0.00
    3    8    5     -8.29      0.00
    4    8    5      7.54      0.00
    5    8    5      4.73      0.00
    6    8    5     -4.33      0.00
    7    8    5     -3.54      0.00
    8    8    5      2.07      0.00
    9    8    5      2.84      0.00
   10    8    5     -1.15      0.00
  -13    9    5     -1.63      0.00
  -12    9    5      2.59      0.00
  -11    9    5      5.66      0.00
  -10    9    5     -2.81      0.00
   -9    9    5    -10.37      0.00
   -8    9    5      3.21      0.00
   -7    9    5     11.73      0.00
   -6    9    5     -1.64      0.00
   -5    9    5    -13.54      0.00
   -4    9    5     -1.17      0.00
   -3    9    5     17.63      0.00
   -2    9    5      1.05      0.00
   -1    9    5    -18.44      0.00
    0    9    5      1.74      0.00
    1    9    5     13.87      0.00
    2    9    5     -2.29      0.00
    3    9    5     -8.03      0.00
    4    9    5     -1.07      0.00
    5    9    5      4.02      0.00
    6    9    5      3.55      0.00
    7    9    5     -2.62      0.00
    8    9    5     -2.66      0.00
    9    9    5      1.08      0.00
   10    9    5      1.23      0.00
  -13   10    5     -0.80      0.00
  -12   10    5     -2.76      0.00
  -11   10    5     -0.49      0.00
  -10   10    5      6.23      0.00
   -9   10    5      2.55      0.00
   -8   10    5     -8.51      0.00
   -7   10    5     -3.45      0.00
   -6   10    5     10.38      0.00
   -5   10    5      1.60      0.00
   -4   10    5     -9.10      0.00
   -3   10    5     -0.48      0.00
   -2   10    5      6.28      0.00
   -1   10    5      2.17      0.00
    0   10    5     -5.00      0.00
    1   10    5     -5.91      0.00
    2   10    5      6.17      0.00
    3   10    5      6.73      0.00
    4   10    5     -6.41      0.00
    5   10    5     -4.60      0.00
    6   10    5      4.18      0.00
    7   10    5      3.11      0.00
    8   10    5     -1.43      0.00
    9   10    5     -3.06      0.00
  -12   11    5      1.07      0.00
  -11   11    5     -2.01      0.00
  -10   11    5     -2.36      0.00
   -9   11    5      3.18      0.00
   -8   11    5      2.74      0.00
   -7   11    5     -3.28      0.00
   -6   11    5     -3.86      0.00
   -5   11    5      3.21      0.00
   -4   11    5      3.96      0.00
   -3   11    5     -4.38      0.00
   -2   11    5     -2.31      0.00
   -1   11    5      7.00      0.00
    0   11    5     -1.36      0.00
    1   11    5     -6.25      0.00
    2   11    5      3.86      0.00
    3   11    5      2.91      0.00
    4   11    5     -3.74      0.00
    5   11    5     -1.58      0.00
    6   11    5      1.68      0.00
    7   11    5      2.79      0.00
    8   11    5     -1.20      0.00
  -11   12    5      3.10      0.00
  -10   12    5      1.65      0.00
   -9   12    5     -4.08      0.00
   -8   12    5     -0.72      0.00
   -7   12    5      4.15      0.00
   -6   12    5     -0.16      0.00
   -5   12    5     -1.55      0.00
   -4   12    5     -1.01      0.00
   -3   12    5     -0.55      0.00
   -2   12    5      3.04      0.00
   -1   12    5      0.91      0.00
    0   12    5     -4.74      0.00
    1   12    5      1.18      0.00
    2   12    5      2.05      0.00
    3   12    5     -0.61      0.00
    4   12    5      0.36      0.00
    5   12    5     -2.15      0.00
    6   12    5      0.02      0.00
    7   12    5      2.09      0.00
  -10   13    5      0.42      0.00
   -9   13    5      1.06      0.00
   -8   13    5      0.52      0.00
   -7   13    5     -2.17      0.00
   -6   13    5     -0.69      0.00
   -5   13    5      1.40      0.00
   -4   13    5      0.30      0.00
   -3   13    5      0.42      0.00
   -2   13    5      0.69      0.00
   -1   13    5     -3.43      0.00
    0   13    5      1.42      0.00
    1   13    5      3.93      0.00
    2   13    5     -3.17      0.00
    3   13    5     -1.72      0.00
    4   13    5      2.37      0.00
    5   13    5      0.46      0.00
    6   13    5     -0.93      0.00
   -8   14    5      0.81      0.00
   -7   14    5      1.30      0.00
   -6   14    5      0.04      0.00
   -5   14    5     -3.23      0.00
   -4   14    5     -0.31      0.00
   -3   14    5      3.77      0.00
   -2   14    5      0.29      0.00
   -1   14    5     -2.87      0.00
    0   14    5      0.93      0.00
    2   14    5      0.62      0.00
    3   14    5      1.34      0.00
    4   14    5     -2.06      0.00
    5   14    5      0.88      0.00
   -6   15    5      0.70      0.00
   -5   15    5      0.36      0.00
   -4   15    5     -0.59      0.00
   -3   15    5     -1.09      0.00
   -2   15    5     -0.64      0.00
   -1   15    5      3.50      0.00
    0   15    5      0.45      0.00
   -3   16    5     -0.47      0.00
   -2   16    5      0.28      0.00
   -1   16    5      0.01      0.00
   -2  -16    6      1.21      0.00
   -1  -16    6     -0.26      0.00
   -7  -15    6      1.84      0.00
   -6  -15    6     -1.84      0.00
   -5  -15    6     -1.05      0.00
   -4  -15    6      3.39      0.00
   -3  -15    6     -0.72      0.00
   -2  -15    6     -3.61      0.00
   -1  -15    6      1.46      0.00
    0  -15    6      2.97      0.00
    1  -15    6     -0.42      0.00
    2  -15    6     -2.29      0.00
    3  -15    6      0.14      0.00
    4  -15    6      0.03      0.00
    5  -15    6     -0.36      0.00
   -7  -14    6     -1.94      0.00
   -6  -14    6     -1.11      0.00
   -5  -14    6      4.09      0.00
   -4  -14    6     -0.74      0.00
   -3  -14    6     -2.27      0.00
   -2  -14    6     -0.34      0.00
   -1  -14    6      0.94      0.00
    0  -14    6      1.65      0.00
    1  -14    6     -1.27      0.00
    2  -14    6     -1.52      0.00
    3  -14    6      2.75      0.00
    4  -14    6      0.64      0.00
    5  -14    6     -0.75      0.00
    6  -14    6     -1.31      0.00
    7  -14    6      0.22      0.00
   -9  -13    6      3.67      0.00
   -8  -13    6     -0.32      0.00
   -7  -13    6     -5.10      0.00
   -6  -13    6      2.85      0.00
   -5  -13    6      3.27      0.00
   -4  -13    6     -2.03      0.00
   -3  -13    6     -1.59      0.00
   -2  -13    6      0.60      0.00
   -1  -13    6      1.20      0.00
    0  -13    6     -1.01      0.00
    1  -13    6     -1.86      0.00
    2  -13    6      2.74      0.00
    3  -13    6     -1.70      0.00
    4  -13    6     -1.40      0.00
    5  -13    6      3.03      0.00
    6  -13    6      0.44      0.00
    7  -13    6     -1.64      0.00
    8  -13    6     -0.52      0.00
  -10  -12    6      1.67      0.00
   -9  -12    6      2.39      0.00
   -8  -12    6     -3.56      0.00
   -7  -12    6     -1.58      0.00
   -6  -12    6      2.74      0.00
   -5  -12    6      0.59      0.00
   -4  -12    6      0.21      0.00
   -3  -12    6     -2.53      0.00
   -2  -12    6      1.00      0.00
   -1  -12    6      2.76      0.00
    0  -12    6     -3.15      0.00
    1  -12    6      0.02      0.00
    2  -12    6      2.46      0.00
    3  -12    6     -1.37      0.00
    4  -12    6     -0.46      0.00
    5  -12    6     -0.77      0.00
    6  -12    6      1.52      0.00
    7  -12    6      1.38      0.00
    8  -12    6     -1.19      0.00
    9  -12    6     -1.68      0.00
  -11  -11    6     -1.84      0.00
  -10  -11    6     -0.88      0.00
   -9  -11    6     -0.08      0.00
   -8  -11    6      3.89      0.00
   -7  -11    6      1.44      0.00
   -6  -11    6     -7.41      0.00
   -5  -11    6      0.16      0.00
   -4  -11    6      7.31      0.00
   -3  -11    6      0.54      0.00
   -2  -11    6     -5.43      0.00
   -1  -11    6     -4.81      0.00
    0  -11    6      6.73      0.00
    1  -11    6      6.49      0.00
    2  -11    6    -10.81      0.00
    3  -11    6     -2.44      0.00
    4  -11    6      8.76      0.00
    5  -11    6      0.43      0.00
    6  -11    6     -5.72      0.00
    7  -11    6      0.05      0.00
    8  -11    6      3.14      0.00
    9  -11    6      0.95      0.00
  -12  -10    6      1.33      0.00
  -11  -10    6      1.42      0.00
  -10  -10    6     -3.24      0.00
   -9  -10    6     -4.24      0.00
   -8  -10    6      5.82      0.00
   -7  -10    6      4.48      0.00
   -6  -10    6     -6.06      0.00
   -5  -10    6     -6.01      0.00
   -4  -10    6      3.39      0.00
   -3  -10    6     11.82      0.00
   -2  -10    6     -3.39      0.00
   -1  -10    6    -15.11      0.00
    0  -10    6      6.87      0.00
    1  -10    6     10.50      0.00
    2  -10    6     -4.63      0.00
    3  -10    6     -6.22      0.00
    4  -10    6     -0.66      0.00
    5  -10    6      6.64      0.00
    6  -10    6      1.43      0.00
    7  -10    6     -5.14      0.00
    8  -10    6     -1.88      0.00
    9  -10    6      2.67      0.00
   10  -10    6      0.62      0.00
  -13   -9    6     -0.33      0.00
  -12   -9    6      0.58      0.00
  -11   -9    6      0.92      0.00
  -10   -9    6     -1.66      0.00
   -9   -9    6      0.81      0.00
   -8   -9    6      1.17      0.00
   -7   -9    6     -0.84      0.00
   -6   -9    6      1.89      0.00
   -5   -9    6     -2.02      0.00
   -4   -9    6     -3.60      0.00
   -3   -9    6      3.58      0.00
   -2   -9    6      1.68      0.00
   -1   -9    6      1.90      0.00
    0   -9    6     -4.25      0.00
    1   -9    6     -7.63      0.00
    2   -9    6     11.07      0.00
    3   -9    6      3.75      0.00
    4   -9    6    -11.76      0.00
    5   -9    6      0.25      0.00
    6   -9    6      8.32      0.00
    7   -9    6      0.10      0.00
    8   -9    6     -4.38      0.00
    9   -9    6     -1.67      0.00
   10   -9    6      3.18      0.00
   11   -9    6     -0.07      0.00
  -13   -8    6      1.06      0.00
  -12   -8    6      1.63      0.00
  -11   -8    6     -2.13      0.00
  -10   -8    6     -1.48      0.00
   -9   -8    6      2.32      0.00
   -8   -8    6     -0.85      0.00
   -7   -8    6     -0.86      0.00
   -6   -8    6      0.53      0.00
   -5   -8    6      0.20      0.00
   -4   -8    6      2.25      0.00
   -3   -8    6     -3.78      0.00
   -2   -8    6     -0.92      0.00
   -1   -8    6      9.88      0.00
    0   -8    6     -7.74      0.00
    1   -8    6     -6.40      0.00
    2   -8    6     10.90      0.00
    3   -8    6      0.22      0.00
    4   -8    6     -5.28      0.00
    5   -8    6     -2.21      0.00
    6   -8    6      1.94      0.00
    7   -8    6      4.13      0.00
    8   -8    6     -2.12      0.00
    9   -8    6     -4.00      0.00
   10   -8    6      3.27      0.00
   11   -8    6      1.19      0.00
  -14   -7    6     -0.45      0.00
  -13   -7    6      0.40      0.00
  -12   -7    6     -0.55      0.00
  -11   -7    6     -0.23      0.00
  -10   -7    6      2.93      0.00
   -9   -7    6     -0.22      0.00
   -8   -7    6     -2.84      0.00
   -7   -7    6      1.10      0.00
   -6   -7    6      2.91      0.00
   -5   -7    6     -0.49      0.00
   -4   -7    6     -5.79      0.00
   -3   -7    6     -3.08      0.00
   -2   -7    6     12.48      0.00
   -1   -7    6      0.59      0.00
    0   -7    6    -13.16      0.00
    1   -7    6      5.53      0.00
    2   -7    6      2.66      0.00
    3   -7    6     -2.14      0.00
    4   -7    6      3.27      0.00
    5   -7    6     -4.16      0.00
    6   -7    6     -1.33      0.00
    7   -7    6      5.85      0.00
    8   -7    6     -0.44      0.00
    9   -7    6     -3.71      0.00
   10   -7    6     -2.61      0.00
   11   -7    6      2.54      0.00
  -14   -6    6     -0.66      0.00
  -13   -6    6      1.01      0.00
  -12   -6    6      1.14      0.00
  -11   -6    6     -1.03      0.00
  -10   -6    6     -2.49      0.00
   -9   -6    6     -0.21      0.00
   -8   -6    6      3.92      0.00
   -7   -6    6     -0.83      0.00
   -6   -6    6     -2.24      0.00
   -5   -6    6      1.87      0.00
   -4   -6    6     -0.94      0.00
   -3   -6    6     -0.07      0.00
   -2   -6    6      3.29      0.00
   -1   -6    6     -8.68      0.00
    0   -6    6      6.17      0.00
    1   -6    6      7.42      0.00
    2   -6    6    -11.79      0.00
    3   -6    6      0.43      0.00
    4   -6    6      5.79      0.00
    5   -6    6      0.40      0.00
    6   -6    6     -3.37      0.00
    7   -6    6     -2.61      0.00
    8   -6    6      4.17      0.00
    9   -6    6      3.52      0.00
   10   -6    6     -5.63      0.00
   11   -6    6     -1.02      0.00
   12   -6    6      1.96      0.00
  -14   -5    6     -2.12      0.00
  -13   -5    6     -1.20      0.00
  -12   -5    6      3.37      0.00
  -11   -5    6      3.33      0.00
  -10   -5    6     -4.41      0.00
   -9   -5    6     -4.58      0.00
   -8   -5    6      5.06      0.00
   -7   -5    6      8.06      0.00
   -6   -5    6     -5.22      0.00
   -5   -5    6    -11.16      0.00
   -4   -5    6      3.99      0.00
   -3   -5    6     15.96      0.00
   -2   -5    6     -9.36      0.00
   -1   -5    6    -12.13      0.00
    0   -5    6     13.85      0.00
    1   -5    6     -1.88      0.00
    2   -5    6     -3.05      0.00
    3   -5    6      2.34      0.00
    4   -5    6     -4.50      0.00
    5   -5    6      2.98      0.00
    6   -5    6      1.51      0.00
    7   -5    6     -1.96      0.00
    8   -5    6      0.50      0.00
    9   -5    6     -0.43      0.00
   10   -5    6      1.12      0.00
   11   -5    6      0.89      0.00
   12   -5    6     -1.49      0.00
  -15   -4    6     -0.11      0.00
  -14   -4    6      0.28      0.00
  -13   -4    6     -1.03      0.00
  -12   -4    6     -0.75      0.00
  -11   -4    6      2.79      0.00
  -10   -4    6      0.67      0.00
   -9   -4    6     -4.56      0.00
   -8   -4    6     -1.85      0.00
   -7   -4    6      5.97      0.00
   -6   -4    6      3.03      0.00
   -5   -4    6     -5.88      0.00
   -4   -4    6     -2.43      0.00
   -3   -4    6      3.87      0.00
   -2   -4    6     -3.96      0.00
   -1   -4    6      9.14      0.00
    0   -4    6     -2.16      0.00
    1   -4    6    -10.75      0.00
    2   -4    6      9.02      0.00
    3   -4    6      1.28      0.00
    4   -4    6     -1.09      0.00
    5   -4    6     -2.01      0.00
    6   -4    6     -2.82      0.00
    7   -4    6      4.85      0.00
    8   -4    6      0.07      0.00
    9   -4    6     -3.94      0.00
   10   -4    6      0.63      0.00
   11   -4    6      0.28      0.00
   12   -4    6      1.40      0.00
  -15   -3    6      0.11      0.00
  -14   -3    6     -0.41      0.00
  -13   -3    6     -0.55      0.00
  -12   -3    6      0.29      0.00
  -11   -3    6      0.59      0.00
  -10   -3    6      0.44      0.00
   -9   -3    6     -0.13      0.00
   -8   -3    6     -1.51      0.00
   -7   -3    6     -2.03      0.00
   -6   -3    6      5.11      0.00
   -5   -3    6      4.50      0.00
   -4   -3    6     -6.92      0.00
   -3   -3    6    -10.81      0.00
   -2   -3    6     14.06      0.00
   -1   -3    6     11.34      0.00
    0   -3    6    -23.81      0.00
    1   -3    6      2.36      0.00
    2   -3    6     15.71      0.00
    3   -3    6     -6.26      0.00
    4   -3    6     -5.63      0.00
    5   -3    6     -1.52      0.00
    6   -3    6      7.17      0.00
    7   -3    6      2.16      0.00
    8   -3    6     -6.85      0.00
    9   -3    6      2.02      0.00
   10   -3    6      2.93      0.00
   11   -3    6     -2.75      0.00
   12   -3    6     -1.51      0.00
  -15   -2    6      1.22      0.00
  -14   -2    6      0.18      0.00
  -13   -2    6     -2.82      0.00
  -12   -2    6     -0.76      0.00
  -11   -2    6      3.24      0.00
  -10   -2    6      1.86      0.00
   -9   -2    6     -0.63      0.00
   -8   -2    6     -5.10      0.00
   -7   -2    6     -2.52      0.00
   -6   -2    6      9.25      0.00
   -5   -2    6      6.72      0.00
   -4   -2    6    -13.60      0.00
   -3   -2    6    -12.98      0.00
   -2   -2    6     20.29      0.00
   -1   -2    6     10.08      0.00
    0   -2    6    -15.32      0.00
    1   -2    6     -8.06      0.00
    2   -2    6      5.18      0.00
    3   -2    6     14.91      0.00
    4   -2    6     -6.28      0.00
    5   -2    6    -13.27      0.00
    6   -2    6      7.90      0.00
    7   -2    6      4.57      0.00
    8   -2    6     -3.08      0.00
    9   -2    6     -1.42      0.00
   10   -2    6     -1.08      0.00
   11   -2    6      2.27      0.00
   12   -2    6      1.02      0.00
  -15   -1    6      0.49      0.00
  -14   -1    6      0.67      0.00
  -13   -1    6     -1.25      0.00
  -12   -1    6     -1.60      0.00
  -11   -1    6      0.90      0.00
  -10   -1    6      1.27      0.00
   -9   -1    6     -1.63      0.00
   -8   -1    6     -1.33      0.00
   -7   -1    6      3.56      0.00
   -6   -1    6     -0.59      0.00
   -5   -1    6     -3.56      0.00
   -4   -1    6      4.45      0.00
   -3   -1    6      6.05      0.00
   -2   -1    6    -12.09      0.00
   -1   -1    6     -8.78      0.00
    0   -1    6     22.46      0.00
    1   -1    6      1.34      0.00
    2   -1    6    -19.22      0.00
    3   -1    6      2.66      0.00
    4   -1    6      9.56      0.00
    5   -1    6      2.47      0.00
    6   -1    6     -8.87      0.00
    7   -1    6     -3.85      0.00
    8   -1    6     10.16      0.00
    9   -1    6      0.89      0.00
   10   -1    6     -6.16      0.00
   11   -1    6      0.27      0.00
   12   -1    6      1.24      0.00
  -15    0    6      0.74      0.00
  -14    0    6      0.11      0.00
  -13    0    6     -1.85      0.00
  -12    0    6     -0.60      0.00
  -11    0    6      2.82      0.00
  -10    0    6      4.63      0.00
   -9    0    6     -5.38      0.00
   -8    0    6     -6.99      0.00
   -7    0    6      6.92      0.00
   -6    0    6      8.21      0.00
   -5    0    6     -8.72      0.00
   -4    0    6     -9.93      0.00
   -3    0    6     12.17      0.00
   -2    0    6      6.14      0.00
   -1    0    6     -9.63      0.00
    0    0    6     -2.91      0.00
    1    0    6      5.73      0.00
    2    0    6      3.77      0.00
    3    0    6     -7.53      0.00
    4    0    6      1.02      0.00
    5    0    6      5.72      0.00
    6    0    6     -5.99      0.00
    7    0    6     -0.16      0.00
    8    0    6      4.40      0.00
    9    0    6     -2.28      0.00
   10    0    6     -0.01      0.00
   11    0    6      0.59      0.00
   12    0    6     -0.90      0.00
  -15    1    6     -1.52      0.00
  -14    1    6      2.68      0.00
  -13    1    6      2.88      0.00
  -12    1    6     -4.19      0.00
  -11    1    6     -6.16      0.00
  -10    1    6      3.42      0.00
   -9    1    6     10.06      0.00
   -8    1    6     -2.15      0.00
   -7    1    6    -17.18      0.00
   -6    1    6      4.56      0.00
   -5    1    6     23.95      0.00
   -4    1    6     -3.87      0.00
   -3    1    6    -29.93      0.00
   -2    1    6     -0.86      0.00
   -1    1    6     33.87      0.00
    0    1    6      0.09      0.00
    1    1    6    -24.98      0.00
    2    1    6     -1.54      0.00
    3    1    6     15.43      0.00
    4    1    6      4.94      0.00
    5    1    6    -11.66      0.00
    6    1    6     -3.43      0.00
    7    1    6      7.48      0.00
    8    1    6     -0.74      0.00
    9    1    6     -1.80      0.00
   10    1    6      1.01      0.00
   11    1    6     -1.20      0.00
   12    1    6      1.12      0.00
  -15    2    6     -0.49      0.00
  -14    2    6     -2.98      0.00
  -13    2    6      2.26      0.00
  -12    2    6      5.40      0.00
  -11    2    6     -2.02      0.00
  -10    2    6     -8.29      0.00
   -9    2    6      3.87      0.00
   -8    2    6     10.02      0.00
   -7    2    6     -6.64      0.00
   -6    2    6    -13.47      0.00
   -5    2    6      7.31      0.00
   -4    2    6     21.59      0.00
   -3    2    6    -10.50      0.00
   -2    2    6    -24.21      0.00
   -1    2    6     10.85      0.00
    0    2    6     18.92      0.00
    1    2    6     -7.60      0.00
    2    2    6    -12.00      0.00
    3    2    6      5.97      0.00
    4    2    6      4.91      0.00
    5    2    6     -3.57      0.00
    6    2    6      0.54      0.00
    7    2    6     -0.51      0.00
    8    2    6     -1.63      0.00
    9    2    6      3.60      0.00
   10    2    6     -0.32      0.00
   11    2    6     -1.50      0.00
   12    2    6     -0.61      0.00
  -14    3    6     -1.77      0.00
  -13    3    6     -3.58      0.00
  -12    3    6     -0.18      0.00
  -11    3    6      4.29      0.00
  -10    3    6      2.58      0.00
   -9    3    6     -4.21      0.00
   -8    3    6     -5.52      0.00
   -7    3    6      7.46      0.00
   -6    3    6      2.76      0.00
   -5    3    6     -8.66      0.00
   -4    3    6      1.23      0.00
   -3    3    6      7.36      0.00
   -2    3    6      0.48      0.00
   -1    3    6     -8.97      0.00
    0    3    6     -2.19      0.00
    1    3    6      9.85      0.00
    2    3    6      2.00      0.00
    3    3    6     -8.97      0.00
    4    3    6      0.08      0.00
    5    3    6      7.28      0.00
    6    3    6     -1.22      0.00
    7    3    6     -6.68      0.00
    8    3    6      2.71      0.00
    9    3    6      3.32      0.00
   10    3    6     -1.92      0.00
   11    3    6     -0.11      0.00
   12    3    6     -0.13      0.00
  -13    4    6      0.32      0.00
  -12    4    6     -2.02      0.00
  -11    4    6     -0.26      0.00
  -10    4    6      1.80      0.00
   -9    4    6     -0.08      0.00
   -8    4    6      0.10      0.00
   -7    4    6      1.27      0.00
   -6    4    6     -2.86      0.00
   -5    4    6     -1.69      0.00
   -4    4    6      0.57      0.00
   -3    4    6      4.36      0.00
   -2    4    6      3.72      0.00
   -1    4    6    -11.69      0.00
    0    4    6     -3.29      0.00
    1    4    6     17.85      0.00
    2    4    6     -1.14      0.00
    3    4    6    -15.75      0.00
    4    4    6      2.24      0.00
    5    4    6     11.19      0.00
    6    4    6     -1.66      0.00
    7    4    6     -7.96      0.00
    8    4    6      1.94      0.00
    9    4    6      3.79      0.00
   10    4    6      0.35      0.00
   11    4    6     -2.37      0.00
  -12    5    6     -2.41      0.00
  -11    5    6      5.10      0.00
  -10    5    6      2.39      0.00
   -9    5    6     -6.28      0.00
   -8    5    6     -1.24      0.00
   -7    5    6      3.86      0.00
   -6    5    6      3.85      0.00
   -5    5    6     -2.43      0.00
   -4    5    6     -6.80      0.00
   -3    5    6      5.27      0.00
   -2    5    6      6.19      0.00
   -1    5    6     -8.17      0.00
    0    5    6     -2.26      0.00
    1    5    6      3.45      0.00
    2    5    6      0.20      0.00
    3    5    6      3.03      0.00
    4    5    6     -1.76      0.00
    5    5    6     -3.15      0.00
    6    5    6      3.03      0.00
    7    5    6      1.74      0.00
    8    5    6     -3.36      0.00
    9    5    6     -1.46      0.00
   10    5    6      2.79      0.00
   11    5    6      0.69      0.00
  -13    6    6      3.33      0.00
  -12    6    6     -5.14      0.00
  -11    6    6     -5.55      0.00
  -10    6    6      5.43      0.00
   -9    6    6      9.20      0.00
   -8    6    6     -5.98      0.00
   -7    6    6    -11.18      0.00
   -6    6    6      5.16      0.00
   -5    6    6      9.60      0.00
   -4    6    6     -0.95      0.00
   -3    6    6     -8.61      0.00
   -2    6    6     -6.31      0.00
   -1    6    6     12.09      0.00
    0    6    6     10.28      0.00
    1    6    6    -14.58      0.00
    2    6    6     -7.14      0.00
    3    6    6     11.47      0.00
    4    6    6      2.76      0.00
    5    6    6     -7.16      0.00
    6    6    6     -2.27      0.00
    7    6    6      5.86      0.00
    8    6    6      0.54      0.00
    9    6    6     -3.42      0.00
   10    6    6      0.05      0.00
   11    6    6      1.99      0.00
  -13    7    6      3.21      0.00
  -12    7    6      3.68      0.00
  -11    7    6     -6.55      0.00
  -10    7    6     -5.09      0.00
   -9    7    6      8.25      0.00
   -8    7    6      4.79      0.00
   -7    7    6     -5.41      0.00
   -6    7    6     -7.07      0.00
   -5    7    6      3.67      0.00
   -4    7    6     10.16      0.00
   -3    7    6     -4.38      0.00
   -2    7    6     -8.76      0.00
   -1    7    6      3.83      0.00
    0    7    6      2.28      0.00
    1    7    6     -1.14      0.00
    2    7    6      1.38      0.00
    3    7    6     -1.49      0.00
    4    7    6     -0.92      0.00
    5    7    6      3.27      0.00
    6    7    6      0.14      0.00
    7    7    6     -1.94      0.00
    8    7    6     -1.50      0.00
    9    7    6      1.51      0.00
   10    7    6      0.73      0.00
  -13    8    6     -0.77      0.00
  -12    8    6      3.57      0.00
  -11    8    6      0.60      0.00
  -10    8    6     -3.94      0.00
   -9    8    6     -1.89      0.00
   -8    8    6      5.14      0.00
   -7    8    6      2.09      0.00
   -6    8    6     -7.68      0.00
   -5    8    6      0.45      0.00
   -4    8    6      6.66      0.00
   -3    8    6     -2.43      0.00
   -2    8    6     -0.81      0.00
   -1    8    6     -0.34      0.00
    0    8    6     -2.10      0.00
    1    8    6      3.78      0.00
    2    8    6      1.90      0.00
    3    8    6     -5.40      0.00
    4    8    6     -1.62      0.00
    5    8    6      3.52      0.00
    6    8    6      2.67      0.00
    7    8    6     -3.40      0.00
    8    8    6     -1.26      0.00
    9    8    6      2.35      0.00
   10    8    6      0.15      0.00
  -13    9    6     -1.18      0.00
  -12    9    6      2.03      0.00
  -11    9    6      4.01      0.00
  -10    9    6     -3.13      0.00
   -9    9    6     -5.95      0.00
   -8    9    6      5.54      0.00
   -7    9    6      6.44      0.00
   -6    9    6     -6.48      0.00
   -5    9    6     -7.76      0.00
   -4    9    6      4.45      0.00
   -3    9    6     11.47      0.00
   -2    9    6     -2.83      0.00
   -1    9    6    -13.62      0.00
    0    9    6      3.86      0.00
    1    9    6     11.02      0.00
    2    9    6     -3.96      0.00
    3    9    6     -8.08      0.00
    4    9    6      2.42      0.00
    5    9    6      5.99      0.00
    6    9    6     -0.23      0.00
    7    9    6     -4.83      0.00
    8    9    6      0.07      0.00
    9    9    6      2.10      0.00
  -13   10    6     -2.11      0.00
  -12   10    6     -1.31      0.00
  -11   10    6      3.23      0.00
  -10   10    6      3.38      0.00
   -9   10    6     -4.15      0.00
   -8   10    6     -5.67      0.00
   -7   10    6      5.31      0.00
   -6   10    6      8.77      0.00
   -5   10    6     -7.55      0.00
   -4   10    6    -10.12      0.00
   -3   10    6      9.21      0.00
   -2   10    6      6.86      0.00
   -1   10    6     -7.68      0.00
    0   10    6     -3.94      0.00
    1   10    6      3.96      0.00
    2   10    6      4.71      0.00
    3   10    6     -1.43      0.00
    4   10    6     -5.79      0.00
    5   10    6      0.48      0.00
    6   10    6      3.77      0.00
    7   10    6      1.23      0.00
    8   10    6     -2.05      0.00
  -12   11    6     -1.15      0.00
  -11   11    6     -4.02      0.00
  -10   11    6      2.24      0.00
   -9   11    6      6.52      0.00
   -8   11    6     -3.05      0.00
   -7   11    6     -7.34      0.00
   -6   11    6      2.43      0.00
   -5   11    6      7.20      0.00
   -4   11    6     -0.30      0.00
   -3   11    6     -7.07      0.00
   -2   11    6     -0.33      0.00
   -1   11    6      9.11      0.00
    0   11    6     -1.85      0.00
    1   11    6     -9.18      0.00
    2   11    6      2.71      0.00
    3   11    6      6.28      0.00
    4   11    6     -2.15      0.00
    5   11    6     -3.94      0.00
    6   11    6      0.61      0.00
    7   11    6      3.51      0.00
    8   11    6     -0.17      0.00
  -11   12    6      0.91      0.00
  -10   12    6     -1.83      0.00
   -9   12    6     -1.26      0.00
   -8   12    6      3.19      0.00
   -7   12    6      1.68      0.00
   -6   12    6     -5.16      0.00
   -5   12    6     -0.62      0.00
   -4   12    6      4.33      0.00
   -3   12    6     -1.61      0.00
   -2   12    6     -1.74      0.00
   -1   12    6      2.72      0.00
    0   12    6     -1.10      0.00
    1   12    6     -0.40      0.00
    2   12    6      0.62      0.00
    3   12    6      0.48      0.00
    4   12    6      0.11      0.00
    5   12    6     -2.39      0.00
    6   12    6      0.31      0.00
    7   12    6      2.23      0.00
   -9   13    6     -2.16      0.00
   -8   13    6     -0.84      0.00
   -7   13    6      1.84      0.00
   -6   13    6      0.73      0.00
   -5   13    6     -0.29      0.00
   -4   13    6     -1.76      0.00
   -3   13    6     -0.03      0.00
   -2   13    6      3.57      0.00
   -1   13    6     -2.24      0.00
    0   13    6     -2.02      0.00
    1   13    6      2.66      0.00
    2   13    6     -0.36      0.00
    3   13    6     -1.30      0.00
    4   13    6      1.12      0.00
    5   13    6     -0.45      0.00
   -8   14    6      0.95      0.00
   -7   14    6     -0.62      0.00
   -6   14    6     -0.63      0.00
   -5   14    6     -1.48      0.00
   -4   14    6      0.38      0.00
   -3   14    6      2.90      0.00
   -2   14    6      0.02      0.00
   -1   14    6     -3.30      0.00
    0   14    6      1.24      0.00
    2   14    6      0.06      0.00
    3   14    6     -0.20      0.00
    4   14    6     -0.95      0.00
   -6   15    6      1.88      0.00
   -5   15    6     -2.62      0.00
   -4   15    6     -1.77      0.00
   -3   15    6      2.04      0.00
   -2   15    6      0.14      0.00
   -1   15    6      1.17      0.00
   -3   16    6     -2.32      0.00
   -2   16    6     -0.18      0.00
   -1   16    6      1.69      0.00
   -6  -15    7      0.41      0.00
   -5  -15    7     -2.13      0.00
   -4  -15    7      1.45      0.00
   -3  -15    7     -0.05      0.00
   -2  -15    7     -2.71      0.00
   -1  -15    7      1.27      0.00
    0  -15    7      2.74      0.00
    1  -15    7     -0.42      0.00
    2  -15    7     -2.11      0.00
    3  -15    7      0.20      0.00
    5  -15    7      0.51      0.00
   -8  -14    7      0.73      0.00
   -7  -14    7      1.57      0.00
   -6  -14    7     -2.08      0.00
   -5  -14    7      0.07      0.00
   -4  -14    7      2.15      0.00
   -3  -14    7      0.25      0.00
   -2  -14    7     -2.19      0.00
   -1  -14    7     -1.52      0.00
    0  -14    7      2.75      0.00
    1  -14    7      0.89      0.00
    2  -14    7     -2.43      0.00
    3  -14    7      0.62      0.00
    4  -14    7      1.13      0.00
    5  -14    7     -0.43      0.00
    6  -14    7     -0.79      0.00
   -9  -13    7      2.29      0.00
   -8  -13    7      0.91      0.00
   -7  -13    7     -5.09      0.00
   -6  -13    7      0.95      0.00
   -5  -13    7      5.05      0.00
   -4  -13    7     -1.39      0.00
   -3  -13    7     -3.45      0.00
   -2  -13    7     -0.09      0.00
   -1  -13    7      2.37      0.00
    0  -13    7      1.18      0.00
    1  -13    7     -3.18      0.00
    2  -13    7      0.15      0.00
    3  -13    7      0.91      0.00
    4  -13    7      0.54      0.00
    5  -13    7      0.73      0.00
    6  -13    7     -0.22      0.00
    7  -13    7     -0.37      0.00
  -10  -12    7      0.14      0.00
   -9  -12    7      3.70      0.00
   -8  -12    7     -1.81      0.00
   -7  -12    7     -3.33      0.00
   -6  -12    7      1.91      0.00
   -5  -12    7      2.26      0.00
   -4  -12    7      0.90      0.00
   -3  -12    7     -3.35      0.00
   -2  -12    7     -0.64      0.00
   -1  -12    7      4.37      0.00
    0  -12    7     -2.56      0.00
    1  -12    7     -1.79      0.00
    2  -12    7      3.09      0.00
    3  -12    7     -1.29      0.00
    4  -12    7     -2.10      0.00
    5  -12    7      1.06      0.00
    6  -12    7      2.23      0.00
    7  -12    7     -0.97      0.00
    8  -12    7     -1.31      0.00
  -11  -11    7     -1.90      0.00
  -10  -11    7      0.70      0.00
   -9  -11    7      1.58      0.00
   -8  -11    7     -0.48      0.00
   -7  -11    7     -0.31      0.00
   -6  -11    7     -2.80      0.00
   -5  -11    7      2.34      0.00
   -4  -11    7      2.72      0.00
   -3  -11    7     -2.70      0.00
   -2  -11    7     -0.09      0.00
   -1  -11    7     -0.53      0.00
    0  -11    7     -0.63      0.00
    1  -11    7      4.04      0.00
    2  -11    7     -2.70      0.00
    3  -11    7     -1.28      0.00
    4  -11    7      2.17      0.00
    5  -11    7     -0.51      0.00
    6  -11    7     -1.25      0.00
    7  -11    7      1.13      0.00
    8  -11    7      1.12      0.00
    9  -11    7     -0.48      0.00
  -12  -10    7      1.26      0.00
  -11  -10    7     -0.29      0.00
  -10  -10    7     -2.25      0.00
   -9  -10    7     -2.52      0.00
   -8  -10    7      5.51      0.00
   -7  -10    7      2.65      0.00
   -6  -10    7     -6.40      0.00
   -5  -10    7     -3.16      0.00
   -4  -10    7      4.28      0.00
   -3  -10    7      7.61      0.00
   -2  -10    7     -3.62      0.00
   -1  -10    7    -12.56      0.00
    0  -10    7      8.40      0.00
    1  -10    7      9.39      0.00
    2  -10    7     -9.29      0.00
    3  -10    7     -5.24      0.00
    4  -10    7      5.52      0.00
    5  -10    7      4.72      0.00
    6  -10    7     -3.46      0.00
    7  -10    7     -3.45      0.00
    8  -10    7      1.00      0.00
    9  -10    7      2.29      0.00
  -12   -9    7      0.59      0.00
  -11   -9    7      3.06      0.00
  -10   -9    7     -2.13      0.00
   -9   -9    7     -3.46      0.00
   -8   -9    7      2.58      0.00
   -7   -9    7      3.68      0.00
   -6   -9    7      0.29      0.00
   -5   -9    7     -7.92      0.00
   -4   -9    7     -1.73      0.00
   -3   -9    7     12.10      0.00
   -2   -9    7     -1.05      0.00
   -1   -9    7     -9.57      0.00
    0   -9    7      1.58      0.00
    1   -9    7      3.01      0.00
    2   -9    7      4.55      0.00
    3   -9    7     -2.76      0.00
    4   -9    7     -7.21      0.00
    5   -9    7      3.60      0.00
    6   -9    7      5.75      0.00
    7   -9    7     -2.11      0.00
    8   -9    7     -3.22      0.00
    9   -9    7     -0.63      0.00
   10   -9    7      2.84      0.00
  -13   -8    7     -0.43      0.00
  -12   -8    7      0.23      0.00
  -11   -8    7     -1.15      0.00
  -10   -8    7     -0.53      0.00
   -9   -8    7      2.50      0.00
   -8   -8    7     -1.17      0.00
   -7   -8    7     -1.11      0.00
   -6   -8    7      1.53      0.00
   -5   -8    7      0.18      0.00
   -4   -8    7      1.12      0.00
   -3   -8    7     -3.36      0.00
   -2   -8    7     -2.08      0.00
   -1   -8    7     11.31      0.00
    0   -8    7     -5.05      0.00
    1   -8    7    -11.01      0.00
    2   -8    7      8.94      0.00
    3   -8    7      5.31      0.00
    4   -8    7     -5.87      0.00
    5   -8    7     -3.93      0.00
    6   -8    7      2.64      0.00
    7   -8    7      4.34      0.00
    8   -8    7     -2.00      0.00
    9   -8    7     -4.14      0.00
   10   -8    7      2.75      0.00
  -13   -7    7      1.58      0.00
  -12   -7    7      1.65      0.00
  -11   -7    7     -2.54      0.00
  -10   -7    7      0.56      0.00
   -9   -7    7      1.59      0.00
   -8   -7    7     -0.83      0.00
   -7   -7    7     -0.18      0.00
   -6   -7    7     -1.92      0.00
   -5   -7    7      0.89      0.00
   -4   -7    7      2.15      0.00
   -3   -7    7     -5.45      0.00
   -2   -7    7      4.12      0.00
   -1   -7    7      4.61      0.00
    0   -7    7     -8.74      0.00
    1   -7    7      2.05      0.00
    2   -7    7      3.73      0.00
    3   -7    7     -1.91      0.00
    4   -7    7      1.14      0.00
    5   -7    7     -2.29      0.00
    6   -7    7     -0.08      0.00
    7   -7    7      3.75      0.00
    8   -7    7     -2.16      0.00
    9   -7    7     -1.99      0.00
   10   -7    7      0.17      0.00
   11   -7    7      1.19      0.00
  -14   -6    7     -1.11      0.00
  -13   -6    7      0.38      0.00
  -12   -6    7     -0.36      0.00
  -11   -6    7     -0.81      0.00
  -10   -6    7      0.11      0.00
   -9   -6    7      0.27      0.00
   -8   -6    7      1.69      0.00
   -7   -6    7     -1.70      0.00
   -6   -6    7      1.78      0.00
   -5   -6    7      4.16      0.00
   -4   -6    7     -8.01      0.00
   -3   -6    7     -3.76      0.00
   -2   -6    7     13.82      0.00
   -1   -6    7     -4.90      0.00
    0   -6    7     -6.90      0.00
    1   -6    7      6.42      0.00
    2   -6    7     -1.37      0.00
    3   -6    7     -0.30      0.00
    4   -6    7     -0.73      0.00
    5   -6    7     -1.43      0.00
    6   -6    7      2.14      0.00
    7   -6    7      0.06      0.00
    8   -6    7      0.98      0.00
    9   -6    7      0.76      0.00
   10   -6    7     -3.82      0.00
   11   -6    7      0.59      0.00
  -14   -5    7     -1.65      0.00
  -13   -5    7      0.73      0.00
  -12   -5    7      3.55      0.00
  -11   -5    7      1.48      0.00
  -10   -5    7     -5.28      0.00
   -9   -5    7     -2.15      0.00
   -8   -5    7      5.19      0.00
   -7   -5    7      1.88      0.00
   -6   -5    7     -3.90      0.00
   -5   -5    7     -3.48      0.00
   -4   -5    7      1.50      0.00
   -3   -5    7      9.22      0.00
   -2   -5    7     -5.58      0.00
   -1   -5    7    -10.90      0.00
    0   -5    7     12.84      0.00
    1   -5    7      1.54      0.00
    2   -5    7     -6.16      0.00
    3   -5    7      0.36      0.00
    4   -5    7     -0.65      0.00
    5   -5    7      4.87      0.00
    6   -5    7     -2.24      0.00
    7   -5    7     -4.48      0.00
    8   -5    7      3.37      0.00
    9   -5    7      1.36      0.00
   10   -5    7     -1.16      0.00
   11   -5    7      0.01      0.00
  -15   -4    7     -0.20      0.00
  -14   -4    7     -1.41      0.00
  -13   -4    7     -2.41      0.00
  -12   -4    7      1.21      0.00
  -11   -4    7      4.23      0.00
  -10   -4    7     -1.23      0.00
   -9   -4    7     -6.12      0.00
   -8   -4    7      0.11      0.00
   -7   -4    7     11.40      0.00
   -6   -4    7      0.27      0.00
   -5   -4    7    -15.21      0.00
   -4   -4    7      1.53      0.00
   -3   -4    7     16.71      0.00
   -2   -4    7     -9.36      0.00
   -1   -4    7     -4.66      0.00
    0   -4    7      5.11      0.00
    1   -4    7     -3.41      0.00
    2   -4    7      4.89      0.00
    3   -4    7     -1.84      0.00
    4   -4    7     -1.63      0.00
    5   -4    7      1.53      0.00
    6   -4    7     -2.97      0.00
    7   -4    7      3.61      0.00
    8   -4    7      0.06      0.00
    9   -4    7     -3.66      0.00
   10   -4    7      1.11      0.00
   11   -4    7      0.57      0.00
  -15   -3    7     -0.35      0.00
  -14   -3    7      0.95      0.00
  -13   -3    7     -0.21      0.00
  -12   -3    7     -1.35      0.00
  -11   -3    7      1.16      0.00
  -10   -3    7      2.62      0.00
   -9   -3    7     -1.86      0.00
   -8   -3    7     -3.73      0.00
   -7   -3    7      0.77      0.00
   -6   -3    7      4.44      0.00
   -5   -3    7      0.86      0.00
   -4   -3    7     -2.20      0.00
   -3   -3    7     -7.92      0.00
   -2   -3    7      3.76      0.00
   -1   -3    7     13.76      0.00
    0   -3    7    -11.95      0.00
    1   -3    7     -3.76      0.00
    2   -3    7      6.44      0.00
    3   -3    7     -1.41      0.00
    4   -3    7      2.55      0.00
    5   -3    7     -4.61      0.00
    6   -3    7      0.21      0.00
    7   -3    7      5.46      0.00
    8   -3    7     -2.55      0.00
    9   -3    7     -0.85      0.00
   10   -3    7      0.41      0.00
   11   -3    7     -1.54      0.00
  -15   -2    7      0.54      0.00
  -14   -2    7     -0.83      0.00
  -13   -2    7     -1.13      0.00
  -12   -2    7      0.23      0.00
  -11   -2    7      0.90      0.00
  -10   -2    7     -0.01      0.00
   -9   -2    7      0.11      0.00
   -8   -2    7     -0.06      0.00
   -7   -2    7     -2.22      0.00
   -6   -2    7      2.36      0.00
   -5   -2    7      6.31      0.00
   -4   -2    7     -6.37      0.00
   -3   -2    7    -11.98      0.00
   -2   -2    7     16.27      0.00
   -1   -2    7      5.97      0.00
    0   -2    7    -16.82      0.00
    1   -2    7      0.65      0.00
    2   -2    7      8.46      0.00
    3   -2    7      5.54      0.00
    4   -2    7     -8.41      0.00
    5   -2    7     -8.78      0.00
    6   -2    7     10.99      0.00
    7   -2    7      1.95      0.00
    8   -2    7     -6.97      0.00
    9   -2    7      1.53      0.00
   10   -2    7      2.48      0.00
   11   -2    7      0.24      0.00
   12   -2    7     -0.90      0.00
  -15   -1    7      1.48      0.00
  -14   -1    7      1.34      0.00
  -13   -1    7     -2.62      0.00
  -12   -1    7     -2.69      0.00
  -11   -1    7      2.76      0.00
  -10   -1    7      3.18      0.00
   -9   -1    7     -1.85      0.00
   -8   -1    7     -4.72      0.00
   -7   -1    7      0.16      0.00
   -6   -1    7      6.80      0.00
   -5   -1    7      3.67      0.00
   -4   -1    7    -10.38      0.00
   -3   -1    7     -3.53      0.00
   -2   -1    7      9.16      0.00
   -1   -1    7      1.85      0.00
    0   -1    7      0.71      0.00
    1   -1    7     -9.75      0.00
    2   -1    7     -2.21      0.00
    3   -1    7     13.41      0.00
    4   -1    7     -2.92      0.00
    5   -1    7     -5.65      0.00
    6   -1    7      1.18      0.00
    7   -1    7      0.50      0.00
    8   -1    7      3.60      0.00
    9   -1    7     -1.27      0.00
   10   -1    7     -3.92      0.00
   11   -1    7      1.51      0.00
   12   -1    7      1.42      0.00
  -15    0    7      0.18      0.00
  -14    0    7      0.45      0.00
  -13    0    7     -0.68      0.00
  -12    0    7     -0.28      0.00
  -11    0    7      0.80      0.00
  -10    0    7      1.79      0.00
   -9    0    7     -2.46      0.00
   -8    0    7     -3.32      0.00
   -7    0    7      3.11      0.00
   -6    0    7      4.31      0.00
   -5    0    7     -4.60      0.00
   -4    0    7     -4.06      0.00
   -3    0    7      9.10      0.00
   -2    0    7     -3.35      0.00
   -1    0    7     -7.90      0.00
    0    0    7      8.36      0.00
    1    0    7      4.44      0.00
    2    0    7     -3.81      0.00
    3    0    7     -7.72      0.00
    4    0    7      4.18      0.00
    5    0    7      9.17      0.00
    6    0    7     -9.78      0.00
    7    0    7     -3.83      0.00
    8    0    7      8.64      0.00
    9    0    7     -0.64      0.00
   10    0    7     -2.90      0.00
   11    0    7      0.63      0.00
  -15    1    7      0.35      0.00
  -14    1    7      1.15      0.00
  -13    1    7     -0.51      0.00
  -12    1    7     -2.43      0.00
  -11    1    7     -0.41      0.00
  -10    1    7      4.15      0.00
   -9    1    7      2.12      0.00
   -8    1    7     -5.39      0.00
   -7    1    7     -5.02      0.00
   -6    1    7      8.47      0.00
   -5    1    7      6.74      0.00
   -4    1    7     -7.93      0.00
   -3    1    7     -8.93      0.00
   -2    1    7      3.73      0.00
   -1    1    7     12.33      0.00
    0    1    7     -5.23      0.00
    1    1    7     -7.34      0.00
    2    1    7      3.40      0.00
    3    1    7      1.43      0.00
    4    1    7      4.00      0.00
    5    1    7     -3.30      0.00
    6    1    7     -5.03      0.00
    7    1    7      5.30      0.00
    8    1    7      0.60      0.00
    9    1    7     -2.05      0.00
   10    1    7      0.82      0.00
   11    1    7     -0.99      0.00
  -15    2    7     -2.66      0.00
  -14    2    7     -0.20      0.00
  -13    2    7      4.69      0.00
  -12    2    7      1.26      0.00
  -11    2    7     -5.90      0.00
  -10    2    7     -3.98      0.00
   -9    2    7      8.80      0.00
   -8    2    7      6.02      0.00
   -7    2    7    -13.87      0.00
   -6    2    7     -9.58      0.00
   -5    2    7     16.72      0.00
   -4    2    7     17.76      0.00
   -3    2    7    -19.66      0.00
   -2    2    7    -21.74      0.00
   -1    2    7     19.89      0.00
    0    2    7     18.53      0.00
    1    2    7    -14.27      0.00
    2    2    7    -16.29      0.00
    3    2    7     11.60      0.00
    4    2    7     11.57      0.00
    5    2    7     -9.83      0.00
    6    2    7     -3.42      0.00
    7    2    7      3.99      0.00
    8    2    7     -0.78      0.00
    9    2    7      1.96      0.00
   10    2    7     -0.44      0.00
   11    2    7     -1.80      0.00
  -15    3    7      1.94      0.00
  -14    3    7     -3.91      0.00
  -13    3    7     -2.75      0.00
  -12    3    7      4.68      0.00
  -11    3    7      3.51      0.00
  -10    3    7     -4.07      0.00
   -9    3    7     -3.94      0.00
   -8    3    7      4.69      0.00
   -7    3    7      7.11      0.00
   -6    3    7     -8.55      0.00
   -5    3    7    -10.29      0.00
   -4    3    7     12.26      0.00
   -3    3    7      9.28      0.00
   -2    3    7    -10.59      0.00
   -1    3    7     -8.74      0.00
    0    3    7      7.72      0.00
    1    3    7      7.04      0.00
    2    3    7     -3.85      0.00
    3    3    7     -3.69      0.00
    4    3    7     -1.13      0.00
    5    3    7      3.47      0.00
    6    3    7      2.68      0.00
    7    3    7     -5.74      0.00
    8    3    7     -0.38      0.00
    9    3    7      3.79      0.00
   10    3    7     -0.14      0.00
   11    3    7      0.08      0.00
  -13    4    7     -2.80      0.00
  -12    4    7     -4.57      0.00
  -11    4    7      2.74      0.00
  -10    4    7      6.25      0.00
   -9    4    7     -2.88      0.00
   -8    4    7     -7.55      0.00
   -7    4    7      3.93      0.00
   -6    4    7      7.59      0.00
   -5    4    7     -3.18      0.00
   -4    4    7     -8.76      0.00
   -3    4    7      2.12      0.00
   -2    4    7     12.10      0.00
   -1    4    7     -4.54      0.00
    0    4    7    -12.75      0.00
    1    4    7      7.18      0.00
    2    4    7      9.06      0.00
    3    4    7     -7.41      0.00
    4    4    7     -4.45      0.00
    5    4    7      7.23      0.00
    6    4    7      1.14      0.00
    7    4    7     -5.89      0.00
    8    4    7      1.34      0.00
    9    4    7      1.93      0.00
   10    4    7     -0.14      0.00
   11    4    7     -0.99      0.00
  -13    5    7      0.39      0.00
  -12    5    7     -1.86      0.00
  -11    5    7      0.52      0.00
  -10    5    7      0.77      0.00
   -9    5    7     -0.82      0.00
   -8    5    7      0.66      0.00
   -7    5    7     -0.89      0.00
   -6    5    7      0.39      0.00
   -5    5    7      1.95      0.00
   -4    5    7     -3.62      0.00
   -3    5    7      0.35      0.00
   -2    5    7      4.65      0.00
   -1    5    7     -4.92      0.00
    0    5    7     -2.17      0.00
    1    5    7      6.67      0.00
    2    5    7      0.22      0.00
    3    5    7     -5.67      0.00
    4    5    7      0.54      0.00
    5    5    7      4.07      0.00
    6    5    7     -0.44      0.00
    7    5    7     -2.92      0.00
    8    5    7     -0.66      0.00
    9    5    7      1.52      0.00
   10    5    7      1.42      0.00
  -13    6    7     -0.10      0.00
  -12    6    7     -3.82      0.00
  -11    6    7      0.51      0.00
  -10    6    7      4.95      0.00
   -9    6    7      1.48      0.00
   -8    6    7     -5.56      0.00
   -7    6    7     -3.79      0.00
   -6    6    7      5.39      0.00
   -5    6    7      4.25      0.00
   -4    6    7     -3.57      0.00
   -3    6    7     -1.96      0.00
   -2    6    7     -1.14      0.00
   -1    6    7      2.29      0.00
    0    6    7      4.54      0.00
    1    6    7     -5.31      0.00
    2    6    7     -4.66      0.00
    3    6    7      6.08      0.00
    4    6    7      2.82      0.00
    5    6    7     -4.83      0.00
    6    6    7     -1.21      0.00
    7    6    7      4.80      0.00
    8    6    7     -0.57      0.00
    9    6    7     -3.10      0.00
   10    6    7      0.46      0.00
  -13    7    7      5.53      0.00
  -12    7    7     -0.39      0.00
  -11    7    7     -9.27      0.00
  -10    7    7     -1.05      0.00
   -9    7    7     12.03      0.00
   -8    7    7      1.58      0.00
   -7    7    7    -10.70      0.00
   -6    7    7     -4.54      0.00
   -5    7    7      7.87      0.00
   -4    7    7      9.52      0.00
   -3    7    7     -7.21      0.00
   -2    7    7    -11.77      0.00
   -1    7    7      7.28      0.00
    0    7    7      8.82      0.00
    1    7    7     -4.73      0.00
    2    7    7     -6.51      0.00
    3    7    7      3.64      0.00
    4    7    7      4.58      0.00
    5    7    7     -2.29      0.00
    6    7    7     -4.01      0.00
    7    7    7      2.01      0.00
    8    7    7      1.45      0.00
    9    7    7     -0.78      0.00
   10    7    7     -0.12      0.00
  -14    8    7     -2.75      0.00
  -13    8    7      0.19      0.00
  -12    8    7      6.44      0.00
  -11    8    7     -1.03      0.00
  -10    8    7     -7.37      0.00
   -9    8    7     -0.40      0.00
   -8    8    7      8.64      0.00
   -7    8    7      2.10      0.00
   -6    8    7    -10.03      0.00
   -5    8    7     -2.59      0.00
   -4    8    7      9.30      0.00
   -3    8    7      0.63      0.00
   -2    8    7     -3.25      0.00
   -1    8    7     -1.16      0.00
    0    8    7     -0.75      0.00
    1    8    7      2.50      0.00
    2    8    7      1.25      0.00
    3    8    7     -3.98      0.00
    4    8    7     -2.23      0.00
    5    8    7      4.19      0.00
    6    8    7      4.29      0.00
    7    8    7     -4.49      0.00
    8    8    7     -3.13      0.00
    9    8    7      2.82      0.00
  -13    9    7     -2.61      0.00
  -12    9    7      0.68      0.00
  -11    9    7      5.19      0.00
  -10    9    7     -0.64      0.00
   -9    9    7     -6.28      0.00
   -8    9    7      2.14      0.00
   -7    9    7      5.27      0.00
   -6    9    7     -3.07      0.00
   -5    9    7     -3.36      0.00
   -4    9    7      1.25      0.00
   -3    9    7      3.72      0.00
   -2    9    7      1.05      0.00
   -1    9    7     -6.26      0.00
    0    9    7     -0.52      0.00
    1    9    7      5.41      0.00
    2    9    7      1.36      0.00
    3    9    7     -3.93      0.00
    4    9    7     -2.29      0.00
    5    9    7      2.60      0.00
    6    9    7      2.91      0.00
    7    9    7     -2.80      0.00
    8    9    7     -1.28      0.00
  -13   10    7     -1.77      0.00
  -12   10    7     -1.17      0.00
  -11   10    7      2.93      0.00
  -10   10    7      0.27      0.00
   -9   10    7     -3.14      0.00
   -8   10    7     -0.74      0.00
   -7   10    7      5.04      0.00
   -6   10    7      2.24      0.00
   -5   10    7     -7.84      0.00
   -4   10    7     -4.40      0.00
   -3   10    7     11.00      0.00
   -2   10    7      2.90      0.00
   -1   10    7    -10.38      0.00
    0   10    7     -0.37      0.00
    1   10    7      6.98      0.00
    2   10    7      0.71      0.00
    3   10    7     -5.28      0.00
    4   10    7     -2.04      0.00
    5   10    7      4.34      0.00
    6   10    7      1.05      0.00
    7   10    7     -1.27      0.00
    8   10    7     -0.95      0.00
  -11   11    7     -1.18      0.00
  -10   11    7      2.60      0.00
   -9   11    7      2.14      0.00
   -8   11    7     -5.43      0.00
   -7   11    7     -1.94      0.00
   -6   11    7      6.84      0.00
   -5   11    7      1.31      0.00
   -4   11    7     -5.23      0.00
   -3   11    7     -0.96      0.00
   -2   11    7      3.24      0.00
   -1   11    7      2.68      0.00
    0   11    7     -4.25      0.00
    1   11    7     -3.75      0.00
    2   11    7      4.67      0.00
    3   11    7      2.80      0.00
    4   11    7     -3.18      0.00
    5   11    7     -2.29      0.00
    6   11    7      1.17      0.00
    7   11    7      2.49      0.00
  -10   12    7     -0.09      0.00
   -9   12    7      3.56      0.00
   -8   12    7      1.40      0.00
   -7   12    7     -4.21      0.00
   -6   12    7     -4.06      0.00
   -5   12    7      4.40      0.00
   -4   12    7      5.01      0.00
   -3   12    7     -5.86      0.00
   -2   12    7     -3.28      0.00
   -1   12    7      6.90      0.00
    0   12    7      1.25      0.00
    1   12    7     -3.94      0.00
    2   12    7     -1.60      0.00
    3   12    7      2.40      0.00
    4   12    7      1.44      0.00
    5   12    7     -2.65      0.00
    6   12    7     -0.89      0.00
   -9   13    7     -2.95      0.00
   -8   13    7      2.17      0.00
   -7   13    7      3.72      0.00
   -6   13    7     -2.98      0.00
   -5   13    7     -2.20      0.00
   -4   13    7      1.20      0.00
   -3   13    7      1.31      0.00
   -2   13    7      1.18      0.00
   -1   13    7     -2.59      0.00
    0   13    7     -1.26      0.00
    1   13    7      1.99      0.00
    2   13    7      0.02      0.00
    3   13    7     -0.34      0.00
    4   13    7      0.34      0.00
    5   13    7     -0.52      0.00
   -7   14    7     -0.01      0.00
   -6   14    7      1.37      0.00
   -5   14    7     -0.44      0.00
   -4   14    7     -2.05      0.00
   -3   14    7      1.23      0.00
   -2   14    7      2.33      0.00
   -1   14    7     -1.55      0.00
    1   14    7      0.21      0.00
    2   14    7      0.83      0.00
    3   14    7     -0.51      0.00
   -5   15    7     -2.57      0.00
   -4   15    7     -0.79      0.00
   -3   15    7      2.63      0.00
   -2   15    7     -0.49      0.00
   -1   15    7     -0.32      0.00
   -4  -15    8     -1.51      0.00
   -3  -15    8      0.78      0.00
   -2  -15    8      0.37      0.00
   -1  -15    8      1.02      0.00
    0  -15    8      0.20      0.00
    1  -15    8     -0.35      0.00
   -7  -14    8      1.98      0.00
   -6  -14    8     -0.88      0.00
   -5  -14    8     -1.41      0.00
   -4  -14    8      2.48      0.00
   -3  -14    8      0.28      0.00
   -2  -14    8     -2.49      0.00
   -1  -14    8     -1.77      0.00
    0  -14    8      2.63      0.00
    1  -14    8      1.39      0.00
    2  -14    8     -2.76      0.00
    3  -14    8     -0.76      0.00
    4  -14    8      1.97      0.00
    5  -14    8      0.74      0.00
   -9  -13    8     -0.81      0.00
   -8  -13    8      1.41      0.00
   -7  -13    8     -0.95      0.00
   -6  -13    8     -0.42      0.00
   -5  -13    8      1.80      0.00
   -4  -13    8     -0.40      0.00
   -3  -13    8     -0.51      0.00
   -2  -13    8     -0.37      0.00
   -1  -13    8     -0.62      0.00
    0  -13    8      2.55      0.00
    1  -13    8     -0.32      0.00
    2  -13    8     -1.82      0.00
    3  -13    8     -0.20      0.00
    4  -13    8      1.74      0.00
    5  -13    8     -0.29      0.00
    6  -13    8     -0.20      0.00
  -10  -12    8      0.41      0.00
   -9  -12    8      3.71      0.00
   -8  -12    8     -0.70      0.00
   -7  -12    8     -4.70      0.00
   -6  -12    8      0.82      0.00
   -5  -12    8      3.93      0.00
   -4  -12    8      1.81      0.00
   -3  -12    8     -4.31      0.00
   -2  -12    8     -3.40      0.00
   -1  -12    8      5.32      0.00
    0  -12    8      0.77      0.00
    1  -12    8     -3.77      0.00
    2  -12    8      0.66      0.00
    3  -12    8      1.25      0.00
    4  -12    8     -1.24      0.00
    5  -12    8      0.09      0.00
    6  -12    8      1.39      0.00
    7  -12    8     -0.61      0.00
  -11  -11    8     -2.18      0.00
  -10  -11    8     -0.08      0.00
   -9  -11    8      2.78      0.00
   -8  -11    8     -0.82      0.00
   -7  -11    8     -1.44      0.00
   -6  -11    8     -1.97      0.00
   -5  -11    8      3.19      0.00
   -4  -11    8      2.91      0.00
   -3  -11    8     -4.34      0.00
   -2  -11    8     -0.14      0.00
   -1  -11    8      3.26      0.00
    0  -11    8     -2.77      0.00
    1  -11    8      0.47      0.00
    2  -11    8      1.30      0.00
    3  -11    8     -0.21      0.00
    4  -11    8     -1.65      0.00
    5  -11    8      0.35      0.00
    6  -11    8      1.20      0.00
    7  -11    8     -0.09      0.00
    8  -11    8     -0.93      0.00
  -12  -10    8      0.99      0.00
  -11  -10    8     -0.67      0.00
  -10  -10    8     -0.96      0.00
   -9  -10    8     -0.25      0.00
   -8  -10    8      3.06      0.00
   -7  -10    8     -0.19      0.00
   -6  -10    8     -4.28      0.00
   -5  -10    8      1.19      0.00
   -4  -10    8      1.40      0.00
   -3  -10    8      1.18      0.00
   -2  -10    8      0.79      0.00
   -1  -10    8     -6.36      0.00
    0  -10    8      2.58      0.00
    1  -10    8      5.70      0.00
    2  -10    8     -4.39      0.00
    3  -10    8     -2.97      0.00
    4  -10    8      3.13      0.00
    5  -10    8      1.83      0.00
    6  -10    8     -2.17      0.00
    7  -10    8     -0.96      0.00
    8  -10    8      1.22      0.00
    9  -10    8      1.17      0.00
  -12   -9    8      0.33      0.00
  -11   -9    8      2.16      0.00
  -10   -9    8     -2.48      0.00
   -9   -9    8     -3.23      0.00
   -8   -9    8      3.62      0.00
   -7   -9    8      3.45      0.00
   -6   -9    8     -1.13      0.00
   -5   -9    8     -6.85      0.00
   -4   -9    8      0.31      0.00
   -3   -9    8     12.01      0.00
   -2   -9    8     -3.09      0.00
   -1   -9    8    -13.15      0.00
    0   -9    8      6.19      0.00
    1   -9    8      8.31      0.00
    2   -9    8     -2.97      0.00
    3   -9    8     -6.65      0.00
    4   -9    8      0.35      0.00
    5   -9    8      5.41      0.00
    6   -9    8      0.38      0.00
    7   -9    8     -3.74      0.00
    8   -9    8     -0.08      0.00
    9   -9    8      0.50      0.00
  -13   -8    8     -1.02      0.00
  -12   -8    8     -0.33      0.00
  -11   -8    8      1.68      0.00
  -10   -8    8      0.06      0.00
   -9   -8    8     -1.23      0.00
   -8   -8    8     -1.50      0.00
   -7   -8    8      2.83      0.00
   -6   -8    8      2.53      0.00
   -5   -8    8     -6.01      0.00
   -4   -8    8     -1.13      0.00
   -3   -8    8      6.11      0.00
   -2   -8    8     -0.99      0.00
   -1   -8    8      0.57      0.00
    0   -8    8     -3.51      0.00
    1   -8    8     -3.23      0.00
    2   -8    8      6.74      0.00
    3   -8    8      1.49      0.00
    4   -8    8     -5.50      0.00
    5   -8    8     -0.51      0.00
    6   -8    8      3.19      0.00
    7   -8    8      1.61      0.00
    8   -8    8     -2.40      0.00
    9   -8    8     -3.26      0.00
   10   -8    8      2.77      0.00
  -13   -7    8      1.77      0.00
  -12   -7    8      0.82      0.00
  -11   -7    8     -4.30      0.00
  -10   -7    8      0.54      0.00
   -9   -7    8      3.12      0.00
   -8   -7    8     -0.39      0.00
   -7   -7    8     -1.25      0.00
   -6   -7    8     -2.69      0.00
   -5   -7    8      2.36      0.00
   -4   -7    8      5.20      0.00
   -3   -7    8     -8.01      0.00
   -2   -7    8     -1.87      0.00
   -1   -7    8     10.34      0.00
    0   -7    8     -2.65      0.00
    1   -7    8     -5.27      0.00
    2   -7    8      1.02      0.00
    3   -7    8      3.01      0.00
    4   -7    8      0.76      0.00
    5   -7    8     -4.44      0.00
    6   -7    8     -0.04      0.00
    7   -7    8      5.02      0.00
    8   -7    8     -1.56      0.00
    9   -7    8     -1.96      0.00
   10   -7    8      0.10      0.00
  -14   -6    8     -2.26      0.00
  -13   -6    8      0.78      0.00
  -12   -6    8      2.05      0.00
  -11   -6    8     -0.60      0.00
  -10   -6    8     -0.74      0.00
   -9   -6    8      0.04      0.00
   -8   -6    8      2.30      0.00
   -7   -6    8     -1.11      0.00
   -6   -6    8     -1.56      0.00
   -5   -6    8      3.49      0.00
   -4   -6    8     -3.00      0.00
   -3   -6    8     -4.27      0.00
   -2   -6    8     10.01      0.00
   -1   -6    8     -2.97      0.00
    0   -6    8     -8.28      0.00
    1   -6    8      5.52      0.00
    2   -6    8      2.98      0.00
    3   -6    8     -0.86      0.00
    4   -6    8     -3.36      0.00
    5   -6    8     -1.69      0.00
    6   -6    8      4.62      0.00
    7   -6    8      0.32      0.00
    8   -6    8     -2.35      0.00
    9   -6    8      0.12      0.00
   10   -6    8     -0.13      0.00
  -14   -5    8     -0.63      0.00
  -13   -5    8     -0.18      0.00
  -12   -5    8      0.91      0.00
  -11   -5    8      0.67      0.00
  -10   -5    8     -3.39      0.00
   -9   -5    8      0.08      0.00
   -8   -5    8      3.19      0.00
   -7   -5    8     -2.70      0.00
   -6   -5    8      1.09      0.00
   -5   -5    8      3.56      0.00
   -4   -5    8     -6.63      0.00
   -3   -5    8      0.71      0.00
   -2   -5    8      6.05      0.00
   -1   -5    8     -4.09      0.00
    0   -5    8      1.17      0.00
    1   -5    8     -1.09      0.00
    2   -5    8      0.57      0.00
    3   -5    8      3.13      0.00
    4   -5    8     -4.76      0.00
    5   -5    8      1.28      0.00
    6   -5    8      0.81      0.00
    7   -5    8     -2.35      0.00
    8   -5    8      2.57      0.00
    9   -5    8     -0.04      0.00
   10   -5    8     -1.74      0.00
   11   -5    8      0.40      0.00
  -14   -4    8     -2.46      0.00
  -13   -4    8     -0.91      0.00
  -12   -4    8      3.44      0.00
  -11   -4    8      3.18      0.00
  -10   -4    8     -3.42      0.00
   -9   -4    8     -3.68      0.00
   -8   -4    8      2.41      0.00
   -7   -4    8      7.34      0.00
   -6   -4    8     -2.61      0.00
   -5   -4    8    -11.95      0.00
   -4   -4    8      4.78      0.00
   -3   -4    8     15.39      0.00
   -2   -4    8    -12.17      0.00
   -1   -4    8     -8.76      0.00
    0   -4    8     10.77      0.00
    1   -4    8      1.08      0.00
    2   -4    8     -1.34      0.00
    3   -4    8     -5.03      0.00
    4   -4    8      1.78      0.00
    5   -4    8      6.70      0.00
    6   -4    8     -5.59      0.00
    7   -4    8     -0.82      0.00
    8   -4    8      2.33      0.00
    9   -4    8     -0.93      0.00
   10   -4    8     -0.33      0.00
   11   -4    8     -0.47      0.00
  -15   -3    8      0.29      0.00
  -14   -3    8     -0.10      0.00
  -13   -3    8     -1.95      0.00
  -12   -3    8     -0.78      0.00
  -11   -3    8      3.11      0.00
  -10   -3    8      1.77      0.00
   -9   -3    8     -5.71      0.00
   -8   -3    8     -3.57      0.00
   -7   -3    8      9.48      0.00
   -6   -3    8      3.79      0.00
   -5   -3    8    -11.41      0.00
   -4   -3    8     -0.59      0.00
   -3   -3    8      7.24      0.00
   -2   -3    8     -0.40      0.00
   -1   -3    8      0.92      0.00
    0   -3    8     -6.29      0.00
    1   -3    8      2.36      0.00
    2   -3    8      4.51      0.00
    3   -3    8     -5.25      0.00
    4   -3    8      3.42      0.00
    5   -3    8     -1.84      0.00
    6   -3    8     -2.66      0.00
    7   -3    8      5.02      0.00
    8   -3    8     -0.52      0.00
    9   -3    8     -1.95      0.00
   10   -3    8      0.27      0.00
   11   -3    8     -0.36      0.00
  -15   -2    8     -0.78      0.00
  -14   -2    8      0.89      0.00
  -13   -2    8      0.14      0.00
  -12   -2    8     -1.35      0.00
  -11   -2    8     -0.46      0.00
  -10   -2    8      2.56      0.00
   -9   -2    8      0.67      0.00
   -8   -2    8     -1.66      0.00
   -7   -2    8     -2.34      0.00
   -6   -2    8      1.29      0.00
   -5   -2    8      6.26      0.00
   -4   -2    8     -2.74      0.00
   -2   -2    8      9.63      0.00
   -1   -2    8      7.78      0.00
    0   -2    8    -10.49      0.00
    1   -2    8      0.27      0.00
    2   -2    8      2.14      0.00
    3   -2    8      3.68      0.00
    4   -2    8     -1.39      0.00
    5   -2    8     -8.14      0.00
    6   -2    8      5.96      0.00
    7   -2    8      3.00      0.00
    8   -2    8     -4.65      0.00
    9   -2    8      1.07      0.00
   10   -2    8      1.63      0.00
   11   -2    8     -0.34      0.00
  -15   -1    8      1.51      0.00
  -14   -1    8     -0.45      0.00
  -13   -1    8     -1.59      0.00
  -12   -1    8     -0.37      0.00
  -11   -1    8      1.58      0.00
  -10   -1    8      0.55      0.00
   -9   -1    8     -2.07      0.00
   -8   -1    8     -1.09      0.00
   -7   -1    8      0.09      0.00
   -6   -1    8      3.91      0.00
   -5   -1    8      4.85      0.00
   -4   -1    8     -9.87      0.00
   -3   -1    8     -5.76      0.00
   -2   -1    8     13.49      0.00
   -1   -1    8      2.62      0.00
    0   -1    8     -7.91      0.00
    1   -1    8     -8.24      0.00
    2   -1    8      6.20      0.00
    3   -1    8     13.95      0.00
    4   -1    8    -10.47      0.00
    5   -1    8     -8.11      0.00
    6   -1    8      9.44      0.00
    7   -1    8      1.40      0.00
    8   -1    8     -4.14      0.00
    9   -1    8     -0.82      0.00
   10   -1    8      0.42      0.00
   11   -1    8      1.14      0.00
  -15    0    8      1.13      0.00
  -14    0    8      1.93      0.00
  -13    0    8     -1.66      0.00
  -12    0    8     -3.21      0.00
  -11    0    8      1.78      0.00
  -10    0    8      4.11      0.00
   -9    0    8     -0.63      0.00
   -8    0    8     -5.44      0.00
   -7    0    8     -2.41      0.00
   -6    0    8      7.86      0.00
   -5    0    8      4.05      0.00
   -4    0    8     -9.12      0.00
   -3    0    8     -2.51      0.00
   -2    0    8      2.67      0.00
   -1    0    8      5.62      0.00
    0    0    8      3.58      0.00
    1    0    8     -9.93      0.00
    2    0    8     -0.10      0.00
    3    0    8      4.84      0.00
    4    0    8     -0.82      0.00
    5    0    8      1.76      0.00
    6    0    8     -5.94      0.00
    7    0    8     -0.47      0.00
    8    0    8      7.97      0.00
    9    0    8     -2.16      0.00
   10    0    8     -3.54      0.00
   11    0    8      1.33      0.00
  -15    1    8     -0.23      0.00
  -14    1    8      0.03      0.00
  -13    1    8     -0.02      0.00
  -12    1    8      0.20      0.00
  -11    1    8      0.08      0.00
  -10    1    8      0.64      0.00
   -9    1    8      0.11      0.00
   -8    1    8     -1.76      0.00
   -7    1    8     -1.18      0.00
   -6    1    8      3.33      0.00
   -5    1    8      0.91      0.00
   -4    1    8     -1.43      0.00
   -3    1    8      0.00      0.00
   -2    1    8     -3.20      0.00
   -1    1    8      0.43      0.00
    0    1    8      0.93      0.00
    1    1    8      3.29      0.00
    2    1    8      0.99      0.00
    3    1    8     -8.93      0.00
    4    1    8      6.15      0.00
    5    1    8      6.49      0.00
    6    1    8     -9.31      0.00
    7    1    8     -0.36      0.00
    8    1    8      4.47      0.00
    9    1    8     -0.31      0.00
   10    1    8     -1.21      0.00
   11    1    8     -0.86      0.00
  -15    2    8     -0.99      0.00
  -14    2    8      0.05      0.00
  -13    2    8      1.22      0.00
  -12    2    8     -0.47      0.00
  -11    2    8     -2.13      0.00
  -10    2    8      0.41      0.00
   -9    2    8      4.53      0.00
   -8    2    8     -0.17      0.00
   -7    2    8     -7.62      0.00
   -6    2    8     -1.51      0.00
   -5    2    8      9.11      0.00
   -4    2    8      5.75      0.00
   -3    2    8    -10.10      0.00
   -2    2    8     -7.74      0.00
   -1    2    8     10.20      0.00
    0    2    8      6.43      0.00
    1    2    8     -5.30      0.00
    2    2    8     -8.80      0.00
    3    2    8      3.73      0.00
    4    2    8      9.86      0.00
    5    2    8     -7.16      0.00
    6    2    8     -3.77      0.00
    7    2    8      4.42      0.00
    8    2    8     -1.09      0.00
    9    2    8      1.70      0.00
   10    2    8      0.23      0.00
   11    2    8     -1.87      0.00
  -15    3    8     -0.47      0.00
  -14    3    8     -2.24      0.00
  -13    3    8      0.86      0.00
  -12    3    8      3.05      0.00
  -11    3    8     -1.48      0.00
  -10    3    8     -4.64      0.00
   -9    3    8      2.13      0.00
   -8    3    8      7.52      0.00
   -7    3    8     -1.37      0.00
   -6    3    8    -11.58      0.00
   -5    3    8     -1.31      0.00
   -4    3    8     15.85      0.00
   -3    3    8      1.66      0.00
   -2    3    8    -16.80      0.00
   -1    3    8     -1.54      0.00
    0    3    8     15.42      0.00
    1    3    8      0.40      0.00
    2    3    8    -12.63      0.00
    3    3    8      3.83      0.00
    4    3    8      5.20      0.00
    5    3    8     -2.47      0.00
    6    3    8      0.57      0.00
    7    3    8     -2.98      0.00
    8    3    8     -0.12      0.00
    9    3    8      2.92      0.00
   10    3    8     -0.31      0.00
  -14    4    8      0.22      0.00
  -13    4    8     -3.36      0.00
  -12    4    8     -0.96      0.00
  -11    4    8      4.93      0.00
  -10    4    8      2.14      0.00
   -9    4    8     -6.96      0.00
   -8    4    8     -3.86      0.00
   -7    4    8      9.15      0.00
   -6    4    8      5.60      0.00
   -5    4    8     -9.77      0.00
   -4    4    8     -6.04      0.00
   -3    4    8      7.03      0.00
   -2    4    8      7.34      0.00
   -1    4    8     -5.01      0.00
    0    4    8     -8.29      0.00
    1    4    8      3.50      0.00
    2    4    8      8.44      0.00
    3    4    8     -2.37      0.00
    4    4    8     -8.04      0.00
    5    4    8      4.41      0.00
    6    4    8      4.57      0.00
    7    4    8     -4.45      0.00
    8    4    8     -1.06      0.00
    9    4    8      0.79      0.00
   10    4    8      0.93      0.00
  -14    5    8      3.27      0.00
  -13    5    8     -0.40      0.00
  -12    5    8     -5.31      0.00
  -11    5    8     -0.45      0.00
  -10    5    8      6.42      0.00
   -9    5    8      2.29      0.00
   -8    5    8     -6.75      0.00
   -7    5    8     -5.08      0.00
   -6    5    8      6.90      0.00
   -5    5    8      7.63      0.00
   -4    5    8     -7.53      0.00
   -3    5    8     -7.76      0.00
   -2    5    8      8.23      0.00
   -1    5    8      4.76      0.00
    0    5    8     -7.39      0.00
    1    5    8     -1.19      0.00
    2    5    8      5.25      0.00
    3    5    8     -2.76      0.00
    4    5    8     -1.22      0.00
    5    5    8      3.41      0.00
    6    5    8     -1.33      0.00
    7    5    8     -1.48      0.00
    8    5    8      0.42      0.00
    9    5    8      1.01      0.00
   10    5    8      0.66      0.00
  -14    6    8      0.60      0.00
  -13    6    8      0.93      0.00
  -12    6    8     -0.18      0.00
  -11    6    8     -0.71      0.00
  -10    6    8     -0.14      0.00
   -9    6    8      1.29      0.00
   -8    6    8      1.13      0.00
   -7    6    8     -2.73      0.00
   -6    6    8     -2.32      0.00
   -5    6    8      3.17      0.00
   -4    6    8      2.12      0.00
   -3    6    8      0.03      0.00
   -2    6    8     -3.00      0.00
   -1    6    8     -2.75      0.00
    0    6    8      3.60      0.00
    1    6    8      2.57      0.00
    2    6    8     -2.95      0.00
    3    6    8     -2.22      0.00
    4    6    8      3.15      0.00
    5    6    8      1.07      0.00
    6    6    8     -1.85      0.00
    7    6    8     -0.02      0.00
    8    6    8     -0.16      0.00
    9    6    8     -0.13      0.00
  -14    7    8      0.38      0.00
  -13    7    8      2.32      0.00
  -12    7    8     -2.47      0.00
  -11    7    8     -3.73      0.00
  -10    7    8      2.06      0.00
   -9    7    8      6.19      0.00
   -8    7    8     -1.91      0.00
   -7    7    8     -5.83      0.00
   -6    7    8      0.53      0.00
   -5    7    8      3.46      0.00
   -4    7    8      2.70      0.00
   -3    7    8     -2.40      0.00
   -2    7    8     -5.31      0.00
   -1    7    8      3.19      0.00
    0    7    8      5.29      0.00
    1    7    8     -2.22      0.00
    2    7    8     -6.50      0.00
    3    7    8      2.76      0.00
    4    7    8      5.07      0.00
    5    7    8     -2.95      0.00
    6    7    8     -3.21      0.00
    7    7    8      2.26      0.00
    8    7    8      1.87      0.00
    9    7    8     -1.25      0.00
  -14    8    8     -1.98      0.00
  -13    8    8      3.71      0.00
  -12    8    8      4.45      0.00
  -11    8    8     -5.35      0.00
  -10    8    8     -5.92      0.00
   -9    8    8      5.47      0.00
   -8    8    8      7.14      0.00
   -7    8    8     -4.11      0.00
   -6    8    8     -8.94      0.00
   -5    8    8      1.49      0.00
   -4    8    8     10.82      0.00
   -3    8    8     -1.56      0.00
   -2    8    8     -8.17      0.00
   -1    8    8      0.95      0.00
    0    8    8      4.76      0.00
    1    8    8      0.67      0.00
    2    8    8     -3.88      0.00
    3    8    8     -1.03      0.00
    4    8    8      1.95      0.00
    5    8    8      1.82      0.00
    6    8    8      0.53      0.00
    7    8    8     -2.53      0.00
    8    8    8     -1.46      0.00
  -13    9    8     -3.15      0.00
  -12    9    8      2.61      0.00
  -11    9    8      4.46      0.00
  -10    9    8     -2.57      0.00
   -9    9    8     -6.75      0.00
   -8    9    8      4.60      0.00
   -7    9    8      7.04      0.00
   -6    9    8     -4.50      0.00
   -5    9    8     -4.93      0.00
   -4    9    8      1.46      0.00
   -3    9    8      2.75      0.00
   -2    9    8      1.81      0.00
   -1    9    8     -3.60      0.00
    0    9    8     -1.90      0.00
    1    9    8      3.03      0.00
    2    9    8      3.05      0.00
    3    9    8     -2.44      0.00
    4    9    8     -4.72      0.00
    5    9    8      1.66      0.00
    6    9    8      5.46      0.00
    7    9    8     -1.44      0.00
    8    9    8     -3.58      0.00
  -12   10    8     -2.39      0.00
  -11   10    8      3.62      0.00
  -10   10    8      1.69      0.00
   -9   10    8     -3.21      0.00
   -8   10    8     -2.20      0.00
   -7   10    8      2.66      0.00
   -6   10    8      2.41      0.00
   -5   10    8     -2.75      0.00
   -4   10    8     -2.85      0.00
   -3   10    8      5.30      0.00
   -2   10    8      2.63      0.00
   -1   10    8     -6.18      0.00
    0   10    8     -1.28      0.00
    1   10    8      3.60      0.00
    2   10    8      0.88      0.00
    3   10    8     -2.35      0.00
    4   10    8     -1.45      0.00
    5   10    8      2.37      0.00
    6   10    8      0.44      0.00
    7   10    8     -0.54      0.00
  -11   11    8     -0.37      0.00
  -10   11    8     -0.17      0.00
   -9   11    8      1.51      0.00
   -8   11    8     -2.52      0.00
   -7   11    8      0.56      0.00
   -6   11    8      3.87      0.00
   -5   11    8     -3.67      0.00
   -4   11    8     -3.75      0.00
   -3   11    8      4.92      0.00
   -2   11    8      2.38      0.00
   -1   11    8     -3.46      0.00
    0   11    8     -2.39      0.00
    1   11    8      2.34      0.00
    2   11    8      3.56      0.00
    3   11    8     -2.54      0.00
    4   11    8     -2.97      0.00
    5   11    8      1.43      0.00
    6   11    8      1.11      0.00
  -10   12    8      1.67      0.00
   -9   12    8      3.01      0.00
   -8   12    8     -1.90      0.00
   -7   12    8     -3.45      0.00
   -6   12    8      0.60      0.00
   -5   12    8      3.89      0.00
   -4   12    8      0.35      0.00
   -3   12    8     -4.87      0.00
   -2   12    8      0.36      0.00
   -1   12    8      5.98      0.00
    0   12    8     -1.60      0.00
    1   12    8     -4.23      0.00
    2   12    8      0.23      0.00
    3   12    8      2.47      0.00
    4   12    8      0.99      0.00
    5   12    8     -2.33      0.00
   -8   13    8      3.51      0.00
   -7   13    8      0.49      0.00
   -6   13    8     -5.38      0.00
   -5   13    8      0.40      0.00
   -4   13    8      4.59      0.00
   -3   13    8     -0.92      0.00
   -2   13    8     -3.03      0.00
   -1   13    8     -0.30      0.00
    0   13    8      2.26      0.00
    1   13    8      0.87      0.00
    2   13    8     -2.02      0.00
    3   13    8      0.35      0.00
    4   13    8      0.71      0.00
   -6   14    8      0.90      0.00
   -5   14    8     -2.53      0.00
   -4   14    8     -2.16      0.00
   -3   14    8      2.62      0.00
   -2   14    8      2.96      0.00
    1   14    8     -0.13      0.00
    2   14    8      0.87      0.00
   -4   15    8     -1.37      0.00
   -3   15    8      0.17      0.00
   -2   15    8      0.19      0.00
   -6  -14    9      1.49      0.00
   -5  -14    9     -1.36      0.00
   -4  -14    9     -0.91      0.00
   -3  -14    9     -1.07      0.00
   -2  -14    9      0.51      0.00
   -1  -14    9      0.74      0.00
    0  -14    9      0.20      0.00
    1  -14    9     -0.25      0.00
    2  -14    9     -0.51      0.00
    3  -14    9      0.03      0.00
    4  -14    9      0.94      0.00
   -8  -13    9      0.57      0.00
   -7  -13    9      1.05      0.00
   -6  -13    9     -0.58      0.00
   -5  -13    9      0.00      0.00
   -4  -13    9      0.83      0.00
   -3  -13    9      1.23      0.00
   -2  -13    9     -1.21      0.00
   -1  -13    9     -3.20      0.00
    0  -13    9      3.02      0.00
    1  -13    9      2.68      0.00
    2  -13    9     -3.21      0.00
    3  -13    9     -2.53      0.00
    4  -13    9      2.68      0.00
    5  -13    9      0.24      0.00
  -10  -12    9      0.66      0.00
   -9  -12    9      1.10      0.00
   -8  -12    9     -0.56      0.00
   -7  -12    9     -2.29      0.00
   -6  -12    9      0.73      0.00
   -5  -12    9      1.57      0.00
   -4  -12    9      1.00      0.00
   -3  -12    9     -1.08      0.00
   -2  -12    9     -3.25      0.00
   -1  -12    9      1.67      0.00
    0  -12    9      2.81      0.00
    1  -12    9     -1.36      0.00
    2  -12    9     -1.90      0.00
    3  -12    9      1.49      0.00
    4  -12    9      0.45      0.00
    5  -12    9     -0.55      0.00
    6  -12    9      0.70      0.00
  -11  -11    9     -2.48      0.00
  -10  -11    9      0.19      0.00
   -9  -11    9      3.43      0.00
   -8  -11    9      0.06      0.00
   -7  -11    9     -2.83      0.00
   -6  -11    9     -2.24      0.00
   -5  -11    9      3.71      0.00
   -4  -11    9      4.62      0.00
   -3  -11    9     -5.42      0.00
   -2  -11    9     -3.54      0.00
   -1  -11    9      6.06      0.00
    0  -11    9     -0.09      0.00
    1  -11    9     -3.64      0.00
    2  -11    9      0.67      0.00
    3  -11    9      2.37      0.00
    4  -11    9     -2.07      0.00
    5  -11    9     -0.43      0.00
    6  -11    9      0.99      0.00
    7  -11    9      0.06      0.00
  -11  -10    9     -0.88      0.00
  -10  -10    9     -1.18      0.00
   -9  -10    9      0.79      0.00
   -8  -10    9      2.22      0.00
   -7  -10    9     -1.36      0.00
   -6  -10    9     -4.02      0.00
   -5  -10    9      3.34      0.00
   -4  -10    9      1.78      0.00
   -3  -10    9     -2.75      0.00
   -2  -10    9      1.33      0.00
   -1  -10    9     -0.55      0.00
    0  -10    9     -0.68      0.00
    1  -10    9      1.61      0.00
    2  -10    9     -0.10      0.00
    3  -10    9     -1.38      0.00
    4  -10    9      0.07      0.00
    5  -10    9      1.11      0.00
    6  -10    9      0.13      0.00
    7  -10    9     -0.22      0.00
    8  -10    9     -0.32      0.00
  -12   -9    9      0.20      0.00
  -11   -9    9      1.00      0.00
  -10   -9    9     -1.57      0.00
   -9   -9    9     -0.92      0.00
   -8   -9    9      2.40      0.00
   -7   -9    9      0.75      0.00
   -6   -9    9     -0.48      0.00
   -5   -9    9     -2.03      0.00
   -4   -9    9     -0.95      0.00
   -3   -9    9      5.80      0.00
   -2   -9    9     -0.13      0.00
   -1   -9    9     -9.21      0.00
    0   -9    9      3.09      0.00
    1   -9    9      7.05      0.00
    2   -9    9     -2.31      0.00
    3   -9    9     -5.71      0.00
    4   -9    9      1.53      0.00
    5   -9    9      3.88      0.00
    6   -9    9     -1.18      0.00
    7   -9    9     -3.02      0.00
    8   -9    9      1.51      0.00
  -13   -8    9     -0.12      0.00
  -12   -8    9     -0.07      0.00
  -11   -8    9      1.61      0.00
  -10   -8    9     -1.19      0.00
   -9   -8    9     -2.17      0.00
   -8   -8    9     -0.09      0.00
   -7   -8    9      3.73      0.00
   -6   -8    9      1.34      0.00
   -5   -8    9     -7.87      0.00
   -4   -8    9     -0.64      0.00
   -3   -8    9     10.93      0.00
   -2   -8    9     -1.52      0.00
   -1   -8    9     -7.78      0.00
    0   -8    9      0.00      0.00
    1   -8    9      5.47      0.00
    2   -8    9      1.60      0.00
    3   -8    9     -4.91      0.00
    4   -8    9     -1.62      0.00
    5   -8    9      4.05      0.00
    6   -8    9      1.34      0.00
    7   -8    9     -2.21      0.00
    8   -8    9     -0.94      0.00
    9   -8    9     -0.94      0.00
  -13   -7    9      0.81      0.00
  -12   -7    9     -0.11      0.00
  -11   -7    9     -1.63      0.00
  -10   -7    9      1.85      0.00
   -9   -7    9      0.24      0.00
   -8   -7    9     -1.65      0.00
   -7   -7    9      1.78      0.00
   -6   -7    9      0.08      0.00
   -5   -7    9     -1.71      0.00
   -4   -7    9      1.68      0.00
   -3   -7    9     -2.06      0.00
   -2   -7    9     -0.95      0.00
   -1   -7    9      5.66      0.00
    0   -7    9     -2.10      0.00
    1   -7    9     -3.68      0.00
    2   -7    9      1.24      0.00
    3   -7    9      2.42      0.00
    4   -7    9     -1.09      0.00
    5   -7    9     -3.07      0.00
    6   -7    9      1.50      0.00
    7   -7    9      4.04      0.00
    8   -7    9     -1.99      0.00
    9   -7    9     -2.13      0.00
  -14   -6    9     -1.34      0.00
  -13   -6    9      1.97      0.00
  -12   -6    9      1.91      0.00
  -11   -6    9     -2.59      0.00
  -10   -6    9     -0.97      0.00
   -9   -6    9      1.24      0.00
   -8   -6    9      2.77      0.00
   -7   -6    9     -1.88      0.00
   -6   -6    9     -4.85      0.00
   -5   -6    9      4.57      0.00
   -4   -6    9      3.78      0.00
   -3   -6    9     -6.85      0.00
   -2   -6    9      1.19      0.00
   -1   -6    9      2.36      0.00
    0   -6    9     -1.56      0.00
    1   -6    9      0.31      0.00
    2   -6    9      0.13      0.00
    3   -6    9      2.90      0.00
    4   -6    9     -1.32      0.00
    5   -6    9     -4.95      0.00
    6   -6    9      2.33      0.00
    7   -6    9      2.71      0.00
    8   -6    9     -2.01      0.00
    9   -6    9     -0.38      0.00
   10   -6    9      1.04      0.00
  -14   -5    9     -1.11      0.00
  -13   -5    9     -1.27      0.00
  -12   -5    9      0.95      0.00
  -11   -5    9      1.45      0.00
  -10   -5    9     -2.40      0.00
   -9   -5    9      0.65      0.00
   -8   -5    9      2.89      0.00
   -7   -5    9     -3.33      0.00
   -6   -5    9      0.75      0.00
   -5   -5    9      4.23      0.00
   -4   -5    9     -6.47      0.00
   -3   -5    9     -1.22      0.00
   -2   -5    9      8.87      0.00
   -1   -5    9     -1.84      0.00
    0   -5    9     -5.14      0.00
    1   -5    9     -2.00      0.00
    2   -5    9      4.81      0.00
    3   -5    9      4.51      0.00
    4   -5    9     -7.17      0.00
    5   -5    9     -1.02      0.00
    6   -5    9      4.27      0.00
    7   -5    9     -0.35      0.00
    8   -5    9     -0.65      0.00
    9   -5    9     -1.63      0.00
   10   -5    9     -0.28      0.00
  -14   -4    9     -1.19      0.00
  -13   -4    9     -0.06      0.00
  -12   -4    9      2.59      0.00
  -11   -4    9      1.03      0.00
  -10   -4    9     -4.13      0.00
   -9   -4    9     -0.27      0.00
   -8   -4    9      2.54      0.00
   -7   -4    9      0.68      0.00
   -6   -4    9      0.01      0.00
   -5   -4    9     -3.36      0.00
   -4   -4    9      0.28      0.00
   -3   -4    9      5.61      0.00
   -2   -4    9     -5.64      0.00
   -1   -4    9     -2.28      0.00
    0   -4    9      6.67      0.00
    1   -4    9     -2.43      0.00
    2   -4    9     -0.05      0.00
    3   -4    9     -1.20      0.00
    4   -4    9     -0.62      0.00
    5   -4    9      5.21      0.00
    6   -4    9     -3.73      0.00
    7   -4    9     -1.94      0.00
    8   -4    9      3.03      0.00
    9   -4    9      0.27      0.00
   10   -4    9     -1.34      0.00
  -15   -3    9      0.42      0.00
  -14   -3    9     -2.51      0.00
  -13   -3    9     -2.02      0.00
  -12   -3    9      2.03      0.00
  -11   -3    9      3.67      0.00
  -10   -3    9     -0.86      0.00
   -9   -3    9     -5.85      0.00
   -8   -3    9     -0.48      0.00
   -7   -3    9     11.40      0.00
   -6   -3    9     -0.78      0.00
   -5   -3    9    -15.69      0.00
   -4   -3    9      4.36      0.00
   -3   -3    9     14.88      0.00
   -2   -3    9     -5.58      0.00
   -1   -3    9     -9.18      0.00
    0   -3    9      0.21      0.00
    1   -3    9      9.60      0.00
    2   -3    9      1.30      0.00
    3   -3    9    -12.42      0.00
    4   -3    9      4.53      0.00
    5   -3    9      5.32      0.00
    6   -3    9     -4.83      0.00
    7   -3    9      0.11      0.00
    8   -3    9      1.59      0.00
    9   -3    9      0.08      0.00
   10   -3    9      0.09      0.00
  -15   -2    9     -0.21      0.00
  -14   -2    9      1.50      0.00
  -13   -2    9     -1.83      0.00
  -12   -2    9     -1.83      0.00
  -11   -2    9      1.95      0.00
  -10   -2    9      3.92      0.00
   -9   -2    9     -3.73      0.00
   -8   -2    9     -5.14      0.00
   -7   -2    9      5.27      0.00
   -6   -2    9      4.88      0.00
   -5   -2    9     -2.82      0.00
   -4   -2    9     -5.90      0.00
   -3   -2    9     -1.76      0.00
   -2   -2    9      9.83      0.00
   -1   -2    9      0.48      0.00
    0   -2    9    -10.61      0.00
    1   -2    9      4.78      0.00
    2   -2    9      3.03      0.00
    3   -2    9     -0.80      0.00
    4   -2    9      1.28      0.00
    5   -2    9     -5.45      0.00
    6   -2    9      1.96      0.00
    7   -2    9      3.42      0.00
    8   -2    9     -2.73      0.00
    9   -2    9     -0.72      0.00
   10   -2    9      1.02      0.00
  -15   -1    9     -0.11      0.00
  -14   -1    9      0.27      0.00
  -13   -1    9      0.91      0.00
  -12   -1    9     -0.97      0.00
  -11   -1    9     -1.98      0.00
  -10   -1    9      1.30      0.00
   -9   -1    9      1.62      0.00
   -8   -1    9     -0.02      0.00
   -7   -1    9     -3.86      0.00
   -6   -1    9      0.87      0.00
   -5   -1    9      8.46      0.00
   -4   -1    9     -5.54      0.00
   -3   -1    9     -9.43      0.00
   -2   -1    9      9.14      0.00
   -1   -1    9      5.63      0.00
    0   -1    9     -4.62      0.00
    1   -1    9     -7.56      0.00
    2   -1    9      1.71      0.00
    3   -1    9     13.18      0.00
    4   -1    9     -7.04      0.00
    5   -1    9     -9.63      0.00
    6   -1    9      8.58      0.00
    7   -1    9      3.13      0.00
    8   -1    9     -5.22      0.00
    9   -1    9     -0.67      0.00
   10   -1    9      1.34      0.00
  -15    0    9      1.92      0.00
  -14    0    9     -0.14      0.00
  -13    0    9     -1.67      0.00
  -12    0    9     -1.45      0.00
  -11    0    9      2.71      0.00
  -10    0    9      2.09      0.00
   -9    0    9     -1.90      0.00
   -8    0    9     -3.24      0.00
   -7    0    9     -2.06      0.00
   -6    0    9      6.66      0.00
   -5    0    9      5.21      0.00
   -4    0    9     -8.74      0.00
   -3    0    9     -5.89      0.00
   -2    0    9      5.16      0.00
   -1    0    9      9.28      0.00
    0    0    9     -1.21      0.00
    1    0    9    -15.21      0.00
    2    0    9      4.61      0.00
    3    0    9     13.15      0.00
    4    0    9     -7.15      0.00
    5    0    9     -4.71      0.00
    6    0    9      1.58      0.00
    7    0    9      2.35      0.00
    8    0    9      2.67      0.00
    9    0    9     -3.03      0.00
   10    0    9     -1.32      0.00
  -15    1    9     -0.25      0.00
  -14    1    9      1.98      0.00
  -13    1    9     -0.57      0.00
  -12    1    9     -2.21      0.00
  -11    1    9      0.01      0.00
  -10    1    9      2.36      0.00
   -9    1    9      1.39      0.00
   -8    1    9     -2.45      0.00
   -7    1    9     -3.66      0.00
   -6    1    9      2.69      0.00
   -5    1    9      4.30      0.00
   -4    1    9     -0.05      0.00
   -3    1    9     -4.59      0.00
   -2    1    9     -4.57      0.00
   -1    1    9      5.97      0.00
    0    1    9      3.58      0.00
    1    1    9     -3.29      0.00
    2    1    9      0.17      0.00
    3    1    9     -4.65      0.00
    4    1    9      5.33      0.00
    5    1    9      5.86      0.00
    6    1    9    -10.75      0.00
    7    1    9     -0.88      0.00
    8    1    9      6.95      0.00
    9    1    9     -0.44      0.00
   10    1    9     -2.30      0.00
  -15    2    9     -0.08      0.00
  -14    2    9     -1.32      0.00
  -13    2    9     -0.47      0.00
  -12    2    9      1.54      0.00
  -11    2    9      0.09      0.00
  -10    2    9     -0.84      0.00
   -9    2    9      0.27      0.00
   -8    2    9      0.77      0.00
   -7    2    9     -0.70      0.00
   -6    2    9     -1.99      0.00
   -5    2    9      0.81      0.00
   -4    2    9      3.48      0.00
   -3    2    9      0.54      0.00
   -2    2    9     -2.88      0.00
   -1    2    9     -2.41      0.00
    0    2    9      0.33      0.00
    1    2    9      6.91      0.00
    2    2    9     -2.94      0.00
    3    2    9     -8.75      0.00
    4    2    9      8.14      0.00
    5    2    9      2.20      0.00
    6    2    9     -4.57      0.00
    7    2    9     -0.14      0.00
    8    2    9     -0.36      0.00
    9    2    9      3.40      0.00
   10    2    9     -0.19      0.00
  -15    3    9      0.29      0.00
  -14    3    9     -0.58      0.00
  -13    3    9      0.39      0.00
  -12    3    9     -0.05      0.00
  -11    3    9     -1.00      0.00
  -10    3    9     -1.11      0.00
   -9    3    9      2.24      0.00
   -8    3    9      2.57      0.00
   -7    3    9     -2.77      0.00
   -6    3    9     -3.98      0.00
   -5    3    9      1.48      0.00
   -4    3    9      5.31      0.00
   -3    3    9     -0.60      0.00
   -2    3    9     -7.00      0.00
   -1    3    9      0.12      0.00
    0    3    9      8.52      0.00
    1    3    9      0.28      0.00
    2    3    9    -10.20      0.00
    3    3    9      4.98      0.00
    4    3    9      5.92      0.00
    5    3    9     -5.73      0.00
    6    3    9      0.60      0.00
    7    3    9     -0.70      0.00
    8    3    9     -0.76      0.00
    9    3    9      1.68      0.00
   10    3    9     -0.04      0.00
  -14    4    9     -0.29      0.00
  -13    4    9      0.09      0.00
  -12    4    9      0.47      0.00
  -11    4    9      1.52      0.00
  -10    4    9     -1.42      0.00
   -9    4    9     -3.28      0.00
   -8    4    9      1.49      0.00
   -7    4    9      4.58      0.00
   -6    4    9     -0.63      0.00
   -5    4    9     -5.95      0.00
   -4    4    9      1.86      0.00
   -3    4    9      5.15      0.00
   -2    4    9     -3.34      0.00
   -1    4    9     -3.05      0.00
    0    4    9      3.78      0.00
    1    4    9     -0.57      0.00
    2    4    9     -1.88      0.00
    3    4    9      2.58      0.00
    4    4    9     -3.10      0.00
    5    4    9      1.59      0.00
    6    4    9      2.71      0.00
    7    4    9     -2.91      0.00
    8    4    9     -0.08      0.00
    9    4    9      0.14      0.00
  -14    5    9      2.21      0.00
  -13    5    9     -2.13      0.00
  -12    5    9     -3.93      0.00
  -11    5    9      2.25      0.00
  -10    5    9      6.95      0.00
   -9    5    9     -0.94      0.00
   -8    5    9     -9.04      0.00
   -7    5    9     -1.11      0.00
   -6    5    9      9.47      0.00
   -5    5    9      3.18      0.00
   -4    5    9     -8.25      0.00
   -3    5    9     -5.41      0.00
   -2    5    9      7.81      0.00
   -1    5    9      5.27      0.00
    0    5    9     -8.03      0.00
    1    5    9     -3.92      0.00
    2    5    9      8.59      0.00
    3    5    9      0.26      0.00
    4    5    9     -4.90      0.00
    5    5    9      1.61      0.00
    6    5    9      0.19      0.00
    7    5    9      0.65      0.00
    8    5    9     -0.71      0.00
    9    5    9     -0.23      0.00
  -14    6    9      2.26      0.00
  -13    6    9      1.05      0.00
  -12    6    9     -2.30      0.00
  -11    6    9     -3.91      0.00
  -10    6    9      1.51      0.00
   -9    6    9      5.45      0.00
   -8    6    9      0.64      0.00
   -7    6    9     -7.15      0.00
   -6    6    9     -2.79      0.00
   -5    6    9      7.82      0.00
   -4    6    9      3.55      0.00
   -3    6    9     -5.83      0.00
   -2    6    9     -2.60      0.00
   -1    6    9      3.28      0.00
    0    6    9      1.23      0.00
    1    6    9     -0.98      0.00
    2    6    9     -1.05      0.00
    3    6    9     -2.55      0.00
    4    6    9      3.32      0.00
    5    6    9      2.43      0.00
    6    6    9     -2.86      0.00
    7    6    9     -1.43      0.00
    8    6    9      0.51      0.00
  -14    7    9     -1.30      0.00
  -13    7    9      1.35      0.00
  -12    7    9      0.89      0.00
  -11    7    9     -0.11      0.00
  -10    7    9     -1.16      0.00
   -9    7    9      0.38      0.00
   -8    7    9      1.91      0.00
   -7    7    9     -0.05      0.00
   -6    7    9     -2.70      0.00
   -5    7    9     -2.33      0.00
   -4    7    9      2.66      0.00
   -3    7    9      4.24      0.00
   -2    7    9     -3.17      0.00
   -1    7    9     -3.89      0.00
    0    7    9      3.01      0.00
    1    7    9      4.22      0.00
    2    7    9     -4.10      0.00
    3    7    9     -2.47      0.00
    4    7    9      3.39      0.00
    5    7    9      0.45      0.00
    6    7    9     -0.90      0.00
    7    7    9     -1.06      0.00
    8    7    9      0.99      0.00
  -13    8    9      2.50      0.00
  -12    8    9     -0.07      0.00
  -11    8    9     -3.78      0.00
  -10    8    9     -1.02      0.00
   -9    8    9      5.26      0.00
   -8    8    9      0.82      0.00
   -7    8    9     -4.24      0.00
   -6    8    9     -1.11      0.00
   -5    8    9      2.62      0.00
   -4    8    9      3.38      0.00
   -3    8    9     -2.16      0.00
   -2    8    9     -4.50      0.00
   -1    8    9      1.30      0.00
    0    8    9      3.84      0.00
    1    8    9      0.43      0.00
    2    8    9     -4.90      0.00
    3    8    9      0.16      0.00
    4    8    9      3.58      0.00
    5    8    9     -0.16      0.00
    6    8    9     -1.13      0.00
    7    8    9     -0.56      0.00
  -12    9    9      3.28      0.00
  -11    9    9      0.13      0.00
  -10    9    9     -3.94      0.00
   -9    9    9     -1.52      0.00
   -8    9    9      6.32      0.00
   -7    9    9      1.94      0.00
   -6    9    9     -7.50      0.00
   -5    9    9     -2.05      0.00
   -4    9    9      6.37      0.00
   -3    9    9      1.06      0.00
   -2    9    9     -3.23      0.00
   -1    9    9     -1.17      0.00
    0    9    9      1.71      0.00
    1    9    9      1.06      0.00
    2    9    9     -0.14      0.00
    3    9    9     -1.44      0.00
    4    9    9     -1.89      0.00
    5    9    9      1.45      0.00
    6    9    9      2.77      0.00
    7    9    9     -0.25      0.00
  -11   10    9      4.20      0.00
  -10   10    9      1.16      0.00
   -9   10    9     -5.75      0.00
   -8   10    9     -0.99      0.00
   -7   10    9      4.53      0.00
   -6   10    9      2.05      0.00
   -5   10    9     -2.77      0.00
   -4   10    9     -2.37      0.00
   -3   10    9      2.32      0.00
   -2   10    9      3.26      0.00
   -1   10    9     -3.17      0.00
    0   10    9     -2.72      0.00
    1   10    9      1.39      0.00
    2   10    9      2.33      0.00
    3   10    9     -0.29      0.00
    4   10    9     -2.84      0.00
    5   10    9      0.57      0.00
    6   10    9      1.84      0.00
  -10   11    9      0.61      0.00
   -9   11    9      2.38      0.00
   -8   11    9     -2.50      0.00
   -7   11    9     -1.51      0.00
   -6   11    9      2.06      0.00
   -5   11    9     -1.85      0.00
   -4   11    9     -1.79      0.00
   -3   11    9      3.74      0.00
   -2   11    9      1.73      0.00
   -1   11    9     -3.07      0.00
    0   11    9     -0.74      0.00
    1   11    9      2.40      0.00
    2   11    9      1.39      0.00
    3   11    9     -2.76      0.00
    4   11    9     -1.92      0.00
    5   11    9      1.79      0.00
   -9   12    9      2.41      0.00
   -8   12    9     -0.82      0.00
   -7   12    9     -0.36      0.00
   -6   12    9      0.96      0.00
   -5   12    9     -0.32      0.00
   -4   12    9     -1.72      0.00
   -3   12    9      0.40      0.00
   -2   12    9      1.56      0.00
   -1   12    9      0.47      0.00
    0   12    9     -3.11      0.00
    1   12    9     -0.30      0.00
    2   12    9      2.60      0.00
    3   12    9      0.15      0.00
    4   12    9     -0.26      0.00
   -7   13    9     -1.02      0.00
   -6   13    9     -2.46      0.00
   -5   13    9      2.15      0.00
   -4   13    9      2.42      0.00
   -3   13    9     -2.56      0.00
   -2   13    9     -1.90      0.00
   -1   13    9      2.46      0.00
    0   13    9      1.81      0.00
    1   13    9     -0.73      0.00
    2   13    9     -2.63      0.00
   -5   14    9     -2.65      0.00
   -4   14    9      0.96      0.00
   -3   14    9      2.56      0.00
    0   14    9      0.34      0.00
   -3  -14   10     -0.59      0.00
   -2  -14   10      2.40      0.00
   -1  -14   10      2.09      0.00
    0  -14   10     -1.55      0.00
    1  -14   10     -1.52      0.00
   -7  -13   10      0.95      0.00
   -6  -13   10      1.80      0.00
   -5  -13   10      0.88      0.00
   -4  -13   10     -1.10      0.00
   -3  -13   10     -1.26      0.00
   -2  -13   10      0.02      0.00
   -1  -13   10     -1.09      0.00
    0  -13   10      0.71      0.00
    1  -13   10      1.97      0.00
    2  -13   10     -1.52      0.00
    3  -13   10     -2.10      0.00
    4  -13   10      2.35      0.00
   -9  -12   10      0.17      0.00
   -8  -12   10     -0.40      0.00
   -7  -12   10     -0.28      0.00
   -6  -12   10     -0.06      0.00
   -5  -12   10     -0.79      0.00
   -4  -12   10      1.29      0.00
   -3  -12   10      2.61      0.00
   -2  -12   10     -2.28      0.00
   -1  -12   10     -3.24      0.00
    0  -12   10      3.41      0.00
    1  -12   10      2.95      0.00
    2  -12   10     -3.89      0.00
    3  -12   10     -0.74      0.00
    4  -12   10      1.77      0.00
    5  -12   10     -0.23      0.00
  -10  -11   10      0.85      0.00
   -9  -11   10      1.59      0.00
   -8  -11   10     -0.10      0.00
   -7  -11   10     -1.55      0.00
   -6  -11   10     -1.09      0.00
   -5  -11   10      1.41      0.00
   -4  -11   10      3.25      0.00
   -3  -11   10     -2.66      0.00
   -2  -11   10     -4.37      0.00
   -1  -11   10      3.86      0.00
    0  -11   10      2.74      0.00
    1  -11   10     -3.58      0.00
    2  -11   10     -1.54      0.00
    3  -11   10      2.85      0.00
    4  -11   10     -0.60      0.00
    5  -11   10     -0.38      0.00
    6  -11   10      0.47      0.00
  -11  -10   10     -1.61      0.00
  -10  -10   10     -0.86      0.00
   -9  -10   10      1.81      0.00
   -8  -10   10      1.95      0.00
   -7  -10   10     -2.26      0.00
   -6  -10   10     -3.82      0.00
   -5  -10   10      4.28      0.00
   -4  -10   10      4.05      0.00
   -3  -10   10     -4.82      0.00
   -2  -10   10     -2.49      0.00
   -1  -10   10      4.13      0.00
    0  -10   10      0.90      0.00
    1  -10   10     -2.92      0.00
    2  -10   10      0.40      0.00
    3  -10   10      1.23      0.00
    4  -10   10     -0.87      0.00
    5  -10   10     -0.29      0.00
    6  -10   10      0.36      0.00
    7  -10   10      0.10      0.00
  -12   -9   10      0.70      0.00
  -11   -9   10      0.09      0.00
  -10   -9   10     -1.47      0.00
   -9   -9   10      0.43      0.00
   -8   -9   10      2.04      0.00
   -7   -9   10     -0.98      0.00
   -6   -9   10     -1.46      0.00
   -5   -9   10      0.77      0.00
   -4   -9   10     -0.07      0.00
   -3   -9   10      0.81      0.00
   -2   -9   10      1.21      0.00
   -1   -9   10     -3.89      0.00
    0   -9   10     -0.11      0.00
    1   -9   10      3.97      0.00
    2   -9   10     -0.04      0.00
    3   -9   10     -3.76      0.00
    4   -9   10      0.58      0.00
    5   -9   10      2.44      0.00
    7   -9   10     -1.49      0.00
    8   -9   10      1.00      0.00
  -12   -8   10      0.17      0.00
  -11   -8   10      0.52      0.00
  -10   -8   10     -1.28      0.00
   -9   -8   10     -0.59      0.00
   -8   -8   10      0.03      0.00
   -7   -8   10      1.47      0.00
   -6   -8   10      1.44      0.00
   -5   -8   10     -4.04      0.00
   -4   -8   10     -1.29      0.00
   -3   -8   10      7.03      0.00
   -2   -8   10      0.62      0.00
   -1   -8   10     -7.13      0.00
    0   -8   10     -0.82      0.00
    1   -8   10      6.75      0.00
    2   -8   10      0.84      0.00
    3   -8   10     -6.53      0.00
    4   -8   10     -0.58      0.00
    5   -8   10      4.83      0.00
    6   -8   10      0.84      0.00
    7   -8   10     -3.49      0.00
    8   -8   10      0.03      0.00
  -13   -7   10      0.85      0.00
  -12   -7   10      0.64      0.00
  -11   -7   10      0.31      0.00
  -10   -7   10      0.81      0.00
   -9   -7   10     -2.25      0.00
   -8   -7   10     -1.18      0.00
   -7   -7   10      4.45      0.00
   -6   -7   10      0.57      0.00
   -5   -7   10     -5.55      0.00
   -4   -7   10     -0.50      0.00
   -3   -7   10      4.95      0.00
   -2   -7   10     -0.25      0.00
   -1   -7   10     -2.89      0.00
    0   -7   10     -1.51      0.00
    1   -7   10      3.87      0.00
    2   -7   10      1.21      0.00
    3   -7   10     -3.02      0.00
    4   -7   10     -1.77      0.00
    5   -7   10      1.38      0.00
    6   -7   10      2.18      0.00
    7   -7   10     -0.07      0.00
    8   -7   10     -1.65      0.00
    9   -7   10     -0.25      0.00
  -13   -6   10      1.57      0.00
  -12   -6   10     -0.85      0.00
  -11   -6   10     -2.12      0.00
  -10   -6   10      1.95      0.00
   -9   -6   10      0.54      0.00
   -8   -6   10      0.19      0.00
   -7   -6   10     -0.78      0.00
   -6   -6   10     -3.00      0.00
   -5   -6   10      3.03      0.00
   -4   -6   10      3.33      0.00
   -3   -6   10     -4.63      0.00
   -2   -6   10     -0.45      0.00
   -1   -6   10      2.99      0.00
    0   -6   10      0.25      0.00
    1   -6   10     -1.94      0.00
    2   -6   10     -1.25      0.00
    3   -6   10      4.34      0.00
    4   -6   10     -0.34      0.00
    5   -6   10     -5.46      0.00
    6   -6   10      0.66      0.00
    7   -6   10      4.13      0.00
    8   -6   10     -1.11      0.00
    9   -6   10     -1.66      0.00
  -14   -5   10     -0.91      0.00
  -13   -5   10      0.69      0.00
  -12   -5   10      1.66      0.00
  -11   -5   10     -0.11      0.00
  -10   -5   10     -3.16      0.00
   -9   -5   10      1.53      0.00
   -8   -5   10      4.79      0.00
   -7   -5   10     -3.79      0.00
   -6   -5   10     -3.37      0.00
   -5   -5   10      4.49      0.00
   -4   -5   10      0.00      0.00
   -3   -5   10     -3.35      0.00
   -2   -5   10      1.95      0.00
   -1   -5   10      0.72      0.00
    0   -5   10     -0.54      0.00
    1   -5   10     -3.34      0.00
    2   -5   10      0.96      0.00
    3   -5   10      6.53      0.00
    4   -5   10     -2.92      0.00
    5   -5   10     -4.30      0.00
    6   -5   10      2.44      0.00
    7   -5   10      2.30      0.00
    8   -5   10     -1.66      0.00
    9   -5   10     -2.02      0.00
  -14   -4   10     -0.99      0.00
  -13   -4   10     -1.13      0.00
  -12   -4   10      1.95      0.00
  -11   -4   10      0.69      0.00
  -10   -4   10     -3.96      0.00
   -9   -4   10      1.45      0.00
   -8   -4   10      2.81      0.00
   -7   -4   10     -2.36      0.00
   -6   -4   10      1.18      0.00
   -5   -4   10      0.14      0.00
   -4   -4   10     -2.24      0.00
   -3   -4   10      1.16      0.00
   -2   -4   10      0.17      0.00
   -1   -4   10      1.74      0.00
    0   -4   10      0.92      0.00
    1   -4   10     -5.19      0.00
    2   -4   10      2.78      0.00
    3   -4   10      2.45      0.00
    4   -4   10     -4.59      0.00
    5   -4   10      1.79      0.00
    6   -4   10      0.71      0.00
    7   -4   10     -0.74      0.00
    8   -4   10      1.31      0.00
    9   -4   10     -0.06      0.00
  -14   -3   10     -2.27      0.00
  -13   -3   10     -1.32      0.00
  -12   -3   10      3.28      0.00
  -11   -3   10      2.78      0.00
  -10   -3   10     -2.76      0.00
   -9   -3   10     -3.85      0.00
   -8   -3   10      0.67      0.00
   -7   -3   10      7.40      0.00
   -6   -3   10     -1.24      0.00
   -5   -3   10    -10.28      0.00
   -4   -3   10      4.48      0.00
   -3   -3   10      9.59      0.00
   -2   -3   10     -5.85      0.00
   -1   -3   10     -7.19      0.00
    0   -3   10      2.08      0.00
    1   -3   10      7.53      0.00
    2   -3   10      1.57      0.00
    3   -3   10    -10.81      0.00
    4   -3   10      2.04      0.00
    5   -3   10      7.41      0.00
    6   -3   10     -3.74      0.00
    7   -3   10     -3.40      0.00
    8   -3   10      2.25      0.00
    9   -3   10      1.63      0.00
  -14   -2   10     -0.19      0.00
  -13   -2   10     -3.38      0.00
  -12   -2   10     -0.33      0.00
  -11   -2   10      4.11      0.00
  -10   -2   10      2.60      0.00
   -9   -2   10     -6.54      0.00
   -8   -2   10     -4.04      0.00
   -7   -2   10     11.09      0.00
   -6   -2   10      3.08      0.00
   -5   -2   10    -11.53      0.00
   -4   -2   10     -4.78      0.00
   -3   -2   10      9.71      0.00
   -2   -2   10      8.44      0.00
   -1   -2   10     -9.87      0.00
    0   -2   10     -9.82      0.00
    1   -2   10     12.84      0.00
    2   -2   10      4.65      0.00
    3   -2   10     -9.73      0.00
    4   -2   10      1.55      0.00
    5   -2   10      1.69      0.00
    6   -2   10     -0.46      0.00
    7   -2   10     -0.04      0.00
    8   -2   10     -1.29      0.00
    9   -2   10     -0.09      0.00
  -15   -1   10     -0.09      0.00
  -14   -1   10      1.56      0.00
  -13   -1   10      0.17      0.00
  -12   -1   10     -2.73      0.00
  -11   -1   10     -1.22      0.00
  -10   -1   10      4.07      0.00
   -9   -1   10      0.62      0.00
   -8   -1   10     -4.20      0.00
   -7   -1   10     -2.34      0.00
   -6   -1   10      5.38      0.00
   -5   -1   10      6.81      0.00
   -4   -1   10     -9.03      0.00
   -3   -1   10     -7.45      0.00
   -2   -1   10     10.67      0.00
   -1   -1   10      4.41      0.00
    0   -1   10     -6.59      0.00
    1   -1   10     -5.01      0.00
    2   -1   10      1.22      0.00
    3   -1   10     10.37      0.00
    4   -1   10     -3.53      0.00
    5   -1   10     -9.31      0.00
    6   -1   10      5.44      0.00
    7   -1   10      5.34      0.00
    8   -1   10     -3.65      0.00
    9   -1   10     -2.12      0.00
  -15    0   10      0.22      0.00
  -14    0   10     -1.06      0.00
  -13    0   10      1.80      0.00
  -12    0   10      0.08      0.00
  -11    0   10     -1.37      0.00
  -10    0   10     -0.27      0.00
   -9    0   10      1.84      0.00
   -8    0   10      0.87      0.00
   -7    0   10     -5.02      0.00
   -6    0   10      0.98      0.00
   -5    0   10      7.35      0.00
   -4    0   10     -2.65      0.00
   -3    0   10     -8.13      0.00
   -2    0   10      0.15      0.00
   -1    0   10     10.10      0.00
    0    0   10      3.35      0.00
    1    0   10    -14.98      0.00
    2    0   10      0.01      0.00
    3    0   10     15.70      0.00
    4    0   10     -5.27      0.00
    5    0   10     -8.26      0.00
    6    0   10      2.84      0.00
    7    0   10      3.31      0.00
    8    0   10      0.45      0.00
    9    0   10     -2.27      0.00
  -15    1   10      0.98      0.00
  -14    1   10      0.99      0.00
  -13    1   10     -2.70      0.00
  -12    1   10     -1.84      0.00
  -11    1   10      2.17      0.00
  -10    1   10      2.56      0.00
   -9    1   10     -0.52      0.00
   -8    1   10     -2.98      0.00
   -7    1   10     -2.00      0.00
   -6    1   10      3.19      0.00
   -5    1   10      3.40      0.00
   -4    1   10      0.18      0.00
   -3    1   10     -5.44      0.00
   -2    1   10     -3.55      0.00
   -1    1   10      9.13      0.00
    0    1   10      2.17      0.00
    1    1   10    -10.30      0.00
    2    1   10      2.36      0.00
    3    1   10      3.30      0.00
    4    1   10      0.72      0.00
    5    1   10      1.03      0.00
    6    1   10     -6.27      0.00
    7    1   10      1.17      0.00
    8    1   10      4.77      0.00
    9    1   10     -1.42      0.00
  -15    2   10     -0.12      0.00
  -14    2   10      0.86      0.00
  -13    2   10     -0.43      0.00
  -12    2   10     -0.18      0.00
  -11    2   10     -0.54      0.00
  -10    2   10     -0.12      0.00
   -9    2   10      0.45      0.00
   -8    2   10      1.17      0.00
   -7    2   10     -0.44      0.00
   -6    2   10     -2.78      0.00
   -5    2   10      0.60      0.00
   -4    2   10      3.54      0.00
   -3    2   10     -0.34      0.00
   -2    2   10     -2.56      0.00
   -1    2   10     -1.51      0.00
    0    2   10     -0.15      0.00
    1    2   10      6.92      0.00
    2    2   10     -0.74      0.00
    3    2   10    -11.10      0.00
    4    2   10      7.20      0.00
    5    2   10      6.04      0.00
    6    2   10     -6.41      0.00
    7    2   10     -2.16      0.00
    8    2   10      1.15      0.00
    9    2   10      3.22      0.00
  -15    3   10      1.28      0.00
  -14    3   10     -1.50      0.00
  -13    3   10     -0.69      0.00
  -12    3   10      0.83      0.00
  -11    3   10      1.45      0.00
  -10    3   10     -1.00      0.00
   -9    3   10     -1.81      0.00
   -8    3   10      0.79      0.00
   -7    3   10      1.65      0.00
   -6    3   10     -0.28      0.00
   -5    3   10     -1.61      0.00
   -4    3   10     -1.63      0.00
   -3    3   10      3.40      0.00
   -2    3   10      2.25      0.00
   -1    3   10     -5.17      0.00
    0    3   10     -0.96      0.00
    1    3   10      7.15      0.00
    2    3   10     -4.03      0.00
    3    3   10     -2.13      0.00
    4    3   10      3.75      0.00
    5    3   10     -1.91      0.00
    6    3   10      1.86      0.00
    7    3   10     -2.20      0.00
    8    3   10     -1.53      0.00
    9    3   10      2.32      0.00
  -14    4   10      0.04      0.00
  -13    4   10      0.35      0.00
  -12    4   10     -0.96      0.00
  -11    4   10      0.51      0.00
  -10    4   10      0.53      0.00
   -9    4   10     -0.07      0.00
   -8    4   10     -0.31      0.00
   -7    4   10     -0.74      0.00
   -6    4   10      0.99      0.00
   -5    4   10      0.55      0.00
   -4    4   10     -0.01      0.00
   -3    4   10      0.02      0.00
   -2    4   10     -3.68      0.00
   -1    4   10      0.29      0.00
    0    4   10      6.40      0.00
    1    4   10     -3.39      0.00
    2    4   10     -5.75      0.00
    3    4   10      6.46      0.00
    4    4   10      0.24      0.00
    5    4   10     -2.05      0.00
    6    4   10      0.99      0.00
    7    4   10     -0.80      0.00
    8    4   10      1.22      0.00
  -14    5   10      1.28      0.00
  -13    5   10     -0.13      0.00
  -12    5   10     -1.64      0.00
  -11    5   10      0.29      0.00
  -10    5   10      2.69      0.00
   -9    5   10     -0.18      0.00
   -8    5   10     -3.78      0.00
   -7    5   10     -0.54      0.00
   -6    5   10      3.41      0.00
   -5    5   10      0.65      0.00
   -4    5   10     -0.70      0.00
   -3    5   10     -1.39      0.00
   -2    5   10     -0.39      0.00
   -1    5   10      2.36      0.00
    0    5   10      0.11      0.00
    1    5   10     -4.09      0.00
    2    5   10      3.40      0.00
    3    5   10      1.32      0.00
    4    5   10     -3.41      0.00
    5    5   10      1.42      0.00
    6    5   10     -0.44      0.00
    7    5   10      0.68      0.00
    8    5   10     -0.72      0.00
  -14    6   10      2.03      0.00
  -13    6   10     -0.68      0.00
  -12    6   10     -2.90      0.00
  -11    6   10     -1.95      0.00
  -10    6   10      3.67      0.00
   -9    6   10      4.05      0.00
   -8    6   10     -2.71      0.00
   -7    6   10     -5.29      0.00
   -6    6   10      1.32      0.00
   -5    6   10      5.51      0.00
   -4    6   10      0.03      0.00
   -3    6   10     -6.53      0.00
   -2    6   10      1.02      0.00
   -1    6   10      6.29      0.00
    0    6   10     -2.56      0.00
    1    6   10     -4.51      0.00
    2    6   10      2.15      0.00
    3    6   10      0.52      0.00
    4    6   10      1.47      0.00
    5    6   10      0.27      0.00
    6    6   10     -1.97      0.00
    7    6   10      0.31      0.00
    8    6   10     -0.08      0.00
  -13    7   10      2.02      0.00
  -12    7   10      0.87      0.00
  -11    7   10     -1.71      0.00
  -10    7   10     -1.94      0.00
   -9    7   10      0.70      0.00
   -8    7   10      3.70      0.00
   -7    7   10     -1.23      0.00
   -6    7   10     -4.78      0.00
   -5    7   10      0.31      0.00
   -4    7   10      4.51      0.00
   -3    7   10      1.68      0.00
   -2    7   10     -4.18      0.00
   -1    7   10     -2.37      0.00
    0    7   10      3.31      0.00
    1    7   10      4.33      0.00
    2    7   10     -3.61      0.00
    3    7   10     -4.41      0.00
    4    7   10      2.90      0.00
    5    7   10      2.49      0.00
    6    7   10     -0.34      0.00
    7    7   10     -2.74      0.00
  -12    8   10     -0.08      0.00
  -11    8   10      0.22      0.00
  -10    8   10      0.56      0.00
   -9    8   10      0.71      0.00
   -8    8   10     -0.75      0.00
   -7    8   10      0.54      0.00
   -6    8   10      1.12      0.00
   -5    8   10     -1.94      0.00
   -4    8   10     -1.51      0.00
   -3    8   10      3.26      0.00
   -2    8   10     -0.06      0.00
   -1    8   10     -3.59      0.00
    0    8   10      0.25      0.00
    1    8   10      3.77      0.00
    2    8   10     -2.07      0.00
    3    8   10     -1.57      0.00
    4    8   10      2.09      0.00
    5    8   10      0.48      0.00
    6    8   10     -0.28      0.00
  -12    9   10      0.53      0.00
  -11    9   10     -2.05      0.00
  -10    9   10     -1.88      0.00
   -9    9   10      2.47      0.00
   -8    9   10      2.11      0.00
   -7    9   10     -2.85      0.00
   -6    9   10     -3.01      0.00
   -5    9   10      2.69      0.00
   -4    9   10      4.82      0.00
   -3    9   10     -2.45      0.00
   -2    9   10     -4.10      0.00
   -1    9   10      2.11      0.00
    0    9   10      3.04      0.00
    1    9   10     -1.10      0.00
    2    9   10     -2.53      0.00
    3    9   10     -0.51      0.00
    4    9   10      0.69      0.00
    5    9   10      1.09      0.00
    6    9   10      0.17      0.00
  -10   10   10     -0.87      0.00
   -9   10   10     -3.82      0.00
   -8   10   10      2.88      0.00
   -7   10   10      3.06      0.00
   -6   10   10     -3.10      0.00
   -5   10   10     -3.27      0.00
   -4   10   10      2.99      0.00
   -3   10   10      1.67      0.00
   -2   10   10     -0.76      0.00
   -1   10   10     -1.93      0.00
    0   10   10      0.29      0.00
    1   10   10      0.96      0.00
    2   10   10      0.93      0.00
    3   10   10     -0.38      0.00
    4   10   10     -2.05      0.00
    5   10   10      0.39      0.00
   -9   11   10     -0.11      0.00
   -8   11   10     -2.28      0.00
   -7   11   10     -0.10      0.00
   -6   11   10      2.07      0.00
   -5   11   10     -1.03      0.00
   -4   11   10     -2.07      0.00
   -3   11   10      1.61      0.00
   -2   11   10      3.16      0.00
   -1   11   10     -1.93      0.00
    0   11   10     -1.59      0.00
    1   11   10      0.94      0.00
    2   11   10      1.04      0.00
    3   11   10     -0.83      0.00
    4   11   10     -1.49      0.00
   -8   12   10      0.14      0.00
   -7   12   10     -0.63      0.00
   -6   12   10     -0.09      0.00
   -5   12   10     -0.86      0.00
   -4   12   10     -1.34      0.00
   -3   12   10      1.89      0.00
   -2   12   10      0.49      0.00
   -1   12   10     -1.37      0.00
    0   12   10     -1.63      0.00
    1   12   10      1.46      0.00
    2   12   10      2.19      0.00
    3   12   10     -0.94      0.00
   -6   13   10      0.22      0.00
   -5   13   10      0.41      0.00
   -4   13   10     -0.63      0.00
   -3   13   10      0.00      0.00
   -2   13   10      0.63      0.00
   -1   13   10      1.29      0.00
    0   13   10     -1.17      0.00
    1   13   10     -0.57      0.00
   -4   14   10      1.71      0.00
   -3   14   10      0.01      0.00
   -5  -13   11      0.64      0.00
   -4  -13   11     -2.52      0.00
   -3  -13   11     -2.48      0.00
   -2  -13   11      1.90      0.00
   -1  -13   11      2.05      0.00
    0  -13   11     -1.97      0.00
    1  -13   11      0.15      0.00
    2  -13   11      1.31      0.00
    3  -13   11     -0.86      0.00
   -8  -12   11     -1.34      0.00
   -7  -12   11     -0.30      0.00
   -6  -12   11      0.93      0.00
   -5  -12   11      0.08      0.00
   -4  -12   11      0.61      0.00
   -3  -12   11      1.23      0.00
   -2  -12   11     -0.49      0.00
   -1  -12   11     -3.21      0.00
    0  -12   11      1.46      0.00
    1  -12   11      3.27      0.00
    2  -12   11     -3.48      0.00
    3  -12   11     -1.46      0.00
    4  -12   11      1.96      0.00
  -10  -11   11      0.35      0.00
   -9  -11   11      0.12      0.00
   -8  -11   11     -0.09      0.00
   -7  -11   11      0.34      0.00
   -6  -11   11     -0.58      0.00
   -5  -11   11     -1.07      0.00
   -4  -11   11      1.09      0.00
   -3  -11   11      1.85      0.00
   -2  -11   11     -2.83      0.00
   -1  -11   11     -1.76      0.00
    0  -11   11      4.22      0.00
    1  -11   11      0.55      0.00
    2  -11   11     -3.25      0.00
    3  -11   11      0.86      0.00
    4  -11   11      0.90      0.00
    5  -11   11      0.21      0.00
  -10  -10   11      0.14      0.00
   -9  -10   11      1.49      0.00
   -8  -10   11      0.73      0.00
   -7  -10   11     -1.56      0.00
   -6  -10   11     -1.86      0.00
   -5  -10   11      2.64      0.00
   -4  -10   11      3.25      0.00
   -3  -10   11     -3.24      0.00
   -2  -10   11     -4.42      0.00
   -1  -10   11      4.38      0.00
    0  -10   11      2.88      0.00
    1  -10   11     -4.20      0.00
    2  -10   11     -0.82      0.00
    3  -10   11      1.74      0.00
    4  -10   11     -0.54      0.00
    5  -10   11     -0.33      0.00
    6  -10   11      0.25      0.00
  -11   -9   11     -1.02      0.00
  -10   -9   11     -1.44      0.00
   -9   -9   11      1.52      0.00
   -8   -9   11      2.12      0.00
   -7   -9   11     -2.59      0.00
   -6   -9   11     -2.82      0.00
   -5   -9   11      2.55      0.00
   -4   -9   11      3.61      0.00
   -3   -9   11     -2.53      0.00
   -2   -9   11     -2.19      0.00
   -1   -9   11      1.33      0.00
    0   -9   11      1.13      0.00
    1   -9   11     -0.19      0.00
    2   -9   11     -0.58      0.00
    3   -9   11     -0.41      0.00
    4   -9   11      1.15      0.00
    5   -9   11      0.13      0.00
    6   -9   11     -1.16      0.00
    7   -9   11     -0.10      0.00
  -12   -8   11      0.68      0.00
  -11   -8   11      0.08      0.00
  -10   -8   11     -1.18      0.00
   -9   -8   11      0.18      0.00
   -8   -8   11      0.80      0.00
   -7   -8   11      0.17      0.00
   -6   -8   11      0.54      0.00
   -5   -8   11     -1.31      0.00
   -4   -8   11     -1.02      0.00
   -3   -8   11      2.22      0.00
   -2   -8   11      2.10      0.00
   -1   -8   11     -3.81      0.00
    0   -8   11     -2.49      0.00
    1   -8   11      4.87      0.00
    2   -8   11      1.80      0.00
    3   -8   11     -5.66      0.00
    4   -8   11     -0.81      0.00
    5   -8   11      3.76      0.00
    6   -8   11      1.27      0.00
    7   -8   11     -2.43      0.00
  -13   -7   11      0.38      0.00
  -12   -7   11      1.36      0.00
  -11   -7   11     -0.10      0.00
  -10   -7   11     -0.10      0.00
   -9   -7   11     -1.25      0.00
   -8   -7   11     -1.37      0.00
   -7   -7   11      2.82      0.00
   -6   -7   11      0.84      0.00
   -5   -7   11     -3.71      0.00
   -4   -7   11     -1.54      0.00
   -3   -7   11      4.93      0.00
   -2   -7   11      1.41      0.00
   -1   -7   11     -4.59      0.00
    0   -7   11     -2.51      0.00
    1   -7   11      6.01      0.00
    2   -7   11      2.81      0.00
    3   -7   11     -4.99      0.00
    4   -7   11     -3.60      0.00
    5   -7   11      3.06      0.00
    6   -7   11      3.43      0.00
    7   -7   11     -2.87      0.00
    8   -7   11     -1.07      0.00
  -13   -6   11      1.15      0.00
  -12   -6   11     -1.48      0.00
  -11   -6   11     -0.39      0.00
  -10   -6   11      3.13      0.00
   -9   -6   11     -1.52      0.00
   -8   -6   11     -1.51      0.00
   -7   -6   11      2.62      0.00
   -6   -6   11     -0.69      0.00
   -5   -6   11     -1.32      0.00
   -4   -6   11      0.60      0.00
   -3   -6   11      1.27      0.00
   -2   -6   11      0.58      0.00
   -1   -6   11     -2.28      0.00
    0   -6   11     -1.05      0.00
    1   -6   11      2.00      0.00
    2   -6   11     -0.43      0.00
    3   -6   11      0.93      0.00
    4   -6   11     -0.61      0.00
    5   -6   11     -1.37      0.00
    6   -6   11      0.11      0.00
    7   -6   11      1.90      0.00
    8   -6   11     -0.70      0.00
  -13   -5   11      2.43      0.00
  -12   -5   11     -0.30      0.00
  -11   -5   11     -1.72      0.00
  -10   -5   11     -1.47      0.00
   -9   -5   11      1.90      0.00
   -8   -5   11      4.26      0.00
   -7   -5   11     -3.97      0.00
   -6   -5   11     -4.41      0.00
   -5   -5   11      4.10      0.00
   -4   -5   11      2.44      0.00
   -3   -5   11     -3.88      0.00
   -2   -5   11     -1.47      0.00
   -1   -5   11      2.81      0.00
    0   -5   11      3.53      0.00
    1   -5   11     -3.77      0.00
    2   -5   11     -3.53      0.00
    3   -5   11      5.93      0.00
    4   -5   11      1.77      0.00
    5   -5   11     -5.42      0.00
    6   -5   11     -1.01      0.00
    7   -5   11      4.16      0.00
    8   -5   11     -0.56      0.00
  -14   -4   11     -1.73      0.00
  -13   -4   11     -0.91      0.00
  -12   -4   11      2.92      0.00
  -11   -4   11      0.68      0.00
  -10   -4   11     -4.84      0.00
   -9   -4   11      1.69      0.00
   -8   -4   11      4.93      0.00
   -7   -4   11     -3.25      0.00
   -6   -4   11     -1.53      0.00
   -5   -4   11      1.72      0.00
   -4   -4   11      1.62      0.00
   -3   -4   11     -0.58      0.00
   -2   -4   11     -2.95      0.00
   -1   -4   11      1.87      0.00
    0   -4   11      2.30      0.00
    1   -4   11     -4.85      0.00
    2   -4   11      0.23      0.00
    3   -4   11      4.54      0.00
    4   -4   11     -2.59      0.00
    5   -4   11     -2.29      0.00
    6   -4   11      1.83      0.00
    7   -4   11      1.50      0.00
    8   -4   11     -0.18      0.00
  -14   -3   11     -0.98      0.00
  -13   -3   11     -1.47      0.00
  -12   -3   11      2.94      0.00
  -11   -3   11      1.44      0.00
  -10   -3   11     -3.43      0.00
   -9   -3   11     -1.51      0.00
   -8   -3   11      1.05      0.00
   -7   -3   11      4.08      0.00
   -6   -3   11     -0.64      0.00
   -5   -3   11     -6.44      0.00
   -4   -3   11      2.30      0.00
   -3   -3   11      4.30      0.00
   -2   -3   11     -2.26      0.00
   -1   -3   11     -1.89      0.00
    0   -3   11      0.24      0.00
    1   -3   11      2.20      0.00
    2   -3   11      3.85      0.00
    3   -3   11     -4.83      0.00
    4   -3   11     -2.81      0.00
    5   -3   11      5.07      0.00
    6   -3   11     -0.46      0.00
    7   -3   11     -3.99      0.00
    8   -3   11      1.28      0.00
    9   -3   11      1.78      0.00
  -14   -2   11     -0.96      0.00
  -13   -2   11     -3.58      0.00
  -12   -2   11      0.74      0.00
  -11   -2   11      4.90      0.00
  -10   -2   11      1.44      0.00
   -9   -2   11     -6.49      0.00
   -8   -2   11     -2.98      0.00
   -7   -2   11     10.26      0.00
   -6   -2   11      1.47      0.00
   -5   -2   11    -10.70      0.00
   -4   -2   11     -2.18      0.00
   -3   -2   11     10.44      0.00
   -2   -2   11      5.63      0.00
   -1   -2   11    -11.78      0.00
    0   -2   11     -7.97      0.00
    1   -2   11     12.92      0.00
    2   -2   11      5.62      0.00
    3   -2   11    -11.55      0.00
    4   -2   11     -0.43      0.00
    5   -2   11      5.94      0.00
    6   -2   11      0.03      0.00
    7   -2   11     -2.73      0.00
    8   -2   11     -0.81      0.00
    9   -2   11      0.69      0.00
  -14   -1   11      0.75      0.00
  -13   -1   11     -1.16      0.00
  -12   -1   11     -2.54      0.00
  -11   -1   11      1.04      0.00
  -10   -1   11      4.05      0.00
   -9   -1   11     -2.64      0.00
   -8   -1   11     -4.72      0.00
   -7   -1   11      3.22      0.00
   -6   -1   11      7.07      0.00
   -5   -1   11     -0.68      0.00
   -4   -1   11    -12.23      0.00
   -3   -1   11      0.38      0.00
   -2   -1   11     13.62      0.00
   -1   -1   11     -2.23      0.00
    0   -1   11    -10.19      0.00
    1   -1   11      2.84      0.00
    2   -1   11      4.24      0.00
    3   -1   11      2.12      0.00
    4   -1   11     -2.74      0.00
    5   -1   11     -4.41      0.00
    6   -1   11      2.94      0.00
    7   -1   11      3.78      0.00
    8   -1   11     -2.21      0.00
    9   -1   11     -1.82      0.00
  -14    0   11      0.19      0.00
  -13    0   11      2.53      0.00
  -12    0   11     -1.25      0.00
  -11    0   11     -3.15      0.00
  -10    0   11      1.38      0.00
   -9    0   11      4.11      0.00
   -8    0   11     -1.29      0.00
   -7    0   11     -7.58      0.00
   -6    0   11      2.18      0.00
   -5    0   11     10.08      0.00
   -4    0   11     -2.61      0.00
   -3    0   11     -9.27      0.00
   -2    0   11     -0.11      0.00
   -1    0   11      9.60      0.00
    0    0   11      3.81      0.00
    1    0   11    -13.33      0.00
    2    0   11     -3.16      0.00
    3    0   11     14.96      0.00
    4    0   11     -1.24      0.00
    5    0   11     -9.50      0.00
    6    0   11      0.76      0.00
    7    0   11      4.33      0.00
    8    0   11      1.06      0.00
  -14    1   11     -1.05      0.00
  -13    1   11     -0.78      0.00
  -12    1   11      1.06      0.00
  -11    1   11      0.09      0.00
  -10    1   11     -0.82      0.00
   -9    1   11      0.94      0.00
   -8    1   11      1.39      0.00
   -7    1   11     -1.64      0.00
   -6    1   11     -1.58      0.00
   -5    1   11      1.55      0.00
   -4    1   11      4.45      0.00
   -3    1   11     -3.72      0.00
   -2    1   11     -7.44      0.00
   -1    1   11      7.94      0.00
    0    1   11      6.43      0.00
    1    1   11    -11.19      0.00
    2    1   11     -0.77      0.00
    3    1   11      7.04      0.00
    4    1   11      0.21      0.00
    5    1   11     -2.13      0.00
    6    1   11     -3.00      0.00
    7    1   11      1.53      0.00
    8    1   11      2.23      0.00
  -14    2   11      1.77      0.00
  -13    2   11     -2.10      0.00
  -12    2   11     -1.77      0.00
  -11    2   11      1.01      0.00
  -10    2   11      1.33      0.00
   -9    2   11     -1.18      0.00
   -8    2   11     -0.99      0.00
   -7    2   11      1.01      0.00
   -6    2   11     -0.32      0.00
   -5    2   11     -0.30      0.00
   -4    2   11      2.12      0.00
   -3    2   11     -1.91      0.00
   -2    2   11     -1.18      0.00
   -1    2   11      2.92      0.00
    0    2   11     -1.50      0.00
    1    2   11      0.52      0.00
    2    2   11      1.96      0.00
    3    2   11     -5.67      0.00
    4    2   11      3.68      0.00
    5    2   11      3.73      0.00
    6    2   11     -5.24      0.00
    7    2   11     -0.41      0.00
    8    2   11      0.99      0.00
  -14    3   11     -0.36      0.00
  -13    3   11      0.08      0.00
  -12    3   11      0.42      0.00
  -11    3   11      1.39      0.00
  -10    3   11     -0.62      0.00
   -9    3   11     -2.40      0.00
   -8    3   11      0.52      0.00
   -7    3   11      2.39      0.00
   -6    3   11     -0.25      0.00
   -5    3   11     -0.87      0.00
   -4    3   11     -2.36      0.00
   -3    3   11      1.93      0.00
   -2    3   11      4.03      0.00
   -1    3   11     -5.46      0.00
    0    3   11     -3.92      0.00
    1    3   11      9.60      0.00
    2    3   11     -0.95      0.00
    3    3   11     -6.87      0.00
    4    3   11      2.95      0.00
    5    3   11      2.35      0.00
    6    3   11      0.97      0.00
    7    3   11     -3.50      0.00
    8    3   11     -0.94      0.00
  -14    4   11     -1.03      0.00
  -13    4   11     -1.69      0.00
  -12    4   11     -0.44      0.00
  -11    4   11      2.29      0.00
  -10    4   11      1.69      0.00
   -9    4   11     -1.69      0.00
   -8    4   11     -2.11      0.00
   -7    4   11     -0.16      0.00
   -6    4   11      3.25      0.00
   -5    4   11      0.95      0.00
   -4    4   11     -4.38      0.00
   -3    4   11      0.77      0.00
   -2    4   11      1.95      0.00
   -1    4   11     -1.44      0.00
    0    4   11      1.19      0.00
    1    4   11     -0.52      0.00
    2    4   11     -2.92      0.00
    3    4   11      4.73      0.00
    4    4   11     -0.70      0.00
    5    4   11     -2.38      0.00
    6    4   11      2.00      0.00
    7    4   11     -0.87      0.00
    8    4   11      0.63      0.00
  -14    5   11      1.66      0.00
  -13    5   11      0.74      0.00
  -12    5   11     -2.12      0.00
  -11    5   11     -2.02      0.00
  -10    5   11      1.52      0.00
   -9    5   11      2.73      0.00
   -8    5   11     -1.10      0.00
   -7    5   11     -3.60      0.00
   -6    5   11      0.82      0.00
   -5    5   11      3.10      0.00
   -4    5   11      2.22      0.00
   -3    5   11     -2.13      0.00
   -2    5   11     -4.77      0.00
   -1    5   11      2.75      0.00
    0    5   11      5.24      0.00
    1    5   11     -5.88      0.00
    2    5   11     -1.53      0.00
    3    5   11      3.57      0.00
    4    5   11     -0.10      0.00
    5    5   11      0.17      0.00
    6    5   11     -2.14      0.00
    7    5   11      0.86      0.00
  -13    6   11      0.72      0.00
  -12    6   11     -0.19      0.00
  -11    6   11     -0.97      0.00
  -10    6   11      0.63      0.00
   -9    6   11      1.83      0.00
   -8    6   11     -1.19      0.00
   -7    6   11     -1.81      0.00
   -6    6   11     -0.36      0.00
   -5    6   11      0.87      0.00
   -4    6   11      1.74      0.00
   -3    6   11     -2.60      0.00
   -2    6   11     -0.38      0.00
   -1    6   11      3.91      0.00
    0    6   11     -0.42      0.00
    1    6   11     -3.33      0.00
    2    6   11      1.21      0.00
    3    6   11      0.24      0.00
    4    6   11      1.07      0.00
    5    6   11     -0.29      0.00
    6    6   11     -1.11      0.00
    7    6   11      1.04      0.00
  -12    7   11     -0.99      0.00
  -11    7   11     -1.00      0.00
  -10    7   11      0.79      0.00
   -9    7   11      0.98      0.00
   -8    7   11      0.55      0.00
   -7    7   11     -1.53      0.00
   -6    7   11     -0.88      0.00
   -5    7   11      2.55      0.00
   -4    7   11      1.08      0.00
   -3    7   11     -2.82      0.00
   -2    7   11     -1.37      0.00
   -1    7   11      1.85      0.00
    0    7   11      0.65      0.00
    1    7   11      0.67      0.00
    2    7   11     -1.87      0.00
    3    7   11     -1.65      0.00
    4    7   11      2.43      0.00
    5    7   11      0.97      0.00
    6    7   11     -0.59      0.00
  -12    8   11      0.40      0.00
  -11    8   11      0.13      0.00
  -10    8   11      0.53      0.00
   -9    8   11     -0.75      0.00
   -8    8   11      0.39      0.00
   -7    8   11      0.32      0.00
   -6    8   11     -1.13      0.00
   -5    8   11     -1.68      0.00
   -4    8   11      0.34      0.00
   -3    8   11      4.86      0.00
   -2    8   11     -1.16      0.00
   -1    8   11     -4.83      0.00
    0    8   11      0.59      0.00
    1    8   11      4.71      0.00
    2    8   11     -1.15      0.00
    3    8   11     -3.07      0.00
    4    8   11      0.52      0.00
    5    8   11      1.88      0.00
  -11    9   11     -0.91      0.00
  -10    9   11      0.31      0.00
   -9    9   11      1.85      0.00
   -8    9   11     -0.92      0.00
   -7    9   11     -1.44      0.00
   -6    9   11      1.51      0.00
   -5    9   11      1.04      0.00
   -4    9   11     -0.34      0.00
   -3    9   11     -0.83      0.00
   -2    9   11     -0.72      0.00
   -1    9   11      1.02      0.00
    0    9   11      0.69      0.00
    1    9   11     -0.38      0.00
    2    9   11     -1.61      0.00
    3    9   11     -0.37      0.00
    4    9   11      0.71      0.00
    5    9   11      0.93      0.00
  -10   10   11     -1.33      0.00
   -9   10   11      0.19      0.00
   -8   10   11      2.55      0.00
   -7   10   11     -1.23      0.00
   -6   10   11     -4.39      0.00
   -5   10   11     -0.06      0.00
   -4   10   11      6.13      0.00
   -3   10   11     -0.93      0.00
   -2   10   11     -3.83      0.00
   -1   10   11      0.33      0.00
    0   10   11      3.01      0.00
    1   10   11      0.33      0.00
    2   10   11     -1.17      0.00
    3   10   11     -0.86      0.00
    4   10   11     -0.49      0.00
   -8   11   11      0.67      0.00
   -7   11   11      2.25      0.00
   -6   11   11     -0.70      0.00
   -5   11   11     -2.79      0.00
   -4   11   11     -0.10      0.00
   -3   11   11      1.91      0.00
   -2   11   11      1.87      0.00
   -1   11   11     -2.87      0.00
    0   11   11     -0.80      0.00
    1   11   11      1.28      0.00
    2   11   11      0.68      0.00
    3   11   11     -0.39      0.00
   -7   12   11     -0.78      0.00
   -6   12   11      0.62      0.00
   -5   12   11      0.39      0.00
   -4   12   11     -1.95      0.00
   -3   12   11      0.61      0.00
   -2   12   11      1.46      0.00
   -1   12   11     -0.29      0.00
    0   12   11     -1.31      0.00
    1   12   11      0.19      0.00
   -5   13   11     -0.51      0.00
   -4   13   11     -0.82      0.00
   -3   13   11      1.61      0.00
   -2   13   11      0.13      0.00
   -1   13   11     -0.02      0.00
   -5  -12   12      0.29      0.00
   -4  -12   12     -0.98      0.00
   -3  -12   12     -1.52      0.00
   -2  -12   12      1.69      0.00
   -1  -12   12     -0.12      0.00
    0  -12   12     -1.48      0.00
    1  -12   12      1.33      0.00
    2  -12   12     -0.47      0.00
    3  -12   12     -0.31      0.00
   -8  -11   12     -0.63      0.00
   -7  -11   12      0.41      0.00
   -6  -11   12      0.32      0.00
   -5  -11   12     -0.10      0.00
   -4  -11   12     -0.95      0.00
   -3  -11   12      2.08      0.00
   -2  -11   12     -0.19      0.00
   -1  -11   12     -3.52      0.00
    0  -11   12      3.04      0.00
    1  -11   12      2.25      0.00
    2  -11   12     -3.32      0.00
    3  -11   12     -0.69      0.00
    4  -11   12      1.03      0.00
  -10  -10   12      0.50      0.00
   -9  -10   12      0.42      0.00
   -8  -10   12     -0.30      0.00
   -7  -10   12     -0.45      0.00
   -6  -10   12     -0.60      0.00
   -5  -10   12      0.52      0.00
   -4  -10   12      1.34      0.00
   -3  -10   12      0.63      0.00
   -2  -10   12     -3.87      0.00
   -1  -10   12      0.28      0.00
    0  -10   12      3.68      0.00
    1  -10   12     -1.33      0.00
    2  -10   12     -1.85      0.00
    3  -10   12      0.33      0.00
    4  -10   12      0.62      0.00
    5  -10   12      0.76      0.00
  -11   -9   12     -1.52      0.00
  -10   -9   12     -0.86      0.00
   -9   -9   12      1.91      0.00
   -8   -9   12      1.37      0.00
   -7   -9   12     -2.13      0.00
   -6   -9   12     -1.83      0.00
   -5   -9   12      1.74      0.00
   -4   -9   12      4.40      0.00
   -3   -9   12     -2.76      0.00
   -2   -9   12     -4.55      0.00
   -1   -9   12      3.37      0.00
    0   -9   12      2.96      0.00
    1   -9   12     -2.16      0.00
    2   -9   12     -1.72      0.00
    3   -9   12      0.59      0.00
    4   -9   12      1.27      0.00
    5   -9   12     -0.67      0.00
    6   -9   12     -1.43      0.00
  -11   -8   12     -0.21      0.00
  -10   -8   12     -1.34      0.00
   -9   -8   12      0.86      0.00
   -8   -8   12      1.98      0.00
   -7   -8   12     -1.81      0.00
   -6   -8   12     -1.98      0.00
   -5   -8   12      0.80      0.00
   -4   -8   12      2.31      0.00
   -3   -8   12     -0.86      0.00
   -2   -8   12     -0.73      0.00
   -1   -8   12     -0.49      0.00
    0   -8   12     -0.38      0.00
    1   -8   12      1.99      0.00
    2   -8   12      0.02      0.00
    3   -8   12     -2.72      0.00
    4   -8   12      1.18      0.00
    5   -8   12      1.30      0.00
    6   -8   12      0.24      0.00
  -12   -7   12      1.56      0.00
  -11   -7   12     -0.33      0.00
  -10   -7   12     -0.69      0.00
   -9   -7   12     -0.33      0.00
   -8   -7   12     -0.84      0.00
   -7   -7   12      1.27      0.00
   -6   -7   12      1.10      0.00
   -5   -7   12     -1.20      0.00
   -4   -7   12     -1.93      0.00
   -3   -7   12      2.19      0.00
   -2   -7   12      3.10      0.00
   -1   -7   12     -2.73      0.00
    0   -7   12     -4.29      0.00
    1   -7   12      3.97      0.00
    2   -7   12      4.46      0.00
    3   -7   12     -3.72      0.00
    4   -7   12     -5.08      0.00
    5   -7   12      1.97      0.00
    6   -7   12      4.57      0.00
    7   -7   12     -2.63      0.00
  -13   -6   12      0.82      0.00
  -12   -6   12     -0.31      0.00
  -11   -6   12     -0.16      0.00
  -10   -6   12      2.53      0.00
   -9   -6   12     -1.04      0.00
   -8   -6   12     -2.25      0.00
   -7   -6   12      2.78      0.00
   -6   -6   12      0.29      0.00
   -5   -6   12     -2.67      0.00
   -4   -6   12     -1.49      0.00
   -3   -6   12      2.75      0.00
   -2   -6   12      2.11      0.00
   -1   -6   12     -3.45      0.00
    0   -6   12     -2.26      0.00
    1   -6   12      3.48      0.00
    2   -6   12      1.74      0.00
    3   -6   12     -0.92      0.00
    4   -6   12     -2.68      0.00
    5   -6   12      1.56      0.00
    6   -6   12      1.04      0.00
    7   -6   12     -0.79      0.00
  -13   -5   12      2.34      0.00
  -12   -5   12     -2.29      0.00
  -11   -5   12     -1.44      0.00
  -10   -5   12      1.19      0.00
   -9   -5   12      0.28      0.00
   -8   -5   12      1.64      0.00
   -7   -5   12     -1.30      0.00
   -6   -5   12     -2.19      0.00
   -5   -5   12      1.80      0.00
   -4   -5   12      1.50      0.00
   -3   -5   12     -0.77      0.00
   -2   -5   12     -0.99      0.00
   -1   -5   12     -0.05      0.00
    0   -5   12      2.52      0.00
    1   -5   12     -0.33      0.00
    2   -5   12     -3.71      0.00
    3   -5   12      1.09      0.00
    4   -5   12      3.15      0.00
    5   -5   12     -1.89      0.00
    6   -5   12     -2.85      0.00
    7   -5   12      3.14      0.00
  -13   -4   12      0.62      0.00
  -12   -4   12      2.75      0.00
  -11   -4   12     -0.25      0.00
  -10   -4   12     -4.76      0.00
   -9   -4   12      1.96      0.00
   -8   -4   12      6.25      0.00
   -7   -4   12     -3.83      0.00
   -6   -4   12     -4.03      0.00
   -5   -4   12      2.09      0.00
   -4   -4   12      4.18      0.00
   -3   -4   12     -1.48      0.00
   -2   -4   12     -6.48      0.00
   -1   -4   12      1.85      0.00
    0   -4   12      6.07      0.00
    1   -4   12     -2.61      0.00
    2   -4   12     -3.95      0.00
    3   -4   12      3.77      0.00
    4   -4   12      2.12      0.00
    5   -4   12     -4.29      0.00
    6   -4   12      0.06      0.00
    7   -4   12      2.29      0.00
  -14   -3   12     -0.66      0.00
  -13   -3   12     -1.60      0.00
  -12   -3   12      2.71      0.00
  -11   -3   12      0.58      0.00
  -10   -3   12     -3.95      0.00
   -9   -3   12      0.14      0.00
   -8   -3   12      2.27      0.00
   -7   -3   12      1.82      0.00
   -6   -3   12     -2.05      0.00
   -5   -3   12     -4.32      0.00
   -4   -3   12      4.27      0.00
   -3   -3   12      3.14      0.00
   -2   -3   12     -2.82      0.00
   -1   -3   12     -0.66      0.00
    0   -3   12      0.37      0.00
    1   -3   12     -0.49      0.00
    2   -3   12      2.29      0.00
    3   -3   12      0.21      0.00
    4   -3   12     -3.34      0.00
    5   -3   12      0.72      0.00
    6   -3   12      1.12      0.00
    7   -3   12     -1.81      0.00
    8   -3   12      0.60      0.00
  -14   -2   12     -0.85      0.00
  -13   -2   12     -2.86      0.00
  -12   -2   12      1.76      0.00
  -11   -2   12      4.07      0.00
  -10   -2   12      0.00      0.00
   -9   -2   12     -5.21      0.00
   -8   -2   12     -1.98      0.00
   -7   -2   12      8.47      0.00
   -6   -2   12      1.09      0.00
   -5   -2   12     -8.03      0.00
   -4   -2   12     -1.97      0.00
   -3   -2   12      5.44      0.00
   -2   -2   12      4.72      0.00
   -1   -2   12     -6.62      0.00
    0   -2   12     -6.40      0.00
    1   -2   12      7.12      0.00
    2   -2   12      6.63      0.00
    3   -2   12     -6.84      0.00
    4   -2   12     -3.73      0.00
    5   -2   12      5.87      0.00
    6   -2   12      2.00      0.00
    7   -2   12     -3.34      0.00
    8   -2   12     -1.51      0.00
  -14   -1   12      0.25      0.00
  -13   -1   12     -2.23      0.00
  -12   -1   12     -2.67      0.00
  -11   -1   12      2.76      0.00
  -10   -1   12      3.97      0.00
   -9   -1   12     -4.15      0.00
   -8   -1   12     -3.91      0.00
   -7   -1   12      4.65      0.00
   -6   -1   12      5.31      0.00
   -5   -1   12     -3.13      0.00
   -4   -1   12    -10.06      0.00
   -3   -1   12      4.27      0.00
   -2   -1   12     12.78      0.00
   -1   -1   12     -5.95      0.00
    0   -1   12    -10.69      0.00
    1   -1   12      6.33      0.00
    2   -1   12      5.85      0.00
    3   -1   12     -2.97      0.00
    4   -1   12     -3.55      0.00
    5   -1   12     -0.59      0.00
    6   -1   12      1.97      0.00
    7   -1   12      1.85      0.00
    8   -1   12     -0.89      0.00
  -14    0   12      0.25      0.00
  -13    0   12      1.50      0.00
  -12    0   12     -1.54      0.00
  -11    0   12     -1.82      0.00
  -10    0   12      2.02      0.00
   -9    0   12      2.04      0.00
   -8    0   12     -2.97      0.00
   -7    0   12     -4.22      0.00
   -6    0   12      5.46      0.00
   -5    0   12      6.61      0.00
   -4    0   12     -7.04      0.00
   -3    0   12     -5.69      0.00
   -2    0   12      4.32      0.00
   -1    0   12      4.59      0.00
    0    0   12     -0.98      0.00
    1    0   12     -6.43      0.00
    2    0   12     -0.51      0.00
    3    0   12      8.85      0.00
    4    0   12     -0.19      0.00
    5    0   12     -6.09      0.00
    6    0   12     -0.38      0.00
  -14    1   12     -0.48      0.00
  -13    1   12      0.86      0.00
  -12    1   12      1.07      0.00
  -11    1   12     -2.76      0.00
  -10    1   12     -1.22      0.00
   -9    1   12      4.24      0.00
   -8    1   12      2.19      0.00
   -7    1   12     -4.99      0.00
   -6    1   12     -3.30      0.00
   -5    1   12      3.46      0.00
   -4    1   12      5.82      0.00
   -3    1   12     -3.42      0.00
   -2    1   12     -8.49      0.00
   -1    1   12      7.22      0.00
    0    1   12      8.94      0.00
    1    1   12    -10.62      0.00
    2    1   12     -5.01      0.00
    3    1   12      7.84      0.00
    4    1   12      2.54      0.00
    5    1   12     -3.73      0.00
    6    1   12     -2.51      0.00
    7    1   12      1.40      0.00
  -14    2   12     -0.27      0.00
  -13    2   12     -1.27      0.00
  -12    2   12      0.44      0.00
  -11    2   12      0.96      0.00
  -10    2   12     -1.05      0.00
   -9    2   12     -2.13      0.00
   -8    2   12      1.09      0.00
   -7    2   12      3.63      0.00
   -6    2   12     -1.36      0.00
   -5    2   12     -3.33      0.00
   -4    2   12      3.55      0.00
   -3    2   12     -0.51      0.00
   -2    2   12     -3.74      0.00
   -1    2   12      3.20      0.00
    0    2   12      0.82      0.00
    1    2   12     -2.12      0.00
    2    2   12      1.77      0.00
    3    2   12     -1.00      0.00
    4    2   12      1.22      0.00
    5    2   12      0.82      0.00
    6    2   12     -2.87      0.00
    7    2   12      0.81      0.00
  -13    3   12     -0.59      0.00
  -12    3   12     -1.49      0.00
  -11    3   12      1.98      0.00
  -10    3   12      1.57      0.00
   -9    3   12     -2.22      0.00
   -8    3   12     -2.62      0.00
   -7    3   12      1.89      0.00
   -6    3   12      1.67      0.00
   -5    3   12      0.73      0.00
   -4    3   12     -2.67      0.00
   -3    3   12     -1.59      0.00
   -2    3   12      4.56      0.00
   -1    3   12     -1.23      0.00
    0    3   12     -4.65      0.00
    1    3   12      4.99      0.00
    2    3   12      1.03      0.00
    3    3   12     -5.05      0.00
    4    3   12      1.82      0.00
    5    3   12      2.57      0.00
    6    3   12     -0.05      0.00
    7    3   12     -2.02      0.00
  -13    4   12     -1.73      0.00
  -12    4   12     -0.28      0.00
  -11    4   12      2.03      0.00
  -10    4   12      1.43      0.00
   -9    4   12     -2.14      0.00
   -8    4   12     -0.98      0.00
   -7    4   12      0.33      0.00
   -6    4   12      1.91      0.00
   -5    4   12      1.29      0.00
   -4    4   12     -4.20      0.00
   -3    4   12      1.22      0.00
   -2    4   12      3.67      0.00
   -1    4   12     -3.53      0.00
    0    4   12     -1.50      0.00
    1    4   12      2.84      0.00
    2    4   12     -0.76      0.00
    3    4   12      1.24      0.00
    4    4   12     -1.39      0.00
    5    4   12     -0.68      0.00
    6    4   12      2.17      0.00
    7    4   12     -1.66      0.00
  -13    5   12     -0.49      0.00
  -12    5   12     -1.75      0.00
  -11    5   12     -0.85      0.00
  -10    5   12      1.84      0.00
   -9    5   12      1.06      0.00
   -8    5   12     -1.07      0.00
   -7    5   12     -2.76      0.00
   -6    5   12      2.05      0.00
   -5    5   12      1.82      0.00
   -4    5   12     -0.78      0.00
   -3    5   12     -0.44      0.00
   -2    5   12     -1.82      0.00
   -1    5   12      1.79      0.00
    0    5   12      3.15      0.00
    1    5   12     -5.05      0.00
    2    5   12     -1.65      0.00
    3    5   12      4.05      0.00
    4    5   12      0.36      0.00
    5    5   12     -0.40      0.00
    6    5   12     -1.73      0.00
  -12    6   12      0.66      0.00
  -11    6   12     -1.86      0.00
  -10    6   12     -1.39      0.00
   -9    6   12      2.45      0.00
   -8    6   12      0.14      0.00
   -7    6   12     -2.10      0.00
   -6    6   12     -1.73      0.00
   -5    6   12      1.58      0.00
   -4    6   12      3.73      0.00
   -3    6   12     -2.59      0.00
   -2    6   12     -3.40      0.00
   -1    6   12      3.49      0.00
    0    6   12      3.13      0.00
    1    6   12     -2.84      0.00
    2    6   12     -1.31      0.00
    3    6   12     -0.78      0.00
    4    6   12      2.43      0.00
    5    6   12      0.27      0.00
    6    6   12     -1.72      0.00
  -11    7   12      0.83      0.00
  -10    7   12      0.70      0.00
   -9    7   12      0.10      0.00
   -8    7   12     -0.34      0.00
   -7    7   12      0.26      0.00
   -6    7   12     -0.58      0.00
   -5    7   12      0.91      0.00
   -4    7   12      0.11      0.00
   -3    7   12     -2.44      0.00
   -2    7   12      0.15      0.00
   -1    7   12      1.76      0.00
    0    7   12     -0.88      0.00
    1    7   12      0.12      0.00
    2    7   12     -0.15      0.00
    3    7   12     -0.14      0.00
    4    7   12      1.33      0.00
    5    7   12     -0.76      0.00
  -11    8   12     -0.82      0.00
  -10    8   12      1.66      0.00
   -9    8   12     -0.21      0.00
   -8    8   12     -0.61      0.00
   -7    8   12     -1.67      0.00
   -6    8   12      0.60      0.00
   -5    8   12      1.58      0.00
   -4    8   12     -0.19      0.00
   -3    8   12      1.53      0.00
   -2    8   12     -1.14      0.00
   -1    8   12     -1.15      0.00
    0    8   12      0.80      0.00
    1    8   12      1.10      0.00
    2    8   12     -1.70      0.00
    3    8   12     -1.09      0.00
    4    8   12      0.49      0.00
  -10    9   12      1.04      0.00
   -9    9   12      0.77      0.00
   -8    9   12     -0.42      0.00
   -7    9   12     -0.60      0.00
   -6    9   12      0.37      0.00
   -5    9   12     -1.30      0.00
   -4    9   12     -0.44      0.00
   -3    9   12      2.17      0.00
   -2    9   12     -0.92      0.00
   -1    9   12     -1.38      0.00
    0    9   12      0.95      0.00
    1    9   12      1.69      0.00
    2    9   12     -0.63      0.00
    3    9   12     -1.13      0.00
   -9   10   12      1.53      0.00
   -8   10   12      0.14      0.00
   -7   10   12     -1.57      0.00
   -6   10   12     -1.32      0.00
   -5   10   12      1.05      0.00
   -4   10   12      3.59      0.00
   -3   10   12     -1.84      0.00
   -2   10   12     -1.94      0.00
   -1   10   12      0.83      0.00
    0   10   12      1.06      0.00
    1   10   12      0.28      0.00
    2   10   12     -1.00      0.00
   -7   11   12      1.44      0.00
   -6   11   12     -2.95      0.00
   -5   11   12     -2.49      0.00
   -4   11   12      2.52      0.00
   -3   11   12      1.22      0.00
   -2   11   12     -0.75      0.00
   -1   11   12     -2.08      0.00
    0   11   12      1.10      0.00
    1   11   12      1.43      0.00
   -5   12   12      0.19      0.00
   -4   12   12     -1.76      0.00
   -3   12   12      0.67      0.00
   -2   12   12      1.83      0.00
   -1   12   12     -0.83      0.00
   -5  -11   13      1.17      0.00
   -4  -11   13     -2.17      0.00
   -3  -11   13     -0.44      0.00
   -2  -11   13      1.72      0.00
   -1  -11   13     -1.40      0.00
    0  -11   13     -0.03      0.00
    1  -11   13      0.74      0.00
    2  -11   13     -1.20      0.00
   -9  -10   13     -0.15      0.00
   -7  -10   13     -0.35      0.00
   -6  -10   13      0.84      0.00
   -5  -10   13      0.85      0.00
   -4  -10   13     -0.73      0.00
   -3  -10   13      1.68      0.00
   -2  -10   13     -1.83      0.00
   -1  -10   13     -1.82      0.00
    0  -10   13      3.17      0.00
    1  -10   13      0.84      0.00
    2  -10   13     -1.95      0.00
    3  -10   13     -0.80      0.00
  -10   -9   13      0.03      0.00
   -9   -9   13      1.81      0.00
   -8   -9   13      0.61      0.00
   -7   -9   13     -1.22      0.00
   -6   -9   13     -1.45      0.00
   -5   -9   13     -0.33      0.00
   -4   -9   13      3.36      0.00
   -3   -9   13      0.02      0.00
   -2   -9   13     -4.11      0.00
   -1   -9   13      0.75      0.00
    0   -9   13      3.15      0.00
    1   -9   13     -0.64      0.00
    2   -9   13     -1.92      0.00
    3   -9   13     -0.81      0.00
    4   -9   13      1.38      0.00
  -11   -8   13     -0.57      0.00
  -10   -8   13     -1.69      0.00
   -9   -8   13      0.86      0.00
   -8   -8   13      1.76      0.00
   -7   -8   13     -1.87      0.00
   -6   -8   13     -1.86      0.00
   -5   -8   13      1.53      0.00
   -4   -8   13      3.41      0.00
   -3   -8   13     -1.66      0.00
   -2   -8   13     -2.99      0.00
   -1   -8   13      1.23      0.00
    0   -8   13      1.66      0.00
    1   -8   13      0.51      0.00
    2   -8   13     -1.51      0.00
    3   -8   13     -1.06      0.00
    4   -8   13      2.14      0.00
    5   -8   13     -0.44      0.00
  -11   -7   13      0.40      0.00
  -10   -7   13     -0.82      0.00
   -8   -7   13      1.23      0.00
   -7   -7   13     -0.67      0.00
   -6   -7   13     -1.26      0.00
   -5   -7   13      0.32      0.00
   -4   -7   13      0.48      0.00
   -3   -7   13     -0.16      0.00
   -2   -7   13      1.08      0.00
   -1   -7   13     -0.33      0.00
    0   -7   13     -2.49      0.00
    1   -7   13      1.24      0.00
    2   -7   13      1.93      0.00
    3   -7   13     -0.82      0.00
    4   -7   13     -2.32      0.00
    5   -7   13     -0.18      0.00
  -12   -6   13      0.48      0.00
  -11   -6   13     -0.60      0.00
  -10   -6   13      1.30      0.00
   -9   -6   13     -0.41      0.00
   -8   -6   13     -2.39      0.00
   -7   -6   13      1.50      0.00
   -6   -6   13      1.42      0.00
   -5   -6   13     -1.29      0.00
   -4   -6   13     -2.48      0.00
   -3   -6   13      0.91      0.00
   -2   -6   13      3.71      0.00
   -1   -6   13     -1.10      0.00
    0   -6   13     -3.16      0.00
    1   -6   13      1.11      0.00
    2   -6   13      3.56      0.00
    3   -6   13      0.00      0.00
    4   -6   13     -5.01      0.00
    5   -6   13      1.26      0.00
    6   -6   13      2.47      0.00
  -12   -5   13     -2.02      0.00
  -11   -5   13     -0.96      0.00
  -10   -5   13      2.47      0.00
   -9   -5   13      0.34      0.00
   -8   -5   13     -0.33      0.00
   -7   -5   13      0.20      0.00
   -6   -5   13     -0.24      0.00
   -5   -5   13      0.48      0.00
   -4   -5   13     -0.39      0.00
   -3   -5   13      0.41      0.00
   -2   -5   13     -0.33      0.00
   -1   -5   13     -2.08      0.00
    0   -5   13      0.78      0.00
    1   -5   13      2.12      0.00
    2   -5   13     -0.76      0.00
    3   -5   13     -2.29      0.00
    4   -5   13      1.12      0.00
    5   -5   13      1.78      0.00
    6   -5   13     -1.91      0.00
  -13   -4   13      1.52      0.00
  -12   -4   13      0.83      0.00
  -11   -4   13     -1.15      0.00
  -10   -4   13     -3.11      0.00
   -9   -4   13      1.18      0.00
   -8   -4   13      4.68      0.00
   -7   -4   13     -2.80      0.00
   -6   -4   13     -4.03      0.00
   -5   -4   13      0.82      0.00
   -4   -4   13      4.28      0.00
   -3   -4   13      0.98      0.00
   -2   -4   13     -5.30      0.00
   -1   -4   13     -0.28      0.00
    0   -4   13      5.04      0.00
    1   -4   13      0.82      0.00
    2   -4   13     -4.36      0.00
    3   -4   13     -0.09      0.00
    4   -4   13      4.28      0.00
    5   -4   13     -2.65      0.00
    6   -4   13     -1.84      0.00
  -13   -3   13     -1.02      0.00
  -12   -3   13      3.12      0.00
  -11   -3   13      0.68      0.00
  -10   -3   13     -4.26      0.00
   -9   -3   13      0.80      0.00
   -8   -3   13      3.75      0.00
   -7   -3   13      0.58      0.00
   -6   -3   13     -2.86      0.00
   -5   -3   13     -3.28      0.00
   -4   -3   13      5.20      0.00
   -3   -3   13      2.40      0.00
   -2   -3   13     -5.40      0.00
   -1   -3   13     -1.14      0.00
    0   -3   13      2.82      0.00
    1   -3   13      0.27      0.00
    2   -3   13     -1.55      0.00
    3   -3   13      1.61      0.00
    4   -3   13     -0.20      0.00
    5   -3   13     -1.67      0.00
    6   -3   13      1.15      0.00
  -13   -2   13     -1.73      0.00
  -12   -2   13      1.84      0.00
  -11   -2   13      1.73      0.00
  -10   -2   13     -1.30      0.00
   -9   -2   13     -2.66      0.00
   -8   -2   13     -0.27      0.00
   -7   -2   13      5.66      0.00
   -6   -2   13     -0.97      0.00
   -5   -2   13     -5.86      0.00
   -4   -2   13      0.42      0.00
   -3   -2   13      2.77      0.00
   -2   -2   13      3.02      0.00
   -1   -2   13     -2.12      0.00
    0   -2   13     -4.08      0.00
    1   -2   13      2.06      0.00
    2   -2   13      4.73      0.00
    3   -2   13     -1.53      0.00
  -13   -1   13     -3.03      0.00
  -12   -1   13     -1.67      0.00
  -11   -1   13      4.05      0.00
  -10   -1   13      3.24      0.00
   -9   -1   13     -5.18      0.00
   -8   -1   13     -3.10      0.00
   -7   -1   13      5.35      0.00
   -6   -1   13      3.63      0.00
   -5   -1   13     -2.32      0.00
   -4   -1   13     -6.79      0.00
   -3   -1   13      2.10      0.00
   -2   -1   13      8.98      0.00
   -1   -1   13     -4.30      0.00
    0   -1   13     -8.23      0.00
    1   -1   13      3.89      0.00
    2   -1   13      5.97      0.00
    3   -1   13     -2.13      0.00
    4   -1   13     -4.63      0.00
  -13    0   13      0.91      0.00
  -12    0   13     -2.74      0.00
  -11    0   13     -0.78      0.00
  -10    0   13      2.58      0.00
   -9    0   13      0.59      0.00
   -8    0   13     -2.80      0.00
   -7    0   13     -1.74      0.00
   -6    0   13      5.06      0.00
   -5    0   13      2.40      0.00
   -4    0   13     -7.97      0.00
   -3    0   13     -0.81      0.00
   -2    0   13      7.37      0.00
   -1    0   13     -0.34      0.00
    0    0   13     -4.36      0.00
    1    0   13     -0.36      0.00
    2    0   13      2.46      0.00
    3    0   13      2.60      0.00
    4    0   13     -1.06      0.00
    5    0   13     -2.33      0.00
  -13    1   13      0.45      0.00
  -12    1   13      1.24      0.00
  -11    1   13     -2.56      0.00
  -10    1   13     -1.10      0.00
   -9    1   13      3.71      0.00
   -8    1   13      0.58      0.00
   -7    1   13     -4.50      0.00
   -6    1   13      0.30      0.00
   -5    1   13      3.34      0.00
   -4    1   13      1.24      0.00
   -3    1   13     -2.43      0.00
   -2    1   13     -3.81      0.00
   -1    1   13      4.33      0.00
    0    1   13      4.57      0.00
    1    1   13     -6.80      0.00
    2    1   13     -3.32      0.00
    3    1   13      5.10      0.00
    4    1   13      2.49      0.00
    5    1   13     -2.43      0.00
    6    1   13     -1.50      0.00
  -13    2   13      0.21      0.00
  -12    2   13      1.49      0.00
  -11    2   13     -0.86      0.00
  -10    2   13     -2.26      0.00
   -9    2   13     -0.04      0.00
   -8    2   13      3.01      0.00
   -7    2   13      1.62      0.00
   -6    2   13     -3.50      0.00
   -5    2   13     -2.63      0.00
   -4    2   13      5.34      0.00
   -3    2   13     -0.41      0.00
   -2    2   13     -6.35      0.00
   -1    2   13      3.72      0.00
    0    2   13      4.48      0.00
    1    2   13     -3.00      0.00
    2    2   13     -1.76      0.00
    3    2   13      1.60      0.00
    4    2   13      1.67      0.00
    5    2   13     -1.18      0.00
    6    2   13     -1.78      0.00
  -13    3   13     -0.65      0.00
  -12    3   13     -0.82      0.00
  -11    3   13      2.26      0.00
  -10    3   13      0.93      0.00
   -9    3   13     -2.79      0.00
   -8    3   13     -2.85      0.00
   -7    3   13      3.60      0.00
   -6    3   13      1.68      0.00
   -5    3   13     -0.66      0.00
   -4    3   13     -0.93      0.00
   -3    3   13     -1.53      0.00
   -2    3   13      2.37      0.00
   -1    3   13      0.05      0.00
    0    3   13     -3.49      0.00
    1    3   13      1.30      0.00
    2    3   13      1.61      0.00
    3    3   13     -1.22      0.00
    4    3   13      0.76      0.00
    5    3   13      0.73      0.00
    6    3   13     -0.29      0.00
  -12    4   13     -1.50      0.00
  -11    4   13      1.08      0.00
  -10    4   13      2.22      0.00
   -9    4   13     -0.86      0.00
   -8    4   13     -1.80      0.00
   -7    4   13     -0.62      0.00
   -6    4   13      1.50      0.00
   -5    4   13      2.82      0.00
   -4    4   13     -3.64      0.00
   -3    4   13     -0.99      0.00
   -2    4   13      4.11      0.00
   -1    4   13     -1.81      0.00
    0    4   13     -1.47      0.00
    1    4   13      1.90      0.00
    2    4   13     -0.30      0.00
    3    4   13     -0.32      0.00
    4    4   13     -0.94      0.00
    5    4   13      0.34      0.00
  -12    5   13     -0.67      0.00
  -11    5   13      0.19      0.00
  -10    5   13      1.23      0.00
   -9    5   13     -1.60      0.00
   -8    5   13      0.05      0.00
   -7    5   13     -0.54      0.00
   -6    5   13      1.47      0.00
   -5    5   13     -0.37      0.00
   -4    5   13     -1.66      0.00
   -3    5   13      2.07      0.00
   -2    5   13      0.33      0.00
   -1    5   13     -0.95      0.00
    0    5   13      0.73      0.00
    1    5   13     -2.03      0.00
    2    5   13     -0.33      0.00
    3    5   13      2.60      0.00
    4    5   13     -0.49      0.00
    5    5   13      0.34      0.00
  -11    6   13     -0.83      0.00
  -10    6   13     -0.32      0.00
   -9    6   13      1.60      0.00
   -8    6   13     -1.02      0.00
   -7    6   13     -1.27      0.00
   -6    6   13      0.74      0.00
   -5    6   13      0.80      0.00
   -4    6   13      0.88      0.00
   -3    6   13     -2.01      0.00
   -2    6   13     -1.98      0.00
   -1    6   13      3.20      0.00
    0    6   13      2.56      0.00
    1    6   13     -2.54      0.00
    2    6   13     -1.25      0.00
    3    6   13     -0.97      0.00
    4    6   13      2.05      0.00
  -10    7   13     -0.69      0.00
   -9    7   13      0.77      0.00
   -8    7   13      0.28      0.00
   -7    7   13     -0.81      0.00
   -6    7   13     -2.34      0.00
   -5    7   13      2.50      0.00
   -4    7   13      2.13      0.00
   -3    7   13     -3.03      0.00
   -2    7   13     -1.34      0.00
   -1    7   13      1.78      0.00
    0    7   13      0.11      0.00
    1    7   13      0.18      0.00
    2    7   13     -0.19      0.00
    3    7   13     -0.46      0.00
    4    7   13      1.26      0.00
  -10    8   13      1.63      0.00
   -9    8   13     -0.28      0.00
   -8    8   13     -0.48      0.00
   -7    8   13     -0.92      0.00
   -6    8   13      1.40      0.00
   -5    8   13      1.18      0.00
   -4    8   13     -1.75      0.00
   -3    8   13      0.37      0.00
   -2    8   13      0.47      0.00
   -1    8   13      0.43      0.00
    0    8   13     -0.29      0.00
    1    8   13     -0.66      0.00
    2    8   13     -1.34      0.00
    3    8   13      1.00      0.00
   -8    9   13     -0.74      0.00
   -7    9   13     -2.21      0.00
   -6    9   13      0.25      0.00
   -5    9   13      0.29      0.00
   -4    9   13      0.53      0.00
   -3    9   13      1.37      0.00
   -2    9   13     -2.30      0.00
   -1    9   13     -0.51      0.00
    0    9   13      2.59      0.00
    1    9   13      0.88      0.00
    2    9   13     -1.16      0.00
   -7   10   13      0.18      0.00
   -6   10   13     -0.81      0.00
   -5   10   13     -0.70      0.00
   -4   10   13      1.90      0.00
   -3   10   13     -0.09      0.00
   -2   10   13     -0.82      0.00
   -1   10   13     -0.78      0.00
    0   10   13     -0.58      0.00
    1   10   13      1.10      0.00
   -6   11   13     -1.61      0.00
   -5   11   13     -1.09      0.00
   -4   11   13      2.05      0.00
   -3   11   13      0.13      0.00
   -2   11   13     -0.38      0.00
   -1   11   13     -0.29      0.00
    0  -11   14     -0.71      0.00
   -5  -10   14      1.11      0.00
   -4  -10   14     -1.94      0.00
   -3  -10   14      0.80      0.00
   -2  -10   14      0.19      0.00
   -1  -10   14     -1.15      0.00
    0  -10   14      1.05      0.00
    1  -10   14      0.24      0.00
    2  -10   14     -1.09      0.00
   -7   -9   14     -1.53      0.00
   -6   -9   14     -0.23      0.00
   -5   -9   14      0.39      0.00
   -4   -9   14      1.32      0.00
   -3   -9   14      0.69      0.00
   -2   -9   14     -1.87      0.00
   -1   -9   14     -1.03      0.00
    0   -9   14      2.09      0.00
    2   -9   14     -0.76      0.00
    3   -9   14     -1.34      0.00
   -8   -8   14      1.87      0.00
   -7   -8   14     -0.18      0.00
   -6   -8   14     -2.10      0.00
   -5   -8   14     -0.27      0.00
   -4   -8   14      2.67      0.00
   -3   -8   14      0.30      0.00
   -2   -8   14     -3.01      0.00
   -1   -8   14     -0.05      0.00
    0   -8   14      1.77      0.00
    1   -8   14      1.38      0.00
    2   -8   14     -1.62      0.00
    3   -8   14     -2.15      0.00
  -10   -7   14     -0.71      0.00
   -9   -7   14      0.01      0.00
   -8   -7   14      0.89      0.00
   -7   -7   14     -1.58      0.00
   -6   -7   14     -1.53      0.00
   -5   -7   14      1.13      0.00
   -4   -7   14      1.93      0.00
   -3   -7   14     -1.15      0.00
   -2   -7   14     -1.05      0.00
   -1   -7   14      1.37      0.00
    0   -7   14     -0.35      0.00
    1   -7   14     -0.08      0.00
    2   -7   14     -0.82      0.00
    3   -7   14      1.18      0.00
    4   -7   14      0.57      0.00
  -10   -6   14      0.41      0.00
   -9   -6   14      0.49      0.00
   -8   -6   14      0.06      0.00
   -7   -6   14      0.03      0.00
   -6   -6   14      0.16      0.00
   -5   -6   14      0.45      0.00
   -4   -6   14     -0.74      0.00
   -3   -6   14     -1.61      0.00
   -2   -6   14      2.00      0.00
   -1   -6   14      0.82      0.00
    0   -6   14     -1.01      0.00
    1   -6   14     -1.10      0.00
    2   -6   14      1.32      0.00
    3   -6   14      1.40      0.00
    4   -6   14     -3.45      0.00
    5   -6   14     -0.05      0.00
  -11   -5   14     -0.92      0.00
  -10   -5   14      1.78      0.00
   -9   -5   14      0.84      0.00
   -8   -5   14     -1.71      0.00
   -7   -5   14     -0.74      0.00
   -6   -5   14      0.95      0.00
   -5   -5   14      0.88      0.00
   -4   -5   14     -1.75      0.00
   -3   -5   14      0.25      0.00
   -2   -5   14      0.82      0.00
   -1   -5   14     -1.37      0.00
    0   -5   14     -0.41      0.00
    1   -5   14      1.07      0.00
    2   -5   14      2.31      0.00
    3   -5   14     -1.70      0.00
    4   -5   14     -1.86      0.00
    5   -5   14      1.91      0.00
  -11   -4   14     -1.19      0.00
  -10   -4   14     -1.38      0.00
   -9   -4   14      1.06      0.00
   -8   -4   14      2.83      0.00
   -7   -4   14     -1.01      0.00
   -6   -4   14     -2.50      0.00
   -4   -4   14      2.67      0.00
   -3   -4   14      2.15      0.00
   -2   -4   14     -2.99      0.00
   -1   -4   14     -1.95      0.00
    4   -4   14      2.72      0.00
    5   -4   14      0.04      0.00
  -12   -3   14      2.77      0.00
  -11   -3   14      0.84      0.00
  -10   -3   14     -3.56      0.00
   -9   -3   14     -0.15      0.00
   -8   -3   14      3.44      0.00
   -7   -3   14      0.34      0.00
   -6   -3   14     -3.06      0.00
   -5   -3   14     -3.38      0.00
   -4   -3   14      4.02      0.00
   -3   -3   14      2.55      0.00
   -2   -3   14     -4.16      0.00
   -1   -3   14     -1.47      0.00
    0   -3   14      2.77      0.00
    1   -3   14      1.97      0.00
  -12   -2   14      1.09      0.00
  -11   -2   14      0.43      0.00
  -10   -2   14     -1.21      0.00
   -9   -2   14     -0.13      0.00
   -8   -2   14      0.93      0.00
   -7   -2   14      2.76      0.00
   -6   -2   14     -1.38      0.00
   -5   -2   14     -3.53      0.00
   -4   -2   14      2.50      0.00
   -3   -2   14      1.71      0.00
   -2   -2   14     -0.76      0.00
   -1   -2   14     -1.03      0.00
    0   -2   14     -0.52      0.00
    1   -2   14      0.86      0.00
    2   -2   14      0.65      0.00
  -12   -1   14      0.02      0.00
  -11   -1   14      2.31      0.00
  -10   -1   14      0.78      0.00
   -9   -1   14     -4.02      0.00
   -8   -1   14     -0.79      0.00
   -7   -1   14      4.90      0.00
   -6   -1   14      0.07      0.00
   -5   -1   14     -2.33      0.00
   -4   -1   14     -2.32      0.00
   -3   -1   14      0.57      0.00
   -2   -1   14      4.10      0.00
   -1   -1   14     -1.47      0.00
    0   -1   14     -3.97      0.00
    1   -1   14      0.87      0.00
    2   -1   14      3.80      0.00
    3   -1   14      0.73      0.00
    4   -1   14     -3.37      0.00
  -12    0   14     -3.41      0.00
  -11    0   14      1.31      0.00
  -10    0   14      3.32      0.00
   -9    0   14     -1.34      0.00
   -8    0   14     -2.94      0.00
   -7    0   14      0.29      0.00
   -6    0   14      4.07      0.00
   -5    0   14      0.76      0.00
   -4    0   14     -6.14      0.00
   -3    0   14      0.82      0.00
   -2    0   14      6.87      0.00
   -1    0   14     -1.96      0.00
    0    0   14     -5.00      0.00
    1    0   14      0.68      0.00
    2    0   14      3.77      0.00
    3    0   14      0.31      0.00
    4    0   14     -2.42      0.00
    5    0   14     -0.85      0.00
  -12    1   14      0.81      0.00
  -11    1   14     -2.35      0.00
  -10    1   14     -1.31      0.00
   -9    1   14      2.91      0.00
   -8    1   14      0.24      0.00
   -7    1   14     -2.91      0.00
   -6    1   14      2.37      0.00
   -5    1   14      1.15      0.00
   -4    1   14     -3.06      0.00
   -3    1   14     -0.55      0.00
   -2    1   14      1.62      0.00
   -1    1   14      0.95      0.00
    0    1   14     -0.42      0.00
    1    1   14     -1.95      0.00
    2    1   14      0.90      0.00
    3    1   14      1.12      0.00
    4    1   14      0.70      0.00
    5    1   14     -0.36      0.00
  -12    2   14      1.82      0.00
  -11    2   14     -0.43      0.00
  -10    2   14     -1.90      0.00
   -9    2   14      0.25      0.00
   -8    2   14      1.74      0.00
   -7    2   14     -0.04      0.00
   -6    2   14     -1.38      0.00
   -5    2   14     -0.58      0.00
   -4    2   14      3.23      0.00
   -3    2   14     -0.95      0.00
   -2    2   14     -4.41      0.00
   -1    2   14      3.49      0.00
    0    2   14      3.15      0.00
    1    2   14     -3.09      0.00
    2    2   14     -2.68      0.00
    3    2   14      2.30      0.00
    4    2   14      2.06      0.00
    5    2   14     -1.52      0.00
  -11    3   14      0.70      0.00
  -10    3   14     -0.28      0.00
   -9    3   14     -1.28      0.00
   -8    3   14     -0.27      0.00
   -7    3   14      2.78      0.00
   -6    3   14     -1.23      0.00
   -5    3   14     -1.21      0.00
   -4    3   14      2.30      0.00
   -3    3   14     -1.03      0.00
   -2    3   14     -1.66      0.00
   -1    3   14      0.88      0.00
    0    3   14      0.10      0.00
    1    3   14      0.27      0.00
    2    3   14     -0.77      0.00
    3    3   14      1.05      0.00
    4    3   14      0.72      0.00
    5    3   14     -0.66      0.00
  -11    4   14      0.78      0.00
  -10    4   14      1.41      0.00
   -9    4   14     -0.90      0.00
   -8    4   14     -2.34      0.00
   -7    4   14      0.64      0.00
   -6    4   14      1.32      0.00
   -5    4   14      1.92      0.00
   -4    4   14     -2.44      0.00
   -3    4   14     -1.24      0.00
   -2    4   14      3.43      0.00
   -1    4   14     -0.82      0.00
    0    4   14     -1.10      0.00
    1    4   14      0.10      0.00
    2    4   14     -0.27      0.00
    3    4   14     -0.03      0.00
    4    4   14     -0.04      0.00
  -11    5   14      0.13      0.00
  -10    5   14      1.31      0.00
   -9    5   14     -1.68      0.00
   -8    5   14     -0.11      0.00
   -7    5   14     -0.19      0.00
   -6    5   14      0.90      0.00
   -5    5   14      0.14      0.00
   -4    5   14     -1.76      0.00
   -3    5   14      1.10      0.00
   -2    5   14      1.17      0.00
   -1    5   14     -1.29      0.00
    0    5   14      0.37      0.00
    1    5   14     -0.49      0.00
    2    5   14      0.65      0.00
    3    5   14      0.82      0.00
    4    5   14     -1.15      0.00
  -10    6   14      0.71      0.00
   -9    6   14     -0.47      0.00
   -8    6   14     -1.25      0.00
   -7    6   14      0.78      0.00
   -6    6   14      1.66      0.00
   -5    6   14     -2.08      0.00
   -4    6   14     -0.66      0.00
   -3    6   14      1.16      0.00
   -2    6   14     -0.39      0.00
   -1    6   14      0.69      0.00
    0    6   14      0.91      0.00
    1    6   14     -1.51      0.00
    2    6   14     -0.36      0.00
    3    6   14     -0.36      0.00
   -9    7   14      0.97      0.00
   -8    7   14     -0.70      0.00
   -7    7   14     -1.37      0.00
   -6    7   14     -0.16      0.00
   -5    7   14      3.52      0.00
   -4    7   14      0.36      0.00
   -3    7   14     -3.75      0.00
   -2    7   14     -0.66      0.00
   -1    7   14      2.46      0.00
    0    7   14      0.16      0.00
    1    7   14     -0.22      0.00
    2    7   14     -0.12      0.00
   -8    8   14      0.92      0.00
   -7    8   14     -1.71      0.00
   -6    8   14     -1.21      0.00
   -5    8   14      2.12      0.00
   -4    8   14      0.03      0.00
   -3    8   14     -0.87      0.00
   -2    8   14      0.03      0.00
   -1    8   14      0.92      0.00
    0    8   14     -0.40      0.00
    1    8   14     -0.20      0.00
   -7    9   14     -1.39      0.00
   -6    9   14      1.30      0.00
   -5    9   14      0.38      0.00
   -4    9   14     -0.27      0.00
   -3    9   14      0.66      0.00
   -2    9   14     -1.60      0.00
   -1    9   14      0.09      0.00
    0    9   14      2.04      0.00
   -6   10   14     -1.47      0.00
   -5   10   14     -0.74      0.00
   -4   10   14      1.95      0.00
   -3   10   14      0.60      0.00
   -2   10   14     -1.48      0.00
   -4   -9   15     -0.89      0.00
   -3   -9   15      0.11      0.00
   -2   -9   15      0.72      0.00
   -1   -9   15     -0.60      0.00
    0   -9   15      0.10      0.00
   -6   -8   15     -2.10      0.00
   -5   -8   15      0.13      0.00
   -4   -8   15      1.67      0.00
   -3   -8   15      0.59      0.00
   -2   -8   15     -2.11      0.00
   -1   -8   15     -0.40      0.00
    0   -8   15      1.22      0.00
    1   -8   15      1.37      0.00
    2   -8   15     -0.66      0.00
   -8   -7   15      0.62      0.00
   -7   -7   15      0.61      0.00
   -6   -7   15     -0.80      0.00
   -5   -7   15     -0.71      0.00
   -4   -7   15      1.56      0.00
   -3   -7   15      0.69      0.00
   -2   -7   15     -1.59      0.00
   -1   -7   15      0.03      0.00
    1   -7   15      1.23      0.00
    2   -7   15     -1.29      0.00
   -9   -6   15      1.05      0.00
   -8   -6   15      0.51      0.00
   -7   -6   15     -2.00      0.00
   -6   -6   15     -0.58      0.00
   -5   -6   15      1.99      0.00
   -4   -6   15      0.62      0.00
   -3   -6   15     -3.40      0.00
   -2   -6   15      0.50      0.00
   -1   -6   15      2.02      0.00
    2   -6   15     -1.51      0.00
    3   -6   15      2.20      0.00
   -9   -5   15      0.87      0.00
   -8   -5   15     -0.18      0.00
   -7   -5   15     -1.47      0.00
   -6   -5   15      0.22      0.00
   -5   -5   15      1.77      0.00
   -4   -5   15     -0.40      0.00
   -3   -5   15     -0.02      0.00
   -2   -5   15     -0.27      0.00
   -1   -5   15     -0.95      0.00
  -10   -4   15     -0.19      0.00
   -9   -4   15      1.40      0.00
   -8   -4   15      0.91      0.00
   -7   -4   15     -0.71      0.00
   -6   -4   15     -1.12      0.00
   -5   -4   15     -0.37      0.00
   -4   -4   15      0.07      0.00
   -3   -4   15      1.67      0.00
   -2   -4   15     -0.50      0.00
   -1   -4   15     -0.58      0.00
  -10   -3   15     -2.26      0.00
   -9   -3   15     -1.05      0.00
   -8   -3   15      2.41      0.00
   -7   -3   15      0.86      0.00
   -6   -3   15     -2.31      0.00
   -5   -3   15     -1.65      0.00
   -4   -3   15      2.71      0.00
   -3   -3   15      1.14      0.00
   -2   -3   15     -1.71      0.00
   -1   -3   15     -1.09      0.00
    0   -3   15      0.66      0.00
  -11   -2   15      0.40      0.00
  -10   -2   15     -0.30      0.00
   -9   -2   15      0.76      0.00
   -8   -2   15      1.05      0.00
   -7   -2   15      0.90      0.00
   -6   -2   15     -1.19      0.00
   -5   -2   15     -2.90      0.00
   -4   -2   15      2.13      0.00
   -3   -2   15      1.94      0.00
   -2   -2   15     -2.12      0.00
   -1   -2   15     -1.62      0.00
    0   -2   15      1.47      0.00
    1   -2   15      1.60      0.00
  -11   -1   15     -0.68      0.00
  -10   -1   15     -0.91      0.00
   -9   -1   15     -1.03      0.00
   -8   -1   15      0.84      0.00
   -7   -1   15      2.85      0.00
   -6   -1   15     -1.52      0.00
   -5   -1   15     -1.85      0.00
   -4   -1   15      1.49      0.00
   -3   -1   15      0.95      0.00
   -2   -1   15     -0.90      0.00
   -1   -1   15     -0.73      0.00
    0   -1   15      0.33      0.00
    1   -1   15      0.51      0.00
    2   -1   15      0.55      0.00
    3   -1   15      1.55      0.00
  -11    0   15      2.41      0.00
  -10    0   15      1.66      0.00
   -9    0   15     -3.02      0.00
   -8    0   15     -1.09      0.00
   -7    0   15      2.30      0.00
   -6    0   15      1.06      0.00
   -5    0   15     -0.91      0.00
   -4    0   15     -2.82      0.00
   -3    0   15      1.12      0.00
   -2    0   15      4.03      0.00
   -1    0   15     -1.65      0.00
    0    0   15     -3.57      0.00
    1    0   15     -0.25      0.00
    2    0   15      3.09      0.00
    3    0   15      0.72      0.00
    4    0   15     -2.01      0.00
  -11    1   15     -1.07      0.00
  -10    1   15      0.19      0.00
   -9    1   15      1.70      0.00
   -8    1   15     -0.89      0.00
   -7    1   15     -1.90      0.00
   -6    1   15      3.45      0.00
   -5    1   15      0.51      0.00
   -4    1   15     -4.69      0.00
   -3    1   15      0.07      0.00
   -2    1   15      4.56      0.00
   -1    1   15     -0.26      0.00
    0    1   15     -2.89      0.00
    1    1   15     -0.26      0.00
    2    1   15      3.30      0.00
    3    1   15     -0.60      0.00
    4    1   15     -0.87      0.00
  -10    2   15     -2.17      0.00
   -9    2   15      0.52      0.00
   -8    2   15      0.87      0.00
   -7    2   15     -0.33      0.00
   -6    2   15      0.91      0.00
   -5    2   15     -0.27      0.00
   -4    2   15     -0.16      0.00
   -3    2   15     -0.66      0.00
   -2    2   15     -0.87      0.00
   -1    2   15      1.75      0.00
    0    2   15      0.07      0.00
    1    2   15     -1.74      0.00
    2    2   15     -0.59      0.00
    3    2   15      1.23      0.00
  -10    3   15     -0.13      0.00
   -9    3   15     -0.39      0.00
   -8    3   15      0.29      0.00
   -7    3   15      0.82      0.00
   -6    3   15     -1.75      0.00
   -5    3   15      0.00      0.00
   -4    3   15      2.94      0.00
   -3    3   15     -1.31      0.00
   -2    3   15     -2.63      0.00
   -1    3   15      2.33      0.00
    0    3   15      1.37      0.00
    1    3   15     -0.51      0.00
    2    3   15     -2.67      0.00
    3    3   15      1.54      0.00
  -10    4   15     -0.44      0.00
   -9    4   15     -0.61      0.00
   -8    4   15     -0.18      0.00
   -7    4   15      1.53      0.00
   -6    4   15     -1.03      0.00
   -5    4   15      0.33      0.00
   -4    4   15      0.56      0.00
   -3    4   15     -0.85      0.00
   -2    4   15      0.21      0.00
   -1    4   15     -0.57      0.00
    0    4   15      0.53      0.00
    1    4   15      0.26      0.00
    2    4   15     -0.74      0.00
    3    4   15      0.57      0.00
   -9    5   15     -1.40      0.00
   -8    5   15     -1.32      0.00
   -7    5   15      0.57      0.00
   -6    5   15      1.18      0.00
   -5    5   15      0.16      0.00
   -4    5   15     -1.84      0.00
   -3    5   15      0.50      0.00
   -2    5   15      1.90      0.00
   -1    5   15     -1.23      0.00
    0    5   15      0.27      0.00
    1    5   15     -0.46      0.00
    2    5   15      0.59      0.00
   -8    6   15     -1.02      0.00
   -7    6   15      1.05      0.00
   -6    6   15      1.41      0.00
   -5    6   15     -2.16      0.00
   -4    6   15     -0.99      0.00
   -3    6   15      1.74      0.00
   -2    6   15      0.22      0.00
   -1    6   15     -0.57      0.00
    0    6   15      0.13      0.00
    1    6   15     -0.72      0.00
   -8    7   15     -1.14      0.00
   -7    7   15     -0.09      0.00
   -6    7   15      1.44      0.00
   -5    7   15      0.98      0.00
   -4    7   15     -1.24      0.00
   -3    7   15     -1.34      0.00
   -2    7   15      0.31      0.00
   -1    7   15      1.45      0.00
    0    7   15      0.00      0.00
   -7    8   15     -2.67      0.00
   -6    8   15     -1.07      0.00
   -5    8   15      4.04      0.00
   -4    8   15      0.42      0.00
   -3    8   15     -2.95      0.00
   -2    8   15     -0.21      0.00
   -1    8   15      1.77      0.00
   -6    9   15     -0.67      0.00
   -5    9   15     -0.35      0.00
   -4    9   15      0.70      0.00
   -3   -8   16     -0.24      0.00
   -2   -8   16     -0.24      0.00
   -1   -8   16      0.71      0.00
   -5   -7   16     -1.05      0.00
   -4   -7   16      1.29      0.00
   -3   -7   16      1.37      0.00
   -2   -7   16     -1.88      0.00
   -1   -7   16     -0.85      0.00
   -7   -6   16     -1.09      0.00
   -6   -6   16      0.47      0.00
   -5   -6   16      1.02      0.00
   -4   -6   16      0.20      0.00
   -3   -6   16     -1.84      0.00
   -2   -6   16      1.07      0.00
   -7   -5   16     -2.55      0.00
   -6   -5   16     -1.00      0.00
   -5   -5   16      2.55      0.00
   -4   -5   16      1.01      0.00
   -3   -5   16     -1.45      0.00
   -2   -5   16     -1.50      0.00
   -8   -4   16      0.21      0.00
   -7   -4   16     -0.43      0.00
   -6   -4   16     -0.81      0.00
   -5   -4   16     -0.61      0.00
   -4   -4   16     -0.17      0.00
   -3   -4   16      1.82      0.00
   -2   -4   16     -0.30      0.00
   -9   -3   16     -0.20      0.00
   -8   -3   16      1.42      0.00
   -7   -3   16      0.69      0.00
   -6   -3   16     -1.08      0.00
   -5   -3   16      0.15      0.00
   -4   -3   16      0.52      0.00
   -3   -3   16     -1.47      0.00
   -2   -3   16      0.28      0.00
   -9   -2   16      0.19      0.00
   -8   -2   16      0.67      0.00
   -7   -2   16     -0.25      0.00
   -6   -2   16     -1.05      0.00
   -5   -2   16     -1.17      0.00
   -4   -2   16      1.70      0.00
   -3   -2   16      1.64      0.00
   -1   -2   16     -2.26      0.00
    0   -2   16      1.11      0.00
    1   -2   16      2.07      0.00
   -9   -1   16      1.04      0.00
   -8   -1   16      1.28      0.00
   -7   -1   16      1.55      0.00
   -6   -1   16     -1.42      0.00
   -5   -1   16     -2.35      0.00
   -4   -1   16      2.08      0.00
   -3   -1   16      1.98      0.00
   -2   -1   16     -2.85      0.00
   -1   -1   16     -1.10      0.00
    0   -1   16      2.32      0.00
    1   -1   16      1.14      0.00
    2   -1   16     -1.51      0.00
   -9    0   16     -2.78      0.00
   -8    0   16      0.61      0.00
   -7    0   16      2.36      0.00
   -6    0   16     -1.40      0.00
   -5    0   16     -1.37      0.00
   -4    0   16      0.92      0.00
   -3    0   16      1.33      0.00
   -2    0   16      0.18      0.00
   -1    0   16     -1.43      0.00
    0    0   16     -1.05      0.00
    1    0   16     -0.06      0.00
    2    0   16      1.52      0.00
   -9    1   16     -0.30      0.00
   -8    1   16     -0.80      0.00
   -7    1   16     -0.26      0.00
   -6    1   16      2.92      0.00
   -5    1   16     -0.53      0.00
   -4    1   16     -4.42      0.00
   -3    1   16      0.53      0.00
   -2    1   16      4.96      0.00
   -1    1   16     -0.42      0.00
    0    1   16     -3.38      0.00
    1    1   16     -0.47      0.00
    2    1   16      2.95      0.00
   -9    2   16      1.54      0.00
   -8    2   16     -0.32      0.00
   -7    2   16     -1.40      0.00
   -6    2   16      2.31      0.00
   -5    2   16      0.67      0.00
   -4    2   16     -2.19      0.00
   -3    2   16     -0.97      0.00
   -2    2   16      1.41      0.00
   -1    2   16      1.09      0.00
    0    2   16     -1.25      0.00
    1    2   16     -0.93      0.00
    2    2   16      0.94      0.00
   -9    3   16     -0.34      0.00
   -8    3   16      0.58      0.00
   -7    3   16      0.52      0.00
   -6    3   16     -1.05      0.00
   -5    3   16      0.34      0.00
   -4    3   16      1.57      0.00
   -3    3   16     -1.13      0.00
   -2    3   16     -1.62      0.00
   -1    3   16      2.29      0.00
    0    3   16      0.55      0.00
    1    3   16     -0.80      0.00
   -8    4   16      0.85      0.00
   -7    4   16      0.80      0.00
   -6    4   16     -2.37      0.00
   -5    4   16      0.09      0.00
   -4    4   16      2.46      0.00
   -3    4   16     -0.90      0.00
   -2    4   16     -1.79      0.00
   -1    4   16      0.29      0.00
    0    4   16      1.44      0.00
    1    4   16      0.67      0.00
   -7    5   16      1.35      0.00
   -6    5   16      0.58      0.00
   -5    5   16     -0.62      0.00
   -4    5   16     -0.49      0.00
   -3    5   16      0.57      0.00
   -2    5   16      0.81      0.00
   -1    5   16     -1.56      0.00
    0    5   16      0.54      0.00
   -7    6   16      0.60      0.00
   -6    6   16      1.38      0.00
   -5    6   16     -1.18      0.00
   -4    6   16     -1.72      0.00
   -3    6   16      1.25      0.00
   -2    6   16      1.36      0.00
   -1    6   16     -0.57      0.00
   -6    7   16      1.02      0.00
   -5    7   16     -0.12      0.00
   -4    7   16     -0.84      0.00
   -3    7   16     -0.06      0.00
   -3   -6   17      0.02      0.00
   -2   -6   17      0.60      0.00
   -5   -5   17      1.57      0.00
   -4   -5   17      0.50      0.00
   -3   -5   17     -1.32      0.00
   -6   -4   17     -0.96      0.00
   -5   -4   17     -0.08      0.00
   -4   -4   17      0.67      0.00
   -3   -4   17      0.87      0.00
   -6   -3   17     -0.36      0.00
   -5   -3   17      0.66      0.00
   -4   -3   17     -0.39      0.00
   -3   -3   17     -1.68      0.00
   -7   -2   17     -0.61      0.00
   -6   -2   17     -0.54      0.00
   -5   -2   17      0.69      0.00
   -4   -2   17      0.84      0.00
   -3   -2   17     -0.23      0.00
   -1   -2   17     -0.86      0.00
    0   -2   17      0.49      0.00
   -7   -1   17      0.59      0.00
   -6   -1   17     -1.47      0.00
   -5   -1   17     -2.04      0.00
   -4   -1   17      1.72      0.00
   -2   -1   17     -2.16      0.00
   -1   -1   17     -1.75      0.00
    0   -1   17      1.68      0.00
   -7    0   17      2.31      0.00
   -6    0   17     -1.57      0.00
   -5    0   17     -1.70      0.00
   -4    0   17      1.82      0.00
   -2    0   17     -1.55      0.00
   -1    0   17     -1.03      0.00
    0    0   17      0.70      0.00
   -7    1   17     -0.16      0.00
   -6    1   17      1.37      0.00
   -5    1   17     -0.97      0.00
   -4    1   17     -2.12      0.00
   -3    1   17      1.14      0.00
   -2    1   17      2.95      0.00
   -1    1   17     -0.76      0.00
    0    1   17     -2.37      0.00
   -7    2   17     -1.22      0.00
   -6    2   17      2.71      0.00
   -5    2   17      0.94      0.00
   -4    2   17     -2.97      0.00
   -3    2   17     -1.39      0.00
   -2    2   17      2.20      0.00
   -1    2   17      1.35      0.00
   -7    3   17     -0.01      0.00
   -6    3   17     -0.83      0.00
   -5    3   17      0.79      0.00
   -4    3   17      0.68      0.00
   -3    3   17     -0.97      0.00
   -2    3   17     -0.91      0.00
   -1    3   17      1.54      0.00
   -6    4   17     -1.68      0.00
   -5    4   17     -0.07      0.00
   -4    4   17      2.04      0.00
   -3    4   17     -0.41      0.00
   -2    4   17     -1.64      0.00
   -5    5   17     -0.83      0.00
   -4    5   17      0.71      0.00
   -4   -2   18      0.39      0.00
   -5   -1   18     -0.99      0.00
   -4   -1   18      0.73      0.00
   -5    0   18     -1.33      0.00
   -5    1   18     -0.66      0.00
    1    0    0    -15.48      0.00
   -1    1    0    -36.14      0.00
    1    1    0     29.73      0.00
  -11   12    0     -1.75      0.00
  -11   13    0      0.52      0.00
  -10   14    0      1.11      0.00
    5   14    0      1.40      0.00
   -8   15    0      0.66      0.00
    4   15    0      1.51      0.00
    5   15    0     -0.17      0.00
    6   15    0      0.37      0.00
   -7   16    0      0.53      0.00
   -6   16    0     -0.23      0.00
    4   16    0     -1.69      0.00
    5   16    0     -1.15      0.00
   -5   17    0      0.35      0.00
   -4   17    0      1.41      0.00
   -3   17    0     -1.87      0.00
   -2   17    0     -1.88      0.00
   -3  -17    1     -1.56      0.00
    1  -17    1      1.35      0.00
    2  -17    1     -0.15      0.00
    3  -17    1     -0.78      0.00
    4  -17    1      0.92      0.00
   -5  -16    1     -0.08      0.00
   -4  -16    1     -1.53      0.00
    6  -16    1     -1.25      0.00
    7  -16    1     -0.08      0.00
   -7  -15    1     -0.29      0.00
   -6  -15    1      2.53      0.00
   -5  -15    1     -1.30      0.00
    8  -15    1     -0.63      0.00
   -6  -14    1     -3.99      0.00
   -5  -14    1      0.16      0.00
   14   -7    1      0.59      0.00
    0   -1    1    -26.99      0.00
  -14    0    1     -1.01      0.00
   -1    0    1      0.36      0.00
    0    0    1     92.17      0.00
   -1    1    1    -51.24      0.00
    0    1    1     68.88      0.00
  -15    5    1      0.34      0.00
   13    7    1     -1.03      0.00
  -13   10    1     -0.77      0.00
  -12   11    1     -0.73      0.00
  -12   12    1     -1.68      0.00
  -10   14    1     -0.67      0.00
    4   14    1      0.87      0.00
   -9   15    1      1.20      0.00
   -8   15    1     -0.11      0.00
    4   15    1      2.08      0.00
    5   15    1      0.25      0.00
    6   15    1     -0.59      0.00
   -7   16    1      1.03      0.00
   -6   16    1     -0.72      0.00
    3   16    1      1.24      0.00
    4   16    1     -0.62      0.00
   -5   17    1      0.26      0.00
   -4   17    1      0.30      0.00
   -3   17    1     -1.59      0.00
   -2   17    1     -1.27      0.00
    0  -17    2     -1.27      0.00
    1  -17    2      0.66      0.00
    2  -17    2      1.17      0.00
    3  -17    2     -0.61      0.00
    4  -17    2     -0.21      0.00
   -5  -16    2      2.77      0.00
    5  -16    2      0.76      0.00
    6  -16    2     -2.20      0.00
   -7  -15    2     -0.81      0.00
   -6  -15    2      3.11      0.00
   -5  -15    2     -1.24      0.00
   -6  -14    2      0.29      0.00
  -15    1    2      1.25      0.00
  -13    9    2      1.68      0.00
  -13   10    2     -2.77      0.00
  -12   10    2      1.12      0.00
  -12   11    2     -0.93      0.00
  -12   12    2     -1.30      0.00
  -10   14    2     -1.62      0.00
    3   14    2     -1.87      0.00
   -9   15    2     -0.89      0.00
   -8   15    2     -1.00      0.00
    3   15    2     -1.55      0.00
    4   15    2      0.95      0.00
    5   15    2      0.68      0.00
   -7   16    2     -0.05      0.00
   -6   16    2     -0.58      0.00
    2   16    2     -0.03      0.00
    3   16    2      0.46      0.00
    4   16    2     -0.18      0.00
   -4   17    2      0.02      0.00
   -3   17    2      0.22      0.00
   -2   17    2     -0.69      0.00
   -3  -17    3     -0.69      0.00
   -2  -17    3     -2.04      0.00
   -1  -17    3      1.41      0.00
    0  -17    3      1.32      0.00
    1  -17    3     -0.16      0.00
    2  -17    3      0.12      0.00
    3  -17    3     -0.91      0.00
    5  -16    3     -0.84      0.00
    6  -16    3     -1.06      0.00
   -7  -15    3     -2.30      0.00
   -6  -15    3      1.65      0.00
   -7  -14    3     -1.30      0.00
   -6  -14    3      3.76      0.00
    9    1    3     -0.35      0.00
  -14    8    3     -0.19      0.00
  -13    8    3     -0.38      0.00
  -12    8    3      0.07      0.00
  -14    9    3     -0.87      0.00
  -13    9    3      1.76      0.00
  -13   10    3     -1.48      0.00
  -10   14    3     -0.43      0.00
    3   14    3      2.89      0.00
   -9   15    3     -1.57      0.00
   -8   15    3      0.49      0.00
    2   15    3      1.26      0.00
    3   15    3     -2.26      0.00
    4   15    3      0.54      0.00
    5   15    3      0.56      0.00
   -7   16    3     -0.71      0.00
   -6   16    3      1.65      0.00
    2   16    3      0.66      0.00
    3   16    3      0.00      0.00
   -4   17    3      1.06      0.00
   -3   17    3      0.06      0.00
   -2   17    3     -1.56      0.00
   -1   17    3      0.22      0.00
   -2  -17    4     -1.01      0.00
   -1  -17    4      0.68      0.00
    0  -17    4      1.44      0.00
    1  -17    4     -0.66      0.00
    2  -17    4     -0.45      0.00
    3  -17    4     -0.11      0.00
    4  -16    4     -0.31      0.00
    5  -16    4     -0.23      0.00
   -7  -15    4     -2.49      0.00
   -8  -14    4     -0.63      0.00
   -7  -14    4     -2.90      0.00
  -13   -9    4      0.28      0.00
  -15    2    4      2.47      0.00
  -15    6    4      1.52      0.00
  -14    6    4     -0.85      0.00
  -14    7    4      0.89      0.00
  -13    7    4      1.91      0.00
  -14    8    4     -2.28      0.00
  -13    8    4      0.83      0.00
  -14    9    4     -0.85      0.00
  -13    9    4     -0.79      0.00
  -13   10    4      0.35      0.00
   -9   10    4      5.73      0.00
  -11   13    4     -1.18      0.00
  -10   14    4      0.20      0.00
    2   14    4      1.48      0.00
   -8   15    4      0.50      0.00
    2   15    4     -0.31      0.00
    3   15    4     -0.54      0.00
    4   15    4      0.69      0.00
   -7   16    4     -0.02      0.00
   -6   16    4      2.02      0.00
   -5   16    4     -0.40      0.00
    1   16    4      0.99      0.00
    2   16    4      1.12      0.00
   -2  -17    5      0.48      0.00
   -1  -17    5     -1.63      0.00
    0  -17    5      0.07      0.00
    1  -17    5      0.93      0.00
    3  -16    5     -0.46      0.00
    4  -16    5      0.85      0.00
    5  -16    5      0.97      0.00
   -7  -15    5     -0.03      0.00
   -8  -14    5      0.68      0.00
    8  -14    5      0.64      0.00
   13    1    5      0.02      0.00
  -15    4    5     -1.48      0.00
  -15    5    5     -0.25      0.00
  -14    5    5      3.85      0.00
  -13    5    5     -1.55      0.00
  -15    6    5     -0.30      0.00
  -14    6    5     -0.18      0.00
  -13    6    5      3.71      0.00
  -14    7    5      0.34      0.00
  -13    7    5      0.12      0.00
  -14    8    5     -1.36      0.00
  -13    8    5      1.44      0.00
  -14    9    5     -2.17      0.00
  -12   12    5     -1.49      0.00
  -11   13    5     -1.38      0.00
  -10   14    5     -0.56      0.00
   -9   14    5     -0.38      0.00
    1   14    5     -1.00      0.00
   -8   15    5     -1.37      0.00
   -7   15    5      0.15      0.00
    1   15    5     -3.07      0.00
    2   15    5      0.08      0.00
    3   15    5      1.57      0.00
   -6   16    5      0.20      0.00
   -5   16    5      1.16      0.00
   -4   16    5     -1.07      0.00
    0   16    5     -0.55      0.00
    1   16    5      1.34      0.00
   -5  -16    6     -1.01      0.00
   -4  -16    6     -0.28      0.00
   -3  -16    6      0.68      0.00
    0  -16    6     -0.65      0.00
    1  -16    6     -1.07      0.00
    2  -16    6      0.04      0.00
    3  -16    6      0.37      0.00
    4  -16    6      0.89      0.00
    6  -15    6      0.90      0.00
   -8  -14    6      0.60      0.00
   10  -11    6     -1.66      0.00
  -15    3    6      3.02      0.00
  -15    4    6     -0.84      0.00
  -14    4    6      1.44      0.00
  -15    5    6     -0.19      0.00
  -14    5    6      1.78      0.00
  -13    5    6     -2.94      0.00
  -15    6    6     -0.90      0.00
  -14    6    6      2.60      0.00
  -14    7    6     -1.17      0.00
  -14    8    6     -0.89      0.00
  -14    9    6     -1.99      0.00
  -12   12    6      0.50      0.00
  -11   13    6      0.80      0.00
  -10   13    6      1.65      0.00
    6   13    6      0.05      0.00
   -9   14    6      0.57      0.00
    1   14    6      0.49      0.00
   -8   15    6     -1.15      0.00
   -7   15    6      1.61      0.00
    0   15    6      0.04      0.00
    1   15    6     -1.65      0.00
    2   15    6      0.08      0.00
   -5   16    6      2.50      0.00
   -4   16    6     -0.62      0.00
    0   16    6     -0.25      0.00
   -4  -16    7     -1.71      0.00
   -3  -16    7      1.26      0.00
   -2  -16    7      2.46      0.00
   -1  -16    7     -0.72      0.00
    0  -16    7     -1.72      0.00
    1  -16    7     -0.37      0.00
    2  -16    7      0.49      0.00
    4  -15    7      0.64      0.00
  -14   -7    7     -0.42      0.00
   12   -3    7      0.00      0.00
   12    0    7     -0.22      0.00
  -15    4    7      1.87      0.00
  -14    4    7      2.03      0.00
  -15    5    7     -0.92      0.00
  -14    5    7      1.85      0.00
  -15    6    7     -0.73      0.00
  -14    6    7      1.59      0.00
  -14    7    7      0.50      0.00
  -12   11    7     -0.63      0.00
  -11   12    7     -2.41      0.00
  -10   13    7     -0.54      0.00
   -9   14    7     -0.31      0.00
   -8   14    7     -0.88      0.00
    0   14    7     -0.44      0.00
   -7   15    7      0.52      0.00
   -6   15    7      1.12      0.00
    0   15    7      0.17      0.00
    1   15    7     -0.47      0.00
   -3  -16    8      0.40      0.00
   -2  -16    8      1.22      0.00
   -1  -16    8     -0.03      0.00
    0  -16    8     -1.25      0.00
   -6  -15    8      1.89      0.00
   -5  -15    8     -1.86      0.00
    2  -15    8     -0.22      0.00
    3  -15    8      0.76      0.00
    4  -15    8     -0.55      0.00
  -15   -4    8     -0.35      0.00
   -3   -2    8    -12.07      0.00
  -15    4    8      2.39      0.00
  -15    5    8     -0.21      0.00
  -13   10    8     -1.85      0.00
  -12   11    8      0.22      0.00
  -11   12    8     -1.79      0.00
  -10   13    8     -0.97      0.00
   -9   13    8     -0.36      0.00
   -8   14    8     -0.13      0.00
   -7   14    8      2.39      0.00
   -1   14    8     -1.84      0.00
    0   14    8     -1.31      0.00
   -6   15    8      1.53      0.00
   -5   15    8     -0.20      0.00
   -1   15    8      0.51      0.00
    0   15    8     -0.29      0.00
   -5  -15    9     -0.58      0.00
   -4  -15    9     -1.14      0.00
   -3  -15    9      1.13      0.00
   -2  -15    9      0.85      0.00
   -1  -15    9      0.59      0.00
    0  -15    9     -1.17      0.00
    1  -15    9     -0.47      0.00
    2  -15    9      0.56      0.00
   -7  -14    9      1.42      0.00
    9   -9    9      0.65      0.00
  -15    4    9      0.09      0.00
    9    6    9      1.33      0.00
  -13    9    9     -0.33      0.00
  -12   10    9     -1.21      0.00
  -11   11    9      0.13      0.00
  -10   12    9     -0.17      0.00
   -9   13    9      0.21      0.00
   -8   13    9      1.30      0.00
   -7   14    9      1.75      0.00
   -6   14    9     -1.24      0.00
   -2   14    9     -0.01      0.00
   -1   14    9     -2.38      0.00
    1   14    9      0.45      0.00
   -3  -15   10      0.01      0.00
   -2  -15   10     -0.68      0.00
   -1  -15   10      0.48      0.00
    0  -15   10     -0.22      0.00
   -6  -14   10      0.99      0.00
   -5  -14   10     -1.00      0.00
   -4  -14   10     -2.02      0.00
    2  -14   10      1.30      0.00
    3  -14   10      0.21      0.00
   -8  -13   10     -1.19      0.00
    6   -9   10     -0.60      0.00
  -15   -2   10      0.48      0.00
    9    4   10     -0.74      0.00
  -13    8   10      0.22      0.00
    7    8   10     -1.00      0.00
  -12   10   10      0.65      0.00
  -11   10   10      2.24      0.00
  -11   11   10      1.27      0.00
  -10   11   10      1.48      0.00
  -10   12   10     -0.86      0.00
   -9   12   10      3.15      0.00
   -8   13   10      0.18      0.00
   -7   13   10      0.14      0.00
   -5   14   10     -0.61      0.00
   -2   14   10     -1.27      0.00
   -5  -14   11      0.58      0.00
   -4  -14   11     -0.46      0.00
   -3  -14   11     -0.56      0.00
   -2  -14   11      0.59      0.00
   -1  -14   11      1.67      0.00
    0  -14   11     -0.66      0.00
    1  -14   11     -1.91      0.00
   -7  -13   11      0.50      0.00
   -6  -13   11      2.07      0.00
  -11  -10   11     -1.17      0.00
    9    0   11     -1.82      0.00
  -13    7   11      0.02      0.00
  -13    8   11      0.59      0.00
    6    8   11      0.68      0.00
  -12    9   11     -0.83      0.00
  -11   10   11      0.14      0.00
  -10   11   11      0.55      0.00
   -9   11   11     -1.58      0.00
   -9   12   11      1.71      0.00
   -8   12   11     -0.16      0.00
   -7   13   11      0.11      0.00
   -6   13   11      0.45      0.00
   -6  -13   12      0.65      0.00
   -5  -13   12      0.66      0.00
   -4  -13   12     -0.47      0.00
   -3  -13   12     -1.51      0.00
   -2  -13   12      0.72      0.00
   -1  -13   12      2.71      0.00
    0  -13   12     -1.65      0.00
    1  -13   12     -1.05      0.00
   -7  -12   12     -0.11      0.00
   -6  -12   12      1.72      0.00
   -9  -11   12      0.11      0.00
    7    0   12      2.85      0.00
    8    0   12      0.86      0.00
  -14    3   12      1.22      0.00
  -14    4   12     -0.70      0.00
  -13    6   12      2.04      0.00
  -12    7   12      0.00      0.00
  -12    8   12     -1.12      0.00
  -11    9   12     -0.32      0.00
  -10   10   12     -0.51      0.00
   -9   11   12     -0.52      0.00
   -8   11   12      2.03      0.00
   -7   12   12      0.32      0.00
   -6   12   12      0.68      0.00
   -6  -12   13      0.70      0.00
   -5  -12   13     -0.14      0.00
   -4  -12   13     -0.33      0.00
   -3  -12   13     -1.98      0.00
   -2  -12   13      1.69      0.00
   -1  -12   13      1.91      0.00
    0  -12   13     -1.62      0.00
    1  -12   13     -0.05      0.00
   -8  -11   13     -0.82      0.00
   -7  -11   13      0.29      0.00
   -6  -11   13      1.03      0.00
   -8  -10   13     -1.13      0.00
   -9   -7   13      0.39      0.00
    7   -3   13     -0.10      0.00
    4   -2   13     -4.22      0.00
    5   -2   13      2.69      0.00
    6   -2   13      1.79      0.00
    7   -2   13     -1.98      0.00
    5   -1   13      0.56      0.00
    6   -1   13      2.53      0.00
    7   -1   13      1.14      0.00
    6    0   13     -0.66      0.00
    7    0   13      0.75      0.00
  -13    4   13     -1.34      0.00
  -13    5   13     -0.45      0.00
  -12    6   13      0.19      0.00
  -12    7   13      0.89      0.00
  -11    7   13      0.50      0.00
  -11    8   13     -0.31      0.00
  -10    9   13      1.19      0.00
   -9    9   13      0.93      0.00
   -9   10   13      1.04      0.00
   -8   10   13      0.10      0.00
   -7   11   13      0.20      0.00
   -6  -11   14      0.37      0.00
   -5  -11   14      1.25      0.00
   -4  -11   14     -1.26      0.00
   -3  -11   14     -1.87      0.00
   -2  -11   14      1.25      0.00
   -1  -11   14      0.91      0.00
   -8  -10   14     -1.08      0.00
   -7  -10   14     -0.32      0.00
   -6  -10   14      1.67      0.00
   -9   -9   14      0.90      0.00
   -8   -9   14     -0.73      0.00
    1   -9   14      0.63      0.00
  -10   -8   14     -1.04      0.00
   -9   -8   14      1.02      0.00
    4   -8   14      1.88      0.00
  -11   -7   14      0.90      0.00
  -11   -6   14     -0.62      0.00
  -12   -5   14     -0.43      0.00
  -12   -4   14     -0.63      0.00
   -5   -4   14      0.08      0.00
    0   -4   14      1.56      0.00
    1   -4   14      2.63      0.00
    2   -4   14     -1.40      0.00
    3   -4   14     -3.04      0.00
    2   -3   14     -2.82      0.00
    3   -3   14      0.09      0.00
    4   -3   14      2.27      0.00
    5   -3   14     -1.13      0.00
  -13   -2   14     -1.69      0.00
    3   -2   14      0.43      0.00
    4   -2   14     -2.35      0.00
    5   -2   14      0.11      0.00
  -13   -1   14     -1.55      0.00
    5   -1   14      0.04      0.00
  -13    0   14     -0.72      0.00
  -13    1   14      1.04      0.00
  -13    2   14     -0.72      0.00
  -13    3   14      0.45      0.00
  -12    3   14     -0.28      0.00
  -12    4   14     -0.85      0.00
  -12    5   14     -0.57      0.00
  -11    6   14      0.61      0.00
  -11    7   14     -0.09      0.00
  -10    7   14     -0.45      0.00
  -10    8   14      0.65      0.00
   -9    8   14      0.18      0.00
   -9    9   14      0.69      0.00
   -8    9   14     -0.84      0.00
   -7   10   14     -0.25      0.00
   -6  -10   15      0.75      0.00
   -5  -10   15      0.97      0.00
   -4  -10   15     -0.94      0.00
   -3  -10   15     -0.40      0.00
   -2  -10   15      0.03      0.00
   -1  -10   15     -0.01      0.00
   -7   -9   15     -0.92      0.00
   -6   -9   15      1.39      0.00
   -5   -9   15      0.78      0.00
    1   -9   15     -0.10      0.00
   -9   -8   15      0.80      0.00
   -8   -8   15      0.76      0.00
   -7   -8   15     -0.64      0.00
  -10   -7   15     -0.51      0.00
   -9   -7   15     -0.38      0.00
    0   -7   15      0.00      0.00
    3   -7   15      0.05      0.00
  -10   -6   15      0.44      0.00
    0   -6   15      1.00      0.00
    1   -6   15     -1.91      0.00
  -11   -5   15     -1.05      0.00
  -10   -5   15     -0.01      0.00
    0   -5   15      0.70      0.00
    1   -5   15     -0.05      0.00
    2   -5   15      1.80      0.00
    3   -5   15     -0.46      0.00
  -11   -4   15     -0.35      0.00
    0   -4   15     -1.20      0.00
    1   -4   15      1.04      0.00
    2   -4   15      1.60      0.00
    3   -4   15     -2.21      0.00
    4   -4   15      0.25      0.00
  -12   -3   15      0.90      0.00
  -11   -3   15      0.46      0.00
    1   -3   15      2.44      0.00
    2   -3   15     -0.99      0.00
    3   -3   15     -1.51      0.00
    4   -3   15      1.48      0.00
  -12   -2   15      0.89      0.00
    2   -2   15     -1.89      0.00
    3   -2   15     -0.16      0.00
    4   -2   15      0.04      0.00
  -12   -1   15      0.04      0.00
    4   -1   15     -1.58      0.00
  -12    0   15     -1.24      0.00
  -12    1   15     -1.20      0.00
  -12    2   15      2.11      0.00
  -11    2   15     -0.32      0.00
    4    2   15      1.36      0.00
  -12    3   15     -0.45      0.00
  -11    3   15      0.34      0.00
  -11    4   15     -0.04      0.00
  -11    5   15      0.38      0.00
  -10    5   15      1.28      0.00
  -10    6   15      1.00      0.00
   -9    6   15     -0.85      0.00
   -9    7   15      0.24      0.00
   -8    8   15      0.44      0.00
   -3    9   15      0.69      0.00
   -4   -9   16     -0.55      0.00
   -3   -9   16     -0.16      0.00
   -7   -8   16     -0.56      0.00
   -6   -8   16     -0.08      0.00
   -5   -8   16      0.86      0.00
   -4   -8   16     -0.22      0.00
   -8   -7   16      0.57      0.00
   -7   -7   16      0.72      0.00
   -6   -7   16     -1.19      0.00
    0   -7   16      0.26      0.00
   -9   -6   16      0.34      0.00
   -8   -6   16     -0.42      0.00
   -1   -6   16      0.64      0.00
    0   -6   16      0.25      0.00
    1   -6   16     -0.46      0.00
  -10   -5   16     -0.36      0.00
   -9   -5   16      1.44      0.00
   -8   -5   16      1.19      0.00
   -1   -5   16      0.10      0.00
    0   -5   16      2.32      0.00
    1   -5   16     -0.75      0.00
    2   -5   16     -0.47      0.00
  -10   -4   16     -0.25      0.00
   -9   -4   16      0.60      0.00
   -1   -4   16      0.17      0.00
    0   -4   16     -1.36      0.00
    1   -4   16     -0.16      0.00
    2   -4   16      2.02      0.00
  -10   -3   16     -0.60      0.00
   -1   -3   16      1.06      0.00
    0   -3   16     -1.02      0.00
    1   -3   16      0.68      0.00
    2   -3   16      0.59      0.00
  -11   -2   16      0.00      0.00
  -10   -2   16     -0.28      0.00
   -2   -2   16     -1.41      0.00
    2   -2   16     -1.16      0.00
  -11   -1   16     -1.49      0.00
  -10   -1   16     -0.73      0.00
  -11    0   16      1.02      0.00
  -10    0   16     -0.33      0.00
  -11    1   16      0.96      0.00
  -10    1   16      1.02      0.00
  -11    2   16     -0.85      0.00
  -10    2   16     -1.32      0.00
  -10    3   16     -0.82      0.00
  -10    4   16     -0.57      0.00
   -9    4   16     -0.29      0.00
   -9    5   16     -1.04      0.00
   -8    5   16     -0.85      0.00
   -8    6   16     -1.10      0.00
   -7    7   16      0.36      0.00
   -6   -6   17      0.18      0.00
   -5   -6   17     -0.09      0.00
   -4   -6   17      0.22      0.00
   -8   -5   17      0.32      0.00
   -7   -5   17     -1.97      0.00
   -6   -5   17     -0.46      0.00
   -2   -5   17     -0.25      0.00
   -1   -5   17      0.35      0.00
   -8   -4   17      0.72      0.00
   -7   -4   17     -0.41      0.00
   -2   -4   17     -1.57      0.00
   -1   -4   17      0.35      0.00
    0   -4   17      0.46      0.00
   -9   -3   17      0.16      0.00
   -8   -3   17      0.34      0.00
   -7   -3   17     -0.01      0.00
   -2   -3   17      0.84      0.00
   -1   -3   17      1.78      0.00
    0   -3   17     -1.56      0.00
   -9   -2   17      0.22      0.00
   -8   -2   17      0.92      0.00
   -2   -2   17     -0.49      0.00
   -9   -1   17      0.87      0.00
   -8   -1   17      0.60      0.00
   -3   -1   17      2.54      0.00
   -9    0   17     -1.36      0.00
   -8    0   17      1.08      0.00
   -3    0   17      1.16      0.00
   -9    1   17     -0.99      0.00
   -8    1   17     -0.14      0.00
   -9    2   17      1.19      0.00
   -8    2   17     -0.58      0.00
    0    2   17     -1.28      0.00
   -8    3   17      0.50      0.00
   -8    4   17      0.62      0.00
   -7    4   17      0.67      0.00
   -6    5   17     -0.29      0.00
   -3    5   17      0.13      0.00
   -5   -3   18      0.72      0.00
   -4   -3   18      0.16      0.00
   -6   -2   18     -0.47      0.00
   -5   -2   18      0.91      0.00
   -3   -2   18     -0.88      0.00
   -6   -1   18     -0.68      0.00
   -3   -1   18      1.52      0.00
   -6    0   18     -1.29      0.00
   -4    0   18      1.02      0.00
   -3    0   18      1.04      0.00
   -6    1   18      0.76      0.00
   -4    1   18     -0.38      0.00
    0    0    0      0.00      0.00
# SQUEEZE RESULTS (Version = 130720)
# Note: Data are Listed for all Voids in the P1 Unit Cell
# i.e. Centre of Gravity, Solvent Accessible Volume,
# Recovered number of Electrons in the Void and
# Details about the Squeezed Material
loop_
  _platon_squeeze_void_nr
  _platon_squeeze_void_average_x
  _platon_squeeze_void_average_y
  _platon_squeeze_void_average_z
  _platon_squeeze_void_volume
  _platon_squeeze_void_count_electrons
  _platon_squeeze_void_content
   1  0.500  1.000  0.000       652       105 ' '
# Missing Reflections Below sin(th)/lambda = 0.25
loop_
  _platon_missing_refln_index_h
  _platon_missing_refln_index_k
  _platon_missing_refln_index_l
  _platon_missing_refln_theta
    1    0    0     1.769
   -1    1    0     2.234
    1    1    0     2.423
    0   -1    1     2.086
   -1    0    1     1.958
    0    0    1     1.542
   -1    1    1     2.453
    0    1    1     2.236
_platon_squeeze_void_probe_radius                  1.20
_platon_squeeze_details
)
TITL 210702ljj3_0m_a.res in P-1
CELL   12.1185   13.4888   13.8929     92.67    107.61     93.67
SPGR P-1
# Solvent Accessible Volume =       649
# Electrons Found in S.A.V. =       105
# Note: Atoms in Void are Labelled as Cxxx and Qxxx for all Others
C101 0.234 0.590 0.281 !      11.36 eA-3
C102 0.241 0.842 0.026 !      10.74 eA-3
Q103 0.735 0.794 0.178 !      10.23 eA-3
C104 0.252 0.780 0.111 !       9.29 eA-3
C105 0.268 0.706 0.100 !       9.26 eA-3
C106 0.219 0.941 0.036 !       8.17 eA-3
C107 0.655 0.739 0.102 !       7.01 eA-3
C108 0.760 0.208 0.068 !       6.12 eA-3
C109 0.375 0.202 0.005 !       5.04 eA-3
Q110 0.577 0.402 0.105 !       3.37 eA-3
Q111 0.566 0.380 0.182 !       2.83 eA-3
Q112 0.962 0.997 0.486 !       2.60 eA-3
Q113 0.603 0.452 0.210 !       1.98 eA-3
Q114 0.188 0.155 0.429 !       1.88 eA-3
Q115 0.599 0.483 0.127 !       1.78 eA-3
Q116 0.424 0.518 0.115 !       1.71 eA-3
Q117 0.126 0.200 0.438 !       1.60 eA-3
Q118 0.377 0.434 0.158 !       1.59 eA-3
Q119 0.964 0.997 0.271 !       1.58 eA-3
Q120 0.871 0.398 0.280 !       1.45 eA-3
Q121 0.954 0.593 0.113 !       1.40 eA-3
Q122 0.141 0.818 0.415 !       1.35 eA-3
Q123 0.911 0.634 0.044 !       1.34 eA-3
Q124 0.049 0.988 0.281 !       1.26 eA-3
Q125 0.110 0.482 0.060 !       1.21 eA-3
Q126 0.952 0.894 0.149 !       1.20 eA-3
Q127 0.151 0.507 0.487 !       1.15 eA-3
Q128 0.819 1.001 0.267 !       1.15 eA-3
Q129 0.097 0.786 0.350 !       1.15 eA-3
Q130 0.941 0.730 0.049 !       1.14 eA-3
Q131 0.927 0.445 0.283 !       1.12 eA-3
Q132 0.424 0.495 0.204 !       1.11 eA-3
Q133 0.484 0.408 0.278 !       1.08 eA-3
Q134 0.749 0.764 0.239 !       1.08 eA-3
Q135 0.531 0.658 0.342 !       1.08 eA-3
Q136 0.378 0.452 0.072 !       1.08 eA-3
Q137 0.137 0.385 0.202 !       1.08 eA-3
Q138 0.917 0.450 0.187 !       1.05 eA-3
Q139 0.878 0.599 0.253 !       1.05 eA-3
Q140 0.131 0.412 0.049 !       1.04 eA-3
Q141 0.330 0.093 0.254 !       1.04 eA-3
Q142 0.142 0.366 0.138 !       1.02 eA-3
Q143 0.564 0.309 0.474 !       1.02 eA-3
Q144 0.365 0.723 0.454 !       1.00 eA-3
C145 0.250 0.826 0.166 !       0.99 eA-3
Q146 0.864 0.222 0.454 !       0.99 eA-3
C147 0.840 0.025 0.038 !       0.98 eA-3
Q148 0.636 0.315 0.377 !       0.98 eA-3
Q149 0.395 0.412 0.421 !       0.96 eA-3
Q150 0.909 0.554 0.291 !       0.95 eA-3
Q151 0.907 0.309 0.300 !       0.95 eA-3
Q152 0.159 0.623 0.282 !       0.94 eA-3
Q153 0.036 0.879 0.169 !       0.94 eA-3
Q154 0.491 0.883 0.436 !       0.93 eA-3
Q155 0.529 0.655 0.436 !       0.93 eA-3
Q156 0.283 0.875 0.428 !       0.93 eA-3
Q157 0.338 0.452 0.347 !       0.92 eA-3
Q158 0.800 0.937 0.205 !       0.89 eA-3
Q159 0.452 0.362 0.502 !       0.89 eA-3
Q160 0.501 0.097 0.243 !       0.88 eA-3
C161 0.687 0.665 0.107 !       0.87 eA-3
Q162 0.580 0.753 0.364 !       0.87 eA-3
Q163 0.342 0.516 0.036 !       0.86 eA-3
Q164 0.183 0.325 0.496 !       0.84 eA-3
Q165 0.961 0.125 0.394 !       0.84 eA-3
Q166 0.651 0.882 0.144 !       0.83 eA-3
Q167 0.938 0.860 0.375 !       0.83 eA-3
Q168 0.761 0.892 0.179 !       0.83 eA-3
Q169 0.327 0.408 0.504 !       0.81 eA-3
Q170 0.094 0.667 0.433 !       0.81 eA-3
Q171 0.359 0.539 0.067 !       0.80 eA-3
Q172 0.187 0.973 0.283 !       0.80 eA-3
C173 0.690 0.240 0.048 !       0.80 eA-3
Q174 0.578 0.342 0.423 !       0.80 eA-3
Q175 0.996 0.129 0.190 !       0.79 eA-3
Q176 0.500 0.154 0.242 !       0.78 eA-3
Q177 0.456 0.687 0.330 !       0.78 eA-3
Q178 0.126 0.230 0.298 !       0.77 eA-3
Q179 0.035 0.125 0.024 !       0.76 eA-3
Q180 0.319 0.449 0.187 !       0.76 eA-3
Q181 0.842 0.217 0.374 !       0.76 eA-3
Q182 0.648 0.353 0.253 !       0.75 eA-3
Q183 0.874 0.311 0.497 !       0.75 eA-3
Q184 0.122 0.327 0.491 !       0.75 eA-3
Q185 0.814 0.948 0.408 !       0.75 eA-3
Q186 0.845 0.721 0.336 !       0.74 eA-3
Q187 0.500 0.500 0.000 !       0.73 eA-3
Q188 0.202 0.018 0.362 !       0.72 eA-3
C189 0.218 0.955 0.113 !       0.72 eA-3
Q190 0.199 0.516 0.270 !       0.72 eA-3
Q191 0.515 0.447 0.069 !       0.70 eA-3
Q192 0.387 0.041 0.265 !       0.70 eA-3
Q193 0.523 0.475 0.045 !       0.70 eA-3
Q194 0.670 0.115 0.309 !       0.70 eA-3
Q195 0.298 0.095 0.488 !       0.69 eA-3
Q196 0.849 0.475 0.217 !       0.69 eA-3
Q197 0.841 0.424 0.410 !       0.69 eA-3
Q198 0.079 0.297 0.115 !       0.68 eA-3
Q199 0.305 0.562 0.267 !       0.68 eA-3
)
;
_shelx_fab_checksum              36736
loop_
_space_group_symop_operation_xyz
'x, y, z'
'-x, -y, -z'
loop_
_atom_site_label
_atom_site_type_symbol
_atom_site_fract_x
_atom_site_fract_y
_atom_site_fract_z
_atom_site_U_iso_or_equiv
_atom_site_adp_type
_atom_site_occupancy
_atom_site_site_symmetry_order
_atom_site_calc_flag
_atom_site_refinement_flags_posn
_atom_site_refinement_flags_adp
_atom_site_refinement_flags_occupancy
_atom_site_disorder_assembly
_atom_site_disorder_group
Zn2 Zn 0.00771(2) -0.00329(2) 0.27746(2) 0.00738(7) Uani 1 1 d . . . . .
Zn1 Zn 0.0000 0.0000 0.5000 0.00889(9) Uani 1 2 d S . P . .
Zn3 Zn 0.15828(2) 0.18315(2) 0.42846(2) 0.00794(7) Uani 1 1 d . . . . .
Zn4 Zn 0.87961(2) 0.19542(2) 0.61903(2) 0.00794(7) Uani 1 1 d . . . . .
O1 O 0.01415(14) 0.09941(12) 0.39904(12) 0.0077(3) Uani 1 1 d D . . . .
H1A H -0.0424(17) 0.1355(18) 0.390(2) 0.012 Uiso 1 1 d D U . . .
O11 O 0.99362(14) 0.10369(12) 0.61122(12) 0.0083(3) Uani 1 1 d D . . . .
H11A H 1.0547(15) 0.1416(17) 0.620(2) 0.012 Uiso 1 1 d D U . . .
O4 O 0.29791(14) 0.12693(13) 0.51090(13) 0.0119(3) Uani 1 1 d . . . . .
O3 O 0.16028(15) 0.22759(13) 0.29609(12) 0.0124(4) Uani 1 1 d . . . . .
O5 O 0.19517(14) 0.01700(13) 0.57376(12) 0.0113(3) Uani 1 1 d . . . . .
O2 O 0.03089(15) 0.11079(12) 0.19281(12) 0.0120(3) Uani 1 1 d . . . . .
O12 O 0.86865(15) 0.32148(13) 0.55242(13) 0.0144(4) Uani 1 1 d . . . . .
O15 O 0.83348(15) 0.74252(13) 0.35891(13) 0.0142(4) Uani 1 1 d . . . . .
O10 O -0.05017(15) 0.25400(13) -0.23760(12) 0.0130(4) Uani 1 1 d . . . . .
O8 O 0.80752(14) 0.00079(13) 0.67686(14) 0.0148(4) Uani 1 1 d . . . . .
O14 O 0.84799(15) 0.68301(13) 0.50943(13) 0.0138(4) Uani 1 1 d . . . . .
O13 O 0.84686(15) 0.21985(13) 0.41569(14) 0.0160(4) Uani 1 1 d . . . . .
O6 O -0.17625(15) -0.00638(14) 0.22838(14) 0.0172(4) Uani 1 1 d . . . . .
O9 O 0.00305(16) 0.11122(13) -0.16575(13) 0.0160(4) Uani 1 1 d . . . . .
O7 O 0.72482(14) 0.13693(13) 0.61349(13) 0.0130(4) Uani 1 1 d . . . . .
N1 N 0.51935(19) 0.65763(17) 0.46852(18) 0.0192(5) Uani 1 1 d . . . . .
C17 C 0.8623(2) 0.30440(18) 0.45903(19) 0.0119(5) Uani 1 1 d . . . . .
C1 C 0.0940(2) 0.19140(18) 0.21088(17) 0.0098(5) Uani 1 1 d . . . . .
C24 C 0.8458(2) 0.67276(18) 0.41680(18) 0.0108(5) Uani 1 1 d . . . . .
C8 C -0.0065(2) 0.20326(18) -0.16286(18) 0.0115(5) Uani 1 1 d . . . . .
C22 C 0.8600(2) 0.57025(18) 0.37871(18) 0.0109(5) Uani 1 1 d . . . . .
C18 C 0.8709(2) 0.39383(18) 0.40040(18) 0.0107(5) Uani 1 1 d . . . . .
C23 C 0.8577(2) 0.48889(18) 0.43668(18) 0.0106(5) Uani 1 1 d . . . . .
H23 H 0.8469 0.4984 0.5013 0.013 Uiso 1 1 calc R U . . .
C4 C 0.0356(2) 0.25802(18) -0.06001(18) 0.0105(5) Uani 1 1 d . . . . .
C3 C 0.0522(2) 0.20357(18) 0.02488(18) 0.0102(5) Uani 1 1 d . . . . .
H3 H 0.0391 0.1330 0.0170 0.012 Uiso 1 1 calc R U . . .
C2 C 0.0880(2) 0.25183(18) 0.12182(18) 0.0107(5) Uani 1 1 d . . . . .
C19 C 0.8913(2) 0.38034(19) 0.30720(19) 0.0155(5) Uani 1 1 d . . . . .
H19 H 0.9015 0.3158 0.2826 0.019 Uiso 1 1 calc R U . . .
C7 C 0.1112(2) 0.35488(19) 0.13313(18) 0.0137(5) Uani 1 1 d . . . . .
H7 H 0.1378 0.3878 0.1989 0.016 Uiso 1 1 calc R U . . .
C9 C 0.2883(2) 0.05462(18) 0.56415(17) 0.0101(5) Uani 1 1 d . . . . .
C5 C 0.0556(2) 0.36171(18) -0.04813(18) 0.0132(5) Uani 1 1 d . . . . .
H5 H 0.0420 0.3995 -0.1060 0.016 Uiso 1 1 calc R U . . .
C10 C 0.4001(2) 0.01142(18) 0.61927(17) 0.0096(5) Uani 1 1 d . . . . .
C21 C 0.8789(2) 0.55603(19) 0.28498(19) 0.0158(5) Uani 1 1 d . . . . .
H21 H 0.8797 0.6109 0.2447 0.019 Uiso 1 1 calc R U . . .
C6 C 0.0956(2) 0.40967(19) 0.04858(19) 0.0172(5) Uani 1 1 d . . . . .
H6 H 0.1122 0.4799 0.0566 0.021 Uiso 1 1 calc R U . . .
C15 C 0.5055(2) 0.05156(18) 0.61081(17) 0.0099(5) Uani 1 1 d . . . . .
H15 H 0.5071 0.1079 0.5725 0.012 Uiso 1 1 calc R U . . .
C16 C 0.7222(2) 0.05131(18) 0.64904(17) 0.0103(5) Uani 1 1 d . . . . .
C29 C 0.5138(2) 0.6073(2) 0.6597(2) 0.0185(6) Uani 1 1 d . . . . .
C20 C 0.8964(2) 0.4618(2) 0.2503(2) 0.0196(6) Uani 1 1 d . . . . .
H20 H 0.9120 0.4530 0.1876 0.024 Uiso 1 1 calc R U . . .
C26 C 0.6045(2) 0.6068(2) 0.5271(2) 0.0223(6) Uani 1 1 d . . . . .
H26 H 0.6660 0.5885 0.5026 0.027 Uiso 1 1 calc R U . . .
C14 C 0.6083(2) 0.00945(18) 0.65830(18) 0.0101(5) Uani 1 1 d . . . . .
C31 C 0.5096(2) 0.5782(2) 0.7596(2) 0.0197(6) Uani 1 1 d . . . . .
C28 C 0.6032(2) 0.5816(2) 0.6208(2) 0.0230(6) Uani 1 1 d . . . . .
H28 H 0.6641 0.5459 0.6605 0.028 Uiso 1 1 calc R U . . .
C11 C 0.3977(2) -0.07126(19) 0.67581(19) 0.0139(5) Uani 1 1 d . . . . .
H11 H 0.3260 -0.0995 0.6810 0.017 Uiso 1 1 calc R U . . .
C34 C 0.5017(2) 0.5163(2) 0.9502(2) 0.0209(6) Uani 1 1 d . . . . .
C13 C 0.6056(2) -0.07303(19) 0.71472(19) 0.0145(5) Uani 1 1 d . . . . .
H13 H 0.6753 -0.1026 0.7465 0.017 Uiso 1 1 calc R U . . .
C12 C 0.5011(2) -0.11193(19) 0.7245(2) 0.0159(5) Uani 1 1 d . . . . .
H12 H 0.5000 -0.1668 0.7647 0.019 Uiso 1 1 calc R U . . .
C30 C 0.4287(2) 0.6614(2) 0.5969(2) 0.0233(6) Uani 1 1 d . . . . .
H30 H 0.3671 0.6822 0.6201 0.028 Uiso 1 1 calc R U . . .
C25 C 0.4325(2) 0.6851(2) 0.5026(2) 0.0239(6) Uani 1 1 d . . . . .
H25 H 0.3733 0.7212 0.4613 0.029 Uiso 1 1 calc R U . . .
C27 C 0.5234(3) 0.6831(2) 0.3669(2) 0.0235(6) Uani 1 1 d . . . . .
H27A H 0.5921 0.6575 0.3546 0.035 Uiso 1 1 calc R U . . .
H27B H 0.4532 0.6531 0.3153 0.035 Uiso 1 1 calc R U . . .
H27C H 0.5274 0.7556 0.3637 0.035 Uiso 1 1 calc R U . . .
C35 C 0.5943(3) 0.5028(3) 0.9152(3) 0.0406(9) Uani 1 1 d . . . . .
H35 H 0.6582 0.4714 0.9564 0.049 Uiso 1 1 calc R U . . .
C36 C 0.5989(3) 0.5324(3) 0.8233(3) 0.0389(9) Uani 1 1 d . . . . .
H36 H 0.6656 0.5211 0.8032 0.047 Uiso 1 1 calc R U . . .
C32 C 0.4150(3) 0.5898(4) 0.7930(3) 0.0704(17) Uani 1 1 d . . . . .
H32 H 0.3499 0.6190 0.7508 0.084 Uiso 1 1 calc R U . . .
C33 C 0.4116(3) 0.5601(4) 0.8861(3) 0.0726(17) Uani 1 1 d . . . . .
H33 H 0.3447 0.5704 0.9062 0.087 Uiso 1 1 calc R U . . .
loop_
_atom_site_aniso_label
_atom_site_aniso_U_11
_atom_site_aniso_U_22
_atom_site_aniso_U_33
_atom_site_aniso_U_23
_atom_site_aniso_U_13
_atom_site_aniso_U_12
Zn2 0.00933(13) 0.00641(13) 0.00683(13) 0.00106(10) 0.00322(10) -0.00026(10)
Zn1 0.01357(19) 0.00710(19) 0.00772(18) 0.00120(14) 0.00580(15) 0.00039(15)
Zn3 0.00915(13) 0.00725(14) 0.00710(13) 0.00162(10) 0.00215(10) -0.00082(10)
Zn4 0.00861(13) 0.00732(14) 0.00863(13) 0.00215(10) 0.00345(10) 0.00105(10)
O1 0.0078(8) 0.0075(8) 0.0081(8) 0.0011(6) 0.0027(6) 0.0013(6)
O11 0.0091(8) 0.0074(8) 0.0092(8) 0.0004(6) 0.0043(6) -0.0010(6)
O4 0.0094(8) 0.0127(9) 0.0134(8) 0.0044(7) 0.0029(7) 0.0000(7)
O3 0.0170(9) 0.0117(9) 0.0081(8) 0.0020(7) 0.0035(7) -0.0015(7)
O5 0.0070(8) 0.0141(9) 0.0132(8) 0.0021(7) 0.0035(7) -0.0003(7)
O2 0.0153(9) 0.0099(9) 0.0107(8) 0.0030(7) 0.0038(7) -0.0005(7)
O12 0.0188(9) 0.0107(9) 0.0142(9) 0.0055(7) 0.0050(7) 0.0024(7)
O15 0.0174(9) 0.0081(9) 0.0170(9) 0.0031(7) 0.0054(7) -0.0014(7)
O10 0.0174(9) 0.0131(9) 0.0079(8) 0.0008(7) 0.0027(7) 0.0019(7)
O8 0.0088(8) 0.0137(9) 0.0235(10) 0.0053(7) 0.0066(7) 0.0026(7)
O14 0.0207(9) 0.0090(9) 0.0122(8) -0.0001(7) 0.0061(7) -0.0001(7)
O13 0.0152(9) 0.0082(9) 0.0247(10) 0.0008(7) 0.0062(8) 0.0011(7)
O6 0.0107(9) 0.0199(10) 0.0205(9) 0.0056(8) 0.0038(7) -0.0002(7)
O9 0.0294(10) 0.0091(9) 0.0100(8) -0.0002(7) 0.0072(8) 0.0001(7)
O7 0.0092(8) 0.0123(9) 0.0183(9) 0.0055(7) 0.0047(7) 0.0003(7)
N1 0.0148(11) 0.0140(11) 0.0259(12) -0.0020(9) 0.0037(9) -0.0061(9)
C17 0.0061(11) 0.0107(12) 0.0186(13) 0.0031(10) 0.0030(9) 0.0006(9)
C1 0.0115(11) 0.0107(12) 0.0089(11) 0.0020(9) 0.0049(9) 0.0026(9)
C24 0.0086(11) 0.0100(12) 0.0145(12) 0.0020(9) 0.0049(9) -0.0016(9)
C8 0.0123(12) 0.0132(12) 0.0114(12) 0.0018(9) 0.0075(9) -0.0015(9)
C22 0.0112(11) 0.0100(12) 0.0116(11) 0.0002(9) 0.0044(9) -0.0021(9)
C18 0.0090(11) 0.0100(12) 0.0128(12) 0.0020(9) 0.0029(9) 0.0003(9)
C23 0.0095(11) 0.0121(12) 0.0104(11) 0.0027(9) 0.0032(9) 0.0009(9)
C4 0.0105(11) 0.0108(12) 0.0107(11) 0.0026(9) 0.0038(9) 0.0003(9)
C3 0.0126(11) 0.0067(11) 0.0121(11) 0.0009(9) 0.0050(9) 0.0002(9)
C2 0.0120(11) 0.0116(12) 0.0091(11) 0.0016(9) 0.0040(9) 0.0005(9)
C19 0.0202(13) 0.0111(12) 0.0182(13) -0.0007(10) 0.0105(11) 0.0014(10)
C7 0.0194(13) 0.0120(12) 0.0094(11) -0.0007(9) 0.0044(10) -0.0007(10)
C9 0.0117(11) 0.0088(12) 0.0099(11) -0.0025(9) 0.0043(9) 0.0001(9)
C5 0.0221(13) 0.0110(12) 0.0084(11) 0.0048(9) 0.0067(10) 0.0022(10)
C10 0.0085(11) 0.0099(12) 0.0100(11) 0.0010(9) 0.0021(9) 0.0012(9)
C21 0.0231(14) 0.0114(13) 0.0160(13) 0.0038(10) 0.0109(11) -0.0017(10)
C6 0.0272(14) 0.0089(12) 0.0153(13) 0.0010(10) 0.0066(11) -0.0002(10)
C15 0.0119(11) 0.0087(12) 0.0093(11) 0.0004(9) 0.0038(9) -0.0009(9)
C16 0.0098(11) 0.0116(12) 0.0082(11) -0.0023(9) 0.0017(9) -0.0010(9)
C29 0.0115(12) 0.0170(14) 0.0250(14) -0.0045(11) 0.0042(10) -0.0027(10)
C20 0.0284(15) 0.0162(14) 0.0199(13) -0.0006(11) 0.0167(12) -0.0008(11)
C26 0.0118(13) 0.0236(15) 0.0309(16) -0.0013(12) 0.0067(11) -0.0012(11)
C14 0.0100(11) 0.0101(12) 0.0106(11) -0.0006(9) 0.0041(9) 0.0004(9)
C31 0.0117(12) 0.0220(15) 0.0231(14) -0.0062(11) 0.0032(11) 0.0003(11)
C28 0.0137(13) 0.0252(16) 0.0284(15) 0.0001(12) 0.0038(11) 0.0029(11)
C11 0.0105(12) 0.0132(13) 0.0187(13) 0.0042(10) 0.0055(10) -0.0011(9)
C34 0.0155(13) 0.0248(15) 0.0217(14) -0.0028(12) 0.0056(11) 0.0003(11)
C13 0.0107(12) 0.0142(13) 0.0182(13) 0.0049(10) 0.0033(10) 0.0023(10)
C12 0.0132(12) 0.0142(13) 0.0210(13) 0.0087(10) 0.0050(10) 0.0009(10)
C30 0.0176(14) 0.0232(15) 0.0296(16) -0.0003(12) 0.0078(12) 0.0039(11)
C25 0.0160(13) 0.0202(15) 0.0341(16) 0.0008(12) 0.0053(12) 0.0042(11)
C27 0.0229(15) 0.0179(14) 0.0279(15) 0.0015(12) 0.0063(12) -0.0040(11)
C35 0.0338(19) 0.055(2) 0.045(2) 0.0266(18) 0.0217(16) 0.0316(17)
C36 0.0320(18) 0.053(2) 0.046(2) 0.0238(18) 0.0258(16) 0.0272(17)
C32 0.030(2) 0.160(5) 0.036(2) 0.042(3) 0.0182(17) 0.054(3)
C33 0.028(2) 0.170(5) 0.036(2) 0.043(3) 0.0204(17) 0.052(3)
loop_
_atom_type_symbol
_atom_type_description
_atom_type_scat_dispersion_real
_atom_type_scat_dispersion_imag
_atom_type_scat_source
C C 0.0033 0.0016 'International Tables Vol C Tables 4.2.6.8 and 6.1.1.4'
H H 0.0000 0.0000 'International Tables Vol C Tables 4.2.6.8 and 6.1.1.4'
O O 0.0106 0.0060 'International Tables Vol C Tables 4.2.6.8 and 6.1.1.4'
N N 0.0061 0.0033 'International Tables Vol C Tables 4.2.6.8 and 6.1.1.4'
Zn Zn 0.2839 1.4301 'International Tables Vol C Tables 4.2.6.8 and 6.1.1.4'
loop_
_geom_angle_atom_site_label_1
_geom_angle_atom_site_label_2
_geom_angle_atom_site_label_3
_geom_angle
_geom_angle_site_symmetry_1
_geom_angle_site_symmetry_3
_geom_angle_publ_flag
O2 Zn2 O9 94.07(7) . 2 ?
O2 Zn2 O11 168.76(7) . 2_656 ?
O9 Zn2 O11 95.04(7) 2 2_656 ?
O2 Zn2 O1 90.35(6) . . ?
O9 Zn2 O1 175.49(7) 2 . ?
O11 Zn2 O1 80.67(6) 2_656 . ?
O2 Zn2 O6 94.74(7) . . ?
O9 Zn2 O6 88.96(7) 2 . ?
O11 Zn2 O6 91.99(7) 2_656 . ?
O1 Zn2 O6 89.78(7) . . ?
O2 Zn2 O8 84.55(7) . 2_656 ?
O9 Zn2 O8 89.93(7) 2 2_656 ?
O11 Zn2 O8 88.89(6) 2_656 2_656 ?
O1 Zn2 O8 91.38(7) . 2_656 ?
O6 Zn2 O8 178.64(7) . 2_656 ?
O2 Zn2 Zn1 130.23(5) . . ?
O9 Zn2 Zn1 135.69(5) 2 . ?
O11 Zn2 Zn1 40.89(4) 2_656 . ?
O1 Zn2 Zn1 39.93(4) . . ?
O6 Zn2 Zn1 88.46(5) . . ?
O8 Zn2 Zn1 92.88(5) 2_656 . ?
O1 Zn1 O1 180.0 2_556 . ?
O1 Zn1 O11 95.96(6) 2_556 2_656 ?
O1 Zn1 O11 84.04(6) . 2_656 ?
O1 Zn1 O11 84.04(6) 2_556 1_455 ?
O1 Zn1 O11 95.96(6) . 1_455 ?
O11 Zn1 O11 180.0 2_656 1_455 ?
O1 Zn1 O5 89.64(6) 2_556 . ?
O1 Zn1 O5 90.35(6) . . ?
O11 Zn1 O5 94.25(6) 2_656 . ?
O11 Zn1 O5 85.75(6) 1_455 . ?
O1 Zn1 O5 90.35(6) 2_556 2_556 ?
O1 Zn1 O5 89.65(6) . 2_556 ?
O11 Zn1 O5 85.75(6) 2_656 2_556 ?
O11 Zn1 O5 94.25(6) 1_455 2_556 ?
O5 Zn1 O5 180.00(9) . 2_556 ?
O1 Zn1 Zn2 42.14(5) 2_556 2_556 ?
O1 Zn1 Zn2 137.86(5) . 2_556 ?
O11 Zn1 Zn2 137.94(5) 2_656 2_556 ?
O11 Zn1 Zn2 42.06(5) 1_455 2_556 ?
O5 Zn1 Zn2 84.05(4) . 2_556 ?
O5 Zn1 Zn2 95.95(4) 2_556 2_556 ?
O1 Zn1 Zn2 137.86(5) 2_556 . ?
O1 Zn1 Zn2 42.14(5) . . ?
O11 Zn1 Zn2 42.06(5) 2_656 . ?
O11 Zn1 Zn2 137.94(5) 1_455 . ?
O5 Zn1 Zn2 95.95(4) . . ?
O5 Zn1 Zn2 84.05(4) 2_556 . ?
Zn2 Zn1 Zn2 180.0 2_556 . ?
O1 Zn3 O4 116.10(7) . . ?
O1 Zn3 O3 104.46(7) . . ?
O4 Zn3 O3 117.02(7) . . ?
O1 Zn3 O14 113.57(7) . 2_666 ?
O4 Zn3 O14 107.90(7) . 2_666 ?
O3 Zn3 O14 96.25(7) . 2_666 ?
O11 Zn4 O7 116.93(7) . . ?
O11 Zn4 O12 121.87(7) . . ?
O7 Zn4 O12 110.92(7) . . ?
O11 Zn4 O10 100.44(7) . 1_656 ?
O7 Zn4 O10 104.76(7) . 1_656 ?
O12 Zn4 O10 97.32(7) . 1_656 ?
Zn3 O1 Zn1 118.08(8) . . ?
Zn3 O1 Zn2 107.21(7) . . ?
Zn1 O1 Zn2 97.93(7) . . ?
Zn3 O1 H1A 109.7(19) . . ?
Zn1 O1 H1A 107.7(19) . . ?
Zn2 O1 H1A 116.1(19) . . ?
Zn4 O11 Zn1 132.41(8) . 1_655 ?
Zn4 O11 Zn2 104.77(7) . 2_656 ?
Zn1 O11 Zn2 97.05(7) 1_655 2_656 ?
Zn4 O11 H11A 103.2(19) . . ?
Zn1 O11 H11A 103.1(19) 1_655 . ?
Zn2 O11 H11A 117.7(19) 2_656 . ?
C9 O4 Zn3 119.63(15) . . ?
C1 O3 Zn3 125.55(16) . . ?
C9 O5 Zn1 143.25(16) . . ?
C1 O2 Zn2 134.37(15) . . ?
C17 O12 Zn4 109.53(15) . . ?
C8 O10 Zn4 123.99(16) . 1_454 ?
C16 O8 Zn2 145.51(17) . 2_656 ?
C24 O14 Zn3 119.92(16) . 2_666 ?
C8 O9 Zn2 135.01(16) . 2 ?
C16 O7 Zn4 115.58(15) . . ?
C25 N1 C26 120.2(3) . . ?
C25 N1 C27 120.5(2) . . ?
C26 N1 C27 119.4(2) . . ?
O13 C17 O12 123.8(2) . . ?
O13 C17 C18 119.6(2) . . ?
O12 C17 C18 116.6(2) . . ?
O2 C1 O3 127.1(2) . . ?
O2 C1 C2 116.1(2) . . ?
O3 C1 C2 116.7(2) . . ?
O15 C24 O14 123.9(2) . . ?
O15 C24 C22 119.9(2) . . ?
O14 C24 C22 116.1(2) . . ?
O9 C8 O10 126.5(2) . . ?
O9 C8 C4 116.5(2) . . ?
O10 C8 C4 117.0(2) . . ?
C23 C22 C21 119.4(2) . . ?
C23 C22 C24 121.0(2) . . ?
C21 C22 C24 119.6(2) . . ?
C23 C18 C19 119.8(2) . . ?
C23 C18 C17 121.3(2) . . ?
C19 C18 C17 118.8(2) . . ?
C18 C23 C22 120.4(2) . . ?
C18 C23 H23 119.8 . . ?
C22 C23 H23 119.8 . . ?
C3 C4 C5 119.6(2) . . ?
C3 C4 C8 118.6(2) . . ?
C5 C4 C8 121.8(2) . . ?
C4 C3 C2 120.4(2) . . ?
C4 C3 H3 119.8 . . ?
C2 C3 H3 119.8 . . ?
C7 C2 C3 119.6(2) . . ?
C7 C2 C1 121.6(2) . . ?
C3 C2 C1 118.8(2) . . ?
C20 C19 C18 119.8(2) . . ?
C20 C19 H19 120.1 . . ?
C18 C19 H19 120.1 . . ?
C6 C7 C2 120.2(2) . . ?
C6 C7 H7 119.9 . . ?
C2 C7 H7 119.9 . . ?
O5 C9 O4 125.8(2) . . ?
O5 C9 C10 118.4(2) . . ?
O4 C9 C10 115.8(2) . . ?
C6 C5 C4 120.0(2) . . ?
C6 C5 H5 120.0 . . ?
C4 C5 H5 120.0 . . ?
C15 C10 C11 119.9(2) . . ?
C15 C10 C9 120.1(2) . . ?
C11 C10 C9 120.0(2) . . ?
C20 C21 C22 120.2(2) . . ?
C20 C21 H21 119.9 . . ?
C22 C21 H21 119.9 . . ?
C7 C6 C5 120.0(2) . . ?
C7 C6 H6 120.0 . . ?
C5 C6 H6 120.0 . . ?
C14 C15 C10 120.3(2) . . ?
C14 C15 H15 119.9 . . ?
C10 C15 H15 119.9 . . ?
O8 C16 O7 124.6(2) . . ?
O8 C16 C14 118.0(2) . . ?
O7 C16 C14 117.4(2) . . ?
C30 C29 C28 115.6(3) . . ?
C30 C29 C31 122.5(2) . . ?
C28 C29 C31 121.8(2) . . ?
C21 C20 C19 120.2(2) . . ?
C21 C20 H20 119.9 . . ?
C19 C20 H20 119.9 . . ?
N1 C26 C28 121.0(3) . . ?
N1 C26 H26 119.5 . . ?
C28 C26 H26 119.5 . . ?
C15 C14 C13 119.6(2) . . ?
C15 C14 C16 120.8(2) . . ?
C13 C14 C16 119.5(2) . . ?
C36 C31 C32 115.7(3) . . ?
C36 C31 C29 121.4(3) . . ?
C32 C31 C29 122.8(3) . . ?
C26 C28 C29 121.2(3) . . ?
C26 C28 H28 119.4 . . ?
C29 C28 H28 119.4 . . ?
C12 C11 C10 119.5(2) . . ?
C12 C11 H11 120.2 . . ?
C10 C11 H11 120.2 . . ?
C35 C34 C33 115.5(3) . . ?
C35 C34 C34 122.2(3) . 2_667 ?
C33 C34 C34 122.3(3) . 2_667 ?
C12 C13 C14 120.1(2) . . ?
C12 C13 H13 120.0 . . ?
C14 C13 H13 120.0 . . ?
C13 C12 C11 120.6(2) . . ?
C13 C12 H12 119.7 . . ?
C11 C12 H12 119.7 . . ?
C25 C30 C29 121.5(3) . . ?
C25 C30 H30 119.3 . . ?
C29 C30 H30 119.3 . . ?
N1 C25 C30 120.5(3) . . ?
N1 C25 H25 119.8 . . ?
C30 C25 H25 119.8 . . ?
N1 C27 H27A 109.5 . . ?
N1 C27 H27B 109.5 . . ?
H27A C27 H27B 109.5 . . ?
N1 C27 H27C 109.5 . . ?
H27A C27 H27C 109.5 . . ?
H27B C27 H27C 109.5 . . ?
C34 C35 C36 123.0(3) . . ?
C34 C35 H35 118.5 . . ?
C36 C35 H35 118.5 . . ?
C35 C36 C31 121.7(3) . . ?
C35 C36 H36 119.1 . . ?
C31 C36 H36 119.1 . . ?
C31 C32 C33 122.0(3) . . ?
C31 C32 H32 119.0 . . ?
C33 C32 H32 119.0 . . ?
C34 C33 C32 122.0(3) . . ?
C34 C33 H33 119.0 . . ?
C32 C33 H33 119.0 . . ?
loop_
_geom_bond_atom_site_label_1
_geom_bond_atom_site_label_2
_geom_bond_distance
_geom_bond_site_symmetry_2
_geom_bond_publ_flag
Zn2 O2 2.0354(17) . ?
Zn2 O9 2.0465(17) 2 ?
Zn2 O11 2.1057(16) 2_656 ?
Zn2 O1 2.1134(16) . ?
Zn2 O6 2.1218(17) . ?
Zn2 O8 2.1321(17) 2_656 ?
Zn2 Zn1 3.1196(4) . ?
Zn1 O1 2.0214(16) 2_556 ?
Zn1 O1 2.0215(16) . ?
Zn1 O11 2.0577(16) 2_656 ?
Zn1 O11 2.0577(16) 1_455 ?
Zn1 O5 2.2669(16) . ?
Zn1 O5 2.2669(16) 2_556 ?
Zn1 Zn2 3.1195(4) 2_556 ?
Zn3 O1 1.9406(16) . ?
Zn3 O4 1.9552(16) . ?
Zn3 O3 1.9672(17) . ?
Zn3 O14 1.9803(17) 2_666 ?
Zn4 O11 1.9362(16) . ?
Zn4 O7 1.9659(17) . ?
Zn4 O12 1.9663(17) . ?
Zn4 O10 2.0144(17) 1_656 ?
O1 H1A 0.848(10) . ?
O11 Zn1 2.0577(16) 1_655 ?
O11 Zn2 2.1057(16) 2_656 ?
O11 H11A 0.846(10) . ?
O4 C9 1.272(3) . ?
O3 C1 1.267(3) . ?
O5 C9 1.254(3) . ?
O2 C1 1.258(3) . ?
O12 C17 1.285(3) . ?
O15 C24 1.253(3) . ?
O10 C8 1.268(3) . ?
O10 Zn4 2.0143(17) 1_454 ?
O8 C16 1.247(3) . ?
O8 Zn2 2.1321(17) 2_656 ?
O14 C24 1.280(3) . ?
O14 Zn3 1.9803(17) 2_666 ?
O13 C17 1.240(3) . ?
O9 C8 1.254(3) . ?
O9 Zn2 2.0465(17) 2 ?
O7 C16 1.279(3) . ?
N1 C25 1.343(4) . ?
N1 C26 1.352(4) . ?
N1 C27 1.483(4) . ?
C17 C18 1.502(3) . ?
C1 C2 1.499(3) . ?
C24 C22 1.496(3) . ?
C8 C4 1.503(3) . ?
C22 C23 1.395(3) . ?
C22 C21 1.395(3) . ?
C18 C23 1.393(3) . ?
C18 C19 1.395(3) . ?
C23 H23 0.9500 . ?
C4 C3 1.388(3) . ?
C4 C5 1.398(3) . ?
C3 C2 1.398(3) . ?
C3 H3 0.9500 . ?
C2 C7 1.392(3) . ?
C19 C20 1.393(4) . ?
C19 H19 0.9500 . ?
C7 C6 1.388(3) . ?
C7 H7 0.9500 . ?
C9 C10 1.509(3) . ?
C5 C6 1.394(3) . ?
C5 H5 0.9500 . ?
C10 C15 1.396(3) . ?
C10 C11 1.397(3) . ?
C21 C20 1.390(4) . ?
C21 H21 0.9500 . ?
C6 H6 0.9500 . ?
C15 C14 1.393(3) . ?
C15 H15 0.9500 . ?
C16 C14 1.501(3) . ?
C29 C30 1.402(4) . ?
C29 C28 1.404(4) . ?
C29 C31 1.474(4) . ?
C20 H20 0.9500 . ?
C26 C28 1.366(4) . ?
C26 H26 0.9500 . ?
C14 C13 1.395(3) . ?
C31 C36 1.376(4) . ?
C31 C32 1.376(4) . ?
C28 H28 0.9500 . ?
C11 C12 1.392(3) . ?
C11 H11 0.9500 . ?
C34 C35 1.369(4) . ?
C34 C33 1.371(4) . ?
C34 C34 1.484(6) 2_667 ?
C13 C12 1.386(3) . ?
C13 H13 0.9500 . ?
C12 H12 0.9500 . ?
C30 C25 1.377(4) . ?
C30 H30 0.9500 . ?
C25 H25 0.9500 . ?
C27 H27A 0.9800 . ?
C27 H27B 0.9800 . ?
C27 H27C 0.9800 . ?
C35 C36 1.371(5) . ?
C35 H35 0.9500 . ?
C36 H36 0.9500 . ?
C32 C33 1.383(5) . ?
C32 H32 0.9500 . ?
C33 H33 0.9500 . ?
