#------------------------------------------------------------------------------
#$Date: 2022-02-04 21:30:39 +0200 (Fri, 04 Feb 2022) $
#$Revision: 272647 $
#$URL: file:///home/coder/svn-repositories/cod/cif/7/70/89/7708932.cif $
#------------------------------------------------------------------------------
#
# This file is available in the Crystallography Open Database (COD),
# http://www.crystallography.net/
#
# All data on this site have been placed in the public domain by the
# contributors.
#
data_7708932
loop_
_publ_author_name
'Cong, Zhenzhong'
'Zhu, Mingchang'
'Zhang, Ying'
'Yao, Wei'
'Kosinova, Marina'
'Fedin, Vladimir P.'
'Wu, Shuangyan'
'Gao, Enjun'
_publ_section_title
;
 Three novel metal-organic frameworks with different coordination modes
 for trace detection of anthrax biomarkers.
;
_journal_issue                   1
_journal_name_full
'Dalton transactions (Cambridge, England : 2003)'
_journal_page_first              250
_journal_page_last               256
_journal_paper_doi               10.1039/d1dt03760a
_journal_volume                  51
_journal_year                    2021
_chemical_formula_moiety         '0.5(C96 H80 Cd12 O80), 4(H2 O), 1.33(O)'
_chemical_formula_sum            'C48 H56 Cd6 O50'
_chemical_formula_weight         2107.32
_space_group_crystal_system      monoclinic
_space_group_IT_number           15
_space_group_name_Hall           '-C 2yc'
_space_group_name_H-M_alt        'C 1 2/c 1'
_atom_sites_solution_hydrogens   mixed
_audit_creation_date             2021-08-06
_audit_creation_method
;
Olex2 1.2
(compiled 2018.05.29 svn.r3508 for OlexSys, GUI svn.r5506)
;
_audit_update_record
;
2021-08-06 deposited with the CCDC.	2021-11-25 downloaded from the CCDC.
;
_cell_angle_alpha                90
_cell_angle_beta                 113.959(3)
_cell_angle_gamma                90
_cell_formula_units_Z            2
_cell_length_a                   18.184(2)
_cell_length_b                   13.6565(13)
_cell_length_c                   14.5002(15)
_cell_measurement_reflns_used    5508
_cell_measurement_temperature    296(2)
_cell_measurement_theta_max      24.65
_cell_measurement_theta_min      2.45
_cell_volume                     3290.6(6)
_computing_molecular_graphics    'Olex2 (Dolomanov et al., 2009)'
_computing_publication_material  'Olex2 (Dolomanov et al., 2009)'
_computing_structure_refinement  'ShelXL (Sheldrick, 2015)'
_computing_structure_solution    'SHELXT 2014/5 (Sheldrick, 2014)'
_diffrn_ambient_temperature      296.15
_diffrn_measured_fraction_theta_full 0.992
_diffrn_measured_fraction_theta_max 0.992
_diffrn_measurement_device_type  CCD
_diffrn_radiation_type           MoK\a
_diffrn_radiation_wavelength     0.71073
_diffrn_reflns_av_R_equivalents  0.0690
_diffrn_reflns_av_unetI/netI     0.0571
_diffrn_reflns_Laue_measured_fraction_full 0.992
_diffrn_reflns_Laue_measured_fraction_max 0.992
_diffrn_reflns_limit_h_max       20
_diffrn_reflns_limit_h_min       -21
_diffrn_reflns_limit_k_max       13
_diffrn_reflns_limit_k_min       -16
_diffrn_reflns_limit_l_max       17
_diffrn_reflns_limit_l_min       -15
_diffrn_reflns_number            18273
_diffrn_reflns_point_group_measured_fraction_full 0.992
_diffrn_reflns_point_group_measured_fraction_max 0.992
_diffrn_reflns_theta_full        25.032
_diffrn_reflns_theta_max         25.032
_diffrn_reflns_theta_min         2.760
_exptl_absorpt_coefficient_mu    2.023
_exptl_absorpt_correction_T_max  0.669
_exptl_absorpt_correction_T_min  0.662
_exptl_absorpt_correction_type   multi-scan
_exptl_absorpt_process_details   sadabs
_exptl_crystal_colour            colorless
_exptl_crystal_density_diffrn    2.127
_exptl_crystal_description       Block
_exptl_crystal_F_000             2064
_exptl_crystal_size_max          0.2
_exptl_crystal_size_mid          0.2
_exptl_crystal_size_min          0.2
_refine_diff_density_max         1.045
_refine_diff_density_min         -0.603
_refine_diff_density_rms         0.148
_refine_ls_extinction_method     none
_refine_ls_goodness_of_fit_ref   1.094
_refine_ls_hydrogen_treatment    constr
_refine_ls_matrix_type           full
_refine_ls_number_parameters     233
_refine_ls_number_reflns         2888
_refine_ls_number_restraints     0
_refine_ls_restrained_S_all      1.094
_refine_ls_R_factor_all          0.0609
_refine_ls_R_factor_gt           0.0388
_refine_ls_shift/su_max          0.001
_refine_ls_shift/su_mean         0.000
_refine_ls_structure_factor_coef Fsqd
_refine_ls_weighting_details
'w=1/[\s^2^(Fo^2^)+(0.0443P)^2^+10.5455P] where P=(Fo^2^+2Fc^2^)/3'
_refine_ls_weighting_scheme      calc
_refine_ls_wR_factor_gt          0.0892
_refine_ls_wR_factor_ref         0.0997
_reflns_Friedel_coverage         0.000
_reflns_number_gt                2228
_reflns_number_total             2888
_reflns_threshold_expression     'I > 2\s(I)'
_cod_data_source_file            d1dt03760a2.cif
_cod_data_source_block           1_a
_cod_depositor_comments
'Adding full bibliography for 7708932--7708934.cif.'
_cod_database_code               7708932
_shelx_shelxl_version_number     2017/1
_shelx_space_group_comment
;
The symmetry employed for this shelxl refinement is uniquely defined
by the following loop, which should always be used as a source of
symmetry information in preference to the above space-group names.
They are only intended as comments.
;
_shelx_estimated_absorpt_t_max   0.688
_shelx_estimated_absorpt_t_min   0.688
_olex2_refinement_description
;
1. Fixed Uiso
 At 1.2 times of:
  All C(H) groups
 At 1.5 times of:
  All O(H,H) groups
2. Others
 Fixed Sof: O1(0.33333)
3.a Free rotating group:
 O12(H12A,H12B)
3.b Rotating group:
 O8(H8A,H8B), O9(H9A,H9B), O10(H10A,H10B)
3.c Aromatic/amide H refined with riding coordinates:
 C3(H3), C5(H5), C7(H7), C10(H10)
;
_shelx_res_file
;
TITL 1_a.res in C2/c
    1_a.res
    created by SHELXL-2017/1 at 19:41:49 on 06-Aug-2021
CELL 0.71073 18.1841 13.6565 14.5002 90 113.959 90
ZERR 2 0.0021 0.0013 0.0015 0 0.003 0
LATT 7
SYMM -X,+Y,0.5-Z
SFAC C H Cd O
UNIT 96 112 12 100

L.S. 20
PLAN  20
SIZE 0.2 0.2 0.2
TEMP 23
BOND $H
LIST 6
CONF
MORE -1
ABIN
fmap 2
acta
OMIT 0 2 0
OMIT -1 1 1
REM <olex2.extras>
REM <HklSrc "%.\\1_a.hkl">
REM </olex2.extras>

WGHT    0.044300   10.545500
FVAR       0.18981
C1    1    0.670639    0.575818    0.573086    11.00000    0.01482    0.02761 =
         0.03163    0.00272    0.00956   -0.00061
C2    1    0.590536    0.591488    0.486515    11.00000    0.01716    0.02377 =
         0.02087    0.00167    0.00683    0.00026
C3    1    0.556116    0.682976    0.469526    11.00000    0.01945    0.01785 =
         0.02367   -0.00212    0.00806   -0.00326
AFIX  43
H3    2    0.582622    0.734500    0.511938    11.00000   -1.20000
AFIX   0
C4    1    0.482410    0.699488    0.390011    11.00000    0.01624    0.01688 =
         0.02326   -0.00043    0.00981   -0.00024
C5    1    0.442870    0.622189    0.327280    11.00000    0.01952    0.01783 =
         0.01954    0.00250    0.00188    0.00513
AFIX  43
H5    2    0.393096    0.631906    0.274073    11.00000   -1.20000
AFIX   0
C6    1    0.478258    0.530777    0.344771    11.00000    0.02058    0.01275 =
         0.02593   -0.00674    0.00842   -0.00423
C7    1    0.551458    0.513352    0.422833    11.00000    0.02127    0.01634 =
         0.02486    0.00128    0.01031   -0.00252
AFIX  43
H7    2    0.574493    0.451306    0.433161    11.00000   -1.20000
AFIX   0
C8    1    0.448566    0.800696    0.368626    11.00000    0.02429    0.01854 =
         0.01837   -0.00184    0.01060    0.00105
C9    1    0.469247    0.373124    0.268004    11.00000    0.01833    0.01356 =
         0.02577   -0.00476    0.00603    0.00520
C10   1    0.439019    0.285111    0.284764    11.00000    0.01875    0.01706 =
         0.02092    0.00114    0.00795    0.00138
AFIX  43
H10   2    0.397991    0.284965    0.307492    11.00000   -1.20000
AFIX   0
C11   1    0.469783    0.196458    0.267738    11.00000    0.01884    0.01370 =
         0.01543    0.00192    0.00423    0.00034
C12   1    0.429017    0.104805    0.281025    11.00000    0.01688    0.01470 =
         0.02247    0.00138    0.00604    0.00493
CD1   3    0.500000    1.000000    0.500000    10.50000    0.03334    0.01795 =
         0.02115   -0.00227    0.00984   -0.00100
CD2   3    0.319423   -0.060956    0.225498    11.00000    0.01769    0.01874 =
         0.02588    0.00154    0.00389   -0.00180
O0AA  4    0.701045    0.645900    0.633928    11.00000    0.01974    0.02688 =
         0.02757   -0.00193    0.00373   -0.00180
O2    4    0.706835    0.496375    0.582922    11.00000    0.02836    0.02328 =
         0.04800   -0.00084   -0.00324    0.01384
O3    4    0.496474    0.871395    0.397836    11.00000    0.02976    0.01465 =
         0.03330   -0.00649    0.01178   -0.00168
O4    4    0.373702    0.809121    0.321711    11.00000    0.02558    0.02007 =
         0.04167    0.00569    0.00819    0.00735
O5    4    0.433527    0.458356    0.278970    11.00000    0.02006    0.01351 =
         0.03591   -0.00530    0.00620    0.00251
O6    4    0.403246    0.046192    0.206842    11.00000    0.03833    0.02231 =
         0.03439   -0.00508    0.01473   -0.01271
O7    4    0.419139    0.090514    0.359999    11.00000    0.04297    0.02681 =
         0.02801    0.00696    0.02058    0.00284
O8    4    0.256009   -0.016046    0.329517    11.00000    0.04091    0.05007 =
         0.07564   -0.02360    0.03022   -0.00207
AFIX   7
H8A   2    0.204345   -0.046052    0.312522    11.00000   -1.50000
H8B   2    0.240505    0.051516    0.324114    11.00000   -1.50000
AFIX   0
O9    4    0.352998   -0.151677    0.104598    11.00000    0.03757    0.03382 =
         0.05126   -0.01285    0.02766   -0.00844
AFIX   7
H9A   2    0.348656   -0.216756    0.110801    11.00000   -1.50000
H9B   2    0.405287   -0.144897    0.116757    11.00000   -1.50000
AFIX   0
O10   4    0.607015    1.062788    0.482650    11.00000    0.04494    0.07346 =
         0.02758   -0.00268    0.01474   -0.01266
AFIX   7
H10A  2    0.598803    1.071937    0.415545    11.00000   -1.50000
H10B  2    0.656011    1.055201    0.542990    11.00000   -1.50000
AFIX   6
O12   4    0.757788    0.830807    0.603412    11.00000    0.05528    0.03558 =
         0.05252    0.00357    0.02176   -0.00314
H12A  2    0.729960    0.847550    0.542660    11.00000   -1.50000
H12B  2    0.727033    0.793045    0.618383    11.00000   -1.50000
AFIX   0

O1    4    0.205336   -0.146261    0.423760    10.33333    0.05953
HKLF 4




REM  1_a.res in C2/c
REM R1 =  0.0388 for    2228 Fo > 4sig(Fo)  and  0.0609 for all    2888 data
REM    233 parameters refined using      0 restraints

END

WGHT      0.0470     10.4324

REM Highest difference peak  1.045,  deepest hole -0.603,  1-sigma level  0.148
Q1    1   0.1785 -0.2129  0.5191  11.00000  0.05    1.04
Q2    1   0.1726 -0.1564  0.3999  11.00000  0.05    0.83
Q3    1   0.2496 -0.1354  0.4428  11.00000  0.05    0.81
Q4    1   0.2103 -0.1573  0.4997  11.00000  0.05    0.57
Q5    1   0.2292 -0.2013  0.4547  11.00000  0.05    0.54
Q6    1   0.2990 -0.2012  0.5012  11.00000  0.05    0.53
Q7    1   0.6236  0.5593  0.5154  11.00000  0.05    0.51
Q8    1   0.3203 -0.1469  0.0306  11.00000  0.05    0.49
Q9    1   0.4540  0.6652  0.3817  11.00000  0.05    0.49
Q10   1   0.6784  1.1095  0.5030  11.00000  0.05    0.48
Q11   1   0.5230  0.5407  0.3658  11.00000  0.05    0.48
Q12   1   0.6502  0.9021  0.4973  11.00000  0.05    0.46
Q13   1   0.3394  0.8139  0.4070  11.00000  0.05    0.46
Q14   1   0.2126 -0.2964  0.4251  11.00000  0.05    0.45
Q15   1   0.6179  1.1241  0.5622  11.00000  0.05    0.44
Q16   1   0.4048 -0.1412  0.0708  11.00000  0.05    0.43
Q17   1   0.7104  0.4424  0.6040  11.00000  0.05    0.42
Q18   1   0.6406  0.9910  0.4125  11.00000  0.05    0.41
Q19   1   0.3508 -0.1836  0.0133  11.00000  0.05    0.41
Q20   1   0.7344  0.5365  0.5582  11.00000  0.05    0.41
;
_shelx_res_checksum              16288
_shelx_hkl_file
;
  -4   0   0 2072.69   86.09
  -4   0   0 1935.91   86.69
   4   0   0 1917.81   84.29
   4   0   0 2159.38   87.19
   4   0   0 1904.91   83.79
  -6   0   0 1255.67   70.19
  -6   0   0 1288.57   71.29
  -6   0   0 1316.07   73.99
   6   0   0 1408.36   75.39
   6   0   0 1385.86   73.69
   6   0   0 1289.87   71.29
  -8   0   0 1144.39   71.69
  -8   0   0  943.81   67.59
  -8   0   0  981.60   66.09
   8   0   0  926.61   66.59
   8   0   0  939.71   65.09
   8   0   0  909.51   65.59
 -10   0   0  825.32   67.19
 -10   0   0  796.22   69.19
  10   0   0  765.92   65.29
  10   0   0  845.32   66.19
  10   0   0  788.62   67.29
 -12   0   0 1347.97   95.79
 -12   0   0 1437.26  101.39
 -12   0   0 1290.17   93.89
  12   0   0 1264.67   96.09
  12   0   0 1346.77   98.59
  12   0   0 1428.76   98.59
 -14   0   0  277.87   54.59
 -14   0   0  313.37   59.59
  14   0   0  281.77   55.09
  14   0   0  278.27   54.59
 -16   0   0 1390.16  116.09
  16   0   0 1437.96  115.69
 -18   0   0  130.79   43.80
  18   0   0  -10.00   30.40
  19  -1   0  168.18   55.29
 -19   1   0  213.68   58.29
  17  -1   0  951.90   98.69
 -17   1   0  760.32   89.59
 -17   1   0  930.31   99.69
  15  -1   0  -30.50   20.50
  15  -1   0  -13.30   13.50
 -15   1   0  -15.30   11.00
 -15   1   0  -17.30   21.00
  13  -1   0   17.60   17.60
  13  -1   0   17.20   16.20
  13  -1   0   14.30   15.00
 -13   1   0   27.20   20.20
 -13   1   0   -5.20   13.90
  11  -1   0 4094.89  186.78
  11  -1   0 4043.90  186.58
  11  -1   0 3939.31  183.78
 -11   1   0 4123.29  188.08
 -11   1   0 3577.24  177.68
   9  -1   0   75.59   24.60
   9  -1   0   78.79   24.00
  -9   1   0   45.50   22.60
  -9   1   0   44.40   21.40
   7  -1   0 2332.17  106.49
   7  -1   0 2137.29  103.39
   7  -1   0 2093.09  102.39
  -7   1   0 1955.00  101.69
  -7   1   0 2264.57  105.29
   5  -1   0 1313.77   65.89
   5  -1   0 1300.57   65.49
   5  -1   0 1256.07   64.19
  -5   1   0 1231.18   63.89
  -5   1   0 1191.78   67.19
   3  -1   0 1168.78   52.49
   3  -1   0 1204.08   53.39
   3  -1   0 1230.28   53.29
  -3   1   0 1128.49   51.49
  -3   1   0 1191.98   52.69
  -3  -1   0 1104.89   54.49
  -3  -1   0 1116.99   54.49
   3   1   0 1361.96   57.19
   3   1   0 1070.09   55.29
   3   1   0 1360.26   58.29
  -5  -1   0 1211.88   65.29
  -5  -1   0 1244.18   68.29
  -5  -1   0 1246.58   65.89
   5   1   0 1287.77   66.29
   5   1   0 1207.18   66.39
   5   1   0 1232.48   67.39
  -7  -1   0 2213.18  109.29
  -7  -1   0 2148.69  104.39
  -7  -1   0 2089.49  103.69
   7   1   0 2108.59  106.49
   7   1   0 1831.32  100.69
   7   1   0 2112.79  103.59
  -9  -1   0   93.99   28.20
  -9  -1   0   51.49   18.50
  -9  -1   0   65.69   22.10
   9   1   0   48.10   18.80
   9   1   0   51.79   25.20
   9   1   0   50.49   21.30
 -11  -1   0 3680.03  181.18
 -11  -1   0 4021.30  189.08
 -11  -1   0 3854.11  182.78
  11   1   0 3964.90  188.48
  11   1   0 3820.52  182.18
  11   1   0 3970.00  185.88
 -13  -1   0   11.30   27.80
 -13  -1   0   23.80   18.00
 -13  -1   0  -11.60   13.50
  13   1   0   32.40   22.20
  13   1   0   32.20   22.90
  13   1   0    7.70   15.00
 -15  -1   0   -7.50   19.70
 -15  -1   0   -5.20   18.30
  15   1   0   -8.90   15.80
  15   1   0   -9.20   24.10
 -17  -1   0  875.41  100.69
  17   1   0  887.21  100.89
 -19  -1   0  102.49   39.20
  19   1   0  105.09   62.69
  18  -2   0   51.69   31.80
 -18   2   0   26.10   36.20
  16  -2   0  524.45   66.89
 -16   2   0  351.16   62.69
 -16   2   0  342.17   65.69
  14  -2   0  108.29   36.20
  14  -2   0  108.79   35.00
 -14   2   0  118.99   35.10
 -14   2   0  152.58   42.10
  12  -2   0 1437.86   97.39
  12  -2   0 1268.87   93.09
  12  -2   0 1300.17   94.39
 -12   2   0 1382.06   94.79
 -12   2   0 1333.67   94.79
 -12   2   0 1236.38   92.39
  10  -2   0 1908.41  107.79
  10  -2   0 1971.00  108.79
  10  -2   0 1771.42  105.19
 -10   2   0 1738.83  105.19
 -10   2   0 1813.02  105.19
   8  -2   0  394.86   41.30
   8  -2   0  324.67   39.00
   8  -2   0  403.76   40.60
  -8   2   0  486.45   43.80
  -8   2   0  419.76   42.40
  -8   2   0  548.75   61.09
   6  -2   0 1730.33   86.09
   6  -2   0 1654.93   84.69
   6  -2   0 1815.62   85.49
  -6   2   0 1840.82   85.79
  -6   2   0 1753.32   85.39
  -6   2   0 1830.22   87.49
   4  -2   0  115.59   18.90
   4  -2   0  135.79   20.20
  -4   2   0  155.78   18.90
  -4   2   0  145.69   17.60
   2  -2   0   -7.90    4.10
   2  -2   0    4.70    5.10
   2  -2   0   -5.50    5.00
  -2   2   0   12.00    7.00
  -2   2   0   -3.60    5.00
   0   2   0   -3.10    1.50
  -2  -2   0    1.20    5.10
  -2  -2   0   -0.10    9.10
  -2  -2   0    3.20    5.60
   2   2   0   -5.20    5.70
   2   2   0    0.60    6.90
   2   2   0    9.40    9.20
  -4  -2   0  177.88   21.30
  -4  -2   0  179.68   27.30
  -4  -2   0  177.68   22.90
   4   2   0  128.79   21.60
   4   2   0  111.69   22.80
   4   2   0  149.59   22.70
  -6  -2   0 1799.42   88.69
  -6  -2   0 1708.63   91.19
  -6  -2   0 1604.34   85.79
   6   2   0 1495.55   85.59
   6   2   0 1780.12   87.49
   6   2   0 1566.44   85.99
  -8  -2   0  357.46   39.40
  -8  -2   0  345.47   45.80
  -8  -2   0  390.46   41.70
   8   2   0  428.06   50.09
   8   2   0  352.36   39.60
   8   2   0  417.56   43.30
 -10  -2   0 1774.12  107.39
 -10  -2   0 1778.92  108.39
 -10  -2   0 1747.03  110.59
  10   2   0 1989.40  116.89
  10   2   0 1739.53  108.09
  10   2   0 1740.83  106.39
 -12  -2   0 1187.08   95.99
 -12  -2   0 1354.06   99.99
 -12  -2   0 1243.18   95.19
  12   2   0 1392.56   98.79
  12   2   0 1513.55  105.69
  12   2   0 1478.95  107.89
 -14  -2   0   36.60   33.40
 -14  -2   0   81.39   32.80
 -14  -2   0  115.99   38.90
  14   2   0  124.49   40.80
  14   2   0   91.19   41.90
  14   2   0  114.79   35.40
 -16  -2   0  453.35   79.19
 -16  -2   0  526.15   80.99
  16   2   0  435.06   75.09
 -18  -2   0   -8.10   37.20
  18   2   0   21.00   38.40
  19  -3   0  -16.20   30.20
 -19   3   0   25.50   38.90
  17  -3   0  233.38   70.89
  17  -3   0  313.97   64.99
 -17   3   0  314.97   63.89
  15  -3   0    5.50   25.80
  15  -3   0  -23.10   17.50
 -15   3   0  -29.70   20.20
 -15   3   0    8.10   21.90
  13  -3   0   27.40   20.90
  13  -3   0   11.50   15.20
 -13   3   0  -13.70   19.70
 -13   3   0   35.20   20.00
  11  -3   0 1288.07   88.89
  11  -3   0 1316.97   90.69
  11  -3   0 1366.66  108.59
 -11   3   0 1414.96   94.59
 -11   3   0 1475.15   95.19
 -11   3   0 1493.95   93.19
   9  -3   0  175.38   33.50
   9  -3   0  124.99   28.30
   9  -3   0  177.38   32.90
  -9   3   0  197.28   34.90
  -9   3   0  193.78   35.60
  -9   3   0  111.29   27.20
   7  -3   0   -2.80    7.80
   7  -3   0   14.10   12.40
   7  -3   0    0.20   11.70
  -7   3   0    5.80   11.30
  -7   3   0    6.70   13.70
  -7   3   0    0.00    6.50
   5  -3   0 2241.48   88.69
   5  -3   0 2029.60   90.99
  -5   3   0 1887.71   89.89
  -5   3   0 1974.50   85.49
   3  -3   0   -2.50    6.20
   3  -3   0    6.90    7.90
   3  -3   0    0.40    6.70
  -3   3   0   -0.50    6.00
  -3   3   0    2.10    7.90
  -3   3   0   20.10    9.80
   1  -3   0  639.74   33.60
   1  -3   0  637.94   27.50
   1  -3   0  622.44   33.20
  -1   3   0  601.04   32.30
  -1  -3   0  640.14   35.70
  -1  -3   0  670.53   35.70
  -1  -3   0  633.14   36.30
   1   3   0  703.33   37.00
   1   3   0  637.84   34.90
  -3  -3   0   -1.10    9.50
  -3  -3   0   -4.10    6.10
   3   3   0    5.90    9.30
   3   3   0    4.10    9.00
  -5  -3   0 2105.99   99.29
  -5  -3   0 2171.08  102.49
  -5  -3   0 1985.80   97.79
   5   3   0 2276.67  104.09
   5   3   0 2032.20   97.99
   5   3   0 2102.89   99.69
  -7  -3   0   31.00   15.30
  -7  -3   0   19.10   21.20
  -7  -3   0    9.30   10.80
   7   3   0   31.80   17.10
   7   3   0   11.60   14.10
   7   3   0   17.10   14.70
  -9  -3   0  208.18   39.00
  -9  -3   0  246.78   42.60
  -9  -3   0  151.98   37.80
   9   3   0  141.69   33.10
   9   3   0  225.18   41.10
   9   3   0  167.68   35.60
 -11  -3   0 1319.07   99.99
 -11  -3   0 1616.34  104.19
 -11  -3   0 1463.75  101.59
  11   3   0 1362.46  101.59
  11   3   0 1451.75  101.99
  11   3   0 1417.06   99.09
 -13  -3   0  -12.50   18.30
 -13  -3   0  -20.00   11.50
  13   3   0   16.00   18.00
  13   3   0   25.30   21.70
  13   3   0   20.70   20.80
 -15  -3   0    6.00   17.10
 -15  -3   0   36.50   32.20
  15   3   0   -9.30   24.60
  15   3   0   -7.90   20.00
 -17  -3   0  410.06   76.49
  17   3   0  405.26   77.59
 -19  -3   0   15.00   27.20
  18  -4   0  117.89   48.50
 -18   4   0  -14.90   33.20
  16  -4   0  106.89   40.40
  16  -4   0  139.89   42.70
 -16   4   0  104.99   40.90
  14  -4   0   38.20   25.50
  14  -4   0   65.29   27.10
 -14   4   0   62.99   31.00
 -14   4   0   91.39   31.10
  12  -4   0   96.79   30.00
  12  -4   0   47.80   22.60
  12  -4   0   36.70   19.80
 -12   4   0   79.49   30.10
 -12   4   0   92.09   25.80
 -12   4   0   85.29   26.40
  10  -4   0  147.29   32.60
  10  -4   0  176.68   36.10
 -10   4   0  138.99   31.50
 -10   4   0  140.49   31.40
   8  -4   0  335.87   35.50
   8  -4   0  327.67   38.50
   8  -4   0  392.76   39.90
  -8   4   0  267.17   43.80
  -8   4   0  334.57   37.90
  -8   4   0  364.56   36.90
   6  -4   0  215.58   25.30
   6  -4   0  230.68   27.00
   6  -4   0  208.88   26.20
  -6   4   0  220.68   26.80
  -6   4   0  163.48   25.60
  -6   4   0  166.18   22.60
   4  -4   0 1206.88   62.19
   4  -4   0 1240.68   63.19
   4  -4   0 1222.98   53.69
  -4   4   0 1250.17   54.19
  -4   4   0 1144.39   60.39
  -4   4   0 1129.29   59.29
   2  -4   0  292.57   18.00
   2  -4   0  295.57   25.70
   2  -4   0  330.97   19.10
   2  -4   0  323.47   25.90
  -2   4   0  313.47   25.10
  -2   4   0  341.57   25.20
   0  -4   0  306.97   25.10
   0  -4   0  337.87   23.00
   0  -4   0  351.46   26.80
   0   4   0  346.67   25.80
   0   4   0  318.57   22.00
  -2  -4   0  319.17   28.60
  -2  -4   0  311.87   28.70
  -2  -4   0  369.06   29.50
   2   4   0  357.36   28.90
   2   4   0  336.57   29.10
   2   4   0  312.17   28.00
  -4  -4   0 1307.97   70.09
  -4  -4   0 1155.58   67.99
  -4  -4   0 1178.88   67.29
   4   4   0 1295.27   69.39
   4   4   0 1175.48   69.09
   4   4   0 1297.77   80.09
  -6  -4   0  257.47   32.50
  -6  -4   0  172.08   34.70
  -6  -4   0  241.68   31.40
   6   4   0  216.38   37.00
   6   4   0  226.98   36.40
   6   4   0  209.98   34.20
  -8  -4   0  308.57   40.50
  -8  -4   0  390.26   44.20
  -8  -4   0  338.87   44.10
   8   4   0  365.16   42.30
   8   4   0  373.36   46.90
   8   4   0  343.27   41.50
 -10  -4   0  171.88   40.20
 -10  -4   0  133.59   36.70
 -10  -4   0  159.48   35.90
  10   4   0  134.69   37.30
  10   4   0  140.89   35.70
  10   4   0  211.38   40.90
 -12  -4   0  132.59   41.50
 -12  -4   0   77.39   33.00
 -12  -4   0  107.99   39.10
  12   4   0   42.20   23.00
  12   4   0   24.40   21.10
  12   4   0   78.49   31.80
 -14  -4   0  155.68   43.70
 -14  -4   0   21.20   25.40
 -14  -4   0  133.29   44.50
  14   4   0   64.39   28.90
  14   4   0   89.69   37.90
  14   4   0   40.70   28.10
 -16  -4   0  125.19   44.00
  16   4   0  170.88   54.89
 -18  -4   0  113.69   53.19
  17  -5   0   47.00   29.70
 -17   5   0   28.60   25.80
  15  -5   0  -10.70   20.20
  15  -5   0    6.50   17.70
 -15   5   0   47.00   26.50
  13  -5   0   94.69   33.80
 -13   5   0   32.40   27.00
 -13   5   0   94.59   33.90
  11  -5   0   18.60   16.90
  11  -5   0    0.60   12.40
 -11   5   0   -5.20   13.60
 -11   5   0   23.20   14.30
 -11   5   0   22.50   17.90
   9  -5   0  727.93   59.19
   9  -5   0  752.52   54.79
   9  -5   0  710.53   58.69
  -9   5   0  647.74   55.49
  -9   5   0  711.03   58.59
  -9   5   0  579.34   65.49
   7  -5   0 1198.18   67.59
   7  -5   0 1300.77   77.19
  -7   5   0 1333.17   77.19
  -7   5   0 1326.77   75.09
  -7   5   0 1369.46   70.69
   5  -5   0   20.80   12.20
   5  -5   0    0.10    7.40
   5  -5   0    5.10    8.90
  -5   5   0    6.50   10.20
  -5   5   0   16.90    9.10
  -5   5   0    9.80   10.30
   3  -5   0  892.91   52.29
   3  -5   0  954.00   41.10
  -3   5   0 1066.99   53.79
  -3   5   0  898.71   51.69
   1  -5   0    6.60    6.00
   1  -5   0    8.20    7.80
   1  -5   0    6.20    8.70
  -1   5   0    5.90    8.00
  -1   5   0   15.20    8.20
  -1  -5   0    5.20    8.20
  -1  -5   0    8.60    8.60
  -1  -5   0    4.30    7.80
   1   5   0    6.90    7.10
   1   5   0    7.20    8.40
   1   5   0   11.00    7.40
  -3  -5   0 1083.39   61.69
  -3  -5   0 1060.29   61.79
  -3  -5   0  975.00   59.69
   3   5   0  925.81   59.19
   3   5   0 1121.79   62.19
   3   5   0 1012.80   60.19
  -5  -5   0    5.40   11.50
  -5  -5   0    8.80   10.20
  -5  -5   0   14.80   13.00
   5   5   0    5.00   15.10
   5   5   0   -6.80    8.00
   5   5   0   18.90   11.60
  -7  -5   0 1524.95   94.99
  -7  -5   0 1538.25   91.69
  -7  -5   0 1315.77   84.89
   7   5   0 1315.77   85.69
   7   5   0 1278.87   85.99
   7   5   0 1513.75   93.89
  -9  -5   0  768.82   73.99
  -9  -5   0  601.14   60.89
  -9  -5   0  761.12   66.49
   9   5   0  717.63   65.19
   9   5   0  738.23   68.09
 -11  -5   0    8.50   20.00
 -11  -5   0   -1.10   18.10
 -11  -5   0  -14.00   19.80
  11   5   0   10.20   15.30
  11   5   0   18.70   19.90
  11   5   0   20.00   17.40
 -13  -5   0  193.88   51.49
 -13  -5   0  125.69   38.30
 -13  -5   0  131.49   43.00
  13   5   0   52.79   26.40
  13   5   0  124.39   39.70
  13   5   0   60.89   27.20
 -15  -5   0   27.00   28.70
 -15  -5   0   19.90   27.70
 -17  -5   0   -3.40   30.10
 -16   6   0   14.90   25.60
  14  -6   0  937.21   85.19
 -14   6   0  848.02   77.29
  12  -6   0  134.49   32.90
 -12   6   0   52.19   27.10
 -12   6   0  117.49   33.90
  10  -6   0   -4.00   11.60
  10  -6   0   24.30   14.70
  10  -6   0   11.60   14.80
 -10   6   0    7.90   14.50
 -10   6   0    7.60   14.10
   8  -6   0 3100.29  138.29
   8  -6   0 2691.53  119.49
  -8   6   0 2733.43  128.39
  -8   6   0 2997.30  123.89
  -8   6   0 2535.75  129.09
   6  -6   0   13.30    9.70
   6  -6   0   -1.50   10.90
   6  -6   0  -10.10    5.50
  -6   6   0    5.50    7.80
  -6   6   0    6.30   11.40
  -6   6   0  -12.00    6.00
   4  -6   0 3528.45  143.89
   4  -6   0 3615.24  145.69
   4  -6   0 3665.43  124.79
  -4   6   0 3437.06  140.79
   2  -6   0  604.84   43.10
   2  -6   0  634.14   32.10
   2  -6   0  620.44   31.70
   2  -6   0  699.73   44.60
  -2   6   0  584.44   40.00
  -2   6   0  703.43   45.00
   0  -6   0  418.56   34.10
   0  -6   0  430.56   29.70
   0  -6   0  383.26   33.70
   0   6   0  431.36   35.20
   0   6   0  412.36   29.90
   0   6   0  349.96   31.90
  -2  -6   0  654.23   44.70
  -2  -6   0  713.63   49.40
  -2  -6   0  677.53   48.10
   2   6   0  620.14   45.40
   2   6   0  639.54   45.00
  -4  -6   0 3643.34  152.18
  -4  -6   0 3390.76  149.09
  -4  -6   0 3506.95  150.68
   4   6   0 3510.15  149.79
   4   6   0 3518.95  151.88
   4   6   0 3501.75  149.39
  -6  -6   0    2.80   13.40
  -6  -6   0    1.50   16.70
  -6  -6   0   -7.80    9.50
   6   6   0    4.50   12.60
   6   6   0  -10.70   11.20
  -8  -6   0 2699.53  144.79
  -8  -6   0 2755.42  143.59
  -8  -6   0 2695.43  147.89
   8   6   0 2957.60  148.79
   8   6   0 2965.30  146.59
   8   6   0 2805.42  147.59
 -10  -6   0   -8.40   25.10
 -10  -6   0  -10.60   16.50
 -10  -6   0    6.90   16.00
  10   6   0   17.50   14.10
  10   6   0    2.50   20.90
  10   6   0   -1.40   12.70
 -12  -6   0   97.79   37.50
 -12  -6   0  105.89   39.00
 -12  -6   0  124.99   38.10
  12   6   0   81.89   36.80
  12   6   0   95.79   32.90
  12   6   0  114.09   40.50
 -14  -6   0  869.61   89.89
 -14  -6   0 1036.10  101.29
  14   6   0  749.53   84.49
 -16  -6   0   19.40   35.30
 -18  -6   0    9.60   27.50
  17  -7   0  -12.20   20.70
  15  -7   0  201.08   48.00
  13  -7   0 1413.36  104.49
 -13   7   0 1619.64  102.39
 -13   7   0 1367.66  104.79
  11  -7   0   27.20   25.40
 -11   7   0   40.40   20.30
 -11   7   0   23.90   21.10
   9  -7   0 1195.78   69.59
   9  -7   0 1030.10   77.89
  -9   7   0 1206.68   80.49
  -9   7   0 1144.69   76.49
  -9   7   0 1165.18   69.29
   7  -7   0 1508.15   88.79
   7  -7   0 1429.36   72.09
   7  -7   0 1546.25   89.29
  -7   7   0 1587.44   87.39
  -7   7   0 1605.14   86.29
  -7   7   0 1545.55   74.89
   5  -7   0   88.19   20.90
   5  -7   0  110.99   14.80
   5  -7   0   61.69   19.60
  -5   7   0  138.39   25.00
  -5   7   0   91.99   21.40
   3  -7   0 4402.16  179.58
   3  -7   0 4751.12  180.48
   3  -7   0 4756.62  157.18
   3  -7   0 4640.74  156.08
  -3   7   0 4590.14  178.58
  -3   7   0 4915.51  178.38
   1  -7   0   14.20   10.50
   1  -7   0   12.10    7.60
   1  -7   0   -0.10    8.00
  -1   7   0   19.00   11.10
  -1   7   0   18.60   10.80
  -1  -7   0   34.80   13.00
  -1  -7   0   14.30   12.00
  -1  -7   0   43.90   16.30
   1   7   0   -3.40    8.80
   1   7   0   32.70   12.80
   1   7   0    7.90   10.90
  -3  -7   0 4659.13  182.28
  -3  -7   0 4576.14  186.48
  -3  -7   0 4520.75  184.88
   3   7   0 4767.22  185.68
   3   7   0 4463.65  180.58
  -5  -7   0   75.09   21.70
  -5  -7   0   71.59   22.90
  -5  -7   0   94.49   27.70
   5   7   0   97.19   26.60
   5   7   0  144.89   29.40
  -7  -7   0 1400.76   96.49
  -7  -7   0 1409.86   94.29
  -7  -7   0 1437.86   93.99
   7   7   0 1526.45   97.69
   7   7   0 1402.86   92.59
   7   7   0 1493.55   95.59
  -9  -7   0 1344.47   94.49
  -9  -7   0 1187.68   92.19
  -9  -7   0 1151.08   94.39
   9   7   0 1477.85  100.29
   9   7   0 1150.98   91.29
   9   7   0 1082.19   85.29
 -11  -7   0   31.50   22.00
 -11  -7   0   86.29   31.10
 -11  -7   0   74.79   34.00
  11   7   0   43.60   22.90
  11   7   0   77.69   32.30
  11   7   0  102.99   36.00
 -13  -7   0 1513.65  121.59
 -13  -7   0 1569.54  122.89
  13   7   0 1412.56  117.49
  13   7   0 1557.04  118.09
 -15  -7   0  336.77  106.19
 -15  -7   0  211.68   58.39
 -17  -7   0    4.60   27.10
  16  -8   0   57.69   30.50
  14  -8   0 1752.02  121.69
  12  -8   0   42.90   22.00
 -12   8   0   12.30   21.90
 -12   8   0   -7.70   13.80
  10  -8   0   64.79   21.00
 -10   8   0   73.19   23.50
 -10   8   0   80.29   27.00
   8  -8   0 2165.58   91.89
   8  -8   0 2072.59  112.59
   8  -8   0 1781.02  107.09
  -8   8   0 1851.11  103.69
  -8   8   0 1941.31   91.39
  -8   8   0 2014.10  105.39
   6  -8   0   32.80   16.40
   6  -8   0   18.60   10.20
   6  -8   0   44.60   15.60
  -6   8   0   33.90   15.20
  -6   8   0   24.80   14.30
   4  -8   0 1752.22   69.59
   4  -8   0 1883.51   97.39
   4  -8   0 1867.71   95.19
   4  -8   0 1795.92   70.59
  -4   8   0 1923.31   94.89
  -4   8   0 1920.01   92.59
   2  -8   0 2098.09   81.09
   2  -8   0 2057.59  100.19
   2  -8   0 2189.58  104.09
   2  -8   0 2079.29   80.89
  -2   8   0 2087.99  101.29
  -2   8   0 1918.81   95.59
   0  -8   0  983.80   54.19
   0  -8   0  984.40   63.29
   0  -8   0 1061.99   66.19
   0   8   0 1051.19   62.79
   0   8   0  935.31   54.19
   0   8   0  984.80   63.79
  -2  -8   0 2374.46  112.39
  -2  -8   0 2147.49  109.39
  -2  -8   0 2248.68  102.99
   2   8   0 2155.18  109.19
   2   8   0 1981.20  100.49
   2   8   0 2158.78  107.39
  -4  -8   0 1912.31  106.59
  -4  -8   0 1891.81  104.69
  -4  -8   0 1904.11  102.69
   4   8   0 1879.01  103.99
   4   8   0 2057.49  105.59
  -6  -8   0   26.40   15.50
  -6  -8   0   24.80   18.10
  -6  -8   0    0.30    9.50
   6   8   0   37.20   16.50
   6   8   0   13.20   17.40
  -8  -8   0 2202.48  129.79
  -8  -8   0 1753.22  115.79
  -8  -8   0 1932.91  120.89
   8   8   0 1941.21  119.89
   8   8   0 2205.38  126.29
   8   8   0 1872.81  119.89
 -10  -8   0   44.80   22.10
 -10  -8   0   42.10   34.20
  10   8   0   29.30   28.60
  10   8   0   41.20   21.60
  10   8   0   97.49   35.80
 -12  -8   0    3.20   22.10
 -12  -8   0    8.50   21.60
  12   8   0    3.00   23.10
  12   8   0  -48.90   20.00
 -14  -8   0 1630.74  132.19
 -14  -8   0 1824.12  142.79
 -16  -8   0  -30.30   36.10
  15  -9   0  244.08   52.79
  13  -9   0  945.11   84.59
  11  -9   0  132.39   35.30
 -11   9   0   94.29   32.80
   9  -9   0  878.81   73.99
  -9   9   0  890.91   69.59
  -9   9   0  993.90   59.69
   7  -9   0  307.27   39.20
   7  -9   0  364.16   43.00
   7  -9   0  267.97   25.00
   7  -9   0  306.07   25.70
  -7   9   0  354.56   39.20
  -7   9   0  380.56   41.10
   5  -9   0   43.20   16.90
   5  -9   0   33.40    8.20
   5  -9   0   21.20    8.10
   5  -9   0   21.00   17.30
  -5   9   0   28.80   16.40
  -5   9   0   15.00   14.20
   3  -9   0 3454.05  154.28
   3  -9   0 3820.02  127.19
   3  -9   0 3747.62  127.09
   3  -9   0 3620.74  158.98
  -3   9   0 3706.23  156.78
  -3   9   0 3552.44  151.18
   1  -9   0   -4.30    6.30
   1  -9   0   19.40   14.50
   1  -9   0    2.50    8.10
  -1   9   0   12.70   12.80
  -1   9   0    3.10    9.60
  -1  -9   0   20.80   13.70
  -1  -9   0    1.80    9.50
  -1  -9   0    0.30   10.50
   1   9   0   -0.70   10.20
   1   9   0   18.90   12.10
   1   9   0   -2.00   12.30
  -3  -9   0 3721.53  169.78
  -3  -9   0 3839.12  163.38
  -3  -9   0 3936.91  173.78
   3   9   0 3927.91  170.48
   3   9   0 3880.61  172.08
   3   9   0 3823.72  164.98
  -5  -9   0   24.60   19.30
  -5  -9   0   38.10   19.20
  -5  -9   0   -3.00   14.40
   5   9   0   10.90   16.10
   5   9   0   77.69   26.60
   5   9   0   17.70   20.10
  -7  -9   0  375.96   59.09
  -7  -9   0  497.05   55.19
  -7  -9   0  285.77   51.29
   7   9   0  324.17   52.39
   7   9   0  348.67   55.89
  -9  -9   0 1017.10   87.89
  -9  -9   0 1165.88   93.69
   9   9   0  928.21   86.89
   9   9   0  850.61   80.99
 -11  -9   0  155.08   47.00
 -11  -9   0  101.89   41.20
  11   9   0  196.58   49.40
 -13  -9   0  786.82   89.79
 -13  -9   0  997.50   97.89
  13   9   0  959.70   97.39
 -15  -9   0  347.37   73.39
  14 -10   0  852.01   80.09
  12 -10   0    7.90   16.00
   8 -10   0 1069.09   81.79
  -8  10   0 1078.19   73.69
   6 -10   0  130.39   31.80
   6 -10   0  128.09   29.30
  -6  10   0  146.69   32.10
   4 -10   0  871.61   65.39
   4 -10   0  765.32   33.40
   4 -10   0  715.03   57.89
   4 -10   0  761.42   33.60
  -4  10   0  866.91   61.49
  -4  10   0  824.32   57.89
   2 -10   0 1874.41   77.89
   2 -10   0 1847.82   77.29
   2 -10   0 1943.11  102.99
   2 -10   0 1758.92  102.19
  -2  10   0 2105.69  106.19
  -2  10   0 1963.30   99.19
   0 -10   0   -6.20   10.20
   0 -10   0    0.20   10.90
   0 -10   0   -6.30    9.30
   0  10   0   18.90   11.70
   0  10   0   -0.60   12.00
   0  10   0   -1.10    8.70
  -2 -10   0 1827.42  107.29
  -2 -10   0 1826.72  105.29
   2  10   0 1983.00  109.09
   2  10   0 1997.90  106.99
   2  10   0 1747.13   95.99
  -4 -10   0  782.72   68.39
  -4 -10   0  879.71   67.79
  -4 -10   0  742.43   64.69
   4  10   0  803.72   66.69
   4  10   0  733.23   63.99
   4  10   0  880.81   71.09
  -6 -10   0  115.99   36.60
  -6 -10   0   90.39   28.10
   6  10   0   31.40   18.10
   6  10   0  115.29   31.50
   6  10   0   96.59   31.70
  -8 -10   0 1103.59   92.39
  -8 -10   0 1023.60   90.69
   8  10   0 1238.28   96.99
 -10 -10   0  -42.50   16.30
 -10 -10   0   21.30   19.90
  10  10   0  -21.50   18.90
  10  10   0  -16.70   15.00
 -12 -10   0   20.10   21.20
 -12 -10   0  -12.70   26.30
  12  10   0   -5.00   15.70
 -14 -10   0  795.72   94.59
 -14 -10   0  797.22   96.19
  13 -11   0  254.07   58.79
   9 -11   0  211.88   44.90
   7 -11   0  138.49   32.90
  -7  11   0   82.29   23.70
   5 -11   0   -4.90    9.70
  -5  11   0    5.20   13.50
   3 -11   0 1051.89   76.29
  -3  11   0 1266.97   80.19
   1 -11   0  225.98   39.30
   1 -11   0  226.58   25.30
   1 -11   0  232.68   42.10
   1 -11   0  220.78   24.10
  -1  11   0  245.48   41.10
  -1  11   0  220.88   37.00
  -1 -11   0  179.48   34.60
  -1 -11   0  205.48   39.10
  -1 -11   0  184.48   30.60
   1  11   0  167.18   35.60
   1  11   0  213.68   36.30
   1  11   0  243.78   36.00
  -3 -11   0 1103.79   84.09
  -3 -11   0 1147.89   77.99
  -5 -11   0   -1.30   17.60
   5  11   0   -4.60   14.90
   5  11   0   30.10   20.50
  -7 -11   0   68.79   33.80
  -7 -11   0   95.79   33.80
   7  11   0  123.79   38.20
   7  11   0   60.29   26.90
  -9 -11   0  149.79   56.59
  -9 -11   0  208.58   49.50
   9  11   0  173.28   47.30
   9  11   0  179.58   43.10
 -11 -11   0   54.99   29.40
 -11 -11   0   65.99   28.60
 -13 -11   0  255.07   60.29
 -13 -11   0  217.78   59.49
  12 -12   0   69.49   36.00
  10 -12   0   58.89   27.20
   8 -12   0  213.98   45.30
   6 -12   0   38.90   22.00
   4 -12   0   70.79   26.20
  -4  12   0   56.69   21.80
   2 -12   0   17.00   14.70
  -2  12   0   12.60   13.00
   0 -12   0   -8.10   15.70
   0  12   0   10.80   14.10
  -2 -12   0   11.50   16.70
  -2 -12   0   13.50   14.70
  -4 -12   0   64.99   27.00
  -4 -12   0   81.69   28.70
   4  12   0  101.09   35.10
   4  12   0   72.09   25.80
  -6 -12   0   63.29   29.40
  -6 -12   0  102.09   31.40
   6  12   0   26.10   25.60
   6  12   0   35.40   25.00
  -8 -12   0  276.07   54.09
  -8 -12   0  275.77   56.79
   8  12   0  267.67   54.99
 -10 -12   0   63.39   36.40
 -10 -12   0  167.38   49.50
  10  12   0   54.39   31.80
 -12 -12   0   93.79   48.50
 -12 -12   0  115.99   42.50
   9 -13   0   -3.20   19.10
   7 -13   0  158.28   38.00
   5 -13   0  298.57   50.19
   3 -13   0  124.09   33.90
   1 -13   0  297.67   49.70
  -1 -13   0  286.47   50.49
  -3 -13   0  198.98   42.30
  -5 -13   0  205.38   45.90
  -7 -13   0  277.47   54.89
  -7 -13   0  184.68   47.90
  -9 -13   0   38.00   31.20
  -9 -13   0    3.20   15.60
 -11 -13   0  183.98   46.90
 -11 -13   0  209.08   58.29
  10 -14   0  260.17   51.19
   6 -14   0  980.50   84.49
   4 -14   0  124.59   35.90
   2 -14   0   21.30   18.70
   0 -14   0  720.93   71.29
  -2 -14   0   -8.30   16.40
  -4 -14   0  139.19   40.60
  -6 -14   0  951.40   91.69
  -8 -14   0  -12.20   24.40
 -10 -14   0  213.08   88.09
   7 -15   0  184.38   44.00
   5 -15   0  626.14   95.39
   3 -15   0   51.79   23.10
   1 -15   0  477.55   58.59
  -3 -15   0   -8.70   16.20
  -5 -15   0  576.94   87.69
  -7 -15   0  129.19   42.10
   2 -16   0  -17.20   15.90
   0 -16   0 1006.70   89.69
  -2 -16   0   10.10   27.40
  -2 -16   1  -15.60   19.90
   0 -16   1   16.60   18.80
   2 -16   1   -6.00   18.00
  -7 -15   1  -13.50   16.70
  -5 -15   1   69.99   37.20
  -3 -15   1  241.18   47.90
  -1 -15   1  -30.50   15.40
   1 -15   1   41.40   23.40
   3 -15   1   72.59   28.60
   5 -15   1  107.39   32.90
   7 -15   1   -1.30   21.90
  -8 -14   1  313.27   62.99
  -6 -14   1  391.96   62.59
  -4 -14   1   99.69   31.90
  -2 -14   1   75.89   27.10
   0 -14   1  476.55   57.99
   2 -14   1   43.40   22.60
   4 -14   1   38.00   20.30
   6 -14   1  138.59   35.60
   8 -14   1  282.77   49.50
 -11 -13   1  697.43   86.09
 -11 -13   1  653.93   84.19
  -9 -13   1  286.67   59.29
  -9 -13   1  372.16   65.69
  -7 -13   1  -28.00   21.80
  -7 -13   1   22.30   26.90
  -5 -13   1   41.40   25.70
  -3 -13   1  939.91   79.99
  -1 -13   1  109.99   32.60
   1 -13   1  104.09   28.80
   3 -13   1  236.38   43.10
   5 -13   1  782.92   68.59
   7 -13   1   50.29   24.60
  11 -13   1  378.96   61.99
 -12 -12   1  123.29   44.10
 -12 -12   1  118.99   41.80
  10  12  -1   23.20   31.10
 -10 -12   1  -20.80   23.60
 -10 -12   1   41.00   28.80
   8  12  -1  600.84   70.69
  -8 -12   1  641.44   74.39
  -8 -12   1  683.03   74.39
   6  12  -1  695.03   68.79
   6  12  -1  548.15   71.19
  -6 -12   1  709.53   70.49
  -6 -12   1  668.63   67.79
   4  12  -1    1.60   19.00
   4  12  -1   10.70   13.40
  -4 -12   1    8.40   13.80
  -4 -12   1   20.90   21.60
   2  12  -1   37.20   19.30
  -2 -12   1   72.19   24.90
  -2 -12   1   80.89   27.80
   0  12  -1 1609.74   89.99
   0 -12   1 1454.35   94.59
  -2  12  -1  405.36   39.10
   2 -12   1  259.67   42.90
  -4  12  -1  -18.60    9.30
   4 -12   1  -10.80   10.90
   6 -12   1  670.63   61.79
   8 -12   1  910.01   75.59
  12 -12   1  165.18   38.10
 -15 -11   1   46.80   34.90
 -15 -11   1   91.69   45.30
 -13 -11   1    8.40   32.20
 -13 -11   1   64.49   34.60
  11  11  -1  405.76   70.69
 -11 -11   1  380.96   68.09
 -11 -11   1  301.87   63.69
   9  11  -1  425.36   54.29
  -9 -11   1  308.27   58.09
  -9 -11   1  347.07   75.09
   7  11  -1   15.60   21.40
   7  11  -1   -2.80   17.00
  -7 -11   1   30.90   24.00
  -7 -11   1   41.00   22.70
   5  11  -1  258.67   45.60
   5  11  -1  245.58   44.00
  -5 -11   1  204.18   42.50
  -5 -11   1  294.27   49.40
   3  11  -1  914.01   71.09
   3  11  -1  888.81   84.09
  -3 -11   1  892.41   69.99
  -3 -11   1  924.71   75.39
  -3 -11   1 1015.00   72.79
   1  11  -1  445.06   47.50
   1  11  -1  462.35   44.40
   1  11  -1  385.96   42.20
  -1 -11   1  542.35   51.09
  -1 -11   1  464.15   46.40
  -1 -11   1  430.46   49.10
  -1  11  -1  -18.50   10.70
  -1  11  -1   11.50   12.30
   1 -11   1    9.80   11.40
   1 -11   1    5.40   10.00
   1 -11   1   17.30   16.00
   1 -11   1   -4.10   11.20
  -3  11  -1  335.97   41.70
  -3  11  -1  413.46   41.10
   3 -11   1  363.36   43.20
   3 -11   1  380.66   40.10
  -5  11  -1  379.06   36.80
   5 -11   1  324.87   40.10
   5 -11   1  342.27   41.30
  -7  11  -1   82.19   22.40
   7 -11   1   75.79   26.30
  11 -11   1  322.77   54.39
  13 -11   1   78.79   33.10
 -16 -10   1   63.59   45.70
 -14 -10   1  180.68   50.29
 -14 -10   1  254.27   62.29
  12  10  -1   51.09   33.40
 -12 -10   1   22.50   25.30
 -12 -10   1    3.80   29.90
  10  10  -1   10.40   17.90
  10  10  -1   46.00   21.60
 -10 -10   1   26.70   26.90
 -10 -10   1   -2.70   20.00
   8  10  -1  368.76   61.89
   8  10  -1  296.17   60.69
  -8 -10   1  315.27   56.09
  -8 -10   1  300.97   54.19
   6  10  -1  569.74   60.99
   6  10  -1  619.24   59.39
   6  10  -1  602.04   59.09
  -6 -10   1  496.15   58.09
  -6 -10   1  569.94   59.29
  -6 -10   1  592.04   62.79
   4  10  -1  251.27   42.70
   4  10  -1  268.07   44.70
   4  10  -1  164.38   33.80
  -4 -10   1  284.77   36.90
  -4 -10   1  226.58   40.40
  -4 -10   1  137.69   35.20
   2  10  -1  261.37   32.40
   2  10  -1  309.27   36.00
   2  10  -1  291.87   36.70
  -2 -10   1  269.27   36.20
  -2 -10   1  305.27   37.30
  -2 -10   1  282.17   43.10
   0  10  -1  213.48   32.60
   0  10  -1  295.77   35.30
   0 -10   1  186.48   32.50
   0 -10   1  281.77   33.70
   0 -10   1  250.77   30.70
  -2  10  -1  122.29   26.50
  -2  10  -1  166.08   26.60
   2 -10   1  134.39   27.70
   2 -10   1  138.79   27.30
   2 -10   1  136.99   22.10
   2 -10   1  124.39   20.50
  -4  10  -1  112.89   22.40
  -4  10  -1  103.19   23.20
   4 -10   1   83.89   16.00
   4 -10   1   61.59   15.00
   4 -10   1  110.49   25.70
   4 -10   1   85.69   23.50
  -6  10  -1  415.66   40.00
   6 -10   1  356.16   40.80
   6 -10   1  337.17   56.29
  -8  10  -1  424.06   41.90
   8 -10   1  476.65   51.09
  10 -10   1   64.29   26.00
  12 -10   1   39.20   21.30
  14 -10   1  180.38   43.00
 -15  -9   1  -24.10   25.20
 -15  -9   1   67.39   39.60
  13   9  -1    0.30   15.00
 -13  -9   1   85.99   34.10
 -13  -9   1    1.90   28.30
  11   9  -1  -18.30   14.40
  11   9  -1   16.80   22.20
 -11  -9   1   -1.20   27.50
 -11  -9   1   18.60   16.80
   9   9  -1  182.98   38.60
   9   9  -1   86.89   30.80
  -9  -9   1   64.29   29.50
  -9  -9   1  154.98   45.10
   7   9  -1   15.00   18.80
   7   9  -1   10.00   16.20
   7   9  -1   17.50   16.00
  -7  -9   1    3.60   11.80
  -7  -9   1    0.90   20.20
  -7  -9   1   27.30   19.30
   5   9  -1   53.39   21.60
   5   9  -1   43.90   22.00
   5   9  -1   58.29   22.30
  -5  -9   1  116.29   31.60
  -5  -9   1   72.69   21.90
  -5  -9   1   88.89   26.60
   3   9  -1  246.28   31.40
   3   9  -1  297.97   35.80
   3   9  -1  208.88   35.90
  -3  -9   1  227.28   36.50
  -3  -9   1  186.08   34.00
  -3  -9   1  315.47   36.30
   1   9  -1   26.90   14.30
   1   9  -1   29.40   13.70
   1   9  -1   35.70   14.80
  -1  -9   1   11.80   12.80
  -1  -9   1   25.20   14.80
  -1  -9   1   25.70   14.30
  -1   9  -1   -5.10    8.80
  -1   9  -1   12.00    9.40
   1  -9   1   -4.50    8.30
   1  -9   1   10.90   11.10
   1  -9   1   22.50   11.20
   1  -9   1    4.90    8.00
  -3   9  -1  307.57   30.50
  -3   9  -1  343.37   33.70
   3  -9   1  297.67   27.10
   3  -9   1  355.26   36.40
   3  -9   1  326.07   34.10
   3  -9   1  324.67   27.60
  -5   9  -1   23.00   12.80
  -5   9  -1   47.70   14.90
   5  -9   1    1.10   10.60
   5  -9   1   -0.90    9.70
   5  -9   1   -3.70    9.40
   5  -9   1   26.00   10.50
  -7   9  -1   11.50   14.00
  -7   9  -1   22.30   11.60
   7  -9   1   13.10   14.90
   7  -9   1    7.80   14.70
   7  -9   1    4.90   11.90
  -9   9  -1  -30.30   10.30
  -9   9  -1   -2.20   19.60
  11  -9   1   64.49   25.40
  13  -9   1  158.58   35.70
  15  -9   1  -43.30   20.20
 -16  -8   1   34.60   32.10
  14   8  -1  -25.90   16.40
 -14  -8   1   54.49   33.90
 -14  -8   1    4.00   32.30
  12   8  -1  -11.20   24.60
  12   8  -1   13.60   14.80
 -12  -8   1    7.00   32.80
 -12  -8   1   25.30   21.90
  10   8  -1    3.70   15.50
  10   8  -1  -20.00    8.80
  10   8  -1    6.40   17.70
 -10  -8   1   -5.40   24.10
 -10  -8   1   -8.30   18.30
   8   8  -1  -30.00   15.20
   8   8  -1    0.00   11.90
  -8  -8   1    4.90   10.10
  -8  -8   1   -3.50   14.40
  -8  -8   1   -0.10   11.40
   6   8  -1   32.50   15.50
   6   8  -1   43.80   19.60
   6   8  -1   26.30   18.70
  -6  -8   1   59.09   21.20
  -6  -8   1   20.50   20.90
  -6  -8   1   53.29   20.40
   4   8  -1   10.60   14.40
   4   8  -1    7.20   11.60
   4   8  -1    2.80   10.70
  -4  -8   1   16.50   13.90
  -4  -8   1   22.70   16.80
  -4  -8   1   -1.80    7.90
   2   8  -1   -4.50    6.80
   2   8  -1   13.20   11.60
   2   8  -1   -0.40   10.40
  -2  -8   1   -8.10    8.10
  -2  -8   1    6.80   10.30
  -2  -8   1    8.40   11.00
   0   8  -1  167.18   21.50
   0   8  -1  162.38   25.30
   0   8  -1  155.68   25.50
   0  -8   1  143.79   24.40
   0  -8   1  217.58   24.80
   0  -8   1  139.69   26.00
  -2   8  -1   46.00   13.20
  -2   8  -1   30.30   13.40
   2  -8   1   34.70   11.80
   2  -8   1   62.19   15.90
   2  -8   1   42.10   15.40
   2  -8   1   46.30   12.90
  -4   8  -1   23.60   12.00
  -4   8  -1   14.50   11.60
   4  -8   1   19.20   11.80
   4  -8   1   -7.00    8.60
   4  -8   1   24.20   10.10
  -6   8  -1    3.20   11.10
  -6   8  -1   13.40   11.90
   6  -8   1   21.20   14.00
   6  -8   1   37.20   13.10
   6  -8   1   27.70   15.00
  -8   8  -1  134.69   27.30
  -8   8  -1  188.78   31.80
  -8   8  -1  112.49   26.10
   8  -8   1  145.19   27.30
   8  -8   1  142.19   31.10
 -10   8  -1   -7.70   13.70
 -10   8  -1   29.50   17.50
  10  -8   1   14.50   15.10
  10  -8   1   20.90   21.00
 -12   8  -1    8.00   18.50
  12  -8   1    4.80   17.00
  14  -8   1   -1.90   15.50
  16  -8   1  -35.50   20.80
 -17  -7   1   55.19   34.80
 -15  -7   1   57.69   29.80
 -15  -7   1   83.59   35.90
  13   7  -1  201.68   47.50
  13   7  -1  204.28   52.29
 -13  -7   1  160.18   46.70
 -13  -7   1  160.28   45.70
  11   7  -1   -1.00   16.20
  11   7  -1   21.70   25.30
  11   7  -1   41.40   24.20
 -11  -7   1   32.10   25.10
 -11  -7   1   64.89   27.90
   9   7  -1   64.29   23.50
   9   7  -1   34.00   22.30
   9   7  -1   87.69   29.90
  -9  -7   1   26.50   21.10
  -9  -7   1   13.10   19.40
  -9  -7   1   87.29   27.90
   7   7  -1  100.39   30.40
   7   7  -1  132.09   29.90
  -7  -7   1  126.79   32.40
  -7  -7   1  143.89   37.50
  -7  -7   1  146.29   33.50
   5   7  -1  471.15   47.70
   5   7  -1  377.46   40.70
  -5  -7   1  550.14   50.29
  -5  -7   1  328.57   39.50
  -5  -7   1  436.36   42.00
   3   7  -1  888.31   61.09
   3   7  -1  974.50   61.09
   3   7  -1  864.61   57.29
  -3  -7   1  966.20   60.69
  -3  -7   1 1036.30   64.89
  -3  -7   1  948.31   61.09
   1   7  -1  147.79   24.90
   1   7  -1  116.99   21.10
   1   7  -1  135.69   23.80
  -1  -7   1   97.29   20.20
  -1  -7   1  145.19   24.20
  -1  -7   1  137.59   23.90
  -1   7  -1  167.48   21.60
  -1   7  -1  149.99   19.30
   1  -7   1  179.38   23.50
   1  -7   1  185.98   21.50
   1  -7   1  185.78   21.70
   1  -7   1  199.58   22.30
  -3   7  -1  221.08   23.90
  -3   7  -1  231.38   23.40
   3  -7   1  201.08   21.40
   3  -7   1  185.98   23.00
   3  -7   1  213.48   26.10
   3  -7   1  213.88   21.50
  -5   7  -1  270.87   28.10
  -5   7  -1  292.67   29.20
  -5   7  -1  296.77   29.30
   5  -7   1  254.57   25.50
   5  -7   1  272.27   30.00
   5  -7   1  259.37   29.60
  -7   7  -1   37.90   15.60
  -7   7  -1   22.00   13.50
  -7   7  -1   50.49   16.20
   7  -7   1   23.50   14.50
   7  -7   1   55.39   16.90
  -9   7  -1  107.89   25.50
  -9   7  -1   97.29   26.40
  -9   7  -1  142.29   30.60
   9  -7   1  103.59   25.40
   9  -7   1  169.58   34.80
   9  -7   1  135.29   30.70
 -11   7  -1  138.69   34.30
 -11   7  -1  213.78   41.40
  11  -7   1  250.17   47.00
  11  -7   1  229.28   40.70
 -13   7  -1  -39.40   16.10
  13  -7   1  -22.40   16.30
  15  -7   1  -42.90   16.20
  17  -7   1  -26.50   17.80
 -18  -6   1  158.88   53.79
 -16  -6   1  883.51   97.59
  14   6  -1   45.30   26.00
  14   6  -1   52.79   29.30
 -14  -6   1   70.49   37.50
 -14  -6   1   45.50   24.10
  12   6  -1  490.55   77.89
  12   6  -1  707.43   73.99
  12   6  -1  628.64   68.19
 -12  -6   1  498.05   59.39
 -12  -6   1  496.55   67.29
 -12  -6   1  627.14   69.79
  10   6  -1    0.30   12.90
  10   6  -1   31.20   22.70
  10   6  -1   22.90   18.30
 -10  -6   1  -11.20   12.20
 -10  -6   1   75.89   26.70
   8   6  -1 1860.01  109.29
   8   6  -1 1738.03  103.69
   8   6  -1 1791.02  103.09
  -8  -6   1 1589.54  104.49
  -8  -6   1 1632.54  101.89
  -8  -6   1 1556.34   98.49
   6   6  -1  301.87   35.50
   6   6  -1  296.97   39.30
  -6  -6   1  280.97   48.10
  -6  -6   1  314.47   37.40
  -6  -6   1  251.77   41.90
   4   6  -1 1921.51   95.99
   4   6  -1 1729.93   89.29
  -4  -6   1 1889.21   92.49
  -4  -6   1 1733.03   93.79
  -4  -6   1 1828.12   91.99
   2   6  -1 1445.56   72.09
   2   6  -1 1458.55   73.89
   2   6  -1 1379.76   69.69
  -2  -6   1 1369.96   71.29
  -2  -6   1 1439.46   73.49
  -2  -6   1 1454.65   72.19
   0   6  -1 1113.69   54.29
   0   6  -1 1154.98   56.99
   0   6  -1 1170.68   58.49
   0  -6   1 1017.70   55.59
   0  -6   1 1009.60   54.59
   0  -6   1 1073.39   55.59
  -2   6  -1  210.28   20.40
  -2   6  -1  194.98   21.10
   2  -6   1  178.38   20.50
   2  -6   1  166.38   19.20
   2  -6   1  185.18   19.30
   2  -6   1  208.58   23.00
  -4   6  -1   46.40   13.00
  -4   6  -1   56.49   14.70
  -4   6  -1   68.09   15.50
   4  -6   1   59.99   15.50
   4  -6   1   53.69   15.90
   4  -6   1   25.00   10.50
  -6   6  -1   -2.30    8.30
  -6   6  -1    7.30    9.40
  -6   6  -1    7.90   11.10
   6  -6   1    3.90    9.70
   6  -6   1   -1.20    9.20
   6  -6   1    6.20    9.60
  -8   6  -1 1915.51  102.29
  -8   6  -1 1837.12  111.69
  -8   6  -1 2040.40  102.09
   8  -6   1 2115.09  107.79
   8  -6   1 2033.30  105.19
   8  -6   1 2017.40  100.59
 -10   6  -1    2.90   11.70
 -10   6  -1    6.10   14.90
 -10   6  -1   43.20   22.40
  10  -6   1   49.60   19.80
  10  -6   1   41.10   21.20
  10  -6   1   62.99   22.80
 -12   6  -1   22.30   17.10
 -12   6  -1   -7.10   16.70
  12  -6   1   59.49   26.40
  12  -6   1    0.60   17.30
 -14   6  -1  263.97   53.59
  14  -6   1  259.47   52.29
 -16   6  -1  318.67   64.69
  16  -6   1  394.46   68.99
 -19  -5   1  205.28   62.39
 -17  -5   1  254.87   62.39
  15   5  -1  200.68   64.29
 -15  -5   1  140.09   41.60
 -15  -5   1  241.98   59.99
  13   5  -1  440.06   71.39
  13   5  -1  470.35   59.99
  13   5  -1  465.35   61.79
 -13  -5   1  596.14   75.99
 -13  -5   1  493.95   64.79
 -13  -5   1  509.55   63.29
  11   5  -1  812.52   71.29
  11   5  -1  752.72   73.29
  11   5  -1  720.83   73.39
 -11  -5   1  739.33   75.49
 -11  -5   1  761.62   70.29
 -11  -5   1  815.62   73.99
   9   5  -1 1039.60   81.29
   9   5  -1 1093.99   78.49
   9   5  -1 1040.60   78.99
  -9  -5   1 1003.00   76.59
  -9  -5   1 1022.70   78.49
  -9  -5   1 1196.68   86.09
   7   5  -1  152.08   30.20
   7   5  -1  130.89   32.50
   7   5  -1  154.58   31.30
  -7  -5   1  168.38   32.20
  -7  -5   1  196.88   36.00
  -7  -5   1  161.68   34.80
   5   5  -1 3559.54  149.79
   5   5  -1 3664.83  154.98
   5   5  -1 3807.42  151.68
  -5  -5   1 3463.25  149.88
  -5  -5   1 3444.26  148.39
   3   5  -1 2037.60   92.59
   3   5  -1 2180.68   98.49
  -3  -5   1 2165.18   95.19
  -3  -5   1 2057.39   97.19
  -3  -5   1 2225.98   95.59
   1   5  -1   50.59   13.50
   1   5  -1   55.69   12.60
   1   5  -1   91.49   16.30
  -1  -5   1   68.99   13.90
  -1  -5   1   57.09   14.10
  -1  -5   1   78.19   14.40
  -1   5  -1  111.19   16.20
  -1   5  -1  109.49   13.60
   1  -5   1  117.99   15.30
   1  -5   1  103.59   16.30
   1  -5   1  109.49   16.30
   1  -5   1  117.59   14.80
  -3   5  -1 2009.40   84.89
  -3   5  -1 2032.40   82.59
  -3   5  -1 2140.59   83.59
   3  -5   1 1918.31   82.09
   3  -5   1 2039.60   86.09
   3  -5   1 2016.30   85.89
  -5   5  -1 3779.92  145.79
  -5   5  -1 3955.00  148.99
   5  -5   1 3865.81  147.29
   5  -5   1 3842.42  150.68
   5  -5   1 3884.71  150.68
  -7   5  -1  251.47   30.40
  -7   5  -1  213.08   32.60
  -7   5  -1  176.58   29.30
   7  -5   1  209.38   32.50
   7  -5   1  191.98   31.00
   7  -5   1  230.18   28.80
  -9   5  -1  250.17   39.10
  -9   5  -1  249.88   39.90
  -9   5  -1  274.57   35.80
   9  -5   1  282.57   41.90
   9  -5   1  235.28   37.70
   9  -5   1  269.57   42.70
 -11   5  -1 1167.78   84.49
 -11   5  -1 1219.98   82.59
 -11   5  -1 1089.79   82.59
  11  -5   1 1088.59   81.69
  11  -5   1 1143.39   82.89
  11  -5   1 1102.89   81.69
 -13   5  -1  748.63   73.59
 -13   5  -1  695.73   69.49
  13  -5   1  707.03   72.09
  13  -5   1  854.31   76.39
 -15   5  -1   58.39   49.80
  15  -5   1   31.90   31.00
  15  -5   1   14.90   23.00
 -17   5  -1  155.08   46.40
  17  -5   1  203.18   46.20
 -18  -4   1  -40.80   28.80
  16   4  -1  241.48   70.59
 -16  -4   1  386.06   75.29
  14   4  -1 1815.42  128.09
  14   4  -1 1661.33  121.39
  14   4  -1 1644.14  128.59
 -14  -4   1 1756.72  126.19
 -14  -4   1 1806.22  125.79
 -14  -4   1 1955.10  137.69
  12   4  -1  494.75   57.59
  12   4  -1  487.75   60.59
 -12  -4   1  437.56   66.59
 -12  -4   1  444.06   70.59
 -12  -4   1  508.05   59.89
  10   4  -1    7.60   12.70
  10   4  -1   -4.20    9.30
  10   4  -1   37.50   20.50
 -10  -4   1    1.10   15.50
 -10  -4   1    5.40    9.50
 -10  -4   1   -0.20   11.10
   8   4  -1 1536.35   88.69
   8   4  -1 1366.26   86.69
   8   4  -1 1432.76   90.69
  -8  -4   1 1301.07   89.29
  -8  -4   1 1264.17   83.69
  -8  -4   1 1329.37   99.89
   6   4  -1 4214.08  166.48
   6   4  -1 3895.21  162.08
   6   4  -1 3777.72  166.68
  -6  -4   1 3932.31  163.98
  -6  -4   1 4137.79  170.58
  -6  -4   1 3905.81  163.28
   4   4  -1  518.25   38.20
   4   4  -1  519.95   38.60
   4   4  -1  503.05   40.70
  -4  -4   1  437.26   36.60
  -4  -4   1  478.95   40.40
  -4  -4   1  534.85   40.00
   2   4  -1 3304.77  114.39
   2   4  -1 3171.88  119.19
   2   4  -1 2608.54  121.49
  -2  -4   1 3020.40  117.39
  -2  -4   1 2928.31  112.79
  -2  -4   1 2844.22  112.09
   0   4  -1 1928.41   71.49
   0   4  -1 1775.12   71.59
   0   4  -1 1864.31   76.99
   0  -4   1 1880.01   76.39
   0  -4   1 1962.70   73.09
   0  -4   1 1837.92   72.49
  -2   4  -1 2123.99   80.79
  -2   4  -1 2258.37   81.79
  -2   4  -1 2198.58   86.09
   2  -4   1 2262.17   84.89
   2  -4   1 2138.09   83.59
   2  -4   1 1990.70   82.29
  -4   4  -1  507.35   32.50
  -4   4  -1  456.75   33.40
  -4   4  -1  504.55   34.10
   4  -4   1  413.86   31.80
   4  -4   1  453.85   33.40
   4  -4   1  452.95   39.10
  -6   4  -1  853.11   55.39
  -6   4  -1  991.50   56.19
  -6   4  -1  775.22   60.79
   6  -4   1  863.71   54.59
   6  -4   1  838.62   54.49
   6  -4   1  904.61   56.79
  -8   4  -1 1711.93   93.29
  -8   4  -1 1560.54   89.99
  -8   4  -1 1568.74   87.59
   8  -4   1 1838.92   95.09
   8  -4   1 1671.93   91.89
   8  -4   1 1725.13   93.19
 -10   4  -1  153.58   32.00
 -10   4  -1  124.89   29.90
 -10   4  -1  143.79   33.50
  10  -4   1   68.99   24.00
  10  -4   1  127.69   31.60
  10  -4   1  158.18   33.90
 -12   4  -1  578.64   59.79
 -12   4  -1  556.34   61.29
  12  -4   1  664.93   65.19
  12  -4   1  604.14   62.49
 -14   4  -1  508.15   62.39
 -14   4  -1  556.64   69.19
  14  -4   1  506.25   60.79
  14  -4   1  445.76   60.39
 -16   4  -1  491.45   77.09
  16  -4   1  370.56   65.69
  16  -4   1  271.17   54.49
 -18   4  -1  -14.60   32.50
  18  -4   1   40.40   27.30
 -19  -3   1  272.87   81.69
  17   3  -1  528.85  104.69
 -17  -3   1  609.74   78.79
  15   3  -1   54.69   35.10
  15   3  -1   55.79   31.90
 -15  -3   1   43.10   29.70
 -15  -3   1   98.89   36.10
 -15  -3   1   58.49   32.50
  13   3  -1  232.98   50.99
  13   3  -1  280.27   53.89
 -13  -3   1  205.48   45.30
 -13  -3   1  139.19   37.80
 -13  -3   1  188.98   47.00
  11   3  -1  544.75   58.09
  11   3  -1  463.95   58.89
  11   3  -1  657.93   64.69
 -11  -3   1  571.14   57.89
 -11  -3   1  578.84   63.09
 -11  -3   1  607.34   61.99
   9   3  -1 1476.05   89.89
   9   3  -1 1412.26   89.79
   9   3  -1 1149.39   86.39
  -9  -3   1 1528.05   93.09
  -9  -3   1 1359.36   92.79
  -9  -3   1 1317.47   85.89
   7   3  -1  683.23   56.79
   7   3  -1  643.74   51.19
   7   3  -1  675.23   53.99
  -7  -3   1  592.54   50.69
  -7  -3   1  702.83   58.49
  -7  -3   1  590.04   49.90
   5   3  -1 2842.22  118.59
   5   3  -1 2709.63  120.89
   5   3  -1 2815.62  117.09
  -5  -3   1 2638.24  115.79
  -5  -3   1 2620.74  120.09
  -5  -3   1 2761.32  117.09
   3   3  -1 1574.64   76.29
   3   3  -1 1687.13   73.59
   3   3  -1 1755.22   74.29
  -3  -3   1 1642.54   73.69
  -3  -3   1 1800.02   75.39
   1   3  -1  497.85   27.20
   1   3  -1  574.44   28.40
   1   3  -1  492.25   31.80
  -1  -3   1  529.45   28.50
  -1  -3   1  549.85   32.90
  -1  -3   1  501.45   27.50
  -1   3  -1  134.89   11.90
  -1   3  -1  134.59   11.60
   1  -3   1  156.48   15.90
   1  -3   1  126.99   12.40
   1  -3   1  170.58   14.00
  -3   3  -1 1672.63   68.89
  -3   3  -1 1547.95   70.29
  -3   3  -1 1756.52   67.99
   3  -3   1 1713.33   69.49
   3  -3   1 1648.34   68.69
   3  -3   1 1667.03   71.09
  -5   3  -1 3432.86  141.89
  -5   3  -1 3787.12  142.79
  -5   3  -1 3908.81  141.59
   5  -3   1 3723.53  141.99
   5  -3   1 3726.73  143.49
   5  -3   1 3472.15  142.29
  -7   3  -1   54.19   19.90
  -7   3  -1   10.40   10.80
   7  -3   1   28.00   13.30
   7  -3   1   32.30   14.10
   7  -3   1    4.20   11.70
  -9   3  -1  343.27   42.40
  -9   3  -1  372.76   41.90
   9  -3   1  360.86   44.40
   9  -3   1  370.36   42.10
   9  -3   1  399.86   42.10
 -11   3  -1 1237.88   88.19
 -11   3  -1 1203.88   89.39
  11  -3   1 1161.58   85.99
  11  -3   1 1281.57   88.89
  11  -3   1 1283.07   88.89
 -13   3  -1  478.15   56.59
 -13   3  -1  445.56   67.19
  13  -3   1  435.06   56.89
  13  -3   1  513.15   61.49
 -15   3  -1  -25.20   20.90
 -15   3  -1   66.89   32.40
  15  -3   1   -4.30   21.20
  15  -3   1   73.89   30.90
 -17   3  -1  315.57   69.09
  17  -3   1  335.27   65.79
 -20  -2   1   73.09   36.50
  18   2  -1    5.00   36.20
 -18  -2   1   87.99   44.30
  16   2  -1  250.77   75.69
  16   2  -1  368.36   68.49
 -16  -2   1  336.47   65.09
 -16  -2   1  432.56   77.89
  14   2  -1  238.48   54.19
  14   2  -1  279.07   57.09
 -14  -2   1  330.07   60.09
 -14  -2   1  309.97   61.79
 -14  -2   1  291.87   59.89
  12   2  -1    7.20   19.30
  12   2  -1    1.80   12.00
  12   2  -1    8.40   14.80
 -12  -2   1   -5.60   10.00
 -12  -2   1   22.30   21.40
 -12  -2   1   11.20   22.10
  10   2  -1   56.39   21.10
  10   2  -1   39.00   24.80
  10   2  -1   22.90   20.50
 -10  -2   1   67.49   22.50
 -10  -2   1    3.00   20.60
 -10  -2   1   62.69   23.60
   8   2  -1  403.26   42.00
   8   2  -1  450.15   48.10
   8   2  -1  338.97   38.90
  -8  -2   1  425.86   44.40
  -8  -2   1  410.26   44.60
  -8  -2   1  511.75   46.60
   6   2  -1 4072.89  166.88
   6   2  -1 4393.76  170.28
   6   2  -1 4329.27  172.78
  -6  -2   1 4355.66  169.78
  -6  -2   1 4365.36  173.38
  -6  -2   1 4214.18  168.08
   4   2  -1  541.25   36.10
   4   2  -1  586.04   41.80
  -4  -2   1  489.15   36.30
  -4  -2   1  555.64   42.60
  -4  -2   1  497.95   35.70
   2   2  -1 2020.20   80.79
   2   2  -1 2082.69   76.19
  -2  -2   1 1936.51   79.79
  -2  -2   1 2002.00   75.79
  -2  -2   1 2064.09   76.59
   0   2  -1 2428.46   75.89
   0   2  -1 2426.46   76.39
   0  -2   1 2457.15   76.99
   0  -2   1 2234.58   76.29
   0  -2   1 2302.17   85.59
  -2   2  -1  769.62   35.50
  -2   2  -1  811.12   40.50
  -2   2  -1  793.32   35.00
   2  -2   1  802.62   35.90
   2  -2   1  813.82   40.40
  -4   2  -1   -5.70    8.10
  -4   2  -1   -5.50    5.70
   4  -2   1    1.00    7.80
   4  -2   1    8.20   10.90
   4  -2   1    0.10    6.10
  -6   2  -1 2771.12  121.09
   6  -2   1 2746.73  118.29
   6  -2   1 2762.02  121.19
  -8   2  -1 1400.96   81.89
  -8   2  -1 1437.96   86.49
   8  -2   1 1383.36   84.69
   8  -2   1 1637.54   87.89
   8  -2   1 1394.86   83.69
 -10   2  -1  170.68   37.90
 -10   2  -1  285.27   43.30
  10  -2   1  206.28   38.80
  10  -2   1  201.58   40.00
  10  -2   1  198.28   43.90
 -12   2  -1   41.20   23.90
  12  -2   1   39.50   20.90
  12  -2   1   16.40   18.80
  12  -2   1   71.89   24.70
 -14   2  -1  346.57   62.79
 -14   2  -1  407.86   65.19
  14  -2   1  461.25   58.19
  14  -2   1  480.75   57.69
 -16   2  -1  184.98   52.29
  16  -2   1  153.98   48.10
  16  -2   1   96.89   37.20
 -18   2  -1   51.89   43.50
  18  -2   1   12.50   29.00
 -19  -1   1   54.29   34.40
  17   1  -1  192.68   55.89
 -17  -1   1  107.59   48.00
  15   1  -1   -8.30   13.70
  15   1  -1   -0.90   27.80
 -15  -1   1  -12.00   16.00
 -15  -1   1  -22.80   21.30
  13   1  -1   32.40   28.50
  13   1  -1   35.50   24.60
  13   1  -1   58.79   28.10
 -13  -1   1   62.39   30.60
 -13  -1   1    7.60   18.70
 -13  -1   1   35.10   19.30
  11   1  -1   -2.50    9.00
  11   1  -1   -1.60   11.90
  11   1  -1   -3.90   14.60
 -11  -1   1    2.90    9.90
 -11  -1   1    0.80   19.60
 -11  -1   1   18.30   17.00
   9   1  -1  194.88   39.00
   9   1  -1  242.28   39.20
   9   1  -1  169.38   32.40
  -9  -1   1  191.78   37.50
  -9  -1   1  202.38   38.10
  -9  -1   1  241.28   38.60
   7   1  -1  686.73   50.29
   7   1  -1  649.64   52.79
   7   1  -1  579.64   48.00
  -7  -1   1  705.93   50.99
  -7  -1   1  615.64   48.70
  -7  -1   1  627.34   50.69
   5   1  -1  359.16   31.20
   5   1  -1  405.96   34.70
   5   1  -1  385.56   34.00
  -5  -1   1  406.36   34.60
  -5  -1   1  390.66   34.50
  -5  -1   1  348.17   31.40
   3   1  -1  739.03   41.00
   3   1  -1  710.13   38.10
  -3  -1   1  689.63   37.90
  -3  -1   1  817.42   42.00
  -3  -1   1  767.32   39.20
   1   1  -1   -0.30    0.60
   1   1  -1   -0.50    1.00
   1   1  -1    3.40    2.50
  -1   1  -1   31.10    5.00
  -1   1  -1   47.20    9.10
   1  -1   1   52.69    5.90
  -3   1  -1  758.72   40.80
  -3   1  -1  836.12   45.30
   3  -1   1  834.12   42.30
   3  -1   1  823.02   46.20
   3  -1   1  879.11   43.50
  -5   1  -1  338.87   30.60
  -5   1  -1  342.87   33.50
  -5   1  -1  354.76   30.70
   5  -1   1  323.37   31.70
   5  -1   1  406.66   33.10
   5  -1   1  322.47   30.80
  -7   1  -1  272.27   40.60
  -7   1  -1  265.17   31.60
  -7   1  -1  254.47   30.90
   7  -1   1  257.57   32.80
   7  -1   1  263.77   39.40
   7  -1   1  292.97   32.30
  -9   1  -1   23.30   20.50
  -9   1  -1    0.30   11.80
   9  -1   1   13.30   16.70
   9  -1   1    7.70   12.30
   9  -1   1    5.40   11.90
 -11   1  -1  309.77   51.29
 -11   1  -1  292.37   47.60
 -11   1  -1  265.07   45.90
  11  -1   1  276.07   49.10
  11  -1   1  371.56   54.59
  11  -1   1  320.17   41.20
 -13   1  -1    6.90   17.30
 -13   1  -1   36.50   21.50
  13  -1   1  -21.70   20.90
  13  -1   1   53.19   25.70
 -15   1  -1   19.00   26.70
  15  -1   1  -28.70   19.70
  15  -1   1  -12.20   11.60
 -17   1  -1  277.67   65.89
 -19   1  -1  -13.00   21.60
  19  -1   1   17.60   27.30
 -20   0   1  -42.40   25.80
  18   0  -1  -60.79   23.20
 -18   0   1    4.80   21.50
  16   0  -1  -20.50   25.30
  16   0  -1   24.80   20.30
 -16   0   1   11.60   26.60
  14   0  -1  -22.40   16.30
  14   0  -1   12.50   17.80
  14   0  -1   -0.90   22.30
 -14   0   1   10.50   22.30
 -14   0   1    8.50   25.10
  12   0  -1   26.60   23.60
  12   0  -1    0.90   16.10
  12   0  -1    5.50   10.80
 -12   0   1   -1.00    9.90
 -12   0   1    8.30   17.90
  10   0  -1    8.30    8.60
  10   0  -1  -21.20   11.30
 -10   0   1  -26.80   13.50
 -10   0   1    4.40    9.70
 -10   0   1    6.00    9.90
   8   0  -1    5.60   10.40
   8   0  -1   14.30   16.90
   8   0  -1  -13.00    8.50
  -8   0   1   -2.40    9.90
  -8   0   1    8.80   11.70
  -8   0   1    1.00    7.70
   6   0  -1    2.10   10.20
   6   0  -1    8.40   12.60
   6   0  -1    3.80   10.20
  -6   0   1   17.90   12.20
  -6   0   1   -1.50    6.40
  -6   0   1   -5.80    5.10
   4   0  -1    4.50    7.10
   4   0  -1   -1.90    6.60
   4   0  -1    5.90    9.40
  -4   0   1    8.10    8.40
  -4   0   1   12.20    8.60
  -4   0   1    7.20   12.90
   2   0  -1    0.60    1.40
   2   0  -1   -0.30    1.60
  -2   0   1   -0.30    1.50
  -2   0   1   19.00    5.80
   0   0  -1   -0.20    0.50
   0   0   1    0.20    0.90
  -2   0  -1    0.30    5.70
  -2   0  -1    4.50    4.60
  -2   0  -1    1.30    3.90
   2   0   1    3.80    5.80
   2   0   1    5.70    6.00
   2   0   1    2.80    4.70
  -4   0  -1   -5.10    7.70
  -4   0  -1    9.50   11.00
   4   0   1   -7.40    4.70
   4   0   1    5.20    9.90
   4   0   1    5.80    9.90
  -6   0  -1   -6.20    7.10
   6   0   1    3.20   14.40
   6   0   1    3.90    8.10
   6   0   1   -0.70    8.70
  -8   0  -1   10.90   18.30
  -8   0  -1   -9.30    6.70
  -8   0  -1   -0.90    8.70
   8   0   1   -5.10    6.80
   8   0   1    0.50    8.00
 -10   0  -1   19.40   17.90
 -10   0  -1    7.10   10.50
 -10   0  -1   -7.00    8.10
  10   0   1   -9.80   16.20
  10   0   1    3.60   12.70
  10   0   1   -8.50    7.30
 -12   0  -1  -21.60   10.00
 -12   0  -1  -19.00   15.50
  12   0   1   12.90   12.40
  12   0   1   -6.50   11.40
  12   0   1   20.80   25.30
 -14   0  -1   32.90   24.50
 -14   0  -1   -5.20   15.50
  14   0   1  -28.50   10.10
  14   0   1    6.50   19.80
 -16   0  -1   56.19   32.10
  16   0   1  -24.90   21.40
 -18   0  -1   69.09   37.10
  18   0   1    7.20   29.10
  19  -1  -1   80.99   37.90
 -19   1   1   27.30   31.70
  17  -1  -1  163.58   46.80
  17  -1  -1  209.58   49.30
 -17   1   1  234.28   57.59
 -17   1   1  134.59   40.00
  15  -1  -1   -5.50   20.40
  15  -1  -1   -6.30   25.30
 -15   1   1  -36.30   18.60
 -15   1   1   -0.90   12.40
  13  -1  -1   22.50   21.80
  13  -1  -1   48.90   27.50
  13  -1  -1   15.00   19.80
 -13   1   1   23.80   22.80
 -13   1   1   44.30   22.30
 -13   1   1   22.50   18.20
  11  -1  -1   -0.50   12.20
  11  -1  -1   30.40   17.50
  11  -1  -1   21.50   20.50
 -11   1   1   -3.10    8.60
 -11   1   1   30.80   19.30
   9  -1  -1  152.18   31.20
   9  -1  -1  206.68   35.30
   9  -1  -1  146.79   31.80
  -9   1   1  213.48   37.90
  -9   1   1  203.28   36.50
   7  -1  -1  659.33   49.50
   7  -1  -1  628.24   49.90
   7  -1  -1  764.22   52.49
  -7   1   1  633.34   48.20
  -7   1   1  704.93   50.89
  -7   1   1  690.53   50.89
   5  -1  -1  368.76   31.30
   5  -1  -1  295.77   27.90
   5  -1  -1  401.26   30.80
  -5   1   1  378.76   31.60
  -5   1   1  299.77   29.20
  -5   1   1  294.17   31.20
   3  -1  -1  716.83   37.60
   3  -1  -1  693.03   33.80
   3  -1  -1  679.03   37.70
  -3   1   1  629.84   33.20
  -3   1   1  729.53   38.50
   1   1   1   75.79    9.80
   1   1   1   44.70    9.30
  -3  -1  -1  887.81   47.70
  -3  -1  -1  809.62   48.00
  -3  -1  -1  764.22   45.80
   3   1   1  936.61   48.70
   3   1   1  898.31   47.70
   3   1   1  762.82   47.00
  -5  -1  -1  337.57   34.60
  -5  -1  -1  351.46   33.30
  -5  -1  -1  296.07   31.60
   5   1   1  386.06   34.20
   5   1   1  354.86   36.90
   5   1   1  403.16   34.70
  -7  -1  -1  242.78   31.00
  -7  -1  -1  299.37   44.40
  -7  -1  -1  186.38   31.60
   7   1   1  142.19   31.80
   7   1   1  260.67   31.90
   7   1   1  230.58   30.00
  -9  -1  -1    3.30    9.40
  -9  -1  -1   -3.90   11.70
  -9  -1  -1   12.10   15.60
   9   1   1   19.80   20.70
   9   1   1    4.40   14.70
   9   1   1   12.60   12.40
 -11  -1  -1  298.97   51.59
 -11  -1  -1  303.47   53.49
 -11  -1  -1  310.17   49.70
  11   1   1  280.77   50.09
  11   1   1  305.17   53.89
  11   1   1  286.97   49.80
 -13  -1  -1   26.90   24.30
 -13  -1  -1    1.80   26.20
 -13  -1  -1   82.39   29.90
  13   1   1   -9.70   20.20
  13   1   1   18.60   22.00
  13   1   1   14.30   19.90
 -15  -1  -1   28.80   29.10
 -15  -1  -1  -44.90   23.30
  15   1   1  -11.10   14.90
  15   1   1   -3.30   22.60
 -17  -1  -1  109.89   43.30
 -17  -1  -1  180.08   58.29
  17   1   1   71.89   37.30
 -19  -1  -1  -60.89   28.00
  19   1   1  -24.50   39.70
  20  -2  -1  122.39   48.20
 -20   2   1  102.19   47.80
  18  -2  -1   15.10   25.90
 -18   2   1  -25.70   26.50
  16  -2  -1  384.56   65.49
 -16   2   1  449.95   73.49
 -16   2   1  375.86   63.69
  14  -2  -1  303.57   55.59
  14  -2  -1  259.47   52.39
 -14   2   1  288.47   53.19
 -14   2   1  255.57   53.59
 -14   2   1  272.47   50.39
  12  -2  -1   20.50   15.40
  12  -2  -1   -8.90   15.50
  12  -2  -1   12.40   18.70
 -12   2   1   22.10   20.00
 -12   2   1    7.30   18.50
 -12   2   1   30.50   19.00
  10  -2  -1   64.09   24.30
  10  -2  -1   63.19   24.00
 -10   2   1   54.49   20.20
 -10   2   1   15.50   18.20
 -10   2   1   29.30   20.00
   8  -2  -1  406.56   40.40
   8  -2  -1  402.06   41.90
   8  -2  -1  435.86   41.50
  -8   2   1  400.56   40.50
  -8   2   1  362.26   40.80
  -8   2   1  391.86   40.10
   6  -2  -1 4224.78  159.28
  -6   2   1 4472.55  168.48
  -6   2   1 4096.49  158.48
   4  -2  -1  527.85   32.00
   4  -2  -1  521.15   36.70
   4  -2  -1  550.94   38.20
  -4   2   1  522.15   31.20
  -4   2   1  501.05   36.90
  -4   2   1  556.54   36.20
   2  -2  -1 2032.40   67.19
   2  -2  -1 2051.19   81.89
   2  -2  -1 2059.29   81.99
  -2   2   1 2072.79   81.49
  -2   2   1 2100.39   81.79
  -2   2   1 2155.68   67.49
   0  -2  -1 2372.46   87.09
   0  -2  -1 2266.17   86.19
   0  -2  -1 2403.46   79.69
   0   2   1 2420.26   79.89
   0   2   1 1922.11   95.99
  -2  -2  -1  866.61   46.50
  -2  -2  -1  798.12   44.20
  -2  -2  -1  775.02   43.80
   2   2   1  825.12   44.80
   2   2   1  803.02   45.30
   2   2   1  790.32   44.20
  -4  -2  -1   -6.00    4.70
  -4  -2  -1   -1.70    9.50
  -4  -2  -1   -1.10    7.90
   4   2   1    1.60    8.20
   4   2   1   -3.40    5.60
   4   2   1   -3.30    6.00
  -6  -2  -1 3107.59  135.39
  -6  -2  -1 3043.70  137.99
  -6  -2  -1 2970.40  133.29
   6   2   1 3143.69  135.59
   6   2   1 3014.20  133.59
   6   2   1 2896.91  135.59
  -8  -2  -1 1578.84   96.39
  -8  -2  -1 1476.05   89.89
  -8  -2  -1 1386.66   87.69
   8   2   1 1432.36   87.69
   8   2   1 1390.46   90.29
   8   2   1 1420.16   88.79
 -10  -2  -1  235.48   44.10
 -10  -2  -1  205.28   44.90
  10   2   1  266.27   46.50
  10   2   1  222.78   41.60
  10   2   1  135.69   37.90
 -12  -2  -1   11.30   21.80
 -12  -2  -1    0.90   19.70
 -12  -2  -1   70.09   26.40
  12   2   1   17.20   21.60
  12   2   1   59.59   25.10
  12   2   1   13.70   22.30
 -14  -2  -1  449.66   73.29
 -14  -2  -1  385.96   66.49
  14   2   1  502.55   78.19
  14   2   1  488.05   74.99
 -16  -2  -1  134.29   44.10
 -16  -2  -1  205.38   58.49
  16   2   1  152.28   45.50
  18   2   1   15.20   22.10
  19  -3  -1  123.59   46.50
 -19   3   1  254.67   57.79
  17  -3  -1  438.66   76.59
  17  -3  -1  422.86   73.49
 -17   3   1  500.65   65.99
  15  -3  -1   75.19   31.70
  15  -3  -1   82.19   31.10
 -15   3   1   64.49   24.30
 -15   3   1   34.80   30.10
  13  -3  -1  179.08   40.30
  13  -3  -1  161.18   39.60
  13  -3  -1  297.17   50.29
 -13   3   1  201.28   45.60
 -13   3   1  173.68   41.80
 -13   3   1  277.87   52.49
  11  -3  -1  592.64   57.19
  11  -3  -1  630.64   57.29
  11  -3  -1  558.94   58.49
 -11   3   1  512.95   53.59
 -11   3   1  563.34   56.29
 -11   3   1  552.84   64.29
   9  -3  -1 1508.25   88.69
   9  -3  -1 1384.56   86.39
   9  -3  -1 1266.37   78.09
  -9   3   1 1499.15   89.09
   7  -3  -1  542.85   45.50
   7  -3  -1  525.05   41.40
  -7   3   1  688.93   50.19
  -7   3   1  641.84   50.59
  -7   3   1  623.64   43.80
   5  -3  -1 2728.23  115.89
   5  -3  -1 2834.72  117.59
   5  -3  -1 2818.62  104.29
  -5   3   1 2608.84  102.39
  -5   3   1 2787.52  116.99
  -5   3   1 2682.73  113.99
   3  -3  -1 1764.52   78.69
   3  -3  -1 1676.13   64.99
   3  -3  -1 1843.62   79.09
  -3   3   1 1762.22   77.69
  -3   3   1 1835.92   79.09
   1  -3  -1  462.25   31.60
   1  -3  -1  528.55   20.90
   1  -3  -1  531.75   32.90
  -1   3   1  490.05   31.70
  -1   3   1  494.75   32.10
  -1  -3  -1  110.19   18.30
  -1  -3  -1  144.19   18.80
  -1  -3  -1  123.19   21.30
   1   3   1  134.79   17.80
   1   3   1   96.99   17.10
  -3  -3  -1 1673.63   80.69
  -3  -3  -1 1776.42   82.59
  -3  -3  -1 1683.43   81.19
   3   3   1 1640.44   80.99
   3   3   1 1678.53   81.09
   3   3   1 1781.62   81.99
  -5  -3  -1 3647.93  153.98
  -5  -3  -1 3910.41  156.98
  -5  -3  -1 3722.23  156.48
   5   3   1 3678.03  155.58
   5   3   1 3724.93  154.48
   5   3   1 3690.53  154.58
  -7  -3  -1    5.80   14.60
  -7  -3  -1   49.30   19.80
  -7  -3  -1    5.10   10.40
   7   3   1    8.20   12.60
   7   3   1   18.90   13.30
   7   3   1   54.89   22.50
  -9  -3  -1  314.97   49.90
  -9  -3  -1  349.67   54.39
  -9  -3  -1  380.96   47.80
   9   3   1  329.27   44.40
   9   3   1  387.46   44.60
   9   3   1  410.76   65.09
 -11  -3  -1 1228.88   97.09
 -11  -3  -1 1215.68   90.19
 -11  -3  -1 1287.37   94.29
  11   3   1  932.51   81.29
  11   3   1 1231.28   92.59
  11   3   1 1119.59   93.49
 -13  -3  -1  540.35   63.09
 -13  -3  -1  400.76   71.09
  13   3   1  656.03   70.39
  13   3   1  462.55   71.09
  13   3   1  556.24   71.29
 -15  -3  -1   64.69   27.10
 -15  -3  -1   30.50   29.20
  15   3   1   73.19   34.10
 -17  -3  -1  331.57   75.59
  17   3   1  340.67   67.29
  18  -4  -1   50.19   34.90
 -18   4   1    9.50   26.10
  16  -4  -1  358.26   68.19
  16  -4  -1  294.57   56.99
 -16   4   1  328.47   63.39
 -16   4   1  323.67   58.09
  14  -4  -1 2036.90  128.89
  14  -4  -1 1609.64  112.29
 -14   4   1 1906.61  144.79
 -14   4   1 1848.02  118.79
  12  -4  -1  396.46   50.29
  12  -4  -1  459.75   54.59
  12  -4  -1  468.95   51.69
 -12   4   1  407.96   69.19
 -12   4   1  402.96   49.80
 -12   4   1  433.96   51.09
  10  -4  -1   18.90   14.80
  10  -4  -1    3.70   12.30
  10  -4  -1   16.80   14.90
 -10   4   1    6.60    8.80
 -10   4   1  -16.50    8.00
 -10   4   1   20.50   17.20
   8  -4  -1 1456.35   85.59
   8  -4  -1 1470.45   76.69
  -8   4   1 1304.57   82.99
  -8   4   1 1516.75   84.49
  -8   4   1 1405.86   75.09
   6  -4  -1 4095.79  164.18
   6  -4  -1 4338.67  148.19
   6  -4  -1 3998.20  162.48
  -6   4   1 3783.62  160.98
  -6   4   1 3907.01  145.69
   4  -4  -1  504.25   25.10
   4  -4  -1  489.25   38.90
   4  -4  -1  503.75   38.00
  -4   4   1  478.95   37.80
  -4   4   1  482.55   24.60
   2  -4  -1 2913.01  117.09
   2  -4  -1 2843.12  116.99
  -2   4   1 3168.08  118.29
   0  -4  -1 1920.71   83.89
   0  -4  -1 1915.71   84.49
   0  -4  -1 1856.71   72.29
   0   4   1 1838.42   82.69
   0   4   1 1976.30   84.59
   0   4   1 1872.21   72.29
  -2  -4  -1 2354.86  100.49
  -2  -4  -1 2336.27   96.09
  -2  -4  -1 2154.28   97.69
   2   4   1 2045.30   96.69
   2   4   1 2256.37   94.99
  -4  -4  -1  410.86   39.20
  -4  -4  -1  453.75   39.80
  -4  -4  -1  468.35   42.80
   4   4   1  477.15   41.80
   4   4   1  470.65   41.40
   4   4   1  460.15   40.40
  -6  -4  -1  841.12   63.59
  -6  -4  -1  903.41   65.39
  -6  -4  -1  962.40   69.99
   6   4   1  960.60   66.89
   6   4   1  844.42   65.89
   6   4   1  919.91   65.39
  -8  -4  -1 1758.12  106.19
  -8  -4  -1 1604.24  100.79
  -8  -4  -1 1869.41  110.09
   8   4   1 1755.12  106.89
   8   4   1 1851.51  105.59
   8   4   1 1684.13  103.09
 -10  -4  -1  161.08   38.90
 -10  -4  -1  144.59   33.90
  10   4   1   79.19   27.00
  10   4   1  134.79   34.40
  10   4   1  111.89   32.90
 -12  -4  -1  557.94   63.59
 -12  -4  -1  550.74   73.09
 -12  -4  -1  551.34   65.69
  12   4   1  563.24   64.89
  12   4   1  711.73   75.29
  12   4   1  487.45   83.19
 -14  -4  -1  459.25   74.19
 -14  -4  -1  530.05   70.19
 -14  -4  -1  605.44   77.19
  14   4   1  470.55   74.19
  14   4   1  506.15   82.29
 -16  -4  -1  307.07   68.79
  16   4   1  443.56   90.29
 -18  -4  -1   21.60   41.10
  19  -5  -1  150.48   52.89
  17  -5  -1  215.48   52.29
 -17   5   1  280.67   54.19
  15  -5  -1   99.69   36.50
  15  -5  -1  157.58   40.70
 -15   5   1  164.58   41.50
 -15   5   1  161.18   46.30
  13  -5  -1  464.05   59.09
  13  -5  -1  467.55   54.49
 -13   5   1  546.75   58.49
 -13   5   1  560.94   63.59
  11  -5  -1  789.02   69.29
  11  -5  -1  854.51   70.09
  11  -5  -1  692.03   58.89
 -11   5   1  705.13   59.79
 -11   5   1  780.02   67.69
   9  -5  -1 1145.49   67.49
   9  -5  -1 1081.49   76.39
  -9   5   1 1169.88   67.79
  -9   5   1 1118.99   77.99
   7  -5  -1  189.28   33.90
   7  -5  -1  175.18   31.30
   7  -5  -1  158.78   23.40
  -7   5   1  170.48   31.80
  -7   5   1  150.18   22.70
   5  -5  -1 3592.64  150.68
   5  -5  -1 3877.61  125.89
   5  -5  -1 3477.35  148.89
  -5   5   1 3595.04  124.99
  -5   5   1 3620.84  148.99
   3  -5  -1 2019.00   93.29
   3  -5  -1 2186.48   95.99
  -3   5   1 1800.92   91.29
  -3   5   1 2141.79   93.49
   1  -5  -1   69.49   10.10
   1  -5  -1   90.49   18.80
   1  -5  -1   80.69   18.10
  -1   5   1   82.79   17.40
  -1   5   1   50.49    8.90
  -1  -5  -1  120.79   22.60
  -1  -5  -1  105.09   22.70
  -1  -5  -1  128.59   19.70
   1   5   1  118.59   22.60
   1   5   1  114.39   18.40
   1   5   1  166.58   26.90
  -3  -5  -1 2192.78   99.39
  -3  -5  -1 2172.38  101.69
  -3  -5  -1 2009.10   99.99
   3   5   1 1931.01   98.79
   3   5   1 2031.10   99.89
   3   5   1 2072.79   97.69
  -5  -5  -1 3580.44  164.08
  -5  -5  -1 3888.01  166.78
  -5  -5  -1 4092.69  169.28
   5   5   1 3825.82  165.68
   5   5   1 3913.81  167.38
   5   5   1 4011.00  169.18
  -7  -5  -1  200.48   37.60
  -7  -5  -1  189.38   38.10
  -7  -5  -1  166.38   38.80
   7   5   1  159.68   35.20
   7   5   1  163.38   37.30
   7   5   1  197.18   36.90
  -9  -5  -1  277.97   48.40
  -9  -5  -1  240.48   44.70
  -9  -5  -1  236.98   47.80
   9   5   1  193.08   40.40
   9   5   1  242.88   45.10
   9   5   1  268.27   50.59
 -11  -5  -1 1148.49   96.29
 -11  -5  -1 1056.89  105.39
 -11  -5  -1 1089.09   96.49
  11   5   1 1295.17  101.69
  11   5   1 1072.69   91.49
  11   5   1 1305.77   99.39
 -13  -5  -1  725.83   82.59
 -13  -5  -1  655.03   72.59
 -13  -5  -1  853.51   88.39
  13   5   1  662.23   78.09
  13   5   1  667.53   78.99
  13   5   1  716.63   75.89
 -15  -5  -1   30.70   28.80
 -17  -5  -1  231.28   68.09
  18  -6  -1   72.39   41.20
  16  -6  -1  872.41   90.29
 -16   6   1  863.31   81.99
  14  -6  -1   70.19   33.20
  14  -6  -1   88.19   31.40
 -14   6   1   -0.70   22.00
 -14   6   1   27.80   23.60
  12  -6  -1  660.73   65.49
  12  -6  -1  653.93   59.99
 -12   6   1  577.74   55.49
 -12   6   1  595.44   63.79
  10  -6  -1   11.20   10.80
  10  -6  -1    2.00   14.10
 -10   6   1   12.50   13.10
 -10   6   1   20.00   19.20
 -10   6   1   11.20   13.40
   8  -6  -1 1541.95   76.19
   8  -6  -1 1541.85   93.89
   8  -6  -1 1590.34   95.19
  -8   6   1 1555.74   91.09
  -8   6   1 1723.53   96.49
  -8   6   1 1721.53   78.99
   6  -6  -1  333.17   36.50
   6  -6  -1  291.67   22.20
   6  -6  -1  307.47   34.80
  -6   6   1  264.37   21.50
  -6   6   1  267.07   32.40
  -6   6   1  319.77   35.20
   4  -6  -1 1675.83   89.09
   4  -6  -1 1862.81   91.39
  -4   6   1 1744.73   88.69
  -4   6   1 1735.03   88.69
   2  -6  -1 1546.65   78.79
   2  -6  -1 1433.26   50.89
   2  -6  -1 1378.96   74.99
  -2   6   1 1417.06   86.59
  -2   6   1 1544.15   76.59
   0  -6  -1 1056.09   62.59
   0  -6  -1 1023.10   50.69
   0  -6  -1 1067.39   64.09
   0   6   1 1125.09   52.19
   0   6   1 1030.70   60.99
  -2  -6  -1  207.18   33.70
  -2  -6  -1  166.38   29.60
  -2  -6  -1  167.58   27.30
   2   6   1  184.18   24.10
   2   6   1  156.98   28.60
   2   6   1  164.38   29.90
  -4  -6  -1   41.60   16.40
  -4  -6  -1   67.29   20.50
   4   6   1   75.19   21.90
   4   6   1   99.39   24.90
   4   6   1   37.60   17.50
  -6  -6  -1    5.10   11.20
  -6  -6  -1    7.80   16.00
  -6  -6  -1   17.20   12.20
   6   6   1   14.40   11.70
   6   6   1   -4.40   10.50
   6   6   1   -1.40   15.40
  -8  -6  -1 2155.78  122.99
  -8  -6  -1 2239.58  126.59
  -8  -6  -1 2200.08  126.59
   8   6   1 1965.70  120.89
   8   6   1 1888.61  121.09
   8   6   1 2105.89  123.19
 -10  -6  -1   29.50   28.90
 -10  -6  -1   -5.60   17.70
 -10  -6  -1   45.60   28.40
  10   6   1   28.20   21.20
  10   6   1    0.60   20.80
  10   6   1   21.50   20.10
 -12  -6  -1   -3.70   17.80
 -12  -6  -1  -23.00   13.60
 -12  -6  -1   33.20   21.20
  12   6   1   -5.90   25.70
  12   6   1    0.00   21.30
  12   6   1   -3.30   11.00
 -14  -6  -1  156.28   49.60
 -14  -6  -1  395.76   76.89
 -16  -6  -1  424.46   84.79
  17  -7  -1  136.29   41.40
  15  -7  -1   84.99   38.90
  13  -7  -1  232.58   47.20
 -13   7   1  169.38   40.70
 -13   7   1  126.89   32.30
  11  -7  -1    6.60   14.90
 -11   7   1   29.30   17.00
 -11   7   1    0.20   13.20
 -11   7   1   -8.60   15.40
   9  -7  -1   30.90   18.50
   9  -7  -1   75.09   18.90
   9  -7  -1   63.09   24.80
  -9   7   1  107.49   27.40
  -9   7   1   81.59   19.80
  -9   7   1   88.59   24.40
   7  -7  -1   88.29   24.90
   7  -7  -1   89.09   25.60
   7  -7  -1  108.59   16.70
  -7   7   1  223.18   36.50
  -7   7   1  103.49   16.60
  -7   7   1   99.59   25.10
   5  -7  -1  443.46   44.10
   5  -7  -1  426.26   17.50
   5  -7  -1  430.86   42.10
   5  -7  -1  450.65   19.50
  -5   7   1  394.56   39.80
  -5   7   1  350.36   39.40
   3  -7  -1 1003.30   63.99
   3  -7  -1  907.81   60.29
  -3   7   1  854.71   57.69
  -3   7   1  907.51   60.89
   1  -7  -1  115.79   23.50
   1  -7  -1  184.68   31.80
   1  -7  -1  152.58   15.90
  -1   7   1  111.19   24.30
  -1   7   1   86.99   22.00
  -1   7   1  135.69   15.20
  -1  -7  -1  195.38   33.30
  -1  -7  -1  168.38   25.60
  -1  -7  -1  167.08   31.20
   1   7   1  215.08   33.80
   1   7   1  144.79   23.60
  -3  -7  -1  202.98   33.00
  -3  -7  -1  233.68   37.80
   3   7   1  172.38   32.00
   3   7   1  229.28   30.10
  -5  -7  -1  275.97   43.00
  -5  -7  -1  226.58   40.90
  -5  -7  -1  262.27   43.10
   5   7   1  306.27   38.70
   5   7   1  317.37   40.70
  -7  -7  -1   28.10   17.60
  -7  -7  -1   60.49   26.20
  -7  -7  -1   29.70   24.20
   7   7   1   10.60   12.30
   7   7   1   24.00   21.80
   7   7   1    2.70   19.80
  -9  -7  -1  201.68   45.30
  -9  -7  -1  113.19   33.70
  -9  -7  -1  127.39   36.80
   9   7   1   74.49   34.60
   9   7   1   66.89   33.10
   9   7   1  126.19   36.10
 -11  -7  -1  175.18   47.30
 -11  -7  -1  299.47   56.39
 -11  -7  -1  197.78   69.39
  11   7   1  247.18   51.59
  11   7   1  134.29   46.30
 -13  -7  -1   41.60   35.60
 -13  -7  -1  -23.30   20.10
  13   7   1   14.00   21.70
 -15  -7  -1    3.70   20.60
 -17  -7  -1   39.00   44.70
  16  -8  -1   24.70   20.20
  14  -8  -1   67.99   27.00
  12  -8  -1   29.50   22.00
 -12   8   1   16.20   20.90
 -12   8   1   86.19   28.20
  10  -8  -1   -7.90   12.50
  10  -8  -1   17.80   17.10
  10  -8  -1  -17.80    8.90
 -10   8   1   13.30   12.70
 -10   8   1    8.60   18.60
   8  -8  -1   -4.90   10.50
   8  -8  -1    7.60    7.60
   8  -8  -1    8.20   12.80
  -8   8   1    4.20    7.80
  -8   8   1   23.30   15.60
  -8   8   1    6.20   12.30
   6  -8  -1   41.30   19.20
   6  -8  -1   37.20    4.20
   6  -8  -1   27.90   15.10
  -6   8   1   46.40   18.70
  -6   8   1   74.09   20.90
   4  -8  -1    5.40   10.40
   4  -8  -1   -5.10    8.60
  -4   8   1   26.40   15.20
  -4   8   1   27.00   16.00
   2  -8  -1    2.20   10.40
   2  -8  -1    2.30    4.00
   2  -8  -1   11.70   10.40
   2  -8  -1    7.70    4.70
  -2   8   1   -2.90    6.90
  -2   8   1    0.40    9.60
   0  -8  -1  173.98   21.30
   0  -8  -1  156.88   29.70
   0  -8  -1  121.39   26.10
   0   8   1  180.18   21.20
   0   8   1  178.58   33.60
   0   8   1  136.69   27.00
  -2  -8  -1   54.79   19.10
  -2  -8  -1   75.69   21.80
  -2  -8  -1   54.49   18.70
   2   8   1   78.99   20.60
   2   8   1   79.29   22.40
   2   8   1   11.50   14.40
  -4  -8  -1   18.30   13.00
  -4  -8  -1   12.00   17.50
  -4  -8  -1    9.80   13.00
   4   8   1   15.70   15.60
   4   8   1    7.50   10.40
  -6  -8  -1   35.50   18.90
  -6  -8  -1   17.60   19.00
  -6  -8  -1   71.19   27.00
   6   8   1   32.30   18.10
   6   8   1   24.20   16.20
   6   8   1   11.30   15.50
  -8  -8  -1  132.59   38.20
  -8  -8  -1  162.18   39.60
  -8  -8  -1  143.69   40.00
   8   8   1  106.89   36.30
   8   8   1  129.19   37.00
   8   8   1   43.60   26.00
 -10  -8  -1   26.90   27.00
 -10  -8  -1    0.10   13.90
  10   8   1   31.00   18.50
  10   8   1   15.60   20.40
  10   8   1   22.60   27.40
 -12  -8  -1   -5.90   18.80
 -12  -8  -1  -11.00   17.70
  12   8   1  -19.50   25.40
  12   8   1   -2.30   16.80
 -14  -8  -1   -5.40   22.60
 -16  -8  -1   41.00   42.30
  15  -9  -1   -5.30   22.70
  13  -9  -1   45.60   26.10
   9  -9  -1  131.59   40.10
  -9   9   1  182.28   36.30
   7  -9  -1    6.60   11.00
   7  -9  -1    2.10   11.80
  -7   9   1    1.80   13.30
  -7   9   1   -5.40   12.30
   5  -9  -1   71.19   24.00
   5  -9  -1   72.39   22.50
  -5   9   1   55.69   20.40
  -5   9   1   78.99   24.30
   3  -9  -1  201.98   36.50
   3  -9  -1  283.87   34.90
  -3   9   1  208.48   34.60
  -3   9   1  246.38   37.50
   1  -9  -1   21.40   12.50
   1  -9  -1   31.20   17.70
   1  -9  -1   36.20   11.40
  -1   9   1   58.49   20.30
  -1   9   1   19.80    9.60
  -1   9   1   24.10   14.50
  -1  -9  -1  -12.10    6.80
  -1  -9  -1    6.70   10.90
  -1  -9  -1    1.80   10.70
   1   9   1    0.50    8.70
   1   9   1   13.30   12.00
   1   9   1    2.00   10.20
  -3  -9  -1  320.27   39.00
  -3  -9  -1  289.37   45.20
  -3  -9  -1  380.46   45.30
   3   9   1  329.07   41.50
   3   9   1  256.47   34.90
   3   9   1  351.96   43.70
  -5  -9  -1    7.70   18.80
  -5  -9  -1   36.70   18.40
  -5  -9  -1   26.80   16.30
   5   9   1   -1.20   14.20
   5   9   1   -6.70   15.30
  -7  -9  -1   23.10   17.60
  -7  -9  -1   23.40   20.50
  -7  -9  -1   19.80   13.50
   7   9   1   20.20   21.60
   7   9   1   22.50   16.00
   7   9   1    6.90   14.60
  -9  -9  -1   29.00   23.20
  -9  -9  -1  -24.60   16.90
   9   9   1    4.00   23.10
   9   9   1   30.30   18.60
 -11  -9  -1   45.90   33.60
 -11  -9  -1  103.69   37.80
  11   9   1  158.48   44.80
  11   9   1   85.59   39.60
 -13  -9  -1  228.98   67.39
 -13  -9  -1  162.98   53.19
 -15  -9  -1   -5.10   22.00
  16 -10  -1   55.89   30.30
  14 -10  -1  279.07   53.89
  10 -10  -1   54.99   26.00
 -10  10   1   38.60   22.60
   8 -10  -1  374.86   48.50
  -8  10   1  310.47   40.90
   6 -10  -1  552.44   53.89
   6 -10  -1  563.54   57.89
  -6  10   1  633.54   56.99
  -6  10   1  644.64   57.49
   4 -10  -1  198.38   39.00
   4 -10  -1  226.28   40.80
  -4  10   1  247.48   38.90
  -4  10   1  279.47   44.50
   2 -10  -1  288.07   19.30
   2 -10  -1  267.77   43.70
   2 -10  -1  316.77   20.30
   2 -10  -1  331.17   40.50
  -2  10   1  335.97   40.60
  -2  10   1  361.36   44.30
   0 -10  -1  265.77   28.40
   0 -10  -1  278.57   43.80
   0 -10  -1  246.78   41.60
   0  10   1  275.27   41.70
   0  10   1  259.57   44.20
   0  10   1  251.67   27.10
  -2 -10  -1  141.09   33.70
  -2 -10  -1  122.09   32.60
   2  10   1  112.29   29.90
   2  10   1  165.48   30.80
   2  10   1  157.88   41.50
  -4 -10  -1  134.89   32.10
  -4 -10  -1   65.49   27.40
  -4 -10  -1   77.79   25.30
   4  10   1   69.09   28.70
   4  10   1   87.69   26.20
   4  10   1   68.89   25.10
  -6 -10  -1  452.35   54.69
  -6 -10  -1  399.46   51.79
   6  10   1  470.85   56.49
   6  10   1  393.36   52.09
  -8 -10  -1  427.66   66.39
  -8 -10  -1  276.57   51.49
   8  10   1  466.35   81.59
   8  10   1  372.26   61.29
 -10 -10  -1   91.09   30.80
 -10 -10  -1   43.00   31.50
  10  10   1   56.39   35.20
  10  10   1   84.39   38.10
 -12 -10  -1   42.60   35.90
  12  10   1   49.90   25.10
 -14 -10  -1  165.38   52.89
  15 -11  -1   25.00   23.90
  13 -11  -1  -17.10   15.30
  11 -11  -1  339.17   57.39
   9 -11  -1  362.46   58.19
   7 -11  -1   35.50   20.90
  -7  11   1   10.90   14.90
   5 -11  -1  239.78   44.10
  -5  11   1  250.87   39.50
   3 -11  -1  875.01   70.19
  -3  11   1  849.12   70.39
   1 -11  -1  489.95   54.19
   1 -11  -1  495.35   51.09
   1 -11  -1  460.85   32.30
  -1  11   1  491.05   49.80
  -1  11   1  540.45   55.29
  -1 -11  -1    1.50   15.00
  -1 -11  -1  -16.30   11.70
  -1 -11  -1   -8.90   12.20
   1  11   1   -6.80   12.00
   1  11   1   -7.60   11.10
   1  11   1   -1.10   11.30
  -3 -11  -1  439.76   53.09
  -3 -11  -1  411.76   47.10
   3  11   1  343.97   60.39
   3  11   1  403.36   83.29
  -5 -11  -1  512.45   83.49
  -5 -11  -1  430.76   52.89
   5  11   1  284.97   50.99
   5  11   1  368.06   56.89
  -7 -11  -1   62.69   33.10
  -7 -11  -1   84.09   32.50
   7  11   1  109.09   39.50
   7  11   1   90.79   31.60
  -9 -11  -1  417.76   69.29
  -9 -11  -1  385.16   67.59
   9  11   1  387.46   65.29
   9  11   1  323.17   62.19
 -11 -11  -1  417.76   76.49
 -11 -11  -1  379.86   69.89
 -13 -11  -1  218.38   58.89
 -13 -11  -1  205.88   58.39
  10 -12  -1    0.90   20.40
   8 -12  -1  626.44   68.29
   6 -12  -1  694.63   69.89
   4 -12  -1  -10.40   16.20
  -4  12   1  -17.60   10.60
   2 -12  -1   74.39   26.00
  -2  12   1  100.29   26.20
   0 -12  -1 1447.46  102.19
   0  12   1 1555.74   99.39
  -2 -12  -1  267.07   45.80
  -2 -12  -1  326.47   54.29
   2  12   1  269.37   45.90
  -4 -12  -1   -0.20   15.10
  -4 -12  -1   32.20   21.30
   4  12   1  -22.90   15.30
  -6 -12  -1  577.94   68.49
  -6 -12  -1  571.74   62.39
   6  12   1  665.13   95.19
   6  12   1  492.65   63.29
  -8 -12  -1  968.50   95.09
 -10 -12  -1   99.59   39.30
 -10 -12  -1  118.79   42.50
 -12 -12  -1  226.58   59.29
 -12 -12  -1  131.89   52.59
  11 -13  -1  670.93   72.09
   9 -13  -1  402.36   63.59
   7 -13  -1   33.00   24.00
   5 -13  -1  139.49   35.70
   3 -13  -1 1012.40   85.09
   1 -13  -1   86.89   29.10
  -1 -13  -1   62.09   28.60
  -3 -13  -1  245.68   51.69
  -5 -13  -1  678.13   77.09
  -7 -13  -1   21.20   22.10
  -9 -13  -1  189.78   54.09
  -9 -13  -1  122.09   39.60
 -11 -13  -1  515.25   85.69
 -11 -13  -1  358.36   72.09
  10 -14  -1  -35.20   19.40
   8 -14  -1  323.17   87.99
   6 -14  -1  352.86   61.19
   4 -14  -1   -1.30   17.20
   2 -14  -1   57.99   25.00
   0 -14  -1  513.45   63.49
  -2 -14  -1  -32.90   17.30
  -4 -14  -1  -23.50   20.40
  -6 -14  -1  221.18   50.49
  -8 -14  -1  248.48   58.89
   7 -15  -1  -21.00   17.00
   3 -15  -1  266.07   50.29
   1 -15  -1   62.69   23.60
  -1 -15  -1  -26.30   18.60
  -3 -15  -1   16.40   26.20
  -5 -15  -1    5.10   24.80
  -7 -15  -1   44.00   33.00
   2 -16  -1  -13.10   19.10
   0 -16  -1    7.20   21.60
  -2 -16  -1   14.60   19.40
  -2 -16   2  385.36   59.79
   0 -16   2   32.70   24.30
  -7 -15   2   17.10   24.30
  -3 -15   2 1068.19   90.09
  -1 -15   2   16.90   19.70
   1 -15   2  132.19   35.40
   5 -15   2  126.79   32.50
 -10 -14   2  195.48   56.09
  -8 -14   2  303.47   56.39
  -6 -14   2   -5.30   14.80
  -4 -14   2  157.58   39.50
  -2 -14   2  388.36   50.59
   0 -14   2   24.80   19.60
   2 -14   2  587.64   57.19
   4 -14   2  180.58   36.50
   6 -14   2   -5.10   14.90
 -11 -13   2   26.70   30.30
  -9 -13   2  440.36   71.29
  -9 -13   2  327.87   59.79
  -7 -13   2  101.39   36.70
  -7 -13   2   61.09   27.30
  -5 -13   2  112.39   32.20
  -5 -13   2  108.59   42.50
  -3 -13   2  487.05   54.89
  -1 -13   2   16.80   17.20
   1 -13   2  393.06   46.70
   3 -13   2  309.47   46.40
   5 -13   2   -6.80   13.80
   7 -13   2  323.07   41.70
 -14 -12   2   45.70   38.70
 -14 -12   2   18.70   36.40
 -12 -12   2  142.59   41.20
 -12 -12   2  154.18   48.40
  10  12  -2   62.49   38.50
 -10 -12   2   29.50   20.30
 -10 -12   2   16.60   25.40
   8  12  -2   68.69   31.90
  -8 -12   2   74.69   31.00
  -8 -12   2   46.70   26.90
   6  12  -2   44.60   28.60
  -6 -12   2   20.70   15.30
  -6 -12   2   67.09   30.60
   4  12  -2   17.80   23.60
   4  12  -2   46.30   18.00
  -4 -12   2   -6.80   13.90
  -4 -12   2    8.80   15.10
   2  12  -2  387.76   40.10
  -2 -12   2  405.86   45.30
  -2 -12   2  335.27   49.60
   0  12  -2 1234.68   70.29
   0 -12   2 1061.19   75.29
  -2  12  -2  464.75   38.40
  -2  12  -2  462.45   40.70
   2 -12   2  476.05   47.40
  -4  12  -2  411.96   34.50
   4 -12   2  421.06   45.80
   6 -12   2  202.08   36.30
  10 -12   2  198.88   42.30
  12 -12   2   36.00   21.10
 -15 -11   2   23.50   30.70
 -15 -11   2  -13.00   40.00
 -13 -11   2   -9.20   22.00
 -13 -11   2   -1.40   31.90
  11  11  -2  464.45   76.19
 -11 -11   2  401.76   69.89
 -11 -11   2  355.16   64.79
   9  11  -2   44.00   26.60
   9  11  -2   -2.60   19.50
  -9 -11   2   17.10   18.50
  -9 -11   2   22.80   23.10
   7  11  -2  412.86   48.70
   7  11  -2  465.25   59.59
  -7 -11   2  464.85   55.49
  -7 -11   2  399.16   63.29
   5  11  -2 1032.30   81.19
   5  11  -2  970.90   73.29
  -5 -11   2 1053.79   81.69
  -5 -11   2 1074.59   79.19
   3  11  -2   65.79   26.60
   3  11  -2   82.09   25.50
  -3 -11   2   85.99   24.30
  -3 -11   2   97.09   28.90
   1  11  -2  317.47   36.10
   1  11  -2  306.47   33.80
  -1 -11   2  345.07   40.30
  -1 -11   2  325.17   36.70
  -1 -11   2  316.37   51.99
  -1  11  -2   37.20   12.80
   1 -11   2    7.20   11.20
   1 -11   2   26.70   14.90
   1 -11   2   24.10   17.90
  -3  11  -2  116.79   21.50
   3 -11   2  158.38   29.60
   3 -11   2  117.39   23.30
   3 -11   2  179.28   31.40
  -5  11  -2  412.86   36.60
  -5  11  -2  392.76   33.80
   5 -11   2  402.96   40.40
   5 -11   2  469.95   44.90
  -7  11  -2  184.98   27.40
   7 -11   2  205.28   35.80
   9 -11   2   94.89   29.30
  11 -11   2  644.24   64.59
  13 -11   2   26.50   24.20
 -16 -10   2  209.08   60.89
 -16 -10   2  248.58   64.99
 -14 -10   2  -50.39   25.60
 -14 -10   2   13.30   33.00
  12  10  -2  468.85   84.09
 -12 -10   2  619.64   72.19
 -12 -10   2  634.44   78.69
  10  10  -2  510.05   60.79
  10  10  -2  341.97   75.69
 -10 -10   2  595.84   66.19
   8  10  -2  114.09   31.20
   8  10  -2  174.38   43.20
  -8 -10   2  106.69   33.20
  -8 -10   2  171.98   62.89
   6  10  -2 1434.76   96.29
   6  10  -2 1349.66   88.69
   6  10  -2 1186.28   81.89
  -6 -10   2 1183.28   83.99
  -6 -10   2 1125.19   87.39
  -6 -10   2 1246.28   86.99
   4  10  -2   69.29   24.10
   4  10  -2   89.79   28.20
   4  10  -2   73.99   21.10
  -4 -10   2   97.09   28.30
  -4 -10   2   86.39   23.70
  -4 -10   2   78.09   23.40
   2  10  -2  372.16   37.40
   2  10  -2  371.66   39.30
   2  10  -2  523.55   49.20
  -2 -10   2  392.76   42.90
  -2 -10   2  369.96   38.70
  -2 -10   2  450.55   43.20
   0  10  -2 1846.72   88.49
   0  10  -2 1845.72   91.79
   0 -10   2 1906.81   97.29
   0 -10   2 2121.79   98.89
   0 -10   2 1829.82   96.29
   0 -10   2 2036.80   97.99
  -2  10  -2  261.77   27.60
  -2  10  -2  301.37   27.40
   2 -10   2  223.48   28.30
   2 -10   2  229.28   27.70
   2 -10   2  248.68   30.70
   2 -10   2  281.67   30.60
  -4  10  -2  250.37   25.10
  -4  10  -2  258.67   40.20
   4 -10   2  306.47   34.70
   4 -10   2  211.58   27.80
   4 -10   2  252.27   30.70
   4 -10   2  227.48   28.50
  -6  10  -2  972.00   55.59
   6 -10   2  840.92   60.69
   6 -10   2  814.02   60.79
   6 -10   2  832.62   58.19
  -8  10  -2  119.59   22.90
  10 -10   2  614.24   57.89
  12 -10   2  177.98   37.30
  14 -10   2   62.09   29.10
 -17  -9   2  662.53  109.19
 -15  -9   2   -1.60   15.10
 -15  -9   2    8.60   17.90
  13   9  -2  -22.50   20.90
 -13  -9   2   50.69   33.10
 -13  -9   2   22.10   20.30
  11   9  -2 1147.19   94.49
  11   9  -2 1100.79   99.19
 -11  -9   2 1293.07  104.59
 -11  -9   2 1188.38  117.39
   9   9  -2  251.07   47.60
   9   9  -2  171.38   40.40
  -9  -9   2  279.97   55.59
  -9  -9   2  183.98   41.60
   7   9  -2  830.82   67.59
   7   9  -2  785.02   71.39
   7   9  -2  713.73   61.89
  -7  -9   2  730.63   63.79
  -7  -9   2  711.43   67.59
  -7  -9   2  643.24   61.29
   5   9  -2 1273.77   82.89
   5   9  -2 1415.26   84.59
   5   9  -2 1589.04   95.79
  -5  -9   2 1363.36   85.59
  -5  -9   2 1438.16   92.89
  -5  -9   2 1330.67   84.69
   3   9  -2   20.90   13.90
   3   9  -2    4.50   11.60
   3   9  -2   36.10   15.40
  -3  -9   2    5.00    9.40
  -3  -9   2   21.10   11.80
  -3  -9   2   18.30   16.90
   1   9  -2 2018.20   94.89
   1   9  -2 2068.19   92.49
   1   9  -2 1934.51  101.69
  -1  -9   2 2091.49   99.09
  -1  -9   2 1990.10   96.39
  -1  -9   2 2014.70  100.09
  -1   9  -2  537.95   36.80
  -1   9  -2  587.14   40.20
   1  -9   2  604.74   42.80
   1  -9   2  544.85   43.40
   1  -9   2  545.45   43.40
   1  -9   2  505.85   41.20
  -3   9  -2  281.87   24.70
  -3   9  -2  299.67   27.30
   3  -9   2  238.38   28.80
   3  -9   2  299.07   31.00
   3  -9   2  300.77   30.00
   3  -9   2  254.87   29.10
  -5   9  -2 2774.52  112.19
  -5   9  -2 2765.82  111.49
   5  -9   2 2733.63  122.69
   5  -9   2 2624.34  120.59
   5  -9   2 2807.42  122.69
   5  -9   2 2698.23  118.09
  -7   9  -2   84.29   19.40
   7  -9   2   56.99   20.70
   7  -9   2   50.99   20.60
  -9   9  -2  -25.90   10.20
  -9   9  -2   28.80   19.50
   9  -9   2   10.70   14.60
  11  -9   2 1424.76   94.79
  13  -9   2  205.38   44.20
  15  -9   2   66.29   29.00
 -18  -8   2  148.39   52.49
 -16  -8   2  499.35   87.69
 -16  -8   2  465.75   80.39
  14   8  -2  119.39   41.40
 -14  -8   2  110.69   47.10
 -14  -8   2  114.09   47.10
  12   8  -2 1176.68   95.59
  12   8  -2 1190.18  102.19
 -12  -8   2 1171.68   98.59
 -12  -8   2 1027.70   98.89
  10   8  -2  438.36   56.69
  10   8  -2  359.76   47.30
  10   8  -2  400.46   61.49
 -10  -8   2  510.85   80.59
 -10  -8   2  422.46   66.79
 -10  -8   2  358.66   59.69
   8   8  -2  384.86   46.50
   8   8  -2  340.37   42.30
   8   8  -2  404.96   53.59
  -8  -8   2  347.77   56.69
  -8  -8   2  397.36   45.90
  -8  -8   2  412.16   47.60
   6   8  -2 4177.78  189.98
   6   8  -2 4220.88  179.48
   6   8  -2 4203.08  181.58
  -6  -8   2 4376.96  184.38
  -6  -8   2 4017.70  179.18
  -6  -8   2 4371.76  192.08
   4   8  -2   32.20   16.80
   4   8  -2   31.10   15.60
   4   8  -2   47.10   16.70
  -4  -8   2   77.09   23.70
  -4  -8   2    9.40    9.90
  -4  -8   2   40.20   15.70
   2   8  -2   31.70   13.70
   2   8  -2   18.30   13.10
   2   8  -2   16.20    9.80
  -2  -8   2    5.10   10.90
  -2  -8   2   21.80   11.30
  -2  -8   2   16.90    9.90
   0   8  -2 4045.70  145.79
   0   8  -2 3926.11  148.19
   0  -8   2 3719.43  148.69
   0  -8   2 3918.31  156.48
   0  -8   2 4018.70  152.28
  -2   8  -2  169.98   17.90
  -2   8  -2  144.99   18.80
   2  -8   2  182.08   21.50
   2  -8   2  186.28   23.80
   2  -8   2  195.28   24.50
   2  -8   2  163.98   24.40
  -4   8  -2  781.72   44.70
  -4   8  -2  801.92   44.40
   4  -8   2  816.32   51.99
   4  -8   2  723.93   51.39
   4  -8   2  725.13   48.60
   4  -8   2  763.32   50.49
  -6   8  -2 1418.66   72.59
  -6   8  -2 1565.34   84.79
  -6   8  -2 1338.07   71.49
   6  -8   2 1499.75   81.69
   6  -8   2 1425.56   78.39
  -8   8  -2   53.19   17.40
  -8   8  -2   59.29   21.90
  -8   8  -2   46.10   16.80
   8  -8   2   43.70   18.80
   8  -8   2   64.09   21.60
   8  -8   2   52.09   20.20
 -10   8  -2  997.50   72.79
 -10   8  -2 1172.88   83.19
  10  -8   2 1125.39   80.59
 -12   8  -2  193.68   41.00
  12  -8   2  167.58   39.30
  14  -8   2  177.68   40.60
  16  -8   2  553.34   69.29
 -17  -7   2  710.33  109.99
  15   7  -2   80.29   31.90
 -15  -7   2  131.79   50.39
 -15  -7   2  196.28   53.39
  13   7  -2  235.58   55.69
  13   7  -2  223.48   48.20
 -13  -7   2  122.19   42.60
 -13  -7   2  260.27   55.09
  11   7  -2 1577.54  109.99
  11   7  -2 1575.74  107.69
  11   7  -2 1778.32  118.99
 -11  -7   2 1413.66  105.09
 -11  -7   2 1249.57   97.79
 -11  -7   2 1491.55  111.09
   9   7  -2   30.60   17.90
   9   7  -2   56.79   22.00
   9   7  -2   42.60   24.40
  -9  -7   2    2.60   23.20
  -9  -7   2   28.70   17.60
  -9  -7   2    5.50   15.00
   7   7  -2 1009.10   76.89
   7   7  -2  805.12   65.29
   7   7  -2  913.41   67.59
  -7  -7   2 1095.39   80.59
  -7  -7   2  956.60   71.39
  -7  -7   2  935.31   69.09
   5   7  -2 2823.92  135.09
   5   7  -2 2827.32  127.59
   5   7  -2 2783.92  125.39
  -5  -7   2 2661.03  125.59
  -5  -7   2 2755.12  135.09
  -5  -7   2 2792.52  128.29
   3   7  -2  471.75   43.90
   3   7  -2  570.24   41.70
   3   7  -2  514.35   38.90
  -3  -7   2  477.45   39.20
  -3  -7   2  440.16   37.10
  -3  -7   2  460.85   43.10
   1   7  -2 2946.11  115.79
   1   7  -2 3119.99  119.39
   1   7  -2 3057.39  131.09
  -1  -7   2 2862.51  118.99
  -1  -7   2 3121.69  121.89
  -1  -7   2 3198.98  130.39
  -1   7  -2 1888.01   75.69
  -1   7  -2 1724.23   72.09
   1  -7   2 1708.43   84.59
   1  -7   2 1708.73   77.99
   1  -7   2 1941.11   87.19
   1  -7   2 1807.12   77.79
  -3   7  -2   29.80    9.30
  -3   7  -2    6.00    6.40
   3  -7   2   -3.90    6.70
   3  -7   2   -1.90    7.10
   3  -7   2   16.40   11.20
   3  -7   2   21.70    9.90
  -5   7  -2 2825.22  123.19
  -5   7  -2 2704.63  109.09
  -5   7  -2 2655.33  108.69
   5  -7   2 2766.02  118.69
   5  -7   2 2538.05  115.39
   5  -7   2 2774.12  116.29
  -7   7  -2  337.47   34.10
  -7   7  -2  278.17   30.90
  -7   7  -2  276.07   36.70
   7  -7   2  257.07   33.00
   7  -7   2  350.66   37.40
   7  -7   2  389.16   40.80
  -9   7  -2   32.70   20.20
  -9   7  -2   10.40   14.80
  -9   7  -2   23.40   17.30
   9  -7   2   51.69   22.80
   9  -7   2    3.70   11.90
   9  -7   2   24.20   16.50
 -11   7  -2 1973.70  113.69
 -11   7  -2 1975.70  116.99
  11  -7   2 1969.90  117.29
  11  -7   2 1927.31  115.39
 -13   7  -2  352.86   59.39
  13  -7   2  309.97   54.99
  15  -7   2   14.80   28.20
 -18  -6   2  283.37   74.29
 -16  -6   2  560.04   92.79
 -16  -6   2  692.33   79.69
  14   6  -2   16.50   18.80
  14   6  -2   22.60   29.50
 -14  -6   2   22.60   35.40
  12   6  -2 1416.96  103.79
  12   6  -2 1297.57  105.49
  12   6  -2 1195.08   95.99
 -12  -6   2 1317.27   99.99
 -12  -6   2 1275.07   98.89
 -12  -6   2 1361.26  107.49
  10   6  -2  653.83   68.19
  10   6  -2  511.85   56.09
  10   6  -2  660.63   65.19
 -10  -6   2  705.23   72.79
 -10  -6   2  688.93   63.19
 -10  -6   2  704.63   66.19
   8   6  -2  367.26   42.30
   8   6  -2  319.07   42.60
  -8  -6   2  240.68   41.10
  -8  -6   2  329.27   52.39
  -8  -6   2  291.67   45.10
   6   6  -2 2867.41  147.89
   6   6  -2 3167.08  138.39
  -6  -6   2 3018.40  137.29
  -6  -6   2 3094.49  139.89
  -6  -6   2 3279.07  149.49
   4   6  -2   23.20   13.90
   4   6  -2   15.80   14.00
   4   6  -2   39.40   13.60
  -4  -6   2   20.00   12.40
  -4  -6   2   23.50   12.80
  -4  -6   2   51.29   14.90
   2   6  -2   80.09   16.30
   2   6  -2   86.09   21.00
   2   6  -2   71.69   15.00
  -2  -6   2   81.19   15.40
  -2  -6   2   75.19   19.20
  -2  -6   2  109.19   18.90
   0   6  -2 2939.61  109.49
   0   6  -2 3035.10  107.99
   0  -6   2 2903.41  122.39
   0  -6   2 2964.50  111.49
   0  -6   2 3161.58  113.39
  -2   6  -2   17.30    6.90
  -2   6  -2   21.20    6.70
   2  -6   2   10.60    7.90
   2  -6   2   -0.80   10.00
   2  -6   2   18.90   10.90
   2  -6   2    5.00    6.00
  -4   6  -2 1772.72   73.89
  -4   6  -2 1753.92   86.89
  -4   6  -2 1661.13   72.49
   4  -6   2 1756.72   79.49
   4  -6   2 1715.63   83.79
   4  -6   2 1696.73   77.89
  -6   6  -2 1178.48   64.89
  -6   6  -2 1145.49   71.69
  -6   6  -2 1338.37   65.89
   6  -6   2 1099.39   65.29
   6  -6   2 1192.28   70.39
   6  -6   2 1191.38   68.39
  -8   6  -2  133.59   29.30
  -8   6  -2  130.59   27.90
  -8   6  -2  127.49   27.90
   8  -6   2  108.69   25.60
   8  -6   2  100.19   23.70
   8  -6   2  128.29   30.20
 -10   6  -2  301.77   36.90
 -10   6  -2  178.98   35.80
 -10   6  -2  179.98   40.20
  10  -6   2  205.18   40.70
  10  -6   2  219.68   39.70
  10  -6   2  174.48   35.60
 -12   6  -2   37.20   24.20
 -12   6  -2   43.20   23.00
  12  -6   2   60.89   29.10
  12  -6   2   31.80   21.10
 -14   6  -2  -28.40   17.10
  14  -6   2   11.90   17.60
 -16   6  -2  576.04   73.19
  16  -6   2  530.15   69.49
 -19  -5   2   52.19   32.80
 -17  -5   2   55.89   33.80
  15   5  -2  -23.90   26.80
  15   5  -2   20.00   29.80
 -15  -5   2   43.60   27.60
 -15  -5   2   32.30   32.70
  13   5  -2  251.37   53.29
  13   5  -2  131.79   36.90
 -13  -5   2  245.98   50.19
 -13  -5   2  205.88   46.30
 -13  -5   2  147.39   53.19
  11   5  -2  920.31   79.09
  11   5  -2  973.10   79.39
  11   5  -2  881.81   79.89
 -11  -5   2  890.21   76.89
 -11  -5   2  974.10   79.89
 -11  -5   2  969.00   84.39
   9   5  -2  137.69   35.60
   9   5  -2  109.09   28.90
   9   5  -2  196.78   35.90
  -9  -5   2  168.88   38.50
  -9  -5   2  162.18   35.10
  -9  -5   2  176.28   36.30
   7   5  -2  443.46   47.80
   7   5  -2  392.66   39.60
  -7  -5   2  373.06   40.90
  -7  -5   2  352.96   39.10
  -7  -5   2  342.47   45.30
   5   5  -2  530.95   41.50
   5   5  -2  495.95   46.10
  -5  -5   2  507.55   40.70
  -5  -5   2  530.75   42.10
   3   5  -2    9.10    7.70
   3   5  -2    8.20   10.80
   3   5  -2   12.00    8.30
  -3  -5   2   19.10    8.20
  -3  -5   2    9.50   12.20
   1   5  -2 1137.39   49.40
   1   5  -2 1084.19   60.59
   1   5  -2 1126.59   48.30
  -1  -5   2 1117.89   50.79
  -1  -5   2 1098.19   60.19
  -1  -5   2 1042.00   49.40
  -1   5  -2  236.68   15.50
  -1   5  -2  227.88   14.50
   1  -5   2  224.88   24.80
   1  -5   2  214.38   23.40
   1  -5   2  198.28   17.30
   1  -5   2  224.58   17.20
  -3   5  -2   43.30   10.20
  -3   5  -2   52.99   15.40
  -3   5  -2   47.60   10.30
   3  -5   2   41.50   11.00
   3  -5   2   41.90   14.20
   3  -5   2   40.40   11.10
  -5   5  -2  834.72   55.19
  -5   5  -2  761.02   45.10
  -5   5  -2  802.72   47.50
   5  -5   2  827.92   53.99
   5  -5   2  751.82   47.40
   5  -5   2  825.12   49.90
  -7   5  -2  114.69   22.50
  -7   5  -2  152.98   30.40
  -7   5  -2   69.99   19.30
   7  -5   2  104.49   23.20
   7  -5   2  123.59   24.20
   7  -5   2  131.89   28.40
  -9   5  -2    1.80   10.50
  -9   5  -2   15.80   12.80
  -9   5  -2    3.90   16.00
   9  -5   2    7.20   13.70
   9  -5   2   27.50   18.00
   9  -5   2    6.20   11.30
 -11   5  -2 1548.65  103.19
 -11   5  -2 1602.84   99.19
  11  -5   2 1469.45   97.49
  11  -5   2 1435.26  100.39
  11  -5   2 1163.08  106.99
 -13   5  -2  229.18   44.00
 -13   5  -2  248.58   52.89
  13  -5   2  254.67   49.80
  13  -5   2  247.78   49.10
 -15   5  -2  670.33   75.29
  15  -5   2  498.65   64.19
  15  -5   2  344.77   67.79
 -17   5  -2  396.06   72.89
  17  -5   2  282.87   63.69
 -20  -4   2   39.70   35.00
 -18  -4   2   85.19   40.90
 -16  -4   2  119.59   42.50
 -16  -4   2  115.79   45.40
  14   4  -2  401.26   68.79
  14   4  -2  408.16   67.19
  14   4  -2  374.46   65.19
 -14  -4   2  358.16   65.09
 -14  -4   2  423.56   69.89
  12   4  -2   30.30   22.20
  12   4  -2   27.10   19.80
  12   4  -2   54.69   29.40
 -12  -4   2   93.29   39.20
 -12  -4   2   26.90   19.30
 -12  -4   2   -2.50   11.60
  10   4  -2  695.43   66.79
  10   4  -2  828.12   71.79
 -10  -4   2  839.42   69.69
 -10  -4   2  851.31   74.89
 -10  -4   2  856.61   69.99
   8   4  -2  345.27   39.90
   8   4  -2  411.26   43.20
   8   4  -2  388.16   45.60
  -8  -4   2  339.67   42.90
  -8  -4   2  257.57   34.20
  -8  -4   2  319.97   38.10
   6   4  -2  624.04   51.19
   6   4  -2  470.45   55.09
   6   4  -2  610.34   47.10
  -6  -4   2  587.74   47.00
  -6  -4   2  648.14   48.30
  -6  -4   2  682.73   53.99
   4   4  -2  207.88   23.00
   4   4  -2  265.17   28.90
  -4  -4   2  198.88   23.30
  -4  -4   2  233.58   24.30
  -4  -4   2  192.78   30.20
   2   4  -2 1038.50   47.90
   2   4  -2 1049.00   59.09
   2   4  -2 1126.69   49.70
  -2  -4   2 1114.69   50.19
  -2  -4   2 1030.00   49.20
  -2  -4   2 1168.58   61.19
   0   4  -2  416.26   19.30
   0   4  -2  416.56   18.60
   0  -4   2  390.66   21.20
   0  -4   2  444.36   21.70
   0  -4   2  406.26   31.80
   0  -4   2  386.76   31.00
  -2   4  -2 1314.87   48.00
  -2   4  -2 1275.77   47.50
  -2   4  -2 1379.06   65.99
   2  -4   2 1173.58   50.39
   2  -4   2 1185.38   50.79
   2  -4   2 1171.78   60.99
  -4   4  -2 1517.75   77.59
  -4   4  -2 1518.85   68.19
  -4   4  -2 1613.74   67.39
   4  -4   2 1439.26   68.49
   4  -4   2 1631.54   78.29
   4  -4   2 1596.34   70.59
  -6   4  -2  806.82   49.80
  -6   4  -2  804.22   51.49
  -6   4  -2  769.62   56.59
   6  -4   2  891.41   54.19
   6  -4   2  666.83   52.89
   6  -4   2  820.22   52.89
  -8   4  -2  133.59   27.70
  -8   4  -2  150.38   28.90
  -8   4  -2  148.49   33.00
   8  -4   2  198.98   32.90
   8  -4   2  116.49   25.70
 -10   4  -2    4.20   14.90
 -10   4  -2   17.20   15.20
 -10   4  -2   18.50   20.20
  10  -4   2   44.40   19.60
  10  -4   2   50.89   21.80
  10  -4   2  109.19   30.90
 -12   4  -2   36.90   22.20
 -12   4  -2   80.49   31.70
  12  -4   2   74.79   28.30
  14  -4   2   81.29   37.00
  14  -4   2   20.30   22.30
 -16   4  -2    9.50   23.20
  16  -4   2   20.00   25.10
 -18   4  -2   43.10   43.10
  18  -4   2   66.09   37.20
 -19  -3   2   52.29   38.40
 -17  -3   2   24.60   35.10
  15   3  -2  420.16   71.49
  15   3  -2  383.66   66.39
  15   3  -2  359.26   67.09
 -15  -3   2  362.66   66.59
 -15  -3   2  430.66   75.89
 -15  -3   2  576.24   70.39
  13   3  -2  322.37   57.39
  13   3  -2  341.57   58.39
  13   3  -2  338.37   57.29
 -13  -3   2  279.17   53.59
 -13  -3   2  261.47   52.99
 -13  -3   2  390.16   63.79
  11   3  -2    5.00   13.60
  11   3  -2   23.60   18.10
  11   3  -2   45.90   20.50
 -11  -3   2   20.90   23.30
 -11  -3   2   63.89   22.90
 -11  -3   2   36.00   19.00
   9   3  -2 1523.95   97.49
   9   3  -2 1508.65   92.19
   9   3  -2 1552.44   94.99
  -9  -3   2 1709.13   97.19
  -9  -3   2 1498.95  108.29
  -9  -3   2 1684.63  101.09
   7   3  -2  863.21   59.19
   7   3  -2  777.62   56.69
   7   3  -2  820.92   60.79
  -7  -3   2  714.03   59.99
  -7  -3   2  763.52   57.19
  -7  -3   2  824.62   57.69
   5   3  -2   15.80   11.80
   5   3  -2   15.60   11.00
   5   3  -2   -2.70    8.30
  -5  -3   2    0.80    7.70
  -5  -3   2    8.30    7.60
  -5  -3   2   -5.60    9.20
   3   3  -2 2520.35  106.49
   3   3  -2 2466.45   96.89
  -3  -3   2 2508.35  106.99
  -3  -3   2 2640.24   98.59
  -3  -3   2 2557.24   98.09
   1   3  -2  408.36   19.50
   1   3  -2  420.36   19.60
   1   3  -2  360.96   30.30
  -1  -3   2  387.26   20.50
  -1  -3   2  427.56   21.10
  -1  -3   2  411.96   31.90
  -1   3  -2 1177.88   57.99
   1  -3   2 1141.49   41.20
   1  -3   2 1158.38   56.79
   1  -3   2 1082.99   40.60
  -3   3  -2 3151.28  112.79
  -3   3  -2 3138.09  111.19
  -3   3  -2 3071.79  124.59
   3  -3   2 3138.79  113.39
   3  -3   2 3152.88  124.99
   3  -3   2 3170.78  113.69
  -5   3  -2    1.40    8.40
  -5   3  -2   10.30    8.00
  -5   3  -2   -1.30    7.20
   5  -3   2   -1.10    6.90
   5  -3   2    8.00   12.10
   5  -3   2   -7.60    5.90
  -7   3  -2  694.83   49.70
  -7   3  -2  669.43   50.49
  -7   3  -2  713.03   57.09
   7  -3   2  615.64   48.90
   7  -3   2  744.93   57.49
   7  -3   2  625.74   49.70
  -9   3  -2  433.66   50.59
  -9   3  -2  532.35   50.19
  -9   3  -2  568.84   49.40
   9  -3   2  484.65   47.70
   9  -3   2  523.35   49.70
   9  -3   2  394.16   48.10
 -11   3  -2   -6.80   12.50
 -11   3  -2    1.20   19.90
  11  -3   2   24.10   16.30
  11  -3   2    2.70   13.40
  11  -3   2   28.70   20.10
 -13   3  -2  497.45   59.39
 -13   3  -2  550.74   67.29
  13  -3   2  444.76   57.79
  13  -3   2  516.45   64.39
 -15   3  -2  130.69   41.80
  15  -3   2   33.80   25.60
  15  -3   2   60.59   30.40
 -17   3  -2   -1.70   28.30
 -20  -2   2  425.66  109.29
 -18  -2   2  130.69   42.00
  16   2  -2   22.90   25.30
  16   2  -2  -62.99   21.50
 -16  -2   2  -10.00   17.50
 -16  -2   2    7.50   18.90
  14   2  -2 1614.94  115.29
  14   2  -2 1504.55  113.09
 -14  -2   2 1512.35  111.79
 -14  -2   2 1567.94  112.89
 -14  -2   2 1501.45  114.89
  12   2  -2  350.16   57.29
  12   2  -2  267.27   48.60
  12   2  -2  396.46   73.29
 -12  -2   2  294.97   58.99
 -12  -2   2  402.66   63.69
 -12  -2   2  336.07   43.90
  10   2  -2  345.27   42.90
  10   2  -2  333.67   41.70
  10   2  -2  324.67   43.10
 -10  -2   2  372.96   43.40
 -10  -2   2  337.17   52.39
 -10  -2   2  290.47   38.40
   8   2  -2 2476.35  125.79
   8   2  -2 2646.14  124.69
   8   2  -2 2556.84  124.89
  -8  -2   2 2550.24  123.89
  -8  -2   2 3026.10  133.69
  -8  -2   2 2463.85  123.29
   6   2  -2    5.80    9.50
   6   2  -2   10.00    8.50
   6   2  -2   32.20   15.50
  -6  -2   2    7.70   11.60
  -6  -2   2   14.80    9.50
  -6  -2   2   27.40   13.00
   4   2  -2  458.75   35.90
   4   2  -2  447.46   31.60
   4   2  -2  474.75   33.80
  -4  -2   2  403.76   34.70
  -4  -2   2  456.65   33.00
  -4  -2   2  465.05   32.80
   2   2  -2 2215.98   80.99
   2   2  -2 2243.08   92.09
   2   2  -2 2288.17   81.29
  -2  -2   2 2273.97   81.79
  -2  -2   2 2412.86   93.89
  -2  -2   2 2178.88   81.49
   0   2  -2   89.59   15.80
   0  -2   2  111.29   16.80
  -2   2  -2 5137.29  185.68
  -2   2  -2 5197.48  170.88
   2  -2   2 5433.06  186.88
   2  -2   2 5541.95  173.38
   2  -2   2 5052.89  172.08
  -4   2  -2  981.90   59.09
  -4   2  -2  991.70   50.89
  -4   2  -2  984.70   51.79
   4  -2   2 1067.09   60.39
   4  -2   2 1007.50   52.39
   4  -2   2  954.60   51.49
  -6   2  -2   23.10   10.90
  -6   2  -2   14.30    9.50
  -6   2  -2    9.70   17.20
   6  -2   2   23.70   16.00
   6  -2   2   12.50   10.40
   6  -2   2    2.60    9.40
  -8   2  -2 3551.24  158.48
  -8   2  -2 3383.66  149.09
   8  -2   2 3235.88  147.89
   8  -2   2 3112.09  145.79
   8  -2   2 3330.07  154.58
 -10   2  -2    9.10   14.30
 -10   2  -2   19.20   22.00
  10  -2   2   10.80   15.70
  10  -2   2   22.20   13.20
  10  -2   2   49.30   19.50
 -12   2  -2   39.50   28.50
 -12   2  -2   -9.60   17.50
  12  -2   2  -12.90   20.80
  12  -2   2    1.40   15.80
 -14   2  -2  560.84   69.19
  14  -2   2  426.66   69.79
  14  -2   2  451.15   71.69
 -16   2  -2   91.89   38.60
  16  -2   2  127.79   43.30
 -18   2  -2   63.29   43.80
  18  -2   2  220.58   56.49
 -19  -1   2  446.86   81.29
  17   1  -2   78.99   40.20
 -17  -1   2  123.59   39.00
  15   1  -2  545.25   67.69
  15   1  -2  566.44   95.19
  15   1  -2  449.36   72.39
 -15  -1   2  475.65  119.09
 -15  -1   2  783.42   80.89
  13   1  -2  662.03   70.59
  13   1  -2  704.63   69.99
  13   1  -2  618.74   68.39
 -13  -1   2  669.63   69.49
 -13  -1   2  663.13   72.59
  11   1  -2 1427.66   92.99
  11   1  -2 1271.17   90.19
  11   1  -2 1279.57   87.69
 -11  -1   2 1152.58   88.19
 -11  -1   2 1155.78   84.59
 -11  -1   2 1185.78   85.09
   9   1  -2 4556.74  193.18
   9   1  -2 4670.23  196.18
   9   1  -2 4638.24  202.18
  -9  -1   2 4677.83  196.58
  -9  -1   2 4526.75  193.08
  -9  -1   2 4753.12  195.98
   7   1  -2   98.09   23.50
   7   1  -2   66.39   17.90
   7   1  -2   78.79   19.50
  -7  -1   2   97.09   23.10
  -7  -1   2   57.49   18.10
  -7  -1   2   57.49   20.70
   5   1  -2  256.87   27.70
   5   1  -2  285.67   28.50
   5   1  -2  293.47   29.20
  -5  -1   2  320.27   28.80
  -5  -1   2  297.27   28.30
  -5  -1   2  345.47   33.70
   1   1  -2  347.17   18.20
   1   1  -2  357.16   17.80
  -1  -1   2  341.27   17.90
  -1  -1   2  281.97   23.20
  -1  -1   2  375.36   18.60
  -1   1  -2  933.81   37.40
  -1   1  -2  994.60   47.80
  -1   1  -2  917.71   37.30
   1  -1   2  842.12   37.10
   1  -1   2  889.91   37.10
   1  -1   2  892.01   46.50
  -3   1  -2 8040.20  263.77
  -3   1  -2 7448.75  273.37
   3  -1   2 7998.00  263.67
   3  -1   2 8038.90  273.07
   3  -1   2 8363.76  264.87
  -5   1  -2 1406.76   71.69
  -5   1  -2 1439.16   78.19
   5  -1   2 1351.76   76.39
   5  -1   2 1495.05   73.39
   5  -1   2 1397.56   71.89
  -7   1  -2 4114.29  179.38
  -7   1  -2 4553.14  175.08
  -7   1  -2 3972.20  171.28
   7  -1   2 4090.39  178.88
   7  -1   2 4463.15  175.58
   7  -1   2 4163.98  172.48
  -9   1  -2  967.60   70.89
  -9   1  -2  893.51   72.79
  -9   1  -2 1022.80   71.29
   9  -1   2  959.40   75.99
   9  -1   2  868.71   68.19
 -11   1  -2  124.69   35.00
 -11   1  -2   69.69   26.10
  11  -1   2   72.69   26.10
  11  -1   2  103.99   31.10
  11  -1   2   80.19   31.00
 -13   1  -2 1071.19   89.19
 -13   1  -2 1097.89   97.79
  13  -1   2  926.21   87.69
  13  -1   2 1012.30   97.49
 -15   1  -2  240.78   55.69
  15  -1   2  171.78   51.09
  15  -1   2  308.17   60.59
 -17   1  -2   27.70   27.40
  17  -1   2   96.89   39.00
 -20   0   2 1334.47  129.89
  18   0  -2  233.28   63.19
 -18   0   2  117.39   42.00
 -18   0   2  196.18   57.19
  16   0  -2  -28.90   10.30
  16   0  -2   -2.20   17.10
 -16   0   2    3.80   27.60
 -16   0   2   -5.10   14.50
  14   0  -2 1869.41  123.79
  14   0  -2 1918.21  126.89
  14   0  -2 1939.91  126.09
 -14   0   2 1924.91  124.09
 -14   0   2 1750.22  123.79
 -14   0   2 1968.60  127.59
  12   0  -2   29.20   19.90
  12   0  -2   -4.60    9.70
  12   0  -2    4.70   15.80
 -12   0   2   21.10   16.40
 -12   0   2   -1.10   17.30
  10   0  -2 1199.48   83.39
  10   0  -2 1334.47   86.59
  10   0  -2 1283.07   84.79
 -10   0   2 1372.26   88.59
 -10   0   2 1284.57   85.39
   8   0  -2 4596.84  183.68
   8   0  -2 4622.04  184.78
   8   0  -2 4344.67  180.68
  -8   0   2 4458.25  196.78
  -8   0   2 4255.47  181.28
   6   0  -2  737.33   48.70
   6   0  -2  762.82   51.49
   6   0  -2  713.23   49.20
  -6   0   2  712.23   49.30
  -6   0   2  755.32   50.09
  -6   0   2  667.03   47.30
   4   0  -2 3570.94  136.39
   4   0  -2 3789.72  138.39
  -4   0   2 3700.43  137.09
  -4   0   2 3719.13  137.99
  -4   0   2 3860.81  139.99
   2   0  -2 3410.66  118.79
  -2   0   2 3465.75  120.09
  -2   0   2 3284.67  117.99
  -2   0   2 3309.67  117.59
   0   0  -2 2185.88   85.19
   0   0   2 2282.67   80.39
   0   0   2 2183.08   84.69
   0   0   2 2311.97   80.69
  -2   0  -2 1029.40   48.10
  -2   0  -2  842.52   44.60
   2   0   2  991.10   47.90
   2   0   2  990.80   47.90
   2   0   2 1049.40   53.19
  -4   0  -2   16.40   14.00
  -4   0  -2    9.30    7.80
  -4   0  -2   27.90   12.80
   4   0   2   36.80   12.40
   4   0   2   49.10   18.40
   4   0   2   13.10   10.40
  -6   0  -2  873.71   61.09
  -6   0  -2  847.62   56.69
   6   0   2  679.63   52.49
   6   0   2  764.72   57.69
   6   0   2  777.92   62.69
  -8   0  -2 4515.15  199.48
  -8   0  -2 4821.62  206.58
   8   0   2 4869.51  200.38
   8   0   2 4879.41  202.08
   8   0   2 5110.09  209.78
 -10   0  -2  -16.50   17.30
 -10   0  -2  -17.50   10.30
 -10   0  -2  -17.80    8.60
  10   0   2   14.70   13.10
  10   0   2  -18.60   10.30
  10   0   2   10.10   14.50
 -12   0  -2   64.99   29.00
 -12   0  -2   -3.10   15.90
 -12   0  -2  -17.60   16.90
  12   0   2   14.40   20.40
  12   0   2    5.70   13.00
  12   0   2   42.20   25.00
 -14   0  -2 1528.35  119.79
 -14   0  -2 1749.53  129.49
  14   0   2 1727.73  128.69
  14   0   2 1585.14  119.99
 -16   0  -2  603.54   80.09
  16   0   2  576.44   88.59
 -18   0  -2  205.68   59.89
  18   0   2  296.67   65.69
  19  -1  -2  528.75   86.99
 -19   1   2  473.45   85.19
  17  -1  -2   90.99   34.30
  17  -1  -2  145.79   48.70
 -17   1   2  170.78   45.40
 -17   1   2   37.40   36.70
  15  -1  -2  615.64   68.39
  15  -1  -2  712.53   76.49
 -15   1   2  550.44   69.09
 -15   1   2  615.84   70.69
 -15   1   2  501.05   68.19
  13  -1  -2  603.54   62.89
  13  -1  -2  738.63   70.89
  13  -1  -2  633.34   66.09
 -13   1   2  616.94   66.79
 -13   1   2  517.65   58.79
 -13   1   2  671.43   66.39
  11  -1  -2 1361.86   92.29
  11  -1  -2 1333.27   90.09
  11  -1  -2 1444.36   90.99
 -11   1   2 1174.08   85.59
 -11   1   2 1218.98  102.29
 -11   1   2 1190.68   86.49
   9  -1  -2 4398.56  190.18
   9  -1  -2 4764.02  195.58
   9  -1  -2 4210.58  184.78
  -9   1   2 4825.02  190.68
  -9   1   2 4541.55  192.88
  -9   1   2 4797.72  194.48
   7  -1  -2   83.29   23.70
   7  -1  -2   62.79   17.10
   7  -1  -2   33.30   15.70
  -7   1   2   76.89   20.80
  -7   1   2   66.19   18.00
  -7   1   2   74.39   20.80
   5  -1  -2  219.88   25.80
   5  -1  -2  297.37   28.20
   5  -1  -2  265.07   25.80
  -5   1   2  300.47   27.80
  -5   1   2  312.57   28.40
  -5   1   2  273.57   27.90
   3  -1  -2 9999.00  325.77
   1  -1  -2  346.47   22.30
  -1   1   2  389.96   29.40
  -1   1   2  372.96   22.30
  -1   1   2  338.27   23.40
  -1  -1  -2  822.82   45.30
  -1  -1  -2  923.11   45.40
   1   1   2  861.81   45.00
   1   1   2  923.11   45.50
   1   1   2  877.01   44.50
  -3  -1  -2 8332.37  281.77
  -3  -1  -2 8623.14  287.17
   3   1   2 8466.45  282.57
   3   1   2 7987.50  284.37
   3   1   2 8252.57  281.97
  -5  -1  -2 1567.64   83.39
  -5  -1  -2 1451.45   77.09
  -5  -1  -2 1327.07   75.09
   5   1   2 1397.76   79.79
   5   1   2 1495.95   78.69
   5   1   2 1422.66   76.59
  -7  -1  -2 4270.77  177.78
  -7  -1  -2 4071.99  175.38
  -7  -1  -2 4064.09  181.48
   7   1   2 4212.58  176.08
   7   1   2 4496.55  186.68
   7   1   2 3985.00  174.98
  -9  -1  -2  960.70   72.99
  -9  -1  -2  908.11   70.89
  -9  -1  -2 1079.09   81.09
   9   1   2  929.71   72.49
   9   1   2  828.32   68.19
   9   1   2  929.61   75.09
 -11  -1  -2  108.29   28.50
 -11  -1  -2   79.19   35.60
 -11  -1  -2  122.89   33.00
  11   1   2  137.99   35.20
  11   1   2   78.39   26.00
  11   1   2  104.49   36.60
 -13  -1  -2 1015.20   90.69
 -13  -1  -2 1169.08  101.29
  13   1   2 1144.69   95.69
  13   1   2 1045.70   94.89
 -15  -1  -2  120.29   44.50
 -15  -1  -2  260.87   60.79
  15   1   2  181.48   49.40
 -17  -1  -2  -22.70   19.70
  17   1   2   64.09   30.00
  20  -2  -2  387.16   73.89
 -20   2   2  372.76   78.69
  18  -2  -2   44.40   31.80
 -18   2   2   21.60   26.00
 -18   2   2   -3.70   30.60
  16  -2  -2    8.10   22.20
 -16   2   2    8.60   18.60
 -16   2   2    0.90   15.10
  14  -2  -2 1395.66  103.69
  14  -2  -2 1699.53  116.19
  14  -2  -2 1611.74  112.69
 -14   2   2 1292.37  104.39
 -14   2   2 1716.43  112.79
 -14   2   2 1551.44  109.89
  12  -2  -2  289.97   46.20
  12  -2  -2  240.58   47.90
  12  -2  -2  244.58   45.80
 -12   2   2  221.58   43.90
 -12   2   2  293.27   49.30
 -12   2   2  281.57   47.00
  10  -2  -2  349.37   40.90
  10  -2  -2  376.06   40.50
  10  -2  -2  346.67   44.10
 -10   2   2  323.97   41.90
 -10   2   2  366.46   44.10
 -10   2   2  383.76   43.40
   8  -2  -2 2504.85  123.39
   8  -2  -2 2653.23  124.49
   8  -2  -2 2529.35  116.09
  -8   2   2 2792.92  125.79
  -8   2   2 2583.84  125.19
  -8   2   2 2648.94  118.19
   6  -2  -2   13.70   10.30
   6  -2  -2   32.40   13.00
   6  -2  -2    2.70    7.90
  -6   2   2    0.70    9.50
  -6   2   2   14.60   10.50
  -6   2   2   17.50   10.70
   4  -2  -2  393.56   34.00
   4  -2  -2  488.05   28.90
   4  -2  -2  472.65   35.40
  -4   2   2  507.85   36.90
  -4   2   2  472.05   35.60
  -4   2   2  499.15   29.30
   2  -2  -2 2092.19   88.29
   2  -2  -2 2223.38   89.29
  -2   2   2 2135.09   89.59
  -2   2   2 2184.88   76.79
  -2   2   2 2146.89   88.89
  -2   2   2 2207.68   76.49
   0  -2  -2  131.99   17.10
   0  -2  -2   82.19   16.00
   0  -2  -2   77.19   13.40
   0   2   2  106.59   17.00
   0   2   2  126.79   19.50
   0   2   2  116.09   15.30
  -2  -2  -2 5351.16  193.98
  -2  -2  -2 5462.25  194.78
  -2  -2  -2 5534.05  195.68
   2   2   2 5416.66  195.08
   2   2   2 5364.86  193.68
   2   2   2 5717.83  196.78
  -4  -2  -2 1000.20   60.39
  -4  -2  -2 1071.69   62.59
  -4  -2  -2 1027.60   62.99
   4   2   2  962.60   61.59
   4   2   2 1059.39   61.49
   4   2   2  971.10   60.99
  -6  -2  -2    1.10    8.30
  -6  -2  -2   15.70   12.30
  -6  -2  -2    0.80   11.20
   6   2   2   -5.20    6.60
   6   2   2   -5.00    5.20
   6   2   2   13.90   13.80
  -8  -2  -2 3483.05  160.88
  -8  -2  -2 3328.67  164.88
  -8  -2  -2 3480.55  160.78
   8   2   2 3345.47  159.58
   8   2   2 3457.95  158.98
   8   2   2 3427.76  164.08
 -10  -2  -2   55.89   23.20
 -10  -2  -2   28.00   21.00
 -10  -2  -2   18.20   16.60
  10   2   2   33.80   20.30
  10   2   2   36.00   21.30
  10   2   2   17.90   13.50
 -12  -2  -2    1.70   11.50
 -12  -2  -2   -7.50   21.30
 -12  -2  -2    4.40   21.00
  12   2   2   -2.20   11.80
  12   2   2   29.50   21.10
  12   2   2   21.10   13.90
 -14  -2  -2  549.35   86.59
 -14  -2  -2  589.84   70.29
  14   2   2  594.54   72.49
  14   2   2  554.04   70.89
 -16  -2  -2  138.49   43.20
 -16  -2  -2   99.39   43.60
  16   2   2   63.59   29.30
 -18  -2  -2   52.69   35.30
  18   2   2  177.28   54.39
  19  -3  -2   72.79   39.80
 -19   3   2   70.59   38.00
  17  -3  -2   17.80   23.70
  17  -3  -2   11.10   21.00
 -17   3   2   29.70   28.20
 -17   3   2   -4.20   22.50
  15  -3  -2  508.35   63.09
  15  -3  -2  377.66   60.79
 -15   3   2  412.26   68.09
 -15   3   2  408.06   64.39
  13  -3  -2  367.76   58.39
  13  -3  -2  352.56   55.49
  13  -3  -2  257.97   46.90
 -13   3   2  390.66   60.39
 -13   3   2  316.37   53.19
 -13   3   2  351.96   57.39
  11  -3  -2   30.60   18.20
  11  -3  -2   36.70   19.90
 -11   3   2   22.70   16.00
 -11   3   2   40.00   19.30
 -11   3   2   19.40   18.70
   9  -3  -2 1550.94   92.59
   9  -3  -2 1581.44   85.09
  -9   3   2 1701.73   87.69
  -9   3   2 1600.54   92.59
  -9   3   2 1425.66   91.49
   7  -3  -2  779.62   48.10
   7  -3  -2  894.41   59.49
   7  -3  -2  745.33   56.89
  -7   3   2  818.32   58.79
  -7   3   2  770.32   48.30
  -7   3   2  607.34   67.49
   5  -3  -2    9.60    6.90
   5  -3  -2    0.00    6.40
   5  -3  -2    1.10   11.40
  -5   3   2   -1.00    6.50
  -5   3   2    1.70   10.40
   3  -3  -2 2589.64  108.89
  -3   3   2 2659.53  109.29
   1  -3  -2  422.46   32.30
   1  -3  -2  391.06   32.00
   1  -3  -2  421.46   23.10
  -1   3   2  383.96   22.90
  -1   3   2  439.66   33.60
  -1   3   2  277.47   36.30
  -1  -3  -2 1097.29   55.19
  -1  -3  -2 1050.29   59.49
  -1  -3  -2 1154.28   60.69
   1   3   2 1167.08   60.29
   1   3   2 1153.68   56.09
   1   3   2 1068.89   59.69
  -3  -3  -2 3082.39  133.29
  -3  -3  -2 3298.87  135.79
  -3  -3  -2 3258.77  134.09
   3   3   2 3341.07  135.29
   3   3   2 3337.87  136.39
   3   3   2 3246.68  135.49
  -5  -3  -2   43.00   17.10
  -5  -3  -2   -8.80    7.30
  -5  -3  -2  -12.40    7.60
   5   3   2  -11.30    6.40
   5   3   2   -2.80   10.90
   5   3   2   -3.40    5.00
  -7  -3  -2  780.52   61.19
  -7  -3  -2  637.34   57.29
  -7  -3  -2  700.13   61.19
   7   3   2  716.43   61.69
   7   3   2  658.83   57.19
   7   3   2  796.52   62.69
  -9  -3  -2  448.26   52.09
  -9  -3  -2  478.05   53.09
  -9  -3  -2  591.34   63.79
   9   3   2  376.56   58.59
   9   3   2  391.96   50.29
   9   3   2  471.15   51.19
 -11  -3  -2   63.39   34.50
 -11  -3  -2   49.40   23.70
 -11  -3  -2    9.20   16.80
  11   3   2    6.90   15.30
  11   3   2   15.40   17.70
  11   3   2   27.30   21.90
 -13  -3  -2  523.25   64.69
 -13  -3  -2  530.25   83.09
 -13  -3  -2  467.95   60.39
  13   3   2  494.25   66.39
  13   3   2  515.35   65.29
 -15  -3  -2  106.49   47.70
 -15  -3  -2  111.99   37.20
  15   3   2   58.09   35.40
 -17  -3  -2   32.80   37.20
  17   3   2  -13.70   27.40
  20  -4  -2   17.50   26.40
  18  -4  -2  103.99   39.60
 -18   4   2   73.79   31.30
  16  -4  -2   51.59   30.20
  16  -4  -2   81.09   33.40
 -16   4   2   58.39   32.00
 -16   4   2  101.89   36.50
  14  -4  -2  418.96   51.69
  14  -4  -2  589.74   63.69
 -14   4   2  404.56   53.89
 -14   4   2  352.46   59.09
  12  -4  -2    0.60   14.70
  12  -4  -2   24.80   19.30
  12  -4  -2   17.00   15.90
 -12   4   2   42.00   20.50
 -12   4   2    0.40   15.60
 -12   4   2   -2.10    9.20
  10  -4  -2  788.02   65.49
  10  -4  -2  773.32   57.49
 -10   4   2  850.01   68.79
   8  -4  -2  276.77   48.00
   8  -4  -2  350.86   32.40
   8  -4  -2  357.96   39.80
  -8   4   2  270.87   30.20
  -8   4   2  278.97   35.50
   6  -4  -2  666.13   50.89
   6  -4  -2  597.64   35.10
   6  -4  -2  608.04   50.89
  -6   4   2  620.94   36.20
  -6   4   2  700.43   51.39
  -6   4   2  582.24   47.80
   4  -4  -2  236.48   26.60
   4  -4  -2  177.98   28.40
   4  -4  -2  178.98   12.90
  -4   4   2  162.08   26.50
  -4   4   2  166.98   28.00
   2  -4  -2 1149.58   41.70
   2  -4  -2 1230.58   64.99
   2  -4  -2 1121.79   62.79
  -2   4   2 1188.18   63.59
   0  -4  -2  407.56   27.60
   0  -4  -2  384.96   33.90
   0  -4  -2  380.96   33.10
   0   4   2  412.76   35.00
   0   4   2  390.66   27.60
   0   4   2  459.65   37.00
  -2  -4  -2 1276.27   70.79
  -2  -4  -2 1221.28   70.19
  -2  -4  -2 1301.97   66.99
   2   4   2 1180.78   68.99
   2   4   2 1303.07   67.19
   2   4   2 1296.77   70.99
  -4  -4  -2 1486.85   84.69
  -4  -4  -2 1530.25   83.69
  -4  -4  -2 1522.25   84.69
   4   4   2 1481.75   84.49
   4   4   2 1520.95   84.09
   4   4   2 1473.65   84.09
  -6  -4  -2  831.02   63.09
  -6  -4  -2  796.12   63.59
  -6  -4  -2  770.72   61.29
   6   4   2  730.13   60.09
   6   4   2  667.43   58.49
   6   4   2  725.83   61.09
  -8  -4  -2  147.29   35.20
  -8  -4  -2  126.29   30.60
  -8  -4  -2  137.99   37.60
   8   4   2  204.48   40.40
   8   4   2  179.28   40.40
   8   4   2  152.58   33.80
 -10  -4  -2   47.90   23.30
 -10  -4  -2   66.59   29.20
 -10  -4  -2   45.50   29.90
  10   4   2   18.50   19.70
  10   4   2   15.00   18.90
  10   4   2   38.00   21.70
 -12  -4  -2   57.99   37.60
 -12  -4  -2    3.30   15.80
 -12  -4  -2   45.20   25.50
  12   4   2   21.30   24.10
  12   4   2   88.99   35.50
  12   4   2   68.79   31.10
 -14  -4  -2   63.39   41.50
 -14  -4  -2  113.69   35.60
  14   4   2   86.39   37.50
 -16  -4  -2  -23.10   34.50
 -18  -4  -2   67.89   38.80
  19  -5  -2   -2.40   27.70
  17  -5  -2  167.68   48.80
 -17   5   2   84.69   36.60
  15  -5  -2   20.80   17.30
  15  -5  -2   49.20   27.40
 -15   5   2   54.19   27.40
 -15   5   2   65.49   27.90
  13  -5  -2  191.18   46.40
  13  -5  -2  229.38   41.90
 -13   5   2  212.78   47.80
 -13   5   2  272.97   47.00
  11  -5  -2  979.00   77.19
  11  -5  -2  888.81   62.79
  11  -5  -2 1035.50   79.69
 -11   5   2  783.32   61.39
 -11   5   2  838.02   73.49
 -11   5   2  896.71   72.69
   9  -5  -2  143.29   33.40
   9  -5  -2  139.49   31.30
   9  -5  -2  151.18   25.20
  -9   5   2  181.48   29.20
  -9   5   2  205.68   36.30
  -9   5   2  144.29   31.90
   7  -5  -2  348.67   40.90
   7  -5  -2  379.66   28.20
   7  -5  -2  298.67   37.00
  -7   5   2  386.76   48.40
  -7   5   2  369.66   28.30
  -7   5   2  337.07   38.80
   5  -5  -2  558.84   47.90
   5  -5  -2  533.05   46.10
  -5   5   2  545.55   45.70
  -5   5   2  493.75   43.90
   3  -5  -2   -4.20    9.40
   3  -5  -2   36.60   13.40
  -3   5   2   17.00   12.80
  -3   5   2   12.00   10.30
   1  -5  -2 1160.58   48.20
   1  -5  -2 1136.19   66.29
   1  -5  -2 1136.19   65.59
  -1   5   2 1153.78   48.90
  -1   5   2 1161.18   65.49
  -1  -5  -2  215.08   23.50
  -1  -5  -2  221.38   28.90
  -1  -5  -2  259.67   30.80
   1   5   2  177.48   28.60
   1   5   2  246.38   29.20
   1   5   2  219.98   23.60
  -3  -5  -2   27.90   15.80
  -3  -5  -2   49.10   19.30
  -3  -5  -2   22.00   12.20
   3   5   2    4.40   13.30
   3   5   2   25.10   13.80
   3   5   2   39.90   16.40
  -5  -5  -2  756.82   61.79
  -5  -5  -2  754.92   61.89
  -5  -5  -2  785.32   61.29
   5   5   2  749.23   62.09
   5   5   2  858.71   64.69
   5   5   2  798.02   62.49
  -7  -5  -2  148.89   39.60
  -7  -5  -2   44.20   25.10
  -7  -5  -2   95.69   25.40
   7   5   2   88.29   28.20
   7   5   2  105.59   29.20
   7   5   2   85.29   28.00
  -9  -5  -2   -1.60    9.70
  -9  -5  -2   13.50   23.30
  -9  -5  -2   16.00   21.00
   9   5   2   23.50   16.20
   9   5   2   23.20   23.40
   9   5   2   -4.50    9.40
 -11  -5  -2 1483.15  112.39
 -11  -5  -2 1495.65  111.49
 -11  -5  -2 1548.84  118.69
  11   5   2 1661.43  113.79
  11   5   2 1519.45  137.19
  11   5   2 1363.76  108.19
 -13  -5  -2  277.07   58.09
 -13  -5  -2  281.27   57.99
 -13  -5  -2  306.37   66.29
  13   5   2  194.78   48.60
  13   5   2  229.28   57.09
 -15  -5  -2  687.13   88.99
 -17  -5  -2  310.97   73.99
  18  -6  -2  133.39   46.40
  16  -6  -2  684.73   80.29
 -16   6   2  591.74   65.49
  14  -6  -2   36.10   21.90
  14  -6  -2   28.00   26.30
 -14   6   2   -7.10   17.00
 -14   6   2   44.40   26.20
  12  -6  -2 1327.17   98.79
  12  -6  -2 1267.47   80.09
  12  -6  -2 1369.36  116.19
 -12   6   2 1189.58   92.79
 -12   6   2 1363.66   83.79
 -12   6   2 1316.57   93.89
  10  -6  -2  638.84   61.79
  10  -6  -2  651.13   48.30
  10  -6  -2  661.63   63.19
 -10   6   2  646.04   48.20
 -10   6   2  638.14   61.09
 -10   6   2  520.65   53.99
   8  -6  -2  301.67   40.10
   8  -6  -2  388.36   29.90
   8  -6  -2  320.17   42.30
  -8   6   2  370.06   41.90
  -8   6   2  420.46   30.80
   6  -6  -2 3357.56  109.19
   6  -6  -2 2821.62  141.09
   6  -6  -2 3011.20  142.69
  -6   6   2 3256.87  144.39
   4  -6  -2   20.60   16.10
   4  -6  -2   19.50   14.10
  -4   6   2   42.40   15.40
  -4   6   2   12.30   10.40
   2  -6  -2   62.49   17.40
   2  -6  -2   75.89    7.20
   2  -6  -2   72.29   19.30
  -2   6   2   93.59   21.20
  -2   6   2  127.39   27.10
   0  -6  -2 3235.48  139.99
   0  -6  -2 2920.91  114.29
   0   6   2 2960.40  132.59
   0   6   2 3073.19  116.09
  -2  -6  -2   25.30   13.50
  -2  -6  -2   11.90   13.90
  -2  -6  -2  -15.00   11.20
   2   6   2   38.20   16.30
   2   6   2    9.40    9.50
   2   6   2    5.90   13.00
  -4  -6  -2 1681.93   98.69
  -4  -6  -2 1691.13   98.69
  -4  -6  -2 1689.53   94.59
   4   6   2 1855.01  101.99
   4   6   2 1807.52  101.29
   4   6   2 1747.53   96.39
  -6  -6  -2 1149.78   82.19
  -6  -6  -2 1114.99   82.59
  -6  -6  -2 1312.67   86.19
   6   6   2 1252.77   86.19
   6   6   2 1130.19   82.89
   6   6   2 1056.99   78.69
  -8  -6  -2  120.59   31.40
  -8  -6  -2  131.49   35.60
  -8  -6  -2  147.89   39.80
   8   6   2  130.09   33.30
   8   6   2  132.79   37.60
   8   6   2  126.39   35.70
 -10  -6  -2  255.57   61.09
 -10  -6  -2  285.07   55.49
 -10  -6  -2  195.28   48.20
  10   6   2  227.38   49.10
  10   6   2  201.78   49.80
  10   6   2  319.27   56.59
 -12  -6  -2   51.89   34.50
 -12  -6  -2   18.50   26.30
 -12  -6  -2   19.90   20.30
  12   6   2   46.50   28.50
  12   6   2   10.30   18.20
  12   6   2   83.89   36.60
 -14  -6  -2   33.90   35.80
 -16  -6  -2  433.46   83.39
  17  -7  -2  590.64   73.29
  15  -7  -2   97.19   38.50
  13  -7  -2  197.18   44.50
 -13   7   2  205.48   38.50
 -13   7   2  239.88   50.29
  11  -7  -2 1405.26  101.49
  11  -7  -2 1677.13   84.79
 -11   7   2 1655.93  106.69
 -11   7   2 1437.66   81.49
   9  -7  -2   20.00   13.50
   9  -7  -2   30.20   16.40
   9  -7  -2   18.40   10.50
  -9   7   2   37.60   19.40
  -9   7   2   11.40   10.40
   7  -7  -2  902.71   71.09
   7  -7  -2  936.31   38.20
   7  -7  -2  832.12   67.49
  -7   7   2 1084.79   72.79
   5  -7  -2 2752.12  134.09
   5  -7  -2 2972.20  138.79
  -5   7   2 2864.11  133.59
   3  -7  -2  488.25   45.70
   3  -7  -2  460.65   43.70
  -3   7   2  385.86   40.50
   1  -7  -2 3051.89  109.89
   1  -7  -2 2881.71  137.09
   1  -7  -2 2927.41  136.29
  -1   7   2 3027.40  138.69
  -1   7   2 3282.97  156.48
  -1   7   2 3120.29  111.19
  -1  -7  -2 1618.24   94.79
  -1  -7  -2 1878.31  100.69
  -1  -7  -2 1828.62   84.19
   1   7   2 1797.62   84.29
  -3  -7  -2    7.60   11.80
  -3  -7  -2   12.10   15.20
   3   7   2    4.50   11.60
   3   7   2   20.80   17.10
   3   7   2    6.80   13.80
  -5  -7  -2 2813.42  137.09
  -5  -7  -2 2557.64  138.09
  -5  -7  -2 2728.33  140.09
   5   7   2 2681.23  136.39
   5   7   2 2842.82  142.19
   5   7   2 2644.74  139.59
  -7  -7  -2  312.77   53.29
  -7  -7  -2  243.48   47.80
  -7  -7  -2  245.98   46.70
   7   7   2  244.68   45.30
   7   7   2  312.37   52.79
   7   7   2  290.97   51.99
  -9  -7  -2   44.10   27.00
  -9  -7  -2   27.30   25.20
  -9  -7  -2    4.30   14.80
   9   7   2   46.50   26.90
   9   7   2   27.00   19.90
   9   7   2   37.90   24.90
 -11  -7  -2 2194.98  146.19
 -11  -7  -2 2168.28  146.39
  11   7   2 2389.56  154.58
  11   7   2 2366.66  148.19
 -13  -7  -2  279.17   74.29
 -13  -7  -2  273.97   62.59
 -15  -7  -2   41.90   36.40
  18  -8  -2   12.10   30.60
  16  -8  -2  534.95   81.99
  14  -8  -2  143.09   42.10
 -12   8   2 1061.39   87.29
  10  -8  -2  496.95   55.79
  10  -8  -2  345.47   55.89
  10  -8  -2  328.57   29.30
 -10   8   2  518.15   54.29
 -10   8   2  379.86   48.90
 -10   8   2  394.46   32.70
   8  -8  -2  330.27   51.59
   8  -8  -2  310.77   50.29
  -8   8   2  389.76   46.30
  -8   8   2  368.96   44.80
   6  -8  -2 4061.89  183.58
   6  -8  -2 4107.29  181.38
  -6   8   2 3857.71  175.88
  -6   8   2 4294.27  183.18
   4  -8  -2   26.20   16.10
   4  -8  -2   14.20   10.60
  -4   8   2   10.40   12.40
  -4   8   2   31.60   16.00
   2  -8  -2    4.10   13.50
   2  -8  -2   13.80    4.60
   2  -8  -2   13.80   13.90
  -2   8   2    2.20    4.10
  -2   8   2   -2.90    6.90
  -2   8   2   46.20   17.60
   0  -8  -2 3876.01  170.88
   0  -8  -2 3707.53  141.69
   0  -8  -2 3832.02  168.18
   0   8   2 3764.92  143.19
   0   8   2 3722.83  168.28
   0   8   2 3954.10  168.28
  -2  -8  -2  255.27   42.80
  -2  -8  -2  141.19   31.70
  -2  -8  -2  221.68   28.50
   2   8   2  199.38   35.60
   2   8   2  170.78   30.00
  -4  -8  -2  769.02   65.89
  -4  -8  -2  813.92   62.99
  -4  -8  -2  761.12   64.99
   4   8   2  671.43   72.89
   4   8   2  785.12   66.79
   4   8   2  737.53   65.29
  -6  -8  -2 1458.25  101.59
  -6  -8  -2 1395.56   99.69
  -6  -8  -2 1553.74   99.39
   6   8   2 1604.14  103.39
   6   8   2 1340.27   95.79
   6   8   2 1502.55  102.49
  -8  -8  -2   46.00   23.70
  -8  -8  -2   33.20   26.40
  -8  -8  -2   80.59   31.70
   8   8   2    0.20   24.60
   8   8   2   38.20   24.30
   8   8   2   46.90   23.70
 -10  -8  -2 1275.47  105.69
 -10  -8  -2 1236.98  104.99
  10   8   2 1149.89  102.29
  10   8   2 1187.48  103.39
 -12  -8  -2  187.48   50.19
 -12  -8  -2  260.07   55.69
 -14  -8  -2   70.39   43.20
 -16  -8  -2  467.55   90.69
  17  -9  -2  842.82   92.09
  15  -9  -2   26.00   26.30
  11  -9  -2 1159.58   93.09
 -11   9   2 1317.47   96.59
   9  -9  -2  214.18   44.50
   7  -9  -2  981.50   76.39
   7  -9  -2  746.63   66.99
  -7   9   2  722.13   62.99
  -7   9   2  798.62   66.99
   5  -9  -2 1486.65   94.69
   5  -9  -2 1518.65   93.49
  -5   9   2 1280.07   86.09
  -5   9   2 1446.26   92.29
   3  -9  -2   40.50   16.70
   3  -9  -2    5.40   11.80
  -3   9   2   22.80   17.60
  -3   9   2   16.50   13.80
   1  -9  -2 2087.49  112.19
   1  -9  -2 2041.60   81.49
   1  -9  -2 1947.31  112.09
  -1   9   2 2065.19  110.09
  -1   9   2 1964.50   82.39
  -1  -9  -2  585.94   57.39
  -1  -9  -2  612.54   58.39
  -1  -9  -2  568.04   44.10
   1   9   2  582.14   54.29
   1   9   2  564.24   56.29
   1   9   2  531.15   43.40
  -3  -9  -2  287.17   35.90
  -3  -9  -2  235.48   42.30
  -3  -9  -2  267.07   47.30
   3   9   2  301.87   37.80
   3   9   2  302.37   48.40
  -5  -9  -2 3055.79  155.38
  -5  -9  -2 2605.54  146.99
  -5  -9  -2 2584.34  138.09
   5   9   2 2882.31  144.19
   5   9   2 2579.74  146.79
   5   9   2 2753.02  148.59
  -7  -9  -2   55.59   29.50
  -7  -9  -2   79.79   29.30
   7   9   2   66.99   31.30
   7   9   2   31.10   26.30
   7   9   2   -3.70   19.10
  -9  -9  -2   20.30   20.50
  -9  -9  -2  -24.50   20.50
   9   9   2    7.50   24.10
   9   9   2   -1.60   21.10
 -11  -9  -2 1222.18  110.49
 -11  -9  -2 1265.47  108.49
  11   9   2 1599.44  124.49
  11   9   2 1190.48  110.69
 -13  -9  -2  139.79   47.00
 -15  -9  -2   52.49   38.80
  16 -10  -2  194.38   46.70
  14 -10  -2   40.60   24.20
  12 -10  -2  769.82   78.19
  10 -10  -2  478.95   59.19
 -10  10   2  436.66   55.39
   8 -10  -2   94.49   30.20
  -8  10   2  118.09   31.70
   6 -10  -2 1327.67   93.89
   6 -10  -2 1193.38   88.09
  -6  10   2 1230.38   86.49
  -6  10   2 1456.65   93.99
   4 -10  -2   86.89   26.10
   4 -10  -2  104.69   29.60
  -4  10   2   91.39   25.00
  -4  10   2   69.69   23.70
   2 -10  -2  427.86   49.00
   2 -10  -2  398.66   19.90
   2 -10  -2  389.56   45.10
  -2  10   2  448.56   47.00
  -2  10   2  370.66   44.70
   0 -10  -2 1886.91  114.49
   0 -10  -2 1937.41   87.29
   0 -10  -2 2056.79  116.09
   0  10   2 1879.91  109.59
   0  10   2 1902.01   88.09
  -2 -10  -2  249.78   33.00
  -2 -10  -2  232.98   46.40
   2  10   2  255.87   45.40
   2  10   2  251.87   45.70
   2  10   2  244.28   32.80
  -4 -10  -2  183.08   40.40
  -4 -10  -2  197.18   37.70
  -4 -10  -2  203.58   47.10
   4  10   2  196.08   42.50
   4  10   2  261.67   45.40
   4  10   2  309.57   54.69
  -6 -10  -2 1003.90   87.69
  -6 -10  -2  884.01   77.99
   6  10   2  913.51   81.39
   6  10   2  983.90   81.69
  -8 -10  -2  176.58   45.00
  -8 -10  -2  204.28   47.80
   8  10   2  132.29   41.70
   8  10   2  202.88   45.70
 -10 -10  -2  611.64   72.89
  10  10   2  711.63   82.49
  10  10   2  642.04   75.59
 -12 -10  -2  261.67   62.79
 -12 -10  -2  348.57   73.09
 -14 -10  -2   71.49   43.00
  15 -11  -2   30.90   25.00
  11 -11  -2  500.35   63.39
   9 -11  -2   41.10   26.60
   7 -11  -2  472.45   56.99
  -7  11   2  384.16   48.80
   5 -11  -2 1110.09   85.79
  -5  11   2  919.81   74.19
   3 -11  -2   59.89   27.50
   1 -11  -2  330.67   52.29
   1 -11  -2  287.07   24.20
  -1  11   2  307.57   26.30
  -1  11   2  222.68   40.80
  -1  11   2  324.07   54.99
  -1 -11  -2   69.99   27.00
  -1 -11  -2    9.50   13.30
   1  11   2   13.80   18.00
   1  11   2   33.70   16.60
  -3 -11  -2  105.99   35.00
  -3 -11  -2  178.78   34.90
   3  11   2  106.19   28.20
   3  11   2  200.48   47.70
  -5 -11  -2  446.26   53.69
  -5 -11  -2  507.45   75.29
   5  11   2  536.75   57.09
   5  11   2  498.75   58.89
  -7 -11  -2  167.48   44.10
  -7 -11  -2  259.17   51.99
   7  11   2  171.08   43.70
   7  11   2  230.28   47.60
  -9 -11  -2  109.49   39.00
  -9 -11  -2  126.49   40.50
   9  11   2  158.78   43.40
   9  11   2  117.49   44.40
 -11 -11  -2  570.24   89.49
 -11 -11  -2  737.53   87.59
 -13 -11  -2   16.50   29.30
  12 -12  -2  132.49   35.40
  10 -12  -2  -12.00   19.60
   8 -12  -2   38.60   24.50
   6 -12  -2   28.70   21.40
   4 -12  -2   73.59   28.50
  -4  12   2   29.00   21.20
   2 -12  -2  391.76   60.29
  -2  12   2  398.96   56.89
   0 -12  -2 1297.17   98.59
   0  12   2 1225.18   90.29
  -2 -12  -2  424.86   54.09
   2  12   2  470.65   57.09
  -4 -12  -2  466.05   51.79
  -4 -12  -2  367.56   64.39
   4  12   2  511.65   60.09
  -6 -12  -2  145.39   40.00
  -6 -12  -2  256.77   56.19
   6  12   2  185.18   43.10
  -8 -12  -2   61.19   31.60
  -8 -12  -2  122.29   41.50
 -10 -12  -2  136.69   45.10
 -10 -12  -2  183.38   49.60
 -12 -12  -2  -11.70   28.70
   9 -13  -2  467.85   61.19
   7 -13  -2  105.99   33.30
   5 -13  -2  195.18   45.70
   3 -13  -2  593.74   66.89
   1 -13  -2   33.80   25.30
  -1 -13  -2  362.66   63.19
  -3 -13  -2  261.97   53.39
  -5 -13  -2   49.40   28.50
  -7 -13  -2  281.87   56.69
  -9 -13  -2  197.08   55.29
  10 -14  -2  153.98   44.40
   8 -14  -2  272.97   55.29
   6 -14  -2   74.09   27.20
   4 -14  -2  118.09   33.60
   2 -14  -2  313.07   57.59
   0 -14  -2   75.09   27.10
  -2 -14  -2  648.04   75.79
  -4 -14  -2  178.68   43.90
  -6 -14  -2    7.80   30.80
  -8 -14  -2  576.84   89.79
   7 -15  -2   22.40   23.30
   3 -15  -2 1232.58  102.99
   1 -15  -2   12.30   20.90
  -1 -15  -2  110.69   38.00
  -3 -15  -2  523.95   82.19
  -5 -15  -2   72.79   36.00
   2 -16  -2  506.65   65.89
   0 -16  -2   74.59   34.80
  -2 -16   3   19.40   24.90
  -7 -15   3   20.10   22.60
  -5 -15   3  -43.70   23.70
  -3 -15   3  172.38   47.10
  -1 -15   3   16.40   18.60
   1 -15   3  -11.10   15.00
   5 -15   3   74.79   27.00
 -10 -14   3   25.00   25.00
  -8 -14   3   64.09   26.90
  -6 -14   3  569.04   63.39
  -4 -14   3  264.47   48.20
  -2 -14   3  182.68   37.80
   0 -14   3  240.48   38.80
   2 -14   3  207.28   36.60
   4 -14   3   15.20   16.90
 -11 -13   3  300.37   66.59
 -11 -13   3  234.18   54.09
  -9 -13   3  440.96   69.09
  -9 -13   3  480.85   78.49
  -7 -13   3   28.80   25.70
  -7 -13   3   13.40   19.10
  -5 -13   3  125.79   33.50
  -5 -13   3  121.99   36.70
  -3 -13   3  980.40   74.79
  -1 -13   3  274.57   43.80
   1 -13   3   74.49   22.40
  -3  13  -3  430.76   23.10
   3 -13   3  510.65   47.70
   5 -13   3  391.86   42.00
   9 -13   3   70.19   22.60
 -14 -12   3  404.86   78.99
 -14 -12   3  292.47   69.69
 -12 -12   3  353.26   70.29
 -12 -12   3  256.07   58.89
  10  12  -3    4.70   17.90
 -10 -12   3   48.80   26.60
 -10 -12   3    2.10   25.00
   8  12  -3  276.67   55.19
  -8 -12   3  299.57   53.59
  -8 -12   3  251.07   51.59
   6  12  -3  275.87   48.60
  -6 -12   3  146.19   37.70
  -6 -12   3  148.29   41.10
   4  12  -3  571.04   61.69
   4  12  -3  551.14   48.80
  -4 -12   3  482.85   54.99
  -4 -12   3  506.35   52.19
   2  12  -3   20.90   14.30
  -2 -12   3   51.69   20.90
  -2 -12   3   35.10   18.90
   0  12  -3  321.57   31.90
   0  12  -3  292.87   27.80
   0 -12   3  271.47   55.29
   0 -12   3  327.67   35.80
   0 -12   3  345.97   38.60
  -2  12  -3  421.06   28.10
   2 -12   3  510.85   43.30
   2 -12   3  464.65   43.70
  -4  12  -3  123.89   11.10
   4 -12   3  134.69   27.40
  -6  12  -3  240.78   16.10
   8 -12   3  613.74   54.09
 -15 -11   3  163.48   44.80
 -15 -11   3  167.38   54.69
 -13 -11   3   -7.40   32.00
 -13 -11   3   56.39   31.90
  11  11  -3  421.16   75.59
 -11 -11   3  500.75   63.69
 -11 -11   3  471.35   76.09
   9  11  -3  463.25   86.69
   9  11  -3  327.57   63.79
  -9 -11   3  396.96   61.49
  -9 -11   3  375.16   75.69
   7  11  -3   30.40   20.60
   7  11  -3   -6.80   20.30
  -7 -11   3    0.40   18.10
  -7 -11   3  -21.70   12.10
   5  11  -3  557.54   49.60
   5  11  -3  500.05   57.39
  -5 -11   3  552.64   59.09
  -5 -11   3  431.06   48.60
   3  11  -3  391.36   44.10
   3  11  -3  317.47   50.09
   3  11  -3  308.27   37.30
  -3 -11   3  331.47   38.00
  -3 -11   3  359.86   41.30
  -3 -11   3  347.57   46.80
   1  11  -3 1774.92   84.49
   1  11  -3 1800.92   88.09
  -1 -11   3 1918.21   94.89
  -1 -11   3 1984.60  105.69
  -1  11  -3   41.90   12.30
  -1  11  -3   28.80    9.30
   1 -11   3   27.80   13.70
   1 -11   3   31.80   16.10
   1 -11   3   41.90   20.30
  -3  11  -3  166.78   14.80
  -3  11  -3  183.08   16.60
   3 -11   3  168.98   26.40
   3 -11   3  124.49   28.10
   3 -11   3  228.88   33.00
  -5  11  -3  686.13   36.90
   5 -11   3  686.13   51.79
   5 -11   3  741.33   51.89
  -7  11  -3  156.78   18.50
   9 -11   3  222.98   36.60
  11 -11   3  268.27   47.80
 -16 -10   3    1.90   34.60
 -16 -10   3   -2.90   37.00
 -14 -10   3   43.40   37.40
 -14 -10   3  142.79   48.30
  12  10  -3  249.68   58.39
 -12 -10   3  308.37   61.59
 -12 -10   3  307.87   62.49
  10  10  -3   -9.40   24.10
  10  10  -3   15.40   17.20
 -10 -10   3  -35.50   13.20
   8  10  -3  111.09   31.70
   8  10  -3   83.19   31.20
  -8 -10   3   77.09   33.40
  -8 -10   3   83.69   27.60
   6  10  -3  329.97   41.00
   6  10  -3  435.16   45.20
   6  10  -3  339.47   55.59
  -6 -10   3  439.56   46.50
  -6 -10   3  257.87   43.00
  -6 -10   3  290.97   50.99
   4  10  -3   95.89   24.70
   4  10  -3   60.09   19.20
   4  10  -3   38.10   22.70
  -4 -10   3   65.99   21.70
  -4 -10   3   96.29   22.50
  -4 -10   3   78.49   26.30
   2  10  -3   14.20   10.80
   2  10  -3    5.00   17.60
   2  10  -3   -0.10    9.80
  -2 -10   3   17.30   15.00
  -2 -10   3   10.00    9.80
  -2 -10   3   12.30   12.50
   0  10  -3  311.57   29.70
   0  10  -3  304.07   25.40
   0 -10   3  352.76   40.10
   0 -10   3  372.46   33.00
   0 -10   3  380.36   35.30
   0 -10   3  326.17   38.10
  -2  10  -3  628.24   32.80
   2 -10   3  765.92   49.50
   2 -10   3  693.23   53.09
   2 -10   3  633.74   44.00
  -4  10  -3   27.20    6.90
  -4  10  -3   29.00    8.30
   4 -10   3   29.10   13.30
   4 -10   3   24.90   15.20
   4 -10   3   31.90   14.20
   4 -10   3   31.30   18.30
  -6  10  -3   33.20   10.80
   6 -10   3   56.39   17.90
   6 -10   3   50.09   21.00
  -8  10  -3   42.90   14.20
   8 -10   3   83.29   24.40
  10 -10   3  334.27   48.90
  12 -10   3    7.10   16.90
 -17  -9   3   82.59   43.20
 -17  -9   3   46.20   30.10
 -15  -9   3   28.60   35.70
 -15  -9   3   21.00   31.70
  13   9  -3   67.89   32.80
 -13  -9   3  148.39   46.30
 -13  -9   3  118.89   39.50
  11   9  -3   75.29   31.20
  11   9  -3   53.89   26.60
 -11  -9   3   90.59   33.30
 -11  -9   3   52.69   29.60
   9   9  -3  104.89   29.10
   9   9  -3  115.59   35.90
  -9  -9   3  164.88   44.80
  -9  -9   3  164.78   36.90
   7   9  -3   78.69   27.90
   7   9  -3   43.30   18.90
   7   9  -3   37.00   20.60
  -7  -9   3   35.50   18.40
  -7  -9   3   59.39   22.20
  -7  -9   3  107.19   33.90
   5   9  -3   30.40   22.80
   5   9  -3   72.89   19.60
   5   9  -3   58.19   19.60
  -5  -9   3   27.30   20.70
  -5  -9   3   37.00   17.70
  -5  -9   3   31.90   16.60
   3   9  -3  188.58   29.20
   3   9  -3  134.29   32.50
   3   9  -3  151.18   24.70
  -3  -9   3  191.78   34.90
  -3  -9   3  223.58   27.60
  -3  -9   3  232.98   29.00
   1   9  -3  123.89   18.50
   1   9  -3  100.99   19.30
  -1  -9   3  133.19   22.20
  -1  -9   3  140.89   28.40
  -1  -9   3  115.89   21.50
  -1   9  -3   80.49   12.10
   1  -9   3   93.39   27.60
   1  -9   3   72.39   21.50
   1  -9   3   90.19   18.70
   1  -9   3  119.59   20.30
  -3   9  -3  115.49   11.70
  -3   9  -3   94.39   10.60
   3  -9   3   96.39   23.50
   3  -9   3  108.09   29.90
   3  -9   3  137.09   22.70
   3  -9   3   95.39   18.40
  -5   9  -3   -6.10    5.30
  -5   9  -3   13.10    8.70
   5  -9   3  -12.90   10.50
   5  -9   3   -6.70   12.50
   5  -9   3   36.40   13.80
  -7   9  -3   -1.60    9.40
  -7   9  -3  -24.50   11.40
   7  -9   3    5.00   11.20
   7  -9   3    5.50   11.70
  -9   9  -3   57.79   25.70
  -9   9  -3   14.10   12.60
  11  -9   3   96.29   29.70
  13  -9   3   29.50   19.60
 -18  -8   3   16.20   41.50
 -16  -8   3  -46.10   28.70
 -16  -8   3   15.70   30.80
  14   8  -3  151.68   41.50
 -14  -8   3   55.99   37.60
 -14  -8   3   81.99   39.10
  12   8  -3  -31.90   16.60
 -12  -8   3   60.39   29.70
  10   8  -3   -1.70   16.30
  10   8  -3   17.10   20.80
  10   8  -3   30.60   19.00
 -10  -8   3   -0.80    9.00
 -10  -8   3   -9.40    9.40
 -10  -8   3    3.60   21.20
   8   8  -3   60.49   27.50
   8   8  -3   68.89   22.40
   8   8  -3   20.10   19.70
  -8  -8   3   52.09   22.60
  -8  -8   3   37.30   23.80
  -8  -8   3   23.80   18.70
   6   8  -3    2.80   11.80
   6   8  -3    9.20   11.30
   6   8  -3   24.10   18.50
  -6  -8   3   17.90   12.20
  -6  -8   3   11.50   19.10
  -6  -8   3    6.40   11.50
   4   8  -3    3.70   14.70
   4   8  -3    1.60    9.20
   4   8  -3   14.70   10.60
  -4  -8   3   -1.20   14.00
  -4  -8   3   -2.10    8.40
   2   8  -3   41.90   12.30
   2   8  -3   34.10   16.40
   2   8  -3   61.59   15.20
  -2  -8   3   78.89   16.30
  -2  -8   3   67.09   20.00
  -2  -8   3   67.89   16.10
   0   8  -3    0.40    5.10
   0   8  -3    9.60    6.20
   0  -8   3    3.50    9.20
   0  -8   3   -4.70    5.30
   0  -8   3   -6.20    8.50
   0  -8   3   13.80    8.40
  -2   8  -3   68.09    7.20
   2  -8   3   72.49   22.20
   2  -8   3   48.00   13.00
   2  -8   3   66.79   17.70
  -4   8  -3   98.49   11.60
  -4   8  -3   91.39   14.20
   4  -8   3   70.19   22.50
   4  -8   3   86.39   17.60
   4  -8   3  131.19   21.20
  -6   8  -3    5.50   16.10
  -6   8  -3   -0.60    5.60
   6  -8   3    0.90    8.70
   6  -8   3   23.00   11.60
   6  -8   3   -4.30   12.80
  -8   8  -3  307.37   38.30
  -8   8  -3  247.48   45.20
   8  -8   3  337.97   38.00
   8  -8   3  299.37   46.20
 -10   8  -3   69.39   22.50
 -10   8  -3   55.89   27.20
  10  -8   3   92.09   26.90
 -12   8  -3    7.40   27.50
  12  -8   3    5.10   16.10
  14  -8   3   16.80   22.50
 -19  -7   3   22.90   43.30
 -17  -7   3   93.39   45.00
 -17  -7   3   81.69   39.90
  15   7  -3   16.40   22.50
 -15  -7   3  -17.40   25.80
 -15  -7   3   26.80   26.90
  13   7  -3   33.00   24.80
  13   7  -3   81.69   31.00
 -13  -7   3   32.50   25.90
 -13  -7   3   38.20   30.00
  11   7  -3  238.28   49.70
  11   7  -3  264.87   46.90
  11   7  -3  258.37   47.30
 -11  -7   3  203.38   47.90
 -11  -7   3  309.57   54.89
 -11  -7   3  287.77   49.90
   9   7  -3  186.08   38.00
   9   7  -3  215.68   43.90
   9   7  -3  216.68   39.50
  -9  -7   3  256.17   44.40
  -9  -7   3  237.58   48.10
  -9  -7   3  240.38   43.30
   7   7  -3  315.87   50.39
   7   7  -3  283.67   34.90
   7   7  -3  300.57   35.70
  -7  -7   3  246.68   45.60
  -7  -7   3  239.58   38.00
  -7  -7   3  343.27   38.80
   5   7  -3   41.50   15.40
   5   7  -3   64.99   18.10
  -5  -7   3   45.30   16.00
  -5  -7   3   44.90   16.40
  -5  -7   3   36.30   18.20
   3   7  -3  704.23   42.90
   3   7  -3  663.53   54.59
   3   7  -3  682.73   43.00
  -3  -7   3  695.13   55.39
  -3  -7   3  615.94   42.90
  -3  -7   3  638.54   43.70
   1   7  -3    9.20    6.50
   1   7  -3   12.40    6.30
  -1  -7   3   14.50    7.60
  -1  -7   3   19.10    9.30
  -1  -7   3   12.90   11.50
  -1   7  -3   26.90    4.40
   1  -7   3   33.50    8.90
   1  -7   3   36.30   13.60
   1  -7   3   26.40   14.00
   1  -7   3   24.50    8.90
  -3   7  -3   86.59    8.90
  -3   7  -3  108.99    9.20
   3  -7   3  116.39   23.40
   3  -7   3   53.59   12.60
   3  -7   3   86.99   15.30
  -5   7  -3  597.34   52.39
  -5   7  -3  639.54   36.80
  -5   7  -3  665.03   37.50
   5  -7   3  634.74   43.70
   5  -7   3  642.24   50.89
   5  -7   3  643.14   42.90
  -7   7  -3    3.60   11.00
  -7   7  -3   17.00   17.80
  -7   7  -3    2.90    9.70
   7  -7   3    9.00   11.20
   7  -7   3   -0.20   14.20
   7  -7   3    9.70   10.90
  -9   7  -3    9.50   19.70
  -9   7  -3   56.19   20.20
  -9   7  -3   27.20   16.90
   9  -7   3   41.10   18.30
   9  -7   3   29.40   22.00
   9  -7   3   63.49   20.90
 -11   7  -3  156.98   40.40
 -11   7  -3  313.97   52.29
  11  -7   3  295.47   49.40
  11  -7   3  288.57   50.79
 -13   7  -3   21.60   30.00
  13  -7   3   88.49   29.10
 -18  -6   3    4.10   31.50
  16   6  -3  356.56   78.19
 -16  -6   3  439.86   75.99
 -16  -6   3  516.55   90.99
  14   6  -3  -14.90   25.00
  14   6  -3   14.80   21.20
 -14  -6   3   11.20   23.30
 -14  -6   3  -20.80   18.90
  12   6  -3 1341.17   98.39
  12   6  -3 1338.17   97.29
  12   6  -3 1175.98  101.49
 -12  -6   3 1215.28  102.29
 -12  -6   3 1353.86   99.79
 -12  -6   3 1095.79   89.39
  10   6  -3   71.39   26.00
  10   6  -3   63.79   30.30
  10   6  -3   65.49   22.50
 -10  -6   3   46.20   22.30
 -10  -6   3   81.99   27.00
 -10  -6   3   58.19   28.30
   8   6  -3  308.17   37.30
   8   6  -3  346.37   53.49
   8   6  -3  379.16   40.10
  -8  -6   3  254.47   47.90
  -8  -6   3  241.18   40.00
  -8  -6   3  253.37   40.00
   6   6  -3 1689.83  116.69
   6   6  -3 1718.43   89.69
   6   6  -3 1698.83   88.99
  -6  -6   3 1684.83   89.69
  -6  -6   3 1732.73   91.09
  -6  -6   3 1686.73  100.49
   4   6  -3  874.31   52.19
   4   6  -3  954.90   53.69
   4   6  -3  822.52   61.69
  -4  -6   3  887.51   54.09
  -4  -6   3  859.31   52.69
  -4  -6   3  831.62   61.99
   2   6  -3  390.86   38.50
   2   6  -3  331.17   24.20
   2   6  -3  358.66   25.70
  -2  -6   3  391.96   28.00
  -2  -6   3  398.66   39.00
  -2  -6   3  348.07   26.50
   0   6  -3 3220.48   98.39
   0   6  -3 3042.00   97.89
   0  -6   3 3084.29  133.09
   0  -6   3 3222.28  135.29
   0  -6   3 3129.99  109.19
   0  -6   3 3075.59  109.59
   2  -6   3  219.68   27.70
   2  -6   3  252.37   19.10
   2  -6   3  240.38   18.50
  -4   6  -3  721.03   35.80
  -4   6  -3  692.33   54.19
  -4   6  -3  678.33   35.10
   4  -6   3  822.62   55.99
   4  -6   3  645.14   40.00
   4  -6   3  711.83   42.20
  -6   6  -3  145.89   22.30
  -6   6  -3  125.99   20.90
  -6   6  -3  169.78   33.00
   6  -6   3  204.38   34.60
   6  -6   3  167.48   25.60
   6  -6   3  222.98   32.20
  -8   6  -3 1164.28   70.69
  -8   6  -3 1150.88   80.79
  -8   6  -3 1133.29   67.49
   8  -6   3 1147.79   71.69
   8  -6   3  974.50   68.39
   8  -6   3 1186.58   81.39
 -10   6  -3  119.29   34.90
 -10   6  -3  135.49   33.80
 -10   6  -3  158.28   34.10
  10  -6   3  101.69   32.30
  10  -6   3  107.19   33.10
  10  -6   3  159.78   34.60
 -12   6  -3   61.69   31.10
  12  -6   3   58.19   25.10
  12  -6   3   35.20   26.70
 -14   6  -3   96.19   38.40
  14  -6   3   57.39   27.30
 -16   6  -3  294.47   74.19
  16  -6   3  379.36   64.29
 -17  -5   3  623.24   76.69
 -17  -5   3  559.94   91.69
  15   5  -3  655.93   78.99
  15   5  -3  756.92   81.39
 -15  -5   3  751.42   83.79
 -15  -5   3  948.01   89.29
  13   5  -3   17.90   15.20
  13   5  -3   26.60   21.80
  13   5  -3    9.10   20.90
 -13  -5   3   10.10   32.70
 -13  -5   3   -2.90   18.50
 -13  -5   3   47.60   24.50
  11   5  -3  520.15   59.99
  11   5  -3  558.84   56.09
  11   5  -3  468.85   56.49
 -11  -5   3  564.64   61.39
 -11  -5   3  491.55   55.19
 -11  -5   3  435.56   67.39
   9   5  -3 1363.96   88.49
   9   5  -3 1544.65   91.59
   9   5  -3 1439.46   96.89
  -9  -5   3 1438.96   89.59
  -9  -5   3 1391.06   95.99
  -9  -5   3 1255.97   86.29
   7   5  -3 1247.08   74.99
   7   5  -3 1159.08   73.79
   7   5  -3 1340.77   85.29
  -7  -5   3 1304.67   77.39
  -7  -5   3 1248.18   83.89
  -7  -5   3 1176.68   73.49
   5   5  -3  946.21   57.69
   5   5  -3  963.00   66.79
   5   5  -3 1030.70   59.29
  -5  -5   3 1055.69   60.59
  -5  -5   3 1069.29   61.19
  -5  -5   3  956.50   67.59
   3   5  -3  860.91   44.70
   3   5  -3  799.82   56.89
   3   5  -3  888.91   45.50
  -3  -5   3  815.52   45.40
  -3  -5   3  836.02   58.09
  -3  -5   3  847.02   45.60
   1   5  -3 1084.59   41.50
   1   5  -3 1109.69   41.00
  -1  -5   3 1117.69   46.90
  -1  -5   3 1077.29   64.79
  -1  -5   3 1183.68   46.60
   1  -5   3   93.69   21.20
   1  -5   3   94.69   20.70
   1  -5   3   90.99    8.90
  -3   5  -3 2203.78  104.19
  -3   5  -3 2205.78   75.39
  -3   5  -3 2149.69   75.49
   3  -5   3 2210.68   83.99
   3  -5   3 2091.79   81.99
   3  -5   3 1926.51   98.09
  -5   5  -3 2215.38  116.49
  -5   5  -3 2076.29   91.19
  -5   5  -3 2312.67   90.89
   5  -5   3 2304.17  109.99
   5  -5   3 2188.98   94.29
   5  -5   3 2130.69   94.99
  -7   5  -3   12.50   11.60
  -7   5  -3    7.70   15.30
  -7   5  -3    0.00    9.70
   7  -5   3   16.30    9.80
   7  -5   3   -6.70   10.80
   7  -5   3    2.70    9.30
  -9   5  -3   13.20   11.90
  -9   5  -3   36.10   16.30
  -9   5  -3   65.89   27.00
   9  -5   3   48.20   23.50
   9  -5   3   70.09   23.20
   9  -5   3   10.30   12.30
 -11   5  -3 1084.39   80.09
 -11   5  -3 1162.78   91.29
  11  -5   3  993.70   77.99
  11  -5   3 1025.20   85.99
 -13   5  -3  144.59   45.20
  13  -5   3  250.17   46.90
 -15   5  -3   42.50   35.20
  15  -5   3   16.70   25.30
 -20  -4   3  192.78   55.69
 -18  -4   3   47.40   36.80
  16   4  -3   75.69   29.10
 -16  -4   3   27.70   36.40
 -16  -4   3   59.89   26.40
  14   4  -3  842.32   84.89
  14   4  -3  783.02   81.09
  14   4  -3  876.81   80.99
 -14  -4   3  662.33  112.89
 -14  -4   3  833.42   82.19
 -14  -4   3  984.30   89.79
  12   4  -3  727.83   74.09
  12   4  -3  716.03   67.59
  12   4  -3  734.13   70.19
 -12  -4   3  680.13   71.99
 -12  -4   3  772.02   70.79
 -12  -4   3  769.42   73.69
  10   4  -3   -6.60   15.70
  10   4  -3    1.20   10.00
  10   4  -3  -16.00   13.60
 -10  -4   3   11.70   14.10
 -10  -4   3  -22.50   11.20
 -10  -4   3   21.60   18.00
   8   4  -3 2257.27  112.19
   8   4  -3 2216.78  119.99
  -8  -4   3 2300.67  115.49
  -8  -4   3 2126.49  111.19
  -8  -4   3 2186.58  119.69
   6   4  -3 2379.36  119.69
   6   4  -3 2515.65  111.39
  -6  -4   3 2641.34  123.59
  -6  -4   3 2442.26  112.09
  -6  -4   3 2441.46  111.39
   4   4  -3 1245.38   61.79
   4   4  -3 1193.78   72.19
   4   4  -3 1293.97   61.99
  -4  -4   3 1284.87   63.39
  -4  -4   3 1304.67   63.39
  -4  -4   3 1441.46   76.99
   2   4  -3  329.67   33.30
   2   4  -3  348.57   20.60
   2   4  -3  353.36   20.90
  -2  -4   3  322.77   21.80
  -2  -4   3  318.67   32.80
  -2  -4   3  339.27   22.10
   0  -4   3 2383.46  105.79
   0  -4   3 2429.36   75.59
   0  -4   3 2277.07   75.39
   0  -4   3 2482.75  105.99
  -2   4  -3 3464.05  141.29
  -2   4  -3 3472.85  106.79
  -2   4  -3 3300.47  106.59
   2  -4   3 3269.47  114.99
   2  -4   3 3533.85  139.79
   2  -4   3 3476.05  115.09
  -4   4  -3   75.39   13.60
  -4   4  -3   85.29   23.50
  -4   4  -3   68.99   13.70
   4  -4   3   76.89   15.30
   4  -4   3   73.39   20.40
   4  -4   3   66.99   15.10
  -6   4  -3 1107.99   60.19
  -6   4  -3 1126.09   62.79
  -6   4  -3 1207.88   75.49
   6  -4   3  991.10   70.59
   6  -4   3  991.30   61.29
   6  -4   3 1130.19   63.99
  -8   4  -3 1608.74   87.79
  -8   4  -3 1680.83  102.59
  -8   4  -3 1528.45   88.79
   8  -4   3 1744.13   93.99
   8  -4   3 1670.83  100.99
   8  -4   3 1725.73   93.09
 -10   4  -3  715.93   67.79
 -10   4  -3  565.44   54.79
 -10   4  -3  591.64   55.79
  10  -4   3  576.94   55.69
  10  -4   3  594.54   63.29
  10  -4   3  551.14   54.99
 -12   4  -3   12.20   17.60
 -12   4  -3    6.20   20.00
  12  -4   3   63.39   24.40
  12  -4   3  -33.10   18.50
 -14   4  -3  259.67   60.29
  14  -4   3  270.27   54.99
  14  -4   3  273.77   55.89
 -16   4  -3  382.56   72.79
  16  -4   3  297.37   61.19
 -19  -3   3   92.29   44.60
 -17  -3   3  605.34  107.79
 -17  -3   3  877.21   93.39
  15   3  -3  563.74   67.89
  15   3  -3  539.35   71.39
  15   3  -3  533.25   66.99
 -15  -3   3  546.65   67.29
 -15  -3   3  436.46   75.39
 -15  -3   3  527.65   68.79
  13   3  -3  285.97   56.39
  13   3  -3  192.88   43.60
  13   3  -3  177.38   44.70
 -13  -3   3  161.98   40.90
 -13  -3   3  140.19   39.60
 -13  -3   3  197.78   43.00
  11   3  -3  905.81   75.29
  11   3  -3 1007.10   79.99
 -11  -3   3  860.81   76.69
 -11  -3   3  983.70   76.99
 -11  -3   3 1009.60   79.39
   9   3  -3 2277.77  123.89
   9   3  -3 2419.56  121.49
   9   3  -3 2128.09  114.69
  -9  -3   3 2229.08  117.29
  -9  -3   3 2290.77  119.09
  -9  -3   3 2332.97  125.29
   7   3  -3   89.69   24.90
   7   3  -3   78.99   20.40
  -7  -3   3  117.79   25.50
  -7  -3   3  102.69   28.10
  -7  -3   3  122.29   24.90
   5   3  -3  904.01   52.09
   5   3  -3  931.21   59.89
  -5  -3   3  887.91   52.49
  -5  -3   3  855.71   51.69
  -5  -3   3  806.52   57.09
   3   3  -3 2817.52  102.49
   3   3  -3 2768.12  102.39
   3   3  -3 2805.92  119.39
  -3  -3   3 2880.31  119.59
  -3  -3   3 2766.02  103.49
  -3  -3   3 2626.04  102.69
  -1  -3   3 2150.28   72.79
  -1  -3   3 2229.38   97.49
  -1   3  -3  190.08   25.10
   1  -3   3  174.68   10.80
   1  -3   3  151.98   20.50
   1  -3   3  180.58   11.00
  -3   3  -3 2590.54  116.29
  -3   3  -3 2674.63   96.79
   3  -3   3 2709.83  117.29
   3  -3   3 2611.54  100.19
   3  -3   3 2627.74   99.49
  -5   3  -3 2629.24  121.69
  -5   3  -3 2481.35  103.09
   5  -3   3 2355.06  115.79
   5  -3   3 2536.15  106.69
   5  -3   3 2392.36  104.59
  -7   3  -3  394.96   37.60
  -7   3  -3  404.86   46.50
   7  -3   3  338.17   36.80
   7  -3   3  433.76   46.90
   7  -3   3  468.65   41.90
  -9   3  -3  185.78   34.20
  -9   3  -3  191.78   39.90
   9  -3   3  151.08   36.20
   9  -3   3  166.78   33.30
   9  -3   3  209.68   37.20
 -11   3  -3  735.53   65.79
 -11   3  -3  803.42   76.29
  11  -3   3  947.61   74.69
  11  -3   3  678.13   78.09
  11  -3   3  668.43   68.29
 -13   3  -3  619.34   69.89
 -13   3  -3  477.15   59.79
  13  -3   3  433.96   58.99
  13  -3   3  561.34   64.59
 -15   3  -3  -32.30   24.80
  15  -3   3   68.79   31.50
 -17   3  -3  181.88   56.39
  17  -3   3  124.59   43.20
 -20  -2   3  178.58   53.89
 -18  -2   3   -0.40   36.30
  16   2  -3   33.60   30.10
  16   2  -3  124.69   37.70
  16   2  -3  132.39   40.90
 -16  -2   3   45.00   32.40
 -16  -2   3   80.69   42.80
  14   2  -3  564.14   64.39
  14   2  -3  481.05   61.19
  14   2  -3  306.17   57.99
 -14  -2   3  371.66   61.29
 -14  -2   3  365.76   63.99
  12   2  -3  420.86   53.29
  12   2  -3  284.37   51.19
  12   2  -3  272.07   48.20
 -12  -2   3  235.98   44.30
 -12  -2   3  274.37   49.00
 -12  -2   3  332.07   57.19
  10   2  -3  299.67   41.00
  10   2  -3  535.65   51.99
  10   2  -3  464.55   48.40
 -10  -2   3  394.36   61.69
 -10  -2   3  369.26   49.00
 -10  -2   3  325.07   40.90
   8   2  -3  530.65   47.40
   8   2  -3  488.55   46.90
   8   2  -3  523.95   48.10
  -8  -2   3  447.76   43.10
  -8  -2   3  488.15   44.80
  -8  -2   3  597.34   52.49
   6   2  -3  103.59   22.80
   6   2  -3  122.99   22.40
  -6  -2   3  102.39   24.80
  -6  -2   3  109.99   21.60
  -6  -2   3  109.89   23.90
   4   2  -3   80.69   15.70
   4   2  -3  124.29   22.40
  -4  -2   3   70.49   20.10
  -4  -2   3   77.29   15.60
   2   2  -3   89.19   11.40
   2   2  -3   80.09   12.10
   2   2  -3  103.59   19.70
  -2  -2   3   82.89   19.80
  -2  -2   3   65.39   10.90
  -2  -2   3   98.09   12.50
   0   2  -3  669.73   45.40
   0   2  -3  719.03   27.30
   0   2  -3  729.43   26.40
   0  -2   3  693.33   28.70
   0  -2   3  770.42   47.10
   0  -2   3  676.23   28.70
  -2   2  -3 2084.79   92.99
  -2   2  -3 2057.19   75.09
  -2   2  -3 2036.30   74.59
   2  -2   3 1887.51   74.79
   2  -2   3 1817.12   89.19
   2  -2   3 1960.10   75.59
  -4   2  -3   16.10    9.00
  -4   2  -3   11.10    8.70
  -4   2  -3   15.30   13.70
   4  -2   3   25.60   10.30
   4  -2   3   12.00    8.60
   4  -2   3   11.00   13.20
  -6   2  -3    4.00    9.30
  -6   2  -3    7.80   12.70
  -6   2  -3   13.10   11.10
   6  -2   3   21.80   11.80
   6  -2   3  -16.60    9.70
   6  -2   3    9.80   10.00
  -8   2  -3  841.52   61.99
  -8   2  -3  819.32   60.59
  -8   2  -3  832.82   70.59
   8  -2   3  660.23   57.09
   8  -2   3  884.81   70.59
   8  -2   3  815.92   61.69
 -10   2  -3  409.66   54.89
 -10   2  -3  211.48   49.20
 -10   2  -3  335.07   42.80
  10  -2   3  411.16   47.00
  10  -2   3  413.66   46.60
  10  -2   3  431.06   52.99
 -12   2  -3   -1.60   20.30
  12  -2   3    4.60   18.90
  12  -2   3  -11.00   10.40
 -14   2  -3  554.24   72.89
  14  -2   3  372.26   67.09
  14  -2   3  586.24   66.49
 -16   2  -3  284.47   63.39
  16  -2   3  318.57   61.19
 -19  -1   3   20.20   34.40
  17   1  -3   92.29   39.20
  17   1  -3   50.39   27.50
 -17  -1   3   61.19   39.20
 -17  -1   3   82.89   35.40
  15   1  -3   32.30   28.70
  15   1  -3    5.50   20.00
  15   1  -3   11.10   20.60
 -15  -1   3   35.70   25.50
 -15  -1   3   18.80   20.60
 -15  -1   3   -5.80   14.30
  13   1  -3   63.89   30.50
  13   1  -3   23.00   18.30
  13   1  -3   33.10   19.00
 -13  -1   3   35.40   22.10
 -13  -1   3   34.80   23.90
  11   1  -3  545.55   55.49
  11   1  -3  450.55   50.49
  11   1  -3  474.45   51.39
 -11  -1   3  379.96   46.20
 -11  -1   3  501.65   53.49
   9   1  -3  556.24   52.69
   9   1  -3  554.84   50.69
   9   1  -3  493.35   47.50
  -9  -1   3  537.85   49.99
  -9  -1   3  531.75   51.29
   7   1  -3   20.90   12.30
   7   1  -3   36.80   14.20
   7   1  -3    6.50    9.50
  -7  -1   3   -7.10   12.40
  -7  -1   3   24.90   15.50
   5   1  -3   23.80   12.00
   5   1  -3   17.00   11.30
  -5  -1   3   14.40   11.70
  -5  -1   3   60.19   18.10
   3   1  -3 3672.73  146.79
   3   1  -3 4207.18  141.69
  -3  -1   3 3871.21  140.29
  -3  -1   3 3586.74  146.69
  -3  -1   3 4389.26  143.29
   1   1  -3  543.95   26.90
   1   1  -3  460.95   26.60
  -1  -1   3  500.75   27.20
  -1  -1   3  485.45   34.80
  -1  -1   3  521.75   27.60
  -1   1  -3 1617.64   80.29
  -1   1  -3 1793.62   68.29
  -1   1  -3 1753.42   67.79
   1  -1   3 1699.13   68.29
   1  -1   3 1771.12   68.69
   1  -1   3 1876.61   82.39
  -3   1  -3 1034.80   62.39
  -3   1  -3 1085.19   54.09
  -3   1  -3 1084.09   53.39
   3  -1   3 1010.10   61.19
   3  -1   3 1100.89   54.49
   3  -1   3  960.40   52.09
  -5   1  -3  277.37   29.80
  -5   1  -3  392.76   39.60
  -5   1  -3  288.77   29.60
   5  -1   3  297.17   36.70
   5  -1   3  399.06   34.30
   5  -1   3  314.07   31.10
  -7   1  -3  272.07   40.10
  -7   1  -3  206.88   37.90
   7  -1   3  299.27   38.60
   7  -1   3  224.98   35.60
   7  -1   3  254.57   32.10
  -9   1  -3   74.59   22.90
  -9   1  -3   22.30   20.20
  -9   1  -3   41.50   19.80
   9  -1   3   28.00   23.00
   9  -1   3   63.09   20.90
   9  -1   3   21.80   17.10
 -11   1  -3  208.88   50.09
 -11   1  -3  322.27   50.69
 -11   1  -3  272.47   48.40
  11  -1   3  333.47   53.39
  11  -1   3  272.07   47.70
  11  -1   3  274.47   54.19
 -13   1  -3  110.99   36.60
 -13   1  -3  305.27   56.09
  13  -1   3  173.68   45.90
  13  -1   3  150.38   38.00
 -15   1  -3   10.10   27.70
  15  -1   3   16.30   17.30
 -17   1  -3  -29.40   18.10
  17  -1   3   15.10   23.30
 -20   0   3   43.90   38.00
  18   0  -3  -34.20   14.70
 -18   0   3    3.40   28.20
  16   0  -3   -3.70   22.30
  16   0  -3  -10.10   13.70
 -16   0   3   -5.90   19.50
 -16   0   3   -6.90   12.30
 -16   0   3  -16.20   23.50
  14   0  -3  -19.30   11.00
  14   0  -3    8.90   14.70
  14   0  -3  -12.80   11.00
 -14   0   3   11.00   24.70
 -14   0   3  -21.60   17.50
 -14   0   3   22.00   20.80
  12   0  -3  -10.40   11.20
  12   0  -3   20.70   21.20
  12   0  -3    1.70   13.30
 -12   0   3  -32.00   13.90
 -12   0   3  -10.50    8.90
 -12   0   3  -10.10   14.40
  10   0  -3    2.30   12.70
  10   0  -3   -3.80   10.10
  10   0  -3    7.70    8.90
 -10   0   3   -2.70   10.20
 -10   0   3    0.50   12.10
 -10   0   3    0.10   10.10
   8   0  -3    6.60    8.90
   8   0  -3   -2.70    8.30
   8   0  -3    7.60    8.90
  -8   0   3   20.70   15.50
  -8   0   3    4.10    7.80
  -8   0   3   -5.20   13.60
   6   0  -3   -0.80    5.00
   6   0  -3  -13.50    8.50
  -6   0   3   -4.50    6.70
  -6   0   3   19.00   14.70
  -6   0   3    0.30    9.40
   4   0  -3   12.40    8.80
   4   0  -3   -1.50    9.00
  -4   0   3    2.10    8.40
  -4   0   3   -6.10   10.10
  -4   0   3    6.90    8.60
   2   0  -3    7.70    7.60
   2   0  -3    2.10    8.10
  -2   0   3    4.80    6.60
  -2   0   3    1.40    5.40
  -2   0   3   15.60   10.80
   0   0  -3   -2.10   10.80
   0   0  -3    3.50    6.90
   0   0   3    3.30   11.00
   0   0   3  -11.00    6.30
   0   0   3    1.40    5.70
  -2   0  -3   -8.80    6.10
  -2   0  -3   -9.30    6.20
   2   0   3   14.60    8.00
   2   0   3   -9.10    4.30
   2   0   3    2.30   11.30
  -4   0  -3    5.10   10.60
  -4   0  -3   -7.10    6.50
  -4   0  -3   -8.20    6.80
   4   0   3    9.00    7.30
   4   0   3    0.30    8.20
   4   0   3   -2.60   11.70
  -6   0  -3    5.30   12.00
  -6   0  -3   19.60   18.20
   6   0   3   -6.10   16.80
   6   0   3   -3.20    6.90
   6   0   3   -5.30    8.00
  -8   0  -3   -9.90   15.50
  -8   0  -3   -0.40    5.90
   8   0   3   -1.20    8.70
   8   0   3   -8.10   10.70
   8   0   3    8.50   11.40
 -10   0  -3    2.90   15.00
 -10   0  -3  -16.80    7.60
  10   0   3    2.80   11.50
  10   0   3   37.80   23.90
  10   0   3   -4.60   11.00
 -12   0  -3  -11.90   16.20
 -12   0  -3   21.50   25.60
  12   0   3    5.90   11.40
 -14   0  -3  -15.60   17.90
  14   0   3    5.00   33.00
  14   0   3  -16.50   17.20
 -16   0  -3  -12.40   22.30
  16   0   3   29.70   28.00
  19  -1  -3    0.50   31.50
 -19   1   3   80.29   39.10
  17  -1  -3   63.39   32.90
  17  -1  -3   57.49   29.20
 -17   1   3  120.79   43.30
 -17   1   3   60.59   35.10
  15  -1  -3   15.80   18.70
  15  -1  -3    1.70   16.40
  15  -1  -3   12.40   18.00
 -15   1   3   16.40   20.20
 -15   1   3   17.50   18.60
 -15   1   3   49.50   32.10
  13  -1  -3   65.19   29.20
  13  -1  -3   39.10   22.30
  13  -1  -3   81.59   27.40
 -13   1   3   41.80   22.30
 -13   1   3   44.00   27.50
 -13   1   3   76.79   31.00
  11  -1  -3  447.66   48.80
  11  -1  -3  482.05   52.39
  11  -1  -3  327.57   42.90
 -11   1   3  503.25   50.29
 -11   1   3  427.56   51.59
 -11   1   3  408.26   47.50
   9  -1  -3  461.15   46.60
   9  -1  -3  557.84   51.69
   9  -1  -3  560.74   48.90
  -9   1   3  605.74   52.79
  -9   1   3  541.25   50.69
  -9   1   3  447.76   44.40
   7  -1  -3   18.90   12.90
   7  -1  -3   36.40   14.50
  -7   1   3   12.70   13.90
  -7   1   3   48.40   18.50
  -7   1   3   33.20   15.50
   5  -1  -3   16.60   11.30
   5  -1  -3   19.30   14.30
   5  -1  -3    5.00    9.30
  -5   1   3    4.10   12.60
  -5   1   3    5.20    8.70
  -5   1   3    3.30   10.10
   3  -1  -3 3989.90  152.58
   3  -1  -3 4007.40  147.29
   3  -1  -3 4375.36  154.68
  -3   1   3 4125.69  152.68
  -3   1   3 4108.89  147.99
  -3   1   3 4199.28  153.58
   1  -1  -3  459.15   33.00
   1  -1  -3  539.45   34.60
  -1   1   3  495.85   33.90
  -1   1   3  518.05   33.10
  -1   1   3  505.15   34.20
  -1  -1  -3 1599.24   73.19
  -1  -1  -3 1754.02   77.49
  -1  -1  -3 1570.24   75.59
   1   1   3 1571.54   75.29
   1   1   3 1561.64   72.09
   1   1   3 1657.43   73.49
  -3  -1  -3 1143.49   62.09
  -3  -1  -3 1032.70   64.19
   3   1   3 1191.98   67.89
   3   1   3 1105.49   62.59
   3   1   3 1165.78   65.59
  -5  -1  -3  341.47   34.80
  -5  -1  -3  312.97   39.30
   5   1   3  325.87   38.00
   5   1   3  312.97   34.20
   5   1   3  359.96   36.20
  -7  -1  -3  203.38   39.90
  -7  -1  -3  341.87   38.00
   7   1   3  256.97   33.40
   7   1   3  231.28   41.80
   7   1   3  204.78   36.40
  -9  -1  -3   44.00   18.90
  -9  -1  -3   19.40   19.60
  -9  -1  -3   76.69   25.30
   9   1   3   48.40   22.30
   9   1   3   37.10   19.80
   9   1   3    2.70   21.90
 -11  -1  -3  366.76   62.59
 -11  -1  -3  312.67   52.49
 -11  -1  -3  328.07   58.19
  11   1   3  319.37   56.39
  11   1   3  258.47   48.30
  11   1   3  248.28   47.80
 -13  -1  -3  259.27   62.59
 -13  -1  -3  241.78   54.49
  13   1   3  173.18   43.10
  13   1   3  128.89   46.60
 -15  -1  -3  -12.70   25.00
 -15  -1  -3    3.80   25.50
  15   1   3   21.20   26.30
 -17  -1  -3   69.49   48.90
  17   1   3   12.80   23.40
  20  -2  -3  242.68   65.19
 -20   2   3  288.17   69.69
  18  -2  -3   93.09   39.50
  18  -2  -3   15.60   23.60
 -18   2   3   46.80   28.20
 -18   2   3  101.19   43.00
  16  -2  -3   83.69   40.40
  16  -2  -3   58.09   27.00
 -16   2   3    2.40   26.20
 -16   2   3   87.39   37.80
  14  -2  -3  360.66   60.19
  14  -2  -3  376.76   64.29
  14  -2  -3  467.95   56.39
 -14   2   3  470.45   56.19
 -14   2   3  417.06   65.19
 -14   2   3  458.25   59.59
  12  -2  -3  377.26   48.20
  12  -2  -3  331.87   55.09
  12  -2  -3  213.28   38.60
 -12   2   3  262.17   47.70
 -12   2   3  335.27   53.29
 -12   2   3  299.77   50.59
  10  -2  -3  351.56   42.30
  10  -2  -3  453.85   43.00
  10  -2  -3  395.06   47.30
 -10   2   3  414.96   47.20
 -10   2   3  415.76   46.30
 -10   2   3  371.36   40.80
   8  -2  -3  532.55   48.80
   8  -2  -3  520.05   42.60
   8  -2  -3  473.15   46.40
  -8   2   3  574.34   45.10
  -8   2   3  610.34   51.89
  -8   2   3  620.14   51.99
   6  -2  -3  174.08   28.90
   6  -2  -3  148.89   26.20
   6  -2  -3  135.59   21.90
  -6   2   3  146.09   23.30
  -6   2   3  145.79   27.30
  -6   2   3  159.98   29.20
   4  -2  -3   79.09   14.20
   4  -2  -3   77.39   18.50
   4  -2  -3  115.49   23.50
  -4   2   3   99.79   20.80
  -4   2   3   66.19   16.30
  -4   2   3   83.99   14.80
   2  -2  -3   68.59   16.70
   2  -2  -3   98.39   20.10
   2  -2  -3   68.69   14.00
  -2   2   3   85.19   17.20
  -2   2   3   66.89   16.60
  -2   2   3   54.79   12.40
   0  -2  -3  662.33   43.10
   0  -2  -3  721.63   42.50
   0  -2  -3  706.13   44.50
   0   2   3  781.02   45.80
   0   2   3  670.93   41.70
   0   2   3  645.34   43.90
  -2  -2  -3 1983.30   92.19
  -2  -2  -3 1943.51   91.59
  -2  -2  -3 2027.80   92.49
   2   2   3 2087.39   93.79
   2   2   3 1961.30   91.39
   2   2   3 1962.80   92.29
  -4  -2  -3   29.60   14.60
  -4  -2  -3   21.70   11.40
   4   2   3   13.60   11.90
   4   2   3   11.70   11.50
   4   2   3   24.00   17.70
  -6  -2  -3   17.70   15.50
  -6  -2  -3   18.10   15.70
  -6  -2  -3  -12.30    9.10
   6   2   3   13.20   12.00
   6   2   3    9.90   10.70
   6   2   3    2.30   12.70
  -8  -2  -3  759.92   68.69
  -8  -2  -3  855.01   67.59
  -8  -2  -3  843.32   68.29
   8   2   3  640.44   63.99
   8   2   3  844.82   69.29
   8   2   3  898.11   70.39
 -10  -2  -3  408.76   64.79
 -10  -2  -3  330.47   54.79
 -10  -2  -3  409.06   51.39
  10   2   3  492.05   58.69
  10   2   3  322.37   54.09
  10   2   3  427.66   62.09
 -12  -2  -3   21.80   22.30
 -12  -2  -3   33.50   30.90
 -12  -2  -3   11.90   18.10
  12   2   3  -12.30   18.40
  12   2   3  -23.30   22.80
 -14  -2  -3  477.35   73.99
 -14  -2  -3  452.95   77.99
  14   2   3  437.56   86.69
 -16  -2  -3  160.08   46.50
  16   2   3  365.96   69.29
  19  -3  -3   71.99   30.10
 -19   3   3   53.99   35.30
  17  -3  -3  646.54   75.69
  17  -3  -3  656.43  116.89
 -17   3   3  716.93   85.29
  15  -3  -3  434.46   69.79
  15  -3  -3  434.86   55.99
 -15   3   3  494.15   60.79
 -15   3   3  499.45   64.29
  13  -3  -3  238.78   42.50
  13  -3  -3  245.78   49.70
  13  -3  -3  254.77   50.79
 -13   3   3  297.57   48.80
 -13   3   3  211.08   43.50
 -13   3   3  251.87   50.49
  11  -3  -3  875.31   64.69
  11  -3  -3  807.02   69.19
  11  -3  -3  870.71   72.49
 -11   3   3  826.02   70.59
 -11   3   3 1026.50   77.49
 -11   3   3  808.52   64.69
   9  -3  -3 2254.87  117.99
   9  -3  -3 2259.37  104.89
   9  -3  -3 2167.98  117.79
  -9   3   3 2106.19  114.79
  -9   3   3 2244.68  104.99
  -9   3   3 2116.49  116.59
   7  -3  -3   88.69   17.90
   7  -3  -3   83.79   22.20
   7  -3  -3   93.99   24.00
  -7   3   3  127.79   26.50
  -7   3   3   71.99   20.00
  -7   3   3   70.29   18.50
   5  -3  -3  953.90   59.59
   5  -3  -3  862.61   43.80
   5  -3  -3  854.91   58.59
  -5   3   3  880.41   44.10
  -5   3   3  928.21   58.89
  -5   3   3  818.72   57.09
   3  -3  -3 2622.74  115.99
   3  -3  -3 2777.12  118.59
  -3   3   3 2699.23  117.89
  -3   3   3 2748.53   99.59
  -3   3   3 2818.32  118.09
  -3   3   3 2867.11   99.69
   1  -3  -3 2055.19   95.49
   1  -3  -3 2295.27   86.79
   1  -3  -3 2079.69   96.19
  -1   3   3 2363.36   99.69
  -1   3   3 2083.89   96.49
  -1   3   3 2174.98   85.89
  -1  -3  -3  217.58   25.50
  -1  -3  -3  166.28   28.30
  -1  -3  -3  161.38   26.20
   1   3   3  225.78   25.10
   1   3   3  171.68   27.20
   1   3   3  208.58   31.70
  -3  -3  -3 2682.33  118.99
  -3  -3  -3 2484.05  117.89
  -3  -3  -3 2466.55  117.79
   3   3   3 2677.03  119.19
   3   3   3 2825.12  122.49
   3   3   3 2598.64  119.69
  -5  -3  -3 2550.24  125.69
  -5  -3  -3 2479.05  121.79
  -5  -3  -3 2585.94  123.19
   5   3   3 2483.35  122.69
   5   3   3 2374.96  120.69
   5   3   3 2396.26  123.19
  -7  -3  -3  424.96   46.50
  -7  -3  -3  387.76   44.60
  -7  -3  -3  459.85   51.09
   7   3   3  414.36   45.40
   7   3   3  390.26   45.60
   7   3   3  468.95   51.19
  -9  -3  -3  155.58   38.10
  -9  -3  -3  134.59   32.70
  -9  -3  -3  139.99   35.80
   9   3   3  114.29   36.10
   9   3   3  161.88   36.40
   9   3   3  171.48   38.30
 -11  -3  -3  658.23   69.79
 -11  -3  -3  781.22   75.49
 -11  -3  -3  773.92   79.39
  11   3   3  847.52   79.29
  11   3   3  791.92   75.69
  11   3   3  742.83   96.49
 -13  -3  -3  501.35   79.49
 -13  -3  -3  459.75   72.79
  13   3   3  397.16   68.39
  13   3   3  476.65   77.19
 -15  -3  -3  -18.70   19.40
 -15  -3  -3   41.40   30.80
  15   3   3   10.10   24.20
 -17  -3  -3  178.68   54.89
  17   3   3  169.28   86.29
  20  -4  -3  450.25   80.49
  18  -4  -3   49.99   35.70
 -18   4   3   35.80   26.20
  16  -4  -3   64.09   32.20
 -16   4   3   81.29   36.30
 -16   4   3  117.49   36.00
  14  -4  -3  830.82   81.19
  14  -4  -3  615.94   63.69
 -14   4   3  945.51   76.19
 -14   4   3  799.82   79.29
 -14   4   3  845.92   80.39
  12  -4  -3  653.33   66.09
  12  -4  -3  721.83   71.09
  12  -4  -3  674.33   66.49
 -12   4   3  650.33   64.89
 -12   4   3  716.33   66.59
 -12   4   3  761.02   61.69
  10  -4  -3   22.00   13.60
  10  -4  -3   -4.80    6.30
 -10   4   3   21.80   17.20
 -10   4   3   -7.50   12.00
 -10   4   3    0.80   13.50
   8  -4  -3 2218.28  116.29
   8  -4  -3 2328.37  119.89
   8  -4  -3 2144.49   95.99
  -8   4   3 2187.48  116.79
  -8   4   3 2443.46  120.09
  -8   4   3 2147.69   96.69
   6  -4  -3 2212.28  115.29
   6  -4  -3 2398.86   92.79
   6  -4  -3 2522.45  118.59
  -6   4   3 2497.95   93.19
  -6   4   3 2319.67  115.99
  -6   4   3 2501.05  118.49
   4  -4  -3 1198.28   71.59
   4  -4  -3 1337.27   74.09
  -4   4   3 1265.47   72.89
  -4   4   3 1210.88   49.10
  -4   4   3 1260.17   49.60
  -4   4   3 1183.08   70.59
   2  -4  -3  319.37   33.90
   2  -4  -3  328.37   32.10
   2  -4  -3  356.06   22.70
  -2   4   3  319.57   32.40
  -2   4   3  289.77   21.10
  -2   4   3  313.97   32.50
   0  -4  -3 2348.67  110.29
   0  -4  -3 2545.55  113.79
   0  -4  -3 2514.45  100.89
   0   4   3 2570.64  113.19
   0   4   3 2527.55  101.09
   0   4   3 2458.65  112.49
  -2  -4  -3 3243.38  145.59
  -2  -4  -3 3438.16  147.09
  -2  -4  -3 3473.65  140.99
   2   4   3 3544.35  147.79
   2   4   3 3522.65  148.29
   2   4   3 3435.26  141.29
  -4  -4  -3   80.79   22.00
  -4  -4  -3   54.89   20.20
  -4  -4  -3   36.00   17.50
   4   4   3   82.69   22.20
   4   4   3  113.49   26.40
   4   4   3   62.89   20.10
  -6  -4  -3 1076.49   76.69
  -6  -4  -3  911.91   70.09
  -6  -4  -3  971.40   73.99
   6   4   3  992.70   75.09
   6   4   3  923.31   72.19
   6   4   3 1026.00   73.69
  -8  -4  -3 1764.22  107.99
  -8  -4  -3 1550.04  118.89
  -8  -4  -3 1687.23  109.29
   8   4   3 1646.74  107.59
   8   4   3 1466.95  100.19
   8   4   3 1546.85  104.89
 -10  -4  -3  568.54   70.39
 -10  -4  -3  602.24   63.69
 -10  -4  -3  631.94   66.19
  10   4   3  501.65   62.09
  10   4   3  506.55   60.79
  10   4   3  524.55   63.99
 -12  -4  -3    5.60   22.50
  12   4   3   32.50   38.90
  12   4   3   49.10   32.20
 -14  -4  -3  269.37   62.09
  14   4   3  383.56   70.39
 -16  -4  -3  433.06   84.79
  19  -5  -3   62.59   37.20
  17  -5  -3  424.06   74.09
 -17   5   3  504.75   63.09
  15  -5  -3  696.63   81.09
  15  -5  -3  726.93   69.79
 -15   5   3  850.81   73.19
 -15   5   3  802.32   81.69
  13  -5  -3   65.99   25.70
  13  -5  -3   47.60   28.80
  13  -5  -3   13.20   14.10
 -13   5   3   59.79   22.20
 -13   5   3   49.10   24.60
 -13   5   3   -0.50   20.20
  11  -5  -3  489.25   45.50
  11  -5  -3  491.15   54.09
 -11   5   3  558.64   58.49
 -11   5   3  513.15   56.69
   9  -5  -3 1450.65   94.09
   9  -5  -3 1353.56   69.69
   9  -5  -3 1403.86   90.89
  -9   5   3 1257.17   68.49
  -9   5   3 1155.98   91.69
  -9   5   3 1477.55   93.29
   7  -5  -3 1229.18   55.89
   7  -5  -3 1228.88   80.09
   7  -5  -3 1162.48   79.99
  -7   5   3 1207.38   79.39
  -7   5   3 1255.77   56.49
   5  -5  -3  966.50   65.49
   5  -5  -3  982.80   79.89
  -5   5   3  972.60   65.89
  -5   5   3  893.11   39.80
   3  -5  -3  804.92   57.19
   3  -5  -3  824.52   57.89
  -3   5   3  861.51   59.99
  -3   5   3  796.82   55.79
  -3   5   3  801.02   33.30
   1  -5  -3 1225.48   72.39
   1  -5  -3 1150.28   69.69
   1  -5  -3 1127.39   53.69
  -1   5   3 1226.98   72.59
  -1   5   3 1100.49   68.19
  -1   5   3 1189.78   54.99
  -1  -5  -3  117.59   25.10
  -1  -5  -3   86.09   22.70
  -1  -5  -3   89.59   19.10
   1   5   3  106.99   22.60
   1   5   3   93.59   24.10
   1   5   3   64.29   19.40
  -3  -5  -3 2103.99  109.79
  -3  -5  -3 2139.99  110.59
  -3  -5  -3 2075.99  117.69
   3   5   3 2003.30  103.49
   3   5   3 2071.59  109.39
   3   5   3 2070.99  109.59
  -5  -5  -3 2441.36  124.49
  -5  -5  -3 2328.67  121.39
  -5  -5  -3 2158.68  119.89
   5   5   3 2121.09  117.39
   5   5   3 2236.28  121.69
   5   5   3 2287.17  121.19
  -7  -5  -3   -1.10   12.20
  -7  -5  -3    1.90    8.70
  -7  -5  -3   -0.20   16.40
   7   5   3   -9.30    8.80
   7   5   3    5.30   13.40
   7   5   3   -1.20   14.10
  -9  -5  -3   71.49   26.40
  -9  -5  -3   48.30   32.10
  -9  -5  -3   27.90   24.50
   9   5   3  116.29   37.80
   9   5   3   78.89   34.20
   9   5   3  101.59   32.50
 -11  -5  -3 1070.69   95.59
 -11  -5  -3 1000.00   89.39
 -11  -5  -3 1046.80   95.69
  11   5   3  876.61   87.79
  11   5   3  926.11   89.29
  11   5   3 1055.99   95.09
 -13  -5  -3  177.58   50.59
 -13  -5  -3  114.49   42.10
  13   5   3  212.78   53.19
 -15  -5  -3   55.29   34.50
  18  -6  -3   27.50   30.50
  16  -6  -3  524.35   80.79
 -16   6   3  404.46   54.69
  14  -6  -3   -7.60   29.20
  14  -6  -3   52.89   28.80
 -14   6   3    1.50   17.10
 -14   6   3   -5.60   13.90
  12  -6  -3 1139.99   92.79
  12  -6  -3 1336.97   78.19
 -12   6   3 1116.79   73.29
 -12   6   3 1157.08   91.99
  10  -6  -3   72.29   27.00
  10  -6  -3   68.79   17.80
  10  -6  -3   75.39   28.40
 -10   6   3   63.39   18.10
 -10   6   3   82.49   25.20
   8  -6  -3  319.37   49.30
   8  -6  -3  219.68   46.30
   8  -6  -3  296.97   23.40
  -8   6   3  315.57   25.10
  -8   6   3  231.08   51.09
  -8   6   3  300.37   47.00
   6  -6  -3 1902.11  104.59
  -6   6   3 1815.22   99.79
  -6   6   3 1625.64   61.29
   4  -6  -3  886.21   65.49
   4  -6  -3  970.10   67.49
  -4   6   3  938.11   64.39
   2  -6  -3  423.16   42.80
   2  -6  -3  341.07   22.10
   2  -6  -3  331.57   37.90
  -2   6   3  386.56   23.90
  -2   6   3  393.26   43.10
  -2   6   3  419.46   40.30
   0  -6  -3 3167.28  120.49
   0  -6  -3 2906.81  136.79
   0   6   3 3106.29  141.39
   0   6   3 2859.21  136.99
   0   6   3 3149.88  121.09
  -2  -6  -3  238.28   29.30
  -2  -6  -3  199.48   35.50
   2   6   3  280.37   35.10
   2   6   3  219.68   33.10
   2   6   3  181.08   33.30
  -4  -6  -3  739.63   59.99
  -4  -6  -3  653.53   59.29
  -4  -6  -3  773.32   62.59
   4   6   3  673.13   59.49
   4   6   3  758.72   62.69
   4   6   3  676.03   58.19
  -6  -6  -3  189.28   39.70
  -6  -6  -3  202.78   38.90
  -6  -6  -3  155.98   36.40
   6   6   3  243.08   45.30
   6   6   3  183.48   38.90
   6   6   3   97.19   27.00
  -8  -6  -3 1258.27   92.79
  -8  -6  -3 1142.99   90.19
  -8  -6  -3 1013.20   85.79
   8   6   3 1093.49   89.99
   8   6   3 1046.70   89.39
   8   6   3 1023.40   86.29
 -10  -6  -3   49.99   32.40
 -10  -6  -3  104.09   60.09
 -10  -6  -3   97.19   31.00
  10   6   3  118.89   36.20
  10   6   3  110.49   41.00
 -12  -6  -3    2.40   21.10
 -12  -6  -3   49.20   29.90
  12   6   3   66.09   35.40
  12   6   3   23.60   24.40
 -14  -6  -3  150.58   50.09
 -16  -6  -3  677.03  107.89
  19  -7  -3   88.59   41.20
  17  -7  -3   67.09   32.20
  15  -7  -3   -4.00   23.40
 -13   7   3   32.30   19.40
 -13   7   3   10.50   24.00
  11  -7  -3  225.28   28.50
  11  -7  -3  261.57   52.29
 -11   7   3  223.78   44.00
 -11   7   3  245.88   29.60
 -11   7   3  159.08   41.40
   9  -7  -3  232.38   20.60
   9  -7  -3  228.18   44.10
   9  -7  -3  221.98   45.10
  -9   7   3  207.88   20.60
  -9   7   3  206.58   40.70
  -9   7   3  215.18   40.80
   7  -7  -3  303.97   47.30
   7  -7  -3  302.37   47.30
  -7   7   3  280.07   44.50
  -7   7   3  338.77   42.20
   5  -7  -3   27.40   17.90
   5  -7  -3   53.79   18.80
  -5   7   3   51.39   21.20
  -5   7   3   65.29   21.80
   3  -7  -3  755.72   60.09
  -3   7   3  677.43   55.89
   1  -7  -3   19.20   13.90
   1  -7  -3    6.20    7.60
   1  -7  -3    8.40   12.70
  -1   7   3   20.50   10.40
  -1   7   3   40.20   18.40
  -1  -7  -3   23.60   15.40
  -1  -7  -3   44.90   15.60
  -1  -7  -3   42.40   19.10
   1   7   3   21.40   15.10
   1   7   3   17.10   16.50
  -3  -7  -3   80.89   26.20
  -3  -7  -3   70.89   23.00
  -3  -7  -3   98.69   27.30
   3   7   3  126.99   30.90
   3   7   3   68.49   23.30
   3   7   3   67.69   22.80
  -5  -7  -3  574.54   57.59
  -5  -7  -3  547.85   57.29
  -5  -7  -3  659.23   64.09
   5   7   3  714.23   64.69
   5   7   3  717.23   63.99
   5   7   3  703.63   64.99
  -7  -7  -3   53.09   25.50
  -7  -7  -3   -9.10   16.00
  -7  -7  -3  -17.00    9.80
   7   7   3   39.20   23.10
   7   7   3   13.80   16.50
   7   7   3   20.00   19.00
  -9  -7  -3   22.80   20.80
  -9  -7  -3   52.79   34.30
  -9  -7  -3    5.20   25.60
   9   7   3   74.49   30.50
   9   7   3    6.80   22.00
   9   7   3   16.50   16.40
 -11  -7  -3  295.87   62.09
 -11  -7  -3  332.47   63.89
  11   7   3  331.97   93.29
  11   7   3  140.29   43.40
  11   7   3  284.97   61.39
 -13  -7  -3   78.39   42.40
  18  -8  -3   -4.80   31.60
  16  -8  -3  -35.40   19.20
  12  -8  -3   30.80   20.20
 -12   8   3    9.40   20.80
  10  -8  -3   -7.30    5.10
  10  -8  -3    8.50   17.80
  10  -8  -3   -1.10   12.10
 -10   8   3  -21.20   10.50
 -10   8   3    3.40    7.70
 -10   8   3  -14.30   12.60
   8  -8  -3   36.00   21.30
   8  -8  -3   68.19   22.10
  -8   8   3   61.19   21.70
   6  -8  -3   15.20   18.20
   6  -8  -3   36.70   20.80
  -6   8   3   39.00   17.30
   4  -8  -3  -14.40    8.10
   4  -8  -3   -2.30   13.50
  -4   8   3   18.80   15.10
  -4   8   3   -1.50   11.80
   2  -8  -3   67.39   23.30
   2  -8  -3   59.79   10.20
  -2   8   3   43.90   18.70
  -2   8   3   55.19   10.00
  -2   8   3   73.59   22.00
   0  -8  -3   -9.10    8.40
   0  -8  -3  -14.00    7.00
   0  -8  -3   -3.30   12.30
   0   8   3    0.30    9.90
   0   8   3   -2.40   11.60
   0   8   3   -2.80    8.40
  -2  -8  -3   45.90   23.70
  -2  -8  -3   26.30   18.70
   2   8   3  114.69   30.10
   2   8   3   54.09   20.30
   2   8   3   64.19   21.70
  -4  -8  -3  109.29   31.50
  -4  -8  -3   86.79   25.60
  -4  -8  -3   45.20   25.70
   4   8   3  115.09   29.70
   4   8   3  163.28   39.80
   4   8   3   97.79   28.20
  -6  -8  -3  -12.00    9.30
  -6  -8  -3    6.40   19.40
  -6  -8  -3   18.10   20.10
   6   8   3   14.40   17.40
   6   8   3    0.80   19.70
  -8  -8  -3  292.27   54.89
  -8  -8  -3  281.67   56.69
  -8  -8  -3  243.48   52.29
   8   8   3  246.08   47.70
   8   8   3  307.57   57.19
   8   8   3  268.07   54.39
 -10  -8  -3   58.49   32.90
 -10  -8  -3  130.49   38.70
  10   8   3   81.39   36.00
  10   8   3   94.59   33.80
 -12  -8  -3   16.70   23.20
 -14  -8  -3  -34.40   17.10
  17  -9  -3   41.70   33.90
  15  -9  -3   -8.60   19.90
  11  -9  -3   88.29   37.10
 -11   9   3   86.89   28.50
   9  -9  -3  108.69   34.60
  -9   9   3  153.68   36.40
   7  -9  -3  101.79   28.40
   7  -9  -3   37.00   20.70
  -7   9   3   84.79   27.40
   5  -9  -3   77.89   25.90
   5  -9  -3   87.39   26.90
  -5   9   3   71.79   23.40
   3  -9  -3  207.08   40.40
   3  -9  -3  185.58   37.00
  -3   9   3  236.38   43.00
  -3   9   3  167.68   35.20
   1  -9  -3   98.59   27.60
   1  -9  -3  152.18   33.60
   1  -9  -3  120.59   19.10
  -1   9   3   84.69   24.60
  -1   9   3  108.29   17.70
  -1   9   3  115.59   31.40
  -1  -9  -3   99.39   31.40
  -1  -9  -3  111.59   31.40
  -1  -9  -3   65.29   19.60
   1   9   3  102.59   27.20
   1   9   3  101.79   23.80
   1   9   3  115.59   30.70
  -3  -9  -3   86.69   30.20
  -3  -9  -3  128.39   29.10
  -3  -9  -3  152.18   37.20
   3   9   3   55.39   22.80
   3   9   3   62.79   30.30
   3   9   3  100.89   30.60
  -5  -9  -3   16.20   15.40
  -5  -9  -3    4.70   17.30
  -5  -9  -3   -6.40   16.40
   5   9   3   19.10   22.20
   5   9   3   -3.20   16.70
   5   9   3   -4.70    5.90
  -7  -9  -3  -19.30   16.30
  -7  -9  -3   40.30   28.20
   7   9   3   -5.60   14.30
   7   9   3   11.10   21.20
   7   9   3    8.20   22.50
  -9  -9  -3   -8.80   13.80
  -9  -9  -3   12.30   23.20
   9   9   3  -14.80   27.90
   9   9   3   -4.10   21.70
 -11  -9  -3   95.29   44.70
 -11  -9  -3  113.69   39.70
 -13  -9  -3   65.19   44.60
  16 -10  -3   70.19   35.20
  12 -10  -3  278.97   54.99
  10 -10  -3   15.30   18.70
 -10  10   3   -1.60   15.60
   8 -10  -3   52.89   32.60
  -8  10   3  121.59   31.50
   6 -10  -3  265.47   50.29
   6 -10  -3  293.27   53.29
  -6  10   3  292.87   47.40
  -6  10   3  295.67   49.00
   4 -10  -3  121.89   33.10
   4 -10  -3   82.19   27.60
  -4  10   3   61.49   21.50
  -4  10   3   24.50   15.10
   2 -10  -3   11.10    4.80
   2 -10  -3    7.60   17.00
   2 -10  -3   33.90   18.90
  -2  10   3   26.10   19.00
  -2  10   3   12.80    5.60
  -2  10   3   12.00   15.30
   0 -10  -3  316.67   31.20
   0 -10  -3  403.06   51.79
   0 -10  -3  293.27   48.90
   0  10   3  407.86   35.20
   0  10   3  366.16   45.30
   0  10   3  333.07   53.09
  -2 -10  -3  717.73   56.59
  -2 -10  -3  703.73   68.29
  -2 -10  -3  709.53   68.59
   2  10   3  653.63   65.39
   2  10   3  768.72   70.39
   2  10   3  627.54   54.39
  -4 -10  -3    5.90   20.00
  -4 -10  -3   50.19   26.30
   4  10   3   47.30   25.10
   4  10   3   53.09   25.10
   4  10   3   34.60   23.20
  -6 -10  -3    8.90   24.70
  -6 -10  -3   48.20   25.80
   6  10   3   56.19   28.50
   6  10   3    9.60   14.60
  -8 -10  -3    2.10   22.30
  -8 -10  -3   13.50   22.40
   8  10   3   19.90   24.30
 -10 -10  -3  328.67   66.59
 -10 -10  -3  339.77   66.49
  10  10   3  267.07   56.99
  10  10   3  300.57   79.69
 -12 -10  -3  -40.80   25.70
  13 -11  -3   -3.50   21.00
  11 -11  -3  518.75   65.19
   9 -11  -3  458.15   70.69
   7 -11  -3    2.10   19.00
  -7  11   3  -15.80   15.60
   5 -11  -3  610.24   92.59
  -5  11   3  533.35   57.89
   3 -11  -3  330.37   55.29
  -3  11   3  431.06   69.79
   1 -11  -3 1996.90  125.79
  -1  11   3 2050.59  122.69
  -1 -11  -3   19.10   15.40
  -1 -11  -3   30.80   19.30
   1  11   3    6.90   15.30
   1  11   3   54.69   26.50
  -3 -11  -3  171.48   40.70
  -3 -11  -3  198.98   38.40
   3  11   3  187.98   50.89
   3  11   3  197.88   38.10
  -5 -11  -3  856.61   81.99
  -5 -11  -3  730.13   68.29
   5  11   3  673.53   69.49
   5  11   3  972.20   86.99
  -7 -11  -3  220.78   48.80
  -7 -11  -3  221.98   51.99
   7  11   3  193.48   47.10
   7  11   3  221.08   49.80
  -9 -11  -3  305.77   61.39
  -9 -11  -3  192.38   49.20
   9  11   3  214.38   52.19
   9  11   3  203.88   51.39
 -11 -11  -3  364.66   92.19
 -11 -11  -3  297.37   66.09
  12 -12  -3  226.28   49.20
   8 -12  -3  430.76   69.09
   6 -12  -3  193.58   44.70
  -6  12   3  165.98   44.20
   4 -12  -3  430.76   56.49
  -4  12   3  462.15   55.49
   2 -12  -3   38.20   22.60
  -2  12   3   29.40   22.00
   0 -12  -3  324.17   57.39
   0  12   3  311.37   53.49
  -2 -12  -3  510.85   65.49
   2  12   3  372.66   59.59
  -4 -12  -3  131.69   36.50
  -4 -12  -3  128.09   37.40
   4  12   3  171.88   39.50
  -6 -12  -3  228.38   49.50
  -6 -12  -3  331.77   65.09
   6  12   3  247.08   53.09
  -8 -12  -3  586.64   72.99
  -8 -12  -3  665.73   84.69
 -10 -12  -3  139.09   48.30
 -10 -12  -3   54.19   31.90
  11 -13  -3  216.78   59.39
   9 -13  -3  583.14   71.59
   7 -13  -3   22.60   23.90
   5 -13  -3   97.89   35.70
   3 -13  -3  860.21   85.19
   1 -13  -3  395.06   65.59
  -1 -13  -3   -2.20   19.30
  -3 -13  -3  538.85   70.19
  -5 -13  -3  328.27   62.39
  -7 -13  -3  320.97   63.99
  -9 -13  -3   42.60   33.80
  10 -14  -3   67.49   29.90
   8 -14  -3  157.28   44.00
   6 -14  -3  601.24   71.09
   4 -14  -3  299.27   55.89
   2 -14  -3  154.08   41.50
   0 -14  -3  130.19   42.10
  -2 -14  -3  159.78   46.70
  -4 -14  -3   78.29   38.90
  -6 -14  -3   38.90   30.40
   7 -15  -3   73.29   32.60
   5 -15  -3  -50.99   23.90
   3 -15  -3  169.28   49.80
   1 -15  -3  -10.80   23.50
  -1 -15  -3   35.50   33.40
  -3 -15  -3   -9.00   24.70
  -5 -15  -3  -62.79   30.10
   2 -16  -3   47.90   28.50
  -7 -15   4  336.87   57.39
  -5 -15   4  261.07   46.30
  -1 -15   4  535.15   54.39
   1 -15   4  163.78   37.70
   3 -15   4   -0.70   14.80
 -10 -14   4   45.30   23.60
  -8 -14   4   73.89   31.50
  -6 -14   4  711.23   68.09
  -4 -14   4  -34.50   13.20
  -2 -14   4  162.28   32.80
   0 -14   4  275.97   35.90
   2 -14   4   25.80   14.00
   4 -14   4  363.16   34.70
 -13 -13   4   67.79   37.00
 -11 -13   4  141.19   41.00
 -11 -13   4  212.78   53.89
  -9 -13   4   38.10   32.10
  -9 -13   4   72.89   32.30
  -7 -13   4   96.49   29.70
  -7 -13   4   75.39   40.90
  -5 -13   4  201.78   38.60
  -5 -13   4  161.58   38.80
  -3 -13   4   43.10   18.60
   1  13  -4  172.68   17.50
  -1 -13   4  224.18   34.10
   1 -13   4  193.38   31.70
   3 -13   4   44.90   16.20
   7 -13   4    6.40   11.90
 -14 -12   4   41.80   37.10
 -14 -12   4  116.89   39.70
 -12 -12   4  171.68   46.20
  10  12  -4   71.89   41.80
 -10 -12   4  160.38   47.10
 -10 -12   4  172.68   42.20
  -8 -12   4  584.74   61.69
   6  12  -4  534.25   64.09
  -6 -12   4  513.45   61.89
  -6 -12   4  437.96   49.10
   4  12  -4  332.87   55.59
   4  12  -4  330.47   36.10
  -4 -12   4  360.36   42.30
  -4 -12   4  415.56   61.59
   2  12  -4  415.86   33.10
  -2 -12   4  382.46   40.60
  -2 -12   4  526.15   53.99
  -2 -12   4  478.85   44.80
   0 -12   4   42.30   15.50
   0 -12   4   54.19   18.60
   0 -12   4   24.90   16.30
   2 -12   4  264.07   29.90
   2 -12   4  293.47   28.40
   4 -12   4  172.38   21.90
   6 -12   4   77.09   21.00
   8 -12   4  121.19   26.90
  10 -12   4  118.89   28.90
 -15 -11   4  179.48   60.29
 -15 -11   4  110.29   40.70
 -13 -11   4  287.37   65.89
 -13 -11   4  208.28   52.79
  11  11  -4  -14.00   21.80
 -11 -11   4   42.70   27.50
 -11 -11   4  -14.30   21.00
   9  11  -4  891.41  105.49
  -9 -11   4  818.82   74.69
   7  11  -4  101.49   33.60
   7  11  -4  198.88   36.70
  -7 -11   4  153.18   41.00
  -7 -11   4  163.88   35.50
   5  11  -4  158.98   30.20
   5  11  -4  108.99   33.10
   5  11  -4  150.88   35.40
  -5 -11   4  184.38   42.00
  -5 -11   4  189.78   34.80
   3  11  -4  777.62   57.29
   3  11  -4  790.72   50.99
  -3 -11   4  776.22   55.29
  -3 -11   4  645.44   63.09
  -3 -11   4  799.32   57.59
   1  11  -4   24.40    7.10
   1  11  -4   27.40    9.50
  -1 -11   4   17.90   19.40
  -1 -11   4   -4.90    8.20
  -1 -11   4    7.30   18.30
  -1 -11   4    8.80    9.40
   1 -11   4  668.83   60.09
   1 -11   4  775.22   48.00
   1 -11   4  688.03   43.90
   1 -11   4  600.44   57.59
   3 -11   4 1153.88   59.89
   3 -11   4 1056.09   76.39
   5 -11   4   83.19   18.20
   7 -11   4  552.04   45.60
  11 -11   4   -2.00   17.60
 -16 -10   4  -21.10   26.60
 -16 -10   4   -1.40   20.20
 -14 -10   4  839.62   87.39
 -14 -10   4  880.71   98.49
  12  10  -4    0.90   21.20
 -12 -10   4    3.00   19.90
 -12 -10   4   29.30   30.30
  10  10  -4  259.77   52.59
  10  10  -4  390.96   49.70
 -10 -10   4  476.65   75.19
 -10 -10   4  432.96   54.69
   8  10  -4  968.10   87.49
   8  10  -4  892.11   70.39
  -8 -10   4  948.11   75.89
  -8 -10   4  852.01   82.69
   6  10  -4   -0.60   11.40
   6  10  -4   14.10   18.20
  -6 -10   4    4.20   11.80
  -6 -10   4    1.80   12.40
  -6 -10   4   17.40   20.40
   4  10  -4  598.44   45.40
   4  10  -4  574.04   44.90
   4  10  -4  621.54   63.09
  -4 -10   4  691.03   62.89
  -4 -10   4  583.74   49.20
  -4 -10   4  553.64   47.10
   2  10  -4  103.09   16.20
  -2 -10   4  139.69   23.80
  -2 -10   4  104.49   26.40
  -2 -10   4  130.89   23.60
   0 -10   4   11.00   14.90
   0 -10   4   28.10   10.30
   0 -10   4   15.40   10.40
   0 -10   4   35.50   19.10
   2 -10   4 1678.43   97.99
   2 -10   4 1524.95   70.39
   2 -10   4 1644.74   73.29
   4 -10   4  180.28   37.30
   4 -10   4  211.58   23.60
   4 -10   4  245.48   40.70
   6 -10   4   46.40   14.10
   6 -10   4   26.40   17.80
   6 -10   4   11.20   11.10
   8 -10   4  885.31   61.29
  10 -10   4   -1.20   16.30
  12 -10   4   39.70   24.40
 -17  -9   4  -16.80   38.60
 -15  -9   4  793.22  100.19
 -15  -9   4  879.71   91.59
  13   9  -4  134.29   38.50
 -13  -9   4   70.39   35.00
 -13  -9   4  140.59   39.30
  11   9  -4  153.98   39.50
  11   9  -4  175.28   46.60
 -11  -9   4  116.29   43.50
 -11  -9   4   72.89   30.90
   9   9  -4 1504.75  111.79
  -9  -9   4 1630.54  118.39
  -9  -9   4 1696.03  107.99
   7   9  -4   14.30   15.80
   7   9  -4   34.90   23.60
   7   9  -4   24.40   17.80
  -7  -9   4   29.50   18.60
  -7  -9   4   15.90   21.70
  -7  -9   4   19.80   14.10
   5   9  -4    1.70    8.30
   5   9  -4    9.80   17.70
   5   9  -4    7.40   11.20
  -5  -9   4    2.20    9.50
  -5  -9   4  -17.00    8.20
  -5  -9   4  -17.30   11.80
   3   9  -4 3071.49  118.99
   3   9  -4 2784.92  144.79
   3   9  -4 2983.20  116.69
  -3  -9   4 3108.89  148.09
  -3  -9   4 2911.81  123.99
  -3  -9   4 2897.91  122.79
   1   9  -4  425.56   21.10
   1   9  -4  430.16   21.80
  -1  -9   4  510.75   49.20
  -1  -9   4  398.66   31.70
  -1  -9   4  426.56   56.59
  -1  -9   4  482.15   32.90
   1  -9   4  773.82   60.09
   1  -9   4  735.93   39.80
   1  -9   4  873.41   64.59
   1  -9   4  723.43   41.00
   3  -9   4 1098.99   73.89
   3  -9   4  979.20   71.29
   3  -9   4  949.40   48.50
   5  -9   4  131.29   21.50
   5  -9   4  107.39   27.50
   5  -9   4  127.49   21.00
  -7   9  -4  736.13   68.39
   7  -9   4  740.03   54.09
   7  -9   4  759.42   52.29
   7  -9   4  634.44   60.59
  -9   9  -4   96.29   31.80
   9  -9   4   81.99   24.60
  11  -9   4  129.29   32.50
  13  -9   4  857.01   76.39
 -18  -8   4   34.40   35.70
 -18  -8   4  -39.90   38.00
 -16  -8   4   33.20   27.60
 -16  -8   4   14.70   36.50
  14   8  -4  670.93   74.79
 -14  -8   4  805.72   87.79
 -14  -8   4  775.22   83.49
  12   8  -4  125.69   37.70
  12   8  -4  138.99   37.30
 -12  -8   4  137.49   42.50
 -12  -8   4  167.68   43.50
  10   8  -4  560.24   67.39
  10   8  -4  387.56   49.80
 -10  -8   4  402.56   52.59
 -10  -8   4  486.55   72.89
 -10  -8   4  371.96   64.49
   8   8  -4 1257.67   82.79
   8   8  -4 1145.49   80.59
   8   8  -4 1246.28   95.49
  -8  -8   4 1326.97   85.39
  -8  -8   4 1308.67   86.59
  -8  -8   4 1463.15  102.19
   6   8  -4  459.25   43.60
   6   8  -4  569.04   46.50
   6   8  -4  491.15   55.49
  -6  -8   4  542.05   48.10
  -6  -8   4  524.95   46.50
  -6  -8   4  582.74   58.49
   4   8  -4 2322.17  102.09
   4   8  -4 2333.97  101.59
   4   8  -4 2483.15  129.09
  -4  -8   4 2361.76  106.19
  -4  -8   4 2403.56  106.49
  -4  -8   4 2433.06  127.29
   2   8  -4  495.45   28.20
   2   8  -4  465.45   28.90
  -2  -8   4  460.05   33.70
  -2  -8   4  532.15   50.49
  -2  -8   4  524.65   34.60
   0  -8   4  466.35   45.60
   0  -8   4  446.56   27.30
   0  -8   4  457.45   28.50
   0  -8   4  450.25   45.10
   2  -8   4 2625.04   94.69
   2  -8   4 2528.15  126.99
   2  -8   4 2519.15   93.49
   2  -8   4 2608.34  124.39
   4  -8   4   24.10    8.70
   4  -8   4    8.20    8.00
   4  -8   4   23.00   18.80
  -6   8  -4   19.70    7.90
  -6   8  -4    9.00    5.70
  -6   8  -4   24.00   19.40
   6  -8   4    2.20    9.60
   6  -8   4   30.60   13.90
  -8   8  -4 2203.28   99.59
  -8   8  -4 2223.38   98.49
  -8   8  -4 2350.76  132.19
   8  -8   4 2299.17  113.79
   8  -8   4 2368.16  112.69
   8  -8   4 2270.97  128.29
 -10   8  -4  309.47   55.39
  10  -8   4  435.86   46.80
 -12   8  -4  238.28   79.19
  12  -8   4  113.29   32.00
  14  -8   4  502.25   61.49
 -19  -7   4  439.56   88.19
 -17  -7   4   -8.30   28.50
 -17  -7   4   90.99   50.89
  15   7  -4 1046.80   97.19
 -15  -7   4  995.30  102.29
 -15  -7   4 1244.28  106.09
  13   7  -4  166.38   46.50
  13   7  -4  138.89   39.20
 -13  -7   4  186.28   50.39
 -13  -7   4  109.69   36.70
  11   7  -4   15.60   14.20
  11   7  -4   59.59   27.90
 -11  -7   4   32.90   25.10
 -11  -7   4   36.20   24.50
 -11  -7   4  -10.30   13.90
   9   7  -4 2140.79  115.89
   9   7  -4 2075.49  127.79
  -9  -7   4 1950.01  113.09
  -9  -7   4 2093.99  117.69
  -9  -7   4 2170.88  131.69
   7   7  -4  212.98   34.00
   7   7  -4  189.88   33.00
   7   7  -4  152.28   34.80
  -7  -7   4  202.98   42.20
  -7  -7   4  162.18   30.30
  -7  -7   4  212.48   34.90
   5   7  -4    9.10   10.30
   5   7  -4   15.60   10.60
   5   7  -4   31.60   18.70
  -5  -7   4   32.90   13.20
  -5  -7   4   55.39   22.60
  -5  -7   4   24.90   12.40
   3   7  -4 3407.96  125.99
   3   7  -4 3339.57  124.39
   3   7  -4 3428.96  157.48
  -3  -7   4 3214.28  153.08
  -3  -7   4 3494.05  130.89
  -3  -7   4 3594.94  131.79
  -1  -7   4  237.48   19.20
  -1  -7   4  204.68   35.10
  -1  -7   4  215.48   17.70
  -1  -7   4  187.28   34.80
   1  -7   4  719.93   32.00
   1  -7   4  711.73   57.09
   1  -7   4  730.43   55.69
   1  -7   4  709.53   31.40
   3  -7   4  991.00   44.80
   3  -7   4  923.51   65.69
   3  -7   4  925.01   44.60
  -5   7  -4  286.47   46.00
  -5   7  -4  241.48   17.40
  -5   7  -4  250.67   17.50
   5  -7   4  277.27   27.10
   5  -7   4  306.57   38.50
   5  -7   4  276.07   25.80
  -7   7  -4  151.58   23.10
  -7   7  -4  119.79   23.40
  -7   7  -4  194.28   38.90
   7  -7   4  150.48   26.70
   7  -7   4  166.68   28.80
   7  -7   4  148.19   34.70
  -9   7  -4  108.49   23.70
  -9   7  -4   92.99   31.10
   9  -7   4  171.28   39.90
   9  -7   4  104.79   34.80
   9  -7   4   86.49   25.40
 -11   7  -4  197.98   46.80
  11  -7   4  163.88   35.60
  11  -7   4   49.90   33.10
 -13   7  -4  637.34   78.29
  13  -7   4  782.22   73.99
  15  -7   4   51.29   27.90
 -18  -6   4    1.70   32.60
 -18  -6   4  -22.30   25.80
  16   6  -4  155.98   44.30
 -16  -6   4  140.89   43.30
 -16  -6   4  188.58   54.79
  14   6  -4  841.02   81.09
  14   6  -4  887.81   90.09
 -14  -6   4  985.30   90.49
 -14  -6   4 1068.49  102.39
  12   6  -4   13.20   17.00
  12   6  -4  -12.00    9.00
  12   6  -4  -13.20   12.90
 -12  -6   4   17.10   17.60
 -12  -6   4    9.90   27.50
 -12  -6   4  -15.70   12.50
  10   6  -4  337.47   43.00
  10   6  -4  300.77   53.49
  10   6  -4  259.77   44.40
 -10  -6   4  331.97   56.79
 -10  -6   4  382.46   46.30
 -10  -6   4  380.86   46.40
   8   6  -4  198.08   40.80
   8   6  -4  326.37   53.19
   8   6  -4  245.08   39.10
  -8  -6   4  240.18   40.20
  -8  -6   4  267.87   34.30
  -8  -6   4  255.67   45.20
   6   6  -4   17.20   18.00
   6   6  -4   16.60   12.80
   6   6  -4   11.40   11.00
  -6  -6   4   19.60   13.40
  -6  -6   4    5.20    8.80
  -6  -6   4    6.90   12.70
   4   6  -4 2174.18  111.89
   4   6  -4 2049.40   87.29
   4   6  -4 2075.69   87.99
  -4  -6   4 1992.20   89.49
  -4  -6   4 2009.70  109.59
  -4  -6   4 2051.89   90.09
   2   6  -4  880.51   37.60
   2   6  -4  920.61   37.60
  -2  -6   4  934.81   44.00
  -2  -6   4  944.51   44.20
  -2  -6   4  923.91   67.79
   0  -6   4  670.23   52.59
   0  -6   4  692.23   56.69
   0  -6   4  635.34   26.40
   2  -6   4 4228.48  139.29
   2  -6   4 4381.86  176.28
   2  -6   4 4151.38  138.49
  -4   6  -4   20.40    6.20
  -4   6  -4    8.70   14.40
  -4   6  -4   18.80    5.00
   4  -6   4   37.60   18.40
   4  -6   4   14.60    7.80
   4  -6   4   42.80   13.20
  -6   6  -4  105.19   30.20
  -6   6  -4   58.19   14.70
  -6   6  -4   72.09   15.50
   6  -6   4   61.59   17.50
   6  -6   4   55.59   16.50
   6  -6   4   11.70   17.20
  -8   6  -4 1710.93   90.89
  -8   6  -4 1752.82  111.49
  -8   6  -4 1822.22   90.09
   8  -6   4 1748.82   96.29
   8  -6   4 1928.11   98.19
   8  -6   4 1799.42  111.29
 -10   6  -4   22.30   16.50
 -10   6  -4    7.30   21.00
  10  -6   4   34.20   24.20
  10  -6   4   12.40   13.20
 -12   6  -4  183.08   70.29
  12  -6   4  173.68   40.30
  12  -6   4  126.69   48.30
 -14   6  -4  337.47   67.09
  14  -6   4  312.67   54.19
 -19  -5   4   81.79   41.30
 -17  -5   4  165.08   52.09
 -17  -5   4  153.38   39.80
  15   5  -4  165.88   46.70
  15   5  -4  201.08   49.50
 -15  -5   4   96.09   34.80
 -15  -5   4  149.29   53.39
  13   5  -4  277.77   50.99
  13   5  -4  253.67   49.40
  13   5  -4  263.97   52.59
 -13  -5   4  277.07   51.79
 -13  -5   4  266.37   50.39
 -13  -5   4  354.46   65.39
  11   5  -4   18.40   16.90
  11   5  -4   -3.50   13.80
  11   5  -4   45.20   21.40
 -11  -5   4    6.70   24.90
 -11  -5   4   20.10   17.20
 -11  -5   4    8.80   12.40
   9   5  -4 1658.33   96.49
   9   5  -4 1709.23  107.39
   9   5  -4 1611.34   96.79
  -9  -5   4 1677.53   99.49
  -9  -5   4 1570.34   98.29
  -9  -5   4 1679.63  108.89
   7   5  -4  626.14   57.69
   7   5  -4  644.24   49.90
  -7  -5   4  645.14   50.49
  -7  -5   4  648.84   50.69
  -7  -5   4  592.54   56.79
   5   5  -4 1514.75   73.89
   5   5  -4 1622.04   92.59
   5   5  -4 1519.15   82.99
  -5  -5   4 1416.16   73.89
  -5  -5   4 1518.05   76.19
  -5  -5   4 1576.64   91.29
   3   5  -4 3850.41  136.19
   3   5  -4 4064.49  137.29
   3   5  -4 3835.12  166.18
  -3  -5   4 3662.83  183.08
  -3  -5   4 3994.00  140.49
  -3  -5   4 4035.10  140.59
  -1  -5   4  303.37   33.30
  -1  -5   4  232.98   13.80
  -1  -5   4  218.08   13.60
  -1  -5   4  236.08   36.40
   1  -5   4 1770.12   92.99
  -3   5  -4 1088.09   36.40
  -3   5  -4 1190.08   74.89
  -3   5  -4 1015.00   36.00
   3  -5   4 1103.09   48.40
   3  -5   4 1019.70   48.20
   3  -5   4 1086.09   70.19
  -5   5  -4   87.69   16.70
  -5   5  -4  181.98   35.50
  -5   5  -4  111.49   18.50
   5  -5   4  108.19   47.90
   5  -5   4  102.29   19.00
   5  -5   4  117.49   20.20
  -7   5  -4  774.42   52.99
  -7   5  -4  811.22   52.59
  -7   5  -4  854.01   69.49
   7  -5   4  902.01   70.99
   7  -5   4  731.93   54.89
   7  -5   4  776.62   55.79
  -9   5  -4  937.41   68.19
  -9   5  -4 1221.98   90.79
  -9   5  -4 1146.39   74.29
   9  -5   4 1095.69   75.29
   9  -5   4 1097.19   84.59
   9  -5   4 1039.80   73.29
 -11   5  -4  400.76   49.10
 -11   5  -4  448.66   68.89
  11  -5   4  343.97   52.59
  11  -5   4  417.96   67.89
 -13   5  -4  272.17   58.89
  13  -5   4  229.68   53.89
  13  -5   4  379.16   58.99
 -15   5  -4   22.60   29.70
 -20  -4   4  182.98   57.69
 -18  -4   4   32.60   33.70
  16   4  -4  388.66   73.89
  16   4  -4  418.96   72.09
 -16  -4   4  389.46   74.29
 -16  -4   4  614.84   73.19
  14   4  -4  313.17   54.89
  14   4  -4  400.46   65.99
 -14  -4   4  357.86   62.89
 -14  -4   4  411.16  101.19
 -14  -4   4  361.86   62.39
  12   4  -4  499.75   56.99
  12   4  -4  553.44   58.09
  12   4  -4  505.35   62.39
 -12  -4   4  472.75   55.49
 -12  -4   4  508.75   61.09
 -12  -4   4  517.75   57.49
  10   4  -4  452.75   50.19
  10   4  -4  455.55   52.79
  10   4  -4  459.15   47.90
 -10  -4   4  433.86   55.69
 -10  -4   4  542.35   54.29
 -10  -4   4  488.95   50.79
   8   4  -4   41.70   18.80
   8   4  -4  109.39   29.30
   8   4  -4   72.89   20.50
  -8  -4   4   40.10   17.80
  -8  -4   4   77.09   25.70
  -8  -4   4   70.29   20.90
   6   4  -4 1134.29   64.79
   6   4  -4 1129.09   66.09
   6   4  -4 1145.29   75.49
  -6  -4   4 1186.58   67.09
  -6  -4   4 1207.08   67.39
  -6  -4   4 1085.59   74.59
   4   4  -4  168.68   19.20
   4   4  -4  126.19   28.00
   4   4  -4  176.58   19.50
  -4  -4   4  184.18   31.90
  -4  -4   4  187.68   21.20
  -4  -4   4  199.78   21.80
   2   4  -4 1195.38   46.20
   2   4  -4 1276.47   46.10
  -2  -4   4 1321.37   75.69
  -2  -4   4 1231.08   50.39
   0  -4   4 1492.55   80.79
  -2   4  -4  122.19   26.70
   2  -4   4  152.68   13.20
   2  -4   4  166.58   29.60
   2  -4   4  141.89   13.20
  -4   4  -4  556.84   50.99
  -4   4  -4  570.04   33.60
  -4   4  -4  594.74   35.60
   4  -4   4  581.24   51.29
   4  -4   4  589.64   37.10
   4  -4   4  559.24   37.00
  -6   4  -4  401.26   46.70
  -6   4  -4  418.16   35.90
  -6   4  -4  418.36   35.40
   6  -4   4  414.56   46.50
   6  -4   4  428.66   37.10
   6  -4   4  369.16   35.30
  -8   4  -4  514.45   44.80
  -8   4  -4  497.75   56.99
  -8   4  -4  506.35   45.30
   8  -4   4  480.05   46.70
   8  -4   4  518.55   46.90
   8  -4   4  504.15   56.39
 -10   4  -4  309.87   54.79
 -10   4  -4  358.16   55.89
 -10   4  -4  266.67   44.20
  10  -4   4  417.96   85.69
  10  -4   4  295.27   53.69
  10  -4   4  397.96   53.19
 -12   4  -4  207.68   49.40
 -12   4  -4  120.29   43.00
  12  -4   4  167.98   38.90
  12  -4   4  189.98   51.09
 -14   4  -4  145.89   47.30
  14  -4   4  122.99   37.90
 -16   4  -4  129.99   48.90
 -19  -3   4  116.69   44.60
 -17  -3   4  630.74   95.19
 -17  -3   4  395.66   68.19
  15   3  -4   19.50   21.40
  15   3  -4   57.49   30.10
  15   3  -4   92.19   35.80
 -15  -3   4   88.29   35.50
 -15  -3   4  105.79   38.40
  13   3  -4  137.79   34.10
  13   3  -4  247.18   52.19
  13   3  -4  163.98   39.80
 -13  -3   4  232.48   47.30
 -13  -3   4  206.68   48.60
  11   3  -4 1106.49   86.89
  11   3  -4 1103.79   80.79
  11   3  -4 1146.19   84.99
 -11  -3   4 1151.98   83.09
 -11  -3   4 1043.20   86.89
 -11  -3   4 1092.69   80.89
   9   3  -4  -15.80   10.00
   9   3  -4    2.00    9.60
   9   3  -4   36.10   16.30
  -9  -3   4    5.20   14.20
  -9  -3   4    5.20   11.60
  -9  -3   4   10.80   11.40
   7   3  -4 2682.13  120.39
   7   3  -4 2797.62  123.39
   7   3  -4 2302.37  124.69
  -7  -3   4 2945.71  135.09
  -7  -3   4 2756.02  122.09
  -7  -3   4 2497.85  119.49
   5   3  -4   18.80   12.50
   5   3  -4   22.10   10.80
   5   3  -4   16.60   10.40
  -5  -3   4   17.90   15.10
  -5  -3   4   16.50   10.80
   3   3  -4 2099.09   81.79
   3   3  -4 2080.79  101.69
   3   3  -4 2032.00   80.79
  -3  -3   4 2093.19   83.19
  -3  -3   4 2261.37  104.49
  -3  -3   4 2121.89   83.29
  -1  -3   4 2662.53  119.79
  -1  -3   4 2704.43  120.69
  -1  -3   4 2652.73   92.29
  -1  -3   4 2887.01   93.39
  -1   3  -4 3001.50   97.19
  -1   3  -4 3206.58  134.49
   1  -3   4 2830.72  128.69
   1  -3   4 3316.27  103.89
   1  -3   4 2766.12  101.79
  -3   3  -4  201.08   19.00
  -3   3  -4  215.28   19.00
   3  -3   4  194.28   20.00
   3  -3   4  222.28   20.50
   3  -3   4  219.08   29.40
  -5   3  -4 1992.00   91.69
  -5   3  -4 2110.89   91.49
  -5   3  -4 2129.89  111.79
   5  -3   4 2086.19   94.49
   5  -3   4 1932.91   92.29
  -7   3  -4  187.08   31.30
  -7   3  -4  171.68   36.40
  -7   3  -4  175.08   29.70
   7  -3   4  170.88   31.00
   7  -3   4  211.98   34.90
   7  -3   4  150.18   32.50
  -9   3  -4  114.79   35.70
  -9   3  -4  152.78   31.80
   9  -3   4   84.49   25.30
   9  -3   4   83.39   24.70
   9  -3   4   98.69   30.70
 -11   3  -4  370.46   66.69
  11  -3   4  354.16   62.59
  11  -3   4  407.36   50.29
 -13   3  -4  -31.50   13.10
  13  -3   4   -8.10    9.70
  13  -3   4  -42.90   24.50
 -15   3  -4  118.39   42.00
  15  -3   4   78.69   31.80
 -20  -2   4   20.10   29.00
 -18  -2   4  350.56   74.69
  16   2  -4  392.36   67.99
  16   2  -4  301.07   62.89
  16   2  -4  313.77   60.09
 -16  -2   4  281.47   59.59
 -16  -2   4  197.18   49.30
 -16  -2   4  394.06   69.99
  14   2  -4  126.09   37.30
  14   2  -4  161.48   50.69
  14   2  -4   94.69   35.40
 -14  -2   4  179.28   47.50
 -14  -2   4  171.88   44.10
  12   2  -4 2468.75  134.79
  12   2  -4 2224.58  131.79
  12   2  -4 2188.78  129.29
 -12  -2   4 2063.89  129.19
 -12  -2   4 1990.00  124.29
  10   2  -4  321.27   39.10
  10   2  -4  318.27   40.80
  10   2  -4  298.37   46.50
 -10  -2   4  281.37   48.70
 -10  -2   4  314.47   40.30
   8   2  -4   49.99   19.50
   8   2  -4   65.19   20.80
   8   2  -4   47.10   17.30
  -8  -2   4   75.99   25.90
  -8  -2   4   33.80   14.20
   6   2  -4 2464.95  112.09
   6   2  -4 2626.14  114.59
   6   2  -4 2689.73  122.79
  -6  -2   4 2522.15  113.89
  -6  -2   4 2574.14  113.99
  -6  -2   4 2831.22  125.99
   4   2  -4  769.82   44.90
   4   2  -4  897.81   57.49
   4   2  -4  749.42   45.60
  -4  -2   4  760.62   53.89
  -4  -2   4  851.21   46.70
  -4  -2   4  820.72   46.50
   2   2  -4 1321.87   54.29
   2   2  -4 1293.87   53.69
  -2  -2   4 1274.57   54.89
  -2  -2   4 1228.28   69.59
  -2  -2   4 1156.18   68.19
  -2  -2   4 1327.37   55.79
   0   2  -4 4808.02  195.48
   0   2  -4 5109.09  170.68
   0   2  -4 5518.45  170.48
   0  -2   4 5504.25  172.98
   0  -2   4 4927.11  195.18
   0  -2   4 5485.05  173.28
  -2   2  -4  585.14   33.90
  -2   2  -4  616.34   49.50
  -2   2  -4  577.94   33.40
   2  -2   4  651.53   36.20
   2  -2   4  650.83   36.10
   2  -2   4  580.44   47.40
  -4   2  -4 1867.31   83.89
  -4   2  -4 2003.30   84.59
  -4   2  -4 1899.71  100.39
   4  -2   4 1857.11   84.89
   4  -2   4 1626.64   94.69
   4  -2   4 1790.52   83.79
  -6   2  -4  983.90   62.69
  -6   2  -4 1160.88   66.09
  -6   2  -4  959.20   74.29
   6  -2   4  973.50   62.79
   6  -2   4 1069.59   76.09
   6  -2   4  901.01   60.99
  -8   2  -4   15.10   14.10
  -8   2  -4   -4.70   11.70
  -8   2  -4   -6.80    9.70
   8  -2   4    8.20   12.60
   8  -2   4   31.00   14.00
   8  -2   4    0.90   11.30
 -10   2  -4 1198.98   86.59
 -10   2  -4 1335.67   99.99
 -10   2  -4 1154.08   83.99
  10  -2   4 1266.07   88.69
  10  -2   4 1093.79   94.59
  10  -2   4 1296.97   89.69
 -12   2  -4  153.78   44.50
 -12   2  -4  130.49   36.20
  12  -2   4  101.79   32.80
  12  -2   4  107.09   38.40
 -14   2  -4   14.40   26.00
  14  -2   4   50.19   30.40
 -16   2  -4  573.14   95.09
  16  -2   4  883.51   91.89
 -19  -1   4   22.20   36.10
  17   1  -4  950.40   93.29
  17   1  -4 1006.60   98.39
 -17  -1   4 1111.99  106.29
 -17  -1   4 1228.48  108.99
  15   1  -4  124.19   36.10
  15   1  -4  177.98   47.20
  15   1  -4  256.67   53.69
 -15  -1   4  195.38   45.80
 -15  -1   4  246.68   52.59
 -15  -1   4  205.68   49.60
  13   1  -4   25.50   19.20
  13   1  -4    8.00    9.90
  13   1  -4   -3.20   11.60
 -13  -1   4    5.30   16.50
 -13  -1   4  -14.30   16.50
 -13  -1   4    9.90   14.80
  11   1  -4 2300.87  126.79
  11   1  -4 2081.49  121.99
  11   1  -4 2247.68  124.09
 -11  -1   4 2054.19  121.39
 -11  -1   4 2415.76  129.39
 -11  -1   4 2357.66  129.79
   9   1  -4  228.98   38.80
   9   1  -4  132.59   29.20
   9   1  -4  188.48   36.10
  -9  -1   4  163.48   36.40
  -9  -1   4  180.88   33.90
  -9  -1   4  242.88   38.50
   7   1  -4 3205.58  136.09
   7   1  -4 2947.10  135.39
   7   1  -4 3171.88  139.39
  -7  -1   4 3100.59  139.09
  -7  -1   4 3168.48  137.19
  -7  -1   4 3134.39  136.59
   5   1  -4 5703.43  219.78
   5   1  -4 6123.39  215.48
  -5  -1   4 6378.66  216.88
  -5  -1   4 5776.22  221.28
  -5  -1   4 5920.41  215.28
   3   1  -4   84.09   15.90
   3   1  -4   86.89   15.80
   3   1  -4   92.19   21.10
  -3  -1   4  103.69   18.10
  -3  -1   4   94.29   17.80
  -3  -1   4   94.89   22.60
   1   1  -4 3731.93  132.19
   1   1  -4 3745.23  133.19
   1   1  -4 3680.43  149.29
  -1  -1   4 3814.82  134.09
  -1  -1   4 3875.51  149.69
  -1  -1   4 3797.62  133.39
  -1   1  -4  479.15   30.50
  -1   1  -4  484.75   40.90
  -1   1  -4  533.45   32.50
   1  -1   4  549.25   33.40
   1  -1   4  462.85   40.80
   1  -1   4  527.25   32.30
  -3   1  -4 1303.77   63.79
  -3   1  -4 1259.87   87.99
  -3   1  -4 1283.67   63.99
   3  -1   4 1192.68   73.39
   3  -1   4 1257.97   64.19
   3  -1   4 1285.57   75.99
  -5   1  -4 3932.71  154.78
  -5   1  -4 3931.31  170.88
  -5   1  -4 3574.64  166.28
   5  -1   4 3868.91  156.38
   5  -1   4 3819.82  155.48
  -7   1  -4  224.58   35.70
  -7   1  -4  204.08   43.60
   7  -1   4  281.37   41.60
   7  -1   4  157.88   35.90
   7  -1   4  237.08   38.20
  -9   1  -4  236.78   41.40
  -9   1  -4  314.17   56.29
   9  -1   4  364.96   43.30
   9  -1   4  304.87   53.19
   9  -1   4  249.08   44.70
 -11   1  -4 1696.43  121.99
 -11   1  -4 1862.31  115.49
  11  -1   4 1645.34  109.69
  11  -1   4 1582.14  117.59
 -13   1  -4  321.67   63.19
 -13   1  -4  365.86   58.49
  13  -1   4  174.08   51.69
  13  -1   4  268.37   52.99
 -15   1  -4  284.57   65.59
  15  -1   4  287.87   59.79
 -17   1  -4  234.98   62.89
  17  -1   4  262.47   60.89
 -20   0   4  251.77   68.49
  18   0  -4  471.85   81.19
 -18   0   4  443.06   78.69
  16   0  -4  217.78   50.49
  16   0  -4  148.09   46.80
 -16   0   4  224.38   52.89
 -16   0   4  298.87   93.69
 -16   0   4  208.98   54.39
  14   0  -4  186.68   44.30
  14   0  -4  137.29   35.10
  14   0  -4  165.78   42.90
 -14   0   4  155.08   42.30
 -14   0   4  211.58   46.10
 -14   0   4  237.38   48.00
  12   0  -4 4412.46  202.08
  12   0  -4 4195.88  197.38
  12   0  -4 4626.74  207.08
 -12   0   4 4239.48  197.98
 -12   0   4 4391.46  203.98
 -12   0   4 4459.85  204.08
  10   0  -4   92.39   26.30
  10   0  -4   76.09   29.90
  10   0  -4   99.09   25.30
 -10   0   4   89.79   25.10
 -10   0   4   50.59   22.30
 -10   0   4   43.30   24.30
   8   0  -4  866.31   59.99
   8   0  -4  842.42   62.69
   8   0  -4  691.93   56.79
  -8   0   4  915.61   63.19
  -8   0   4  822.12   61.09
   6   0  -4 2218.28  105.79
   6   0  -4 2247.18  105.19
   6   0  -4 2455.25  108.09
  -6   0   4 2502.95  108.29
  -6   0   4 2119.09  104.09
  -6   0   4 2181.88  105.49
   4   0  -4 8333.87  273.27
   4   0  -4 6673.03  274.87
   4   0  -4 7941.21  268.27
  -4   0   4 8050.89  272.37
  -4   0   4 7945.71  269.07
  -4   0   4 7738.43  268.47
   2   0  -4  352.26   28.20
  -2   0   4  290.67   26.10
  -2   0   4  402.36   34.70
  -2   0   4  355.86   28.80
   0   0  -4 2315.27  105.89
   0   0  -4 2455.85   97.69
   0   0   4 2568.84   99.09
   0   0   4 2395.06  106.49
   0   0   4 2482.45   98.49
  -2   0  -4 1073.89   66.59
  -2   0  -4 1063.49   57.49
   2   0   4 1098.19   66.99
   2   0   4 1116.89   59.29
   2   0   4 1075.49   58.39
  -4   0  -4 2762.32  119.39
  -4   0  -4 2805.62  130.79
   4   0   4 2718.13  119.49
   4   0   4 2661.13  118.49
   4   0   4 2631.44  127.89
  -6   0  -4 1261.27   85.49
  -6   0  -4 1208.68   74.09
  -6   0  -4 1107.19   72.19
   6   0   4 1190.58   74.59
   6   0   4 1073.89   80.29
   6   0   4 1255.97   76.69
  -8   0  -4  621.34   57.69
  -8   0  -4  740.13   68.79
  -8   0  -4  573.74   55.19
   8   0   4  610.14   56.79
   8   0   4  569.24   60.39
   8   0   4  730.03   60.29
 -10   0  -4 1913.81  116.09
 -10   0  -4 1694.93  120.89
  10   0   4 2175.08  123.69
  10   0   4 1945.41  128.89
  10   0   4 1881.31  116.09
 -12   0  -4   37.30   21.60
 -12   0  -4    0.40   13.20
  12   0   4   -6.20   16.00
  12   0   4   30.00   23.00
 -14   0  -4  341.27   68.99
  14   0   4  410.66   68.39
 -16   0  -4  894.21  102.49
  16   0   4  751.32   90.89
 -21   1   4  -41.60   29.00
  19  -1  -4   21.80   38.10
 -19   1   4    1.00   21.30
  17  -1  -4  960.40   96.89
  17  -1  -4 1080.49   94.59
 -17   1   4  827.42   88.99
 -17   1   4  977.50   96.29
  15  -1  -4  227.88   50.49
  15  -1  -4  200.78   44.60
  15  -1  -4  232.18   50.79
 -15   1   4  158.08   44.60
 -15   1   4  232.58   60.49
 -15   1   4  209.88   46.70
  13  -1  -4   11.90   15.80
  13  -1  -4   19.10   20.80
  13  -1  -4   18.70   16.00
 -13   1   4    7.40   23.20
 -13   1   4    4.20   14.40
 -13   1   4  -15.30    8.60
  11  -1  -4 2241.98  120.89
  11  -1  -4 2189.98  124.29
  11  -1  -4 2267.17  128.39
 -11   1   4 2476.05  124.49
 -11   1   4 2126.29  124.89
 -11   1   4 2399.96  129.09
   9  -1  -4  202.38   36.30
   9  -1  -4  183.28   33.30
  -9   1   4  239.88   37.40
  -9   1   4  157.78   31.90
  -9   1   4  202.68   35.80
   7  -1  -4 2996.40  128.79
   7  -1  -4 3262.37  140.19
   7  -1  -4 2978.70  135.09
  -7   1   4 3044.90  136.79
  -7   1   4 2993.40  129.29
  -7   1   4 2883.91  134.29
   5  -1  -4 6017.60  215.28
   5  -1  -4 6083.89  223.38
   5  -1  -4 5970.50  220.68
  -5   1   4 6126.39  222.78
  -5   1   4 6093.59  216.28
  -5   1   4 5780.52  220.28
   3  -1  -4  113.89   21.70
  -3   1   4  117.79   21.60
  -3   1   4  109.69   20.00
  -3   1   4   83.69   18.40
  -3   1   4   87.99   18.50
   1  -1  -4 3477.65  139.89
   1  -1  -4 3619.54  138.69
   1  -1  -4 3502.25  137.59
  -1   1   4 3723.23  141.19
  -1   1   4 3753.82  139.69
  -1   1   4 3635.84  138.79
  -1  -1  -4  500.95   40.60
  -1  -1  -4  531.25   38.80
  -1  -1  -4  513.15   37.80
   1   1   4  486.05   41.90
   1   1   4  507.35   37.80
   1   1   4  523.85   38.60
  -3  -1  -4 1131.99   67.19
  -3  -1  -4 1334.17   71.69
   3   1   4 1242.08   69.99
   3   1   4 1229.88   69.79
   3   1   4 1289.17   75.69
  -5  -1  -4 4114.99  179.38
  -5  -1  -4 3963.30  168.88
   5   1   4 4039.50  172.98
   5   1   4 4208.88  179.68
   5   1   4 3940.91  168.88
  -7  -1  -4  165.08   33.00
  -7  -1  -4  264.87   48.10
   7   1   4  198.88   37.30
   7   1   4  178.58   37.70
   7   1   4  214.58   40.60
  -9  -1  -4  282.57   52.19
  -9  -1  -4  369.56   46.20
  -9  -1  -4  349.17   45.50
   9   1   4  329.57   54.29
   9   1   4  385.06   61.89
   9   1   4  251.87   45.80
 -11  -1  -4 1625.54  136.89
 -11  -1  -4 1593.44  110.49
  11   1   4 1848.92  119.29
  11   1   4 1646.24  127.39
 -13  -1  -4  432.16   73.99
 -13  -1  -4  491.25   74.29
  13   1   4  383.66   66.39
 -15  -1  -4  304.87   69.29
  15   1   4  199.58   55.79
 -17  -1  -4  207.28   65.39
  17   1   4  274.17   61.89
  20  -2  -4  112.69   44.60
 -20   2   4    8.50   34.60
  18  -2  -4  306.27   60.69
  18  -2  -4  342.67   67.09
 -18   2   4  293.87   62.49
 -18   2   4  337.27   67.39
  16  -2  -4  464.05   73.49
  16  -2  -4  344.37   57.99
 -16   2   4  298.37   58.69
 -16   2   4  404.56   64.79
  14  -2  -4   55.09   27.80
  14  -2  -4   90.39   31.70
  14  -2  -4  132.99   36.20
 -14   2   4  121.89   35.10
 -14   2   4  172.08   44.20
 -14   2   4   85.29   35.30
  12  -2  -4 2163.78  129.99
  12  -2  -4 2220.58  119.89
  12  -2  -4 2143.69  127.19
 -12   2   4 2111.49  118.89
 -12   2   4 2140.39  127.59
 -12   2   4 1996.00  123.29
  10  -2  -4  297.67   36.30
  10  -2  -4  300.37   48.50
 -10   2   4  304.97   48.90
 -10   2   4  293.77   48.00
 -10   2   4  327.97   38.00
   8  -2  -4   55.29   20.30
   8  -2  -4   40.70   17.20
   8  -2  -4   17.70   12.80
  -8   2   4   55.29   18.70
  -8   2   4   62.39   21.70
  -8   2   4   35.60   16.20
   6  -2  -4 2734.93  123.49
   6  -2  -4 2741.33  125.29
   6  -2  -4 2580.54  110.29
  -6   2   4 2503.45  109.89
  -6   2   4 2618.84  122.89
  -6   2   4 2805.82  124.49
   4  -2  -4  730.63   51.69
   4  -2  -4  815.22   53.19
  -4   2   4  797.12   53.09
  -4   2   4  815.62   46.90
  -4   2   4  728.43   51.39
   2  -2  -4 1276.87   68.29
   2  -2  -4 1259.07   63.89
   2  -2  -4 1288.37   68.79
  -2   2   4 1286.37   63.79
  -2   2   4 1381.36   70.49
  -2   2   4 1382.16   70.49
   0  -2  -4 5273.27  196.48
   0  -2  -4 5106.29  195.98
   0  -2  -4 5403.86  195.38
   0   2   4 5140.29  196.18
   0   2   4 5577.94  198.78
   0   2   4 5501.15  196.08
  -2  -2  -4  603.24   47.10
  -2  -2  -4  542.05   44.40
  -2  -2  -4  605.14   45.70
   2   2   4  608.34   46.90
   2   2   4  631.24   46.50
   2   2   4  637.74   47.20
  -4  -2  -4 2135.09  108.59
  -4  -2  -4 1789.52   97.39
  -4  -2  -4 1856.61   98.19
   4   2   4 2040.80  104.79
   4   2   4 1923.11  103.89
   4   2   4 1945.61  101.09
  -6  -2  -4  960.80   70.99
  -6  -2  -4 1114.59   80.39
   6   2   4  978.10   75.29
   6   2   4  988.80   72.59
   6   2   4  994.30   72.09
  -8  -2  -4   19.20   17.30
  -8  -2  -4    8.80   12.50
  -8  -2  -4   17.00   16.90
   8   2   4   52.99   20.60
   8   2   4  -14.90    9.90
   8   2   4   -4.90    8.50
 -10  -2  -4 1258.67  103.79
 -10  -2  -4 1213.28   94.19
 -10  -2  -4 1279.47   94.59
  10   2   4 1298.57   96.69
  10   2   4 1080.09   88.69
  10   2   4 1288.47  105.19
 -12  -2  -4  120.39   36.80
 -12  -2  -4  104.79   37.00
  12   2   4   78.99   34.30
  12   2   4  151.28   43.30
 -14  -2  -4  -17.20   18.70
 -14  -2  -4   -6.60   25.60
  14   2   4    4.80   32.00
 -16  -2  -4  505.35   93.69
  16   2   4  596.84   90.69
  19  -3  -4  113.89   41.80
 -19   3   4  109.49   45.30
  17  -3  -4  348.57   68.69
  17  -3  -4  443.36   70.39
 -17   3   4  419.66   71.09
 -17   3   4  360.76   62.99
  15  -3  -4   57.29   25.90
  15  -3  -4  113.19   39.50
 -15   3   4  112.79   35.20
 -15   3   4   52.29   20.50
 -15   3   4   75.69   31.90
  13  -3  -4  127.09   36.00
  13  -3  -4  175.88   36.40
  13  -3  -4  190.38   46.70
 -13   3   4  231.88   43.70
 -13   3   4  206.38   46.80
 -13   3   4  198.28   45.60
  11  -3  -4 1153.58   74.89
  11  -3  -4 1096.89   83.59
 -11   3   4 1084.39   84.09
 -11   3   4 1200.38   87.49
 -11   3   4 1101.79   74.79
   9  -3  -4   41.70   18.60
   9  -3  -4   -1.50    9.00
  -9   3   4   -5.80   11.30
  -9   3   4    3.50   10.00
  -9   3   4   -4.30   10.80
   7  -3  -4 2648.24  128.79
   7  -3  -4 2666.83  108.99
   7  -3  -4 2570.54  125.19
  -7   3   4 2444.46  106.79
  -7   3   4 2540.75  124.59
  -7   3   4 2453.65  123.69
   5  -3  -4   31.90   15.10
   5  -3  -4   16.30    8.60
   5  -3  -4   29.50   14.60
  -5   3   4   12.00   11.20
  -5   3   4   19.70   10.40
  -5   3   4   10.80   10.00
   3  -3  -4 2219.48  103.69
   3  -3  -4 2110.29  101.99
  -3   3   4 2238.58  103.49
  -3   3   4 2105.99   88.19
  -3   3   4 2188.98  103.59
   1  -3  -4 2845.42  121.19
   1  -3  -4 2744.43  110.59
   1  -3  -4 2716.23  119.99
  -1   3   4 2685.33  109.89
  -1   3   4 2577.74  118.19
  -1   3   4 2750.52  120.29
  -1  -3  -4 3057.29  134.49
  -1  -3  -4 3069.59  135.19
  -1  -3  -4 3143.09  131.59
   1   3   4 3123.09  135.99
   1   3   4 3234.58  136.69
   1   3   4 3186.28  132.09
  -3  -3  -4  246.38   31.50
  -3  -3  -4  242.98   31.00
  -3  -3  -4  249.28   37.90
   3   3   4  197.78   34.50
   3   3   4  174.58   33.70
   3   3   4  206.68   34.80
  -5  -3  -4 1794.32  107.69
  -5  -3  -4 2136.69  111.19
  -5  -3  -4 1884.51  106.69
   5   3   4 2132.49  112.19
   5   3   4 2121.89  111.79
   5   3   4 2085.69  113.49
  -7  -3  -4  201.98   39.10
  -7  -3  -4  213.38   41.70
  -7  -3  -4  203.18   38.90
   7   3   4  144.29   35.70
   7   3   4  172.98   37.30
   7   3   4  136.09   35.00
  -9  -3  -4  108.19   34.60
  -9  -3  -4  139.89   38.10
  -9  -3  -4  167.08   37.80
   9   3   4  149.69   37.20
   9   3   4   81.39   37.80
   9   3   4   68.39   29.00
 -11  -3  -4  477.65   72.79
 -11  -3  -4  328.87   60.99
 -11  -3  -4  523.35   65.29
  11   3   4  456.75   59.49
  11   3   4  384.06   64.79
 -13  -3  -4   21.50   24.30
 -13  -3  -4  -39.30   20.00
  13   3   4    5.00   16.60
 -15  -3  -4  103.89   42.10
  15   3   4  139.89   43.70
  20  -4  -4  126.89   49.99
  18  -4  -4  114.99   45.90
 -18   4   4   87.19   42.00
 -18   4   4   26.10   29.90
  16  -4  -4  448.96   76.89
  16  -4  -4  509.35   61.29
 -16   4   4  495.05   60.19
  14  -4  -4  352.16   69.99
  14  -4  -4  311.27   59.99
  14  -4  -4  359.16   48.10
 -14   4   4  439.46   56.99
 -14   4   4  318.97   52.59
 -14   4   4  351.76   59.79
  12  -4  -4  483.05   47.60
  12  -4  -4  537.65   58.89
 -12   4   4  457.45   54.99
 -12   4   4  532.45   58.09
 -12   4   4  515.45   50.79
  10  -4  -4  438.96   39.60
  10  -4  -4  462.55   52.19
  10  -4  -4  384.76   49.70
 -10   4   4  378.46   38.80
 -10   4   4  397.86   47.70
 -10   4   4  425.86   50.19
   8  -4  -4   62.09   21.70
   8  -4  -4   64.69   21.60
   8  -4  -4   87.79   18.40
  -8   4   4   60.09   21.60
  -8   4   4   84.19   19.70
  -8   4   4  102.19   25.50
   6  -4  -4 1097.89   74.89
   6  -4  -4 1200.08   78.39
   6  -4  -4 1192.28   57.19
  -6   4   4 1156.68   56.39
  -6   4   4 1272.47   78.49
  -6   4   4 1161.18   75.49
   4  -4  -4  149.88   29.20
   4  -4  -4  160.48   30.90
  -4   4   4  153.28   29.00
  -4   4   4  151.38   17.00
  -4   4   4  139.99   27.80
  -4   4   4  169.78   17.50
   2  -4  -4 1267.17   59.59
   2  -4  -4 1194.58   72.19
   2  -4  -4 1345.27   75.19
  -2   4   4 1251.87   73.29
  -2   4   4 1106.59   57.29
  -2   4   4 1236.18   73.39
   0  -4  -4 1533.35   76.99
   0  -4  -4 1516.45   85.79
   0  -4  -4 1702.73   88.69
   0   4   4 1546.45   85.69
   0   4   4 1723.33   90.49
   0   4   4 1577.84   77.69
  -2  -4  -4  139.59   27.90
  -2  -4  -4  163.18   30.80
  -2  -4  -4  171.58   32.20
   2   4   4  156.78   29.50
   2   4   4  152.58   29.30
   2   4   4  124.29   28.30
  -4  -4  -4  550.34   51.29
  -4  -4  -4  590.34   52.29
  -4  -4  -4  479.95   48.20
   4   4   4  518.95   51.29
   4   4   4  581.64   53.19
  -6  -4  -4  469.25   54.39
  -6  -4  -4  443.16   49.60
  -6  -4  -4  480.25   50.69
   6   4   4  461.85   53.59
   6   4   4  461.95   52.39
   6   4   4  433.76   48.60
  -8  -4  -4  469.65   55.09
  -8  -4  -4  412.26   55.19
  -8  -4  -4  439.26   53.59
   8   4   4  513.45   59.69
   8   4   4  554.04   58.89
   8   4   4  485.45   58.59
 -10  -4  -4  307.97   58.49
 -10  -4  -4  304.77   91.89
 -10  -4  -4  319.47   56.09
  10   4   4  393.46   63.49
  10   4   4  293.97   54.79
  10   4   4  380.76   77.99
 -12  -4  -4  251.17   54.99
 -12  -4  -4  276.97   60.69
  12   4   4  139.19   45.80
 -14  -4  -4  128.09   46.60
 -14  -4  -4  323.17   69.29
  14   4   4  186.58   50.99
 -16  -4  -4   50.19   39.50
  19  -5  -4    9.30   29.10
  17  -5  -4  121.69   39.30
 -17   5   4  124.59   36.80
 -17   5   4   66.99   41.70
  15  -5  -4   65.39   36.50
  15  -5  -4  108.39   33.90
 -15   5   4   67.39   33.20
 -15   5   4  124.19   35.00
  13  -5  -4  237.88   49.30
  13  -5  -4  313.47   40.40
 -13   5   4  258.97   52.19
 -13   5   4  228.58   48.60
 -13   5   4  296.07   44.80
  11  -5  -4   -9.00   14.50
  11  -5  -4    6.80   12.70
  11  -5  -4   39.90   16.50
 -11   5   4   13.40   18.80
 -11   5   4   16.50   19.70
 -11   5   4    9.00   16.10
   9  -5  -4 1822.42  107.19
   9  -5  -4 1595.14   78.79
   9  -5  -4 1704.43  106.69
  -9   5   4 1642.54  103.39
  -9   5   4 1761.02  106.69
  -9   5   4 1630.24   79.69
   7  -5  -4  576.34   55.09
   7  -5  -4  599.14   35.90
   7  -5  -4  630.94   56.99
  -7   5   4  576.74   55.09
  -7   5   4  578.74   35.80
  -7   5   4  652.23   57.69
   5  -5  -4 1381.86   86.09
   5  -5  -4 1345.57   84.29
  -5   5   4 1544.65   88.39
  -5   5   4 1421.76   58.89
  -5   5   4 1468.85   59.19
  -5   5   4 1436.36   86.89
   3  -5  -4 4107.49  170.58
   3  -5  -4 4010.40  169.08
  -3   5   4 3698.13  165.28
  -3   5   4 4110.39  139.29
  -3   5   4 3820.12  167.98
   1  -5  -4  196.18   34.50
   1  -5  -4  254.67   25.90
   1  -5  -4  289.17   35.50
  -1   5   4  223.38   36.10
  -1   5   4  221.78   36.00
  -1   5   4  286.37   26.60
  -1  -5  -4 1590.44   94.69
  -1  -5  -4 1724.13   87.59
  -1  -5  -4 1736.43   97.69
   1   5   4 1794.22   88.39
   1   5   4 1899.71  100.89
   1   5   4 1733.43   96.89
  -3  -5  -4 1046.60   73.69
  -3  -5  -4  995.10   72.99
  -3  -5  -4  932.91   66.19
   3   5   4 1093.49   71.59
   3   5   4  890.01   70.19
   3   5   4  895.81   69.29
  -5  -5  -4  101.19   30.10
  -5  -5  -4  124.79   31.80
  -5  -5  -4   86.39   26.40
   5   5   4  154.08   34.30
   5   5   4  186.98   38.50
   5   5   4  122.19   30.00
  -7  -5  -4  785.52   70.59
  -7  -5  -4  896.81   77.99
  -7  -5  -4  856.81   87.59
   7   5   4  659.73   66.29
   7   5   4  728.53   67.79
   7   5   4  670.63   67.09
  -9  -5  -4 1119.09  108.59
  -9  -5  -4  964.70   87.29
  -9  -5  -4 1004.20   92.99
   9   5   4 1118.79   95.79
   9   5   4  939.51   84.99
   9   5   4 1139.99   97.39
 -11  -5  -4  378.86   66.69
 -11  -5  -4  474.45  113.19
 -11  -5  -4  295.27   63.59
  11   5   4  382.46   70.19
  11   5   4  343.47   62.09
 -13  -5  -4  470.25   83.99
  13   5   4  321.47   67.79
 -15  -5  -4   63.39   36.70
  18  -6  -4  -10.00   31.10
  16  -6  -4  129.59   41.10
 -16   6   4  173.78   42.70
 -14   6   4  921.41   71.29
  12  -6  -4   16.30   13.90
  12  -6  -4  -16.30   10.20
  12  -6  -4   43.60   21.20
 -12   6   4    8.40   16.20
 -12   6   4   23.40   14.50
  10  -6  -4  311.47   52.79
  10  -6  -4  336.17   30.70
  10  -6  -4  312.17   51.69
 -10   6   4  317.27   51.49
 -10   6   4  388.56   58.29
 -10   6   4  258.07   29.70
   8  -6  -4  261.77   21.90
   8  -6  -4  221.28   41.80
   8  -6  -4  301.67   49.70
  -8   6   4  276.27   23.70
  -8   6   4  216.58   40.50
  -8   6   4  276.57   46.90
   6  -6  -4   12.50   13.40
   6  -6  -4   19.00   16.70
  -6   6   4   10.10    4.70
  -6   6   4    0.50    9.20
  -6   6   4    7.70   14.00
   4  -6  -4 2093.29  111.79
   4  -6  -4 2101.29  113.39
  -4   6   4 2102.89  111.09
  -4   6   4 2083.29  113.59
  -4   6   4 2073.19   75.89
  -4   6   4 2072.59   74.69
   2  -6  -4  996.90   71.99
   2  -6  -4  886.21   47.30
   2  -6  -4  918.11   67.39
  -2   6   4  885.31   66.39
  -2   6   4  938.61   68.59
  -2   6   4  951.80   48.40
   0  -6  -4  740.93   47.60
   0  -6  -4  711.93   61.49
   0  -6  -4  838.42   63.19
   0   6   4  608.94   54.29
   0   6   4  649.64   46.70
   0   6   4  657.03   57.09
  -2  -6  -4 4251.17  176.68
  -2  -6  -4 4073.39  209.08
  -2  -6  -4 4447.35  190.78
   2   6   4 4417.66  178.38
   2   6   4 4450.45  191.68
   2   6   4 4126.79  186.28
  -4  -6  -4   24.40   20.40
  -4  -6  -4    6.30   15.30
  -4  -6  -4   12.60   21.90
   4   6   4   18.50   18.70
   4   6   4   71.09   23.60
   4   6   4   14.70   14.40
  -6  -6  -4   64.69   27.10
  -6  -6  -4   59.49   27.40
  -6  -6  -4  122.89   33.10
   6   6   4   63.19   23.70
   6   6   4   77.09   27.80
   6   6   4   44.30   22.10
  -8  -6  -4 2002.50  127.69
  -8  -6  -4 1848.12  125.09
  -8  -6  -4 2032.10  127.79
   8   6   4 1747.83  121.49
   8   6   4 1720.03  121.29
 -10  -6  -4    0.50   24.90
 -10  -6  -4   10.20   18.80
 -10  -6  -4   -2.20   19.60
  10   6   4   42.00   26.70
  10   6   4   16.60   21.10
  10   6   4  -46.50   16.40
 -12  -6  -4  175.08   51.99
  12   6   4  342.87   68.49
 -14  -6  -4  218.78   63.49
  19  -7  -4  318.17   68.79
  17  -7  -4   67.09   34.90
  15  -7  -4 1342.17  110.49
 -15   7   4  960.10   93.19
  13  -7  -4  156.08   42.70
 -13   7   4  217.48   42.00
  11  -7  -4    8.10   23.00
  11  -7  -4    7.80   10.80
  11  -7  -4   38.90   21.90
 -11   7   4   30.50   14.20
 -11   7   4   23.60   17.10
 -11   7   4   -6.10   21.60
   9  -7  -4 2149.48  126.79
   9  -7  -4 1924.11  119.09
   9  -7  -4 2010.00   77.99
  -9   7   4 1863.71   76.19
  -9   7   4 1810.02  116.29
   7  -7  -4  226.88   41.00
   7  -7  -4  112.89   34.70
  -7   7   4  163.38   44.60
  -7   7   4  223.28   41.60
   5  -7  -4   21.20   16.30
   5  -7  -4   39.50   18.90
  -5   7   4   62.59   20.90
  -5   7   4    9.00   12.80
   3  -7  -4 3373.26  157.38
   3  -7  -4 3336.37  158.88
  -3   7   4 3371.86  159.28
  -3   7   4 3452.45  158.98
  -3   7   4 3289.17  116.39
   1  -7  -4  181.78   35.40
   1  -7  -4  176.68   34.30
   1  -7  -4  208.88   23.30
  -1   7   4  240.38   44.80
  -1   7   4  203.08   24.70
  -1  -7  -4  770.82   64.49
  -1  -7  -4  782.82   54.59
  -1  -7  -4  712.43   63.79
   1   7   4  733.73   65.39
   1   7   4  688.73   71.19
   1   7   4  777.92   54.79
  -3  -7  -4  891.61   75.79
  -3  -7  -4 1047.60   71.49
  -3  -7  -4 1072.19   80.29
   3   7   4  989.30   79.09
   3   7   4  963.70   89.49
  -5  -7  -4  281.97   47.70
  -5  -7  -4  240.98   46.20
  -5  -7  -4  253.27   47.00
   5   7   4  288.97   49.99
   5   7   4  353.36   54.69
   5   7   4  280.67   50.39
  -7  -7  -4  222.88   47.50
  -7  -7  -4  147.59   38.50
  -7  -7  -4  201.78   44.70
   7   7   4  145.09   40.00
   7   7   4  129.29   38.70
   7   7   4  140.19   41.80
  -9  -7  -4   84.69   34.90
  -9  -7  -4   70.99   30.70
  -9  -7  -4   88.79   32.40
   9   7   4   69.29   28.70
   9   7   4   78.09   37.30
   9   7   4   66.59   28.90
 -11  -7  -4  157.08   43.60
  11   7   4  115.99   44.90
 -13  -7  -4  666.33  102.09
 -15  -7  -4  -43.70   36.30
  18  -8  -4   -8.60   30.80
  16  -8  -4  -12.10   23.50
 -14   8   4  740.53   78.59
  12  -8  -4  167.88   52.49
 -12   8   4   99.89   31.70
  10  -8  -4  541.65   60.89
  10  -8  -4  463.85   59.89
 -10   8   4  491.45   60.99
 -10   8   4  454.15   26.40
 -10   8   4  350.36   58.49
   8  -8  -4 1397.56   98.59
   8  -8  -4 1250.17   92.79
  -8   8   4 1166.78   88.09
   6  -8  -4  509.75   54.09
   6  -8  -4  422.06   52.39
  -6   8   4  478.65   51.89
   4  -8  -4 2293.07  126.89
   4  -8  -4 2157.38  121.69
  -4   8   4 2164.38  130.89
  -4   8   4 2207.48  122.49
   2  -8  -4  517.55   54.59
   2  -8  -4  488.25   31.60
   2  -8  -4  478.15   50.09
  -2   8   4  527.75   53.49
  -2   8   4  450.35   48.90
  -2   8   4  467.45   31.40
   0  -8  -4  360.36   45.90
   0  -8  -4  428.16   37.40
   0  -8  -4  421.96   48.20
   0   8   4  424.46   48.20
   0   8   4  425.96   50.59
   0   8   4  412.76   37.80
  -2  -8  -4 2648.73  143.09
  -2  -8  -4 2576.44  143.09
  -2  -8  -4 2635.54  125.29
   2   8   4 2471.95  138.09
   2   8   4 2672.63  144.39
   2   8   4 2755.32  127.69
  -4  -8  -4   26.30   20.50
  -4  -8  -4   22.70   18.50
  -4  -8  -4   36.10   20.80
   4   8   4   23.40   19.80
   4   8   4   30.90   21.10
   4   8   4    3.30   18.90
  -6  -8  -4    6.00   19.00
  -6  -8  -4   33.30   22.00
  -6  -8  -4   21.60   22.40
   6   8   4    5.90   19.90
   6   8   4   24.00   19.40
   6   8   4   17.80   24.40
  -8  -8  -4 2413.76  147.99
  -8  -8  -4 2519.25  153.98
   8   8   4 2244.38  144.79
   8   8   4 2276.87  148.69
   8   8   4 2390.76  151.08
 -10  -8  -4  294.57   58.39
 -10  -8  -4  265.37   58.39
  10   8   4  423.86   71.89
 -12  -8  -4  160.88   53.89
 -14  -8  -4  738.13   98.89
  17  -9  -4  166.68   51.69
  13  -9  -4  168.88   44.90
  11  -9  -4  146.69   42.00
 -11   9   4  165.18   40.50
   9  -9  -4 1705.53  116.99
  -9   9   4 1571.24  108.49
   7  -9  -4    1.70   16.90
  -7   9   4   21.60   19.40
  -7   9   4   54.39   24.80
   5  -9  -4   10.90   14.60
  -5   9   4    2.60   15.50
  -5   9   4   29.40   22.90
   3  -9  -4 2840.92  153.38
   3  -9  -4 3119.59  155.08
  -3   9   4 2948.51  151.48
   1  -9  -4  408.96   49.00
   1  -9  -4  542.35   56.69
   1  -9  -4  493.25   36.00
  -1   9   4  462.45   35.90
  -1   9   4  426.16   49.70
  -1   9   4  465.15   52.99
  -1  -9  -4  755.92   70.59
  -1  -9  -4  772.02   72.29
   1   9   4  795.22   71.79
   1   9   4  700.23   55.39
   1   9   4  730.83   67.89
  -3  -9  -4  965.00   85.79
  -3  -9  -4 1103.99   76.79
  -3  -9  -4  966.60   83.29
   3   9   4 1201.88   90.09
   3   9   4 1074.49   77.49
   3   9   4 1038.40   87.49
  -5  -9  -4  128.39   34.20
  -5  -9  -4   95.69   32.80
  -5  -9  -4   75.39   31.00
   5   9   4  147.39   37.40
   5   9   4  100.39   34.90
   5   9   4  142.49   38.70
  -7  -9  -4  950.70   89.69
  -7  -9  -4  653.03   72.49
   7   9   4  681.93   74.99
   7   9   4  820.12   83.19
  -9  -9  -4   46.40   29.80
  -9  -9  -4  160.18   43.10
   9   9   4  124.79   45.30
 -11  -9  -4  208.68   56.99
 -13  -9  -4  798.72   96.79
  14 -10  -4  982.20   98.09
  12 -10  -4   -5.90   25.40
  10 -10  -4  309.27   57.99
 -10  10   4  286.87   53.29
   8 -10  -4  993.20   92.49
  -8  10   4  887.51   78.49
   6 -10  -4  -15.20    8.00
  -6  10   4   17.70   20.00
  -6  10   4   -9.20   14.80
   4 -10  -4  578.54   61.79
   4 -10  -4  693.73   68.89
  -4  10   4  775.12   72.79
  -4  10   4  703.93   66.19
   2 -10  -4  116.89   35.30
   2 -10  -4  118.29   14.60
   2 -10  -4   93.09   30.90
  -2  10   4   80.89   25.50
  -2  10   4   83.69   14.50
   0 -10  -4   38.00   15.30
   0 -10  -4   35.60   23.10
   0 -10  -4   49.50   28.40
   0  10   4   27.10   22.20
   0  10   4   30.90   16.20
   0  10   4   36.80   20.80
  -2 -10  -4 1759.22  120.19
  -2 -10  -4 1910.71  101.79
   2  10   4 1854.71  121.09
   2  10   4 1760.22  117.19
   2  10   4 1620.14  101.09
  -4 -10  -4  244.38   44.20
  -4 -10  -4  239.08   50.69
   4  10   4  218.68   44.70
   4  10   4  183.88   44.10
  -6 -10  -4   35.10   32.90
  -6 -10  -4   34.60   24.30
   6  10   4   15.80   16.50
   6  10   4   45.60   29.40
  -8 -10  -4 1094.49   99.29
  -8 -10  -4  851.11   84.19
   8  10   4 1018.90   93.49
   8  10   4  750.42  115.19
 -10 -10  -4   53.29   33.70
 -12 -10  -4  122.29   44.10
  13 -11  -4  153.08   49.40
  11 -11  -4   -5.00   23.10
   9 -11  -4  855.71   83.69
  -9  11   4  605.24   78.79
   7 -11  -4  225.38   48.70
  -7  11   4  156.58   38.70
  -5  11   4  143.59   35.70
   3 -11  -4  788.62   78.09
  -3  11   4  944.51   92.89
   1 -11  -4   38.70   25.70
  -1  11   4   15.80   18.40
  -1 -11  -4  639.54   52.29
  -1 -11  -4  775.12   76.29
   1  11   4  655.73   70.19
  -3 -11  -4 1013.90   92.39
  -3 -11  -4 1122.69   78.79
   3  11   4 1116.59   85.09
  -5 -11  -4   20.30   18.50
  -5 -11  -4   61.79   26.00
   5  11   4  111.49   35.60
   5  11   4   65.49   26.20
  -7 -11  -4  639.14   77.99
   7  11   4  616.44   97.89
   7  11   4  578.14   71.39
  -9 -11  -4   48.40   33.20
  -9 -11  -4   63.89   37.90
 -11 -11  -4   30.20   31.70
  14 -12  -4  115.19   40.00
  12 -12  -4   33.50   32.00
  10 -12  -4  239.48   52.49
   8 -12  -4  633.44   75.09
   6 -12  -4  541.05   65.49
  -6  12   4  351.06   69.69
   4 -12  -4  365.56   62.39
  -4  12   4  277.47   51.89
   2 -12  -4  504.95   64.59
  -2  12   4  396.36   66.09
   0 -12  -4   67.59   29.10
   0  12   4   23.50   18.10
  -2 -12  -4  266.17   56.49
   2  12   4  291.47   56.59
  -4 -12  -4  185.58   52.19
   4  12   4  168.58   45.30
  -6 -12  -4   38.00   31.30
  -6 -12  -4   96.19   35.80
   6  12   4   46.20   33.70
  -8 -12  -4  122.19   42.30
  -8 -12  -4  115.69   47.00
 -10 -12  -4  157.38   41.10
  11 -13  -4  175.08   45.10
   9 -13  -4   41.80   28.00
   7 -13  -4  140.39   40.00
   5 -13  -4  177.08   46.60
   3 -13  -4  -16.20   26.10
   1 -13  -4  230.58   49.90
  -1 -13  -4  162.78   47.80
  -3 -13  -4   76.49   34.20
  -5 -13  -4  421.06   74.59
  -7 -13  -4  -22.80   35.60
  10 -14  -4   -6.10   21.60
   8 -14  -4   96.59   38.60
   6 -14  -4  803.72   87.09
   4 -14  -4   24.00   26.90
   2 -14  -4  142.79   46.80
   0 -14  -4  246.18   60.19
  -2 -14  -4  109.79   42.20
  -4 -14  -4  271.37   61.69
  -6 -14  -4  201.98   55.89
   7 -15  -4  279.47   58.39
   5 -15  -4  121.09   51.79
   3 -15  -4   66.39   27.90
   1 -15  -4  481.05   83.29
  -1 -15  -4   27.90   39.10
  -3 -15  -4   29.90   32.20
  -7 -15   5  146.69   37.10
  -5 -15   5   -6.70   20.50
  -3 -15   5  124.89   36.30
   1 -15   5   33.90   14.50
 -10 -14   5   71.79   31.60
  -6 -14   5  250.47   45.30
  -4 -14   5  173.78   33.20
  -2 -14   5   16.40   14.50
   0 -14   5  123.99   23.60
   2 -14   5  261.47   25.10
   4 -14   5  132.89   17.10
 -11 -13   5  139.39   47.60
  -9 -13   5   52.29   30.10
  -9 -13   5   65.09   25.20
  -7 -13   5  385.66   67.89
  -7 -13   5  385.36   47.70
  -5 -13   5  180.88   34.80
  -5 -13   5  240.48   49.50
   3  13  -5  499.05   31.90
  -1 -13   5  314.27   33.50
   1 -13   5  185.98   22.50
   1 -13   5  197.08   22.10
   3 -13   5  142.59   16.60
   5 -13   5  303.97   25.40
   7 -13   5  138.89   21.80
 -14 -12   5  183.68   54.29
 -12 -12   5  438.26   71.39
 -12 -12   5  667.43   84.19
  10  12  -5  211.28   52.29
 -10 -12   5  224.28   52.09
 -10 -12   5  230.28   45.60
   8  12  -5  126.99   41.90
  -8 -12   5  279.97   46.80
  -8 -12   5  227.28   53.49
   6  12  -5  307.87   59.39
  -6 -12   5  455.75   60.59
  -6 -12   5  576.84   54.19
   4  12  -5  583.44   41.50
  -4 -12   5  722.93   71.99
  -4 -12   5  630.84   52.79
  -2 -12   5   -7.00   10.60
  -2 -12   5  -20.50   10.90
  -2 -12   5   25.80   12.00
   0 -12   5  563.64   38.20
   0 -12   5  443.06   54.59
   0 -12   5  525.55   36.20
   2 -12   5  416.26   27.20
   2 -12   5  377.66   26.90
   4 -12   5  263.57   33.40
   4 -12   5  330.17   24.90
   6 -12   5   22.20   11.10
   8 -12   5  383.36   37.20
 -15 -11   5  178.68   56.09
 -15 -11   5  339.17   71.49
 -13 -11   5  -15.10   20.50
 -13 -11   5  -49.00   17.30
  11  11  -5  154.28   47.30
 -11 -11   5  102.79   30.40
 -11 -11   5  137.79   46.20
   9  11  -5  523.65   68.19
  -9 -11   5  548.55   71.39
  -9 -11   5  624.14   62.79
   7  11  -5  131.99   40.00
   7  11  -5   83.39   24.50
  -7 -11   5  152.18   33.10
  -7 -11   5  170.68   43.00
   5  11  -5   20.50   13.70
   5  11  -5   13.40   11.00
   5  11  -5   13.90   21.70
  -5 -11   5   19.10   16.60
  -5 -11   5   51.99   23.40
  -5 -11   5    0.30   12.80
   3  11  -5  297.27   23.30
  -3 -11   5  241.08   29.30
  -3 -11   5  294.77   50.89
  -3 -11   5  336.97   33.70
  -1 -11   5  683.83   44.20
  -1 -11   5  794.22   45.00
  -1 -11   5  668.53   64.49
  -1 -11   5  680.83   64.69
   1 -11   5    0.50   18.00
   1 -11   5    7.30   20.40
   3 -11   5   12.50    6.60
   3 -11   5   -7.90   12.90
   3 -11   5   31.00    7.60
   5 -11   5  775.32   43.20
   7 -11   5  200.18   25.60
   9 -11   5   -9.60   13.80
 -16 -10   5   17.80   34.10
 -16 -10   5   42.40   33.40
 -14 -10   5   31.60   33.90
 -14 -10   5   69.79   40.90
  12  10  -5  315.77   81.49
 -12 -10   5  306.87   56.29
 -12 -10   5  444.56   73.49
  10  10  -5   54.19   24.70
  10  10  -5  107.39   40.10
 -10 -10   5   56.79   25.20
 -10 -10   5   15.50   19.20
   8  10  -5   32.10   15.80
   8  10  -5   50.39   28.90
  -8 -10   5   30.70   20.40
  -8 -10   5   41.10   30.40
   6  10  -5  316.37   41.70
   6  10  -5  434.66   41.80
   6  10  -5  444.56   57.49
  -6 -10   5  443.46   67.09
  -6 -10   5  406.26   41.20
  -6 -10   5  438.46   44.20
   4  10  -5  422.46   34.20
   4  10  -5  518.55   57.69
   4  10  -5  494.55   34.50
  -4 -10   5  482.35   54.79
  -4 -10   5  445.56   39.60
  -4 -10   5  398.26   38.00
  -2 -10   5   95.59   18.20
  -2 -10   5   98.19   30.90
  -2 -10   5   83.09   16.90
  -2 -10   5  118.29   34.00
   0 -10   5  115.89   14.70
   0 -10   5   77.89   26.40
   0 -10   5  158.68   36.70
   0 -10   5  126.99   14.40
   2 -10   5  724.23   64.79
   2 -10   5  701.43   63.19
   2 -10   5  643.54   31.20
   4 -10   5  173.28   16.90
   4 -10   5  124.79   32.60
   4 -10   5  204.88   18.70
   4 -10   5  157.68   37.50
   6 -10   5   -3.40    7.80
   6 -10   5   -9.80   12.90
   6 -10   5    6.10    9.30
   8 -10   5  204.58   30.80
  10 -10   5  260.07   40.10
 -17  -9   5  -27.60   18.70
 -15  -9   5   -9.90   23.10
 -15  -9   5   34.60   30.40
 -13  -9   5   60.49   39.20
 -13  -9   5   73.19   32.00
  11   9  -5   40.50   21.70
  11   9  -5   36.80   30.20
 -11  -9   5   40.50   20.80
 -11  -9   5   75.49   35.40
   9   9  -5   87.29   30.80
   9   9  -5   92.69   24.60
  -9  -9   5   45.80   32.80
   7   9  -5   50.59   20.30
   7   9  -5   28.50   15.60
   7   9  -5   16.70   22.30
  -7  -9   5   32.40   24.20
  -7  -9   5   12.00   17.10
  -7  -9   5   51.69   19.00
   5   9  -5   28.90   19.80
   5   9  -5   21.40   12.20
   5   9  -5   -2.10    9.20
  -5  -9   5    7.00   12.10
  -5  -9   5   -1.20    9.40
  -5  -9   5    7.20   17.60
   3   9  -5    1.90    6.10
   3   9  -5   12.20    5.80
  -3  -9   5   10.70    9.80
  -3  -9   5   29.60   11.70
  -3  -9   5   15.20   18.40
  -1  -9   5  210.78   38.80
  -1  -9   5  233.38   41.50
  -1  -9   5  236.88   19.30
  -1  -9   5  187.98   18.30
   1  -9   5    7.70   15.70
   1  -9   5    7.10   13.00
   1  -9   5   11.50    4.00
   3  -9   5    6.30   16.10
   3  -9   5   -0.70    4.10
   3  -9   5   17.90   16.50
   3  -9   5    0.90    4.80
   5  -9   5    5.50    7.80
   5  -9   5  -22.60   13.20
  -7   9  -5  152.08   40.00
   7  -9   5  130.19   25.00
   7  -9   5  112.49   22.70
  -9   9  -5  -28.20   17.50
   9  -9   5   11.60   11.10
  11  -9   5   62.69   23.80
 -18  -8   5  -37.80   27.40
 -18  -8   5   35.50   47.00
 -16  -8   5   31.30   28.40
 -16  -8   5  -18.40   21.90
  14   8  -5  -36.60   12.70
 -14  -8   5  -47.60   16.80
 -14  -8   5  -22.40   24.10
  12   8  -5    5.70   17.10
  12   8  -5   13.80   25.10
 -12  -8   5   -3.30   31.90
 -12  -8   5   15.20   17.00
  10   8  -5   21.20   19.00
  10   8  -5   26.60   15.80
  10   8  -5   11.10   21.40
 -10  -8   5   10.40   19.40
 -10  -8   5   -9.30    8.60
 -10  -8   5   24.30   17.10
   8   8  -5    8.00   10.00
   8   8  -5   34.40   23.00
   8   8  -5    9.00   13.50
  -8  -8   5   -4.40   12.10
  -8  -8   5   24.40   14.10
  -8  -8   5   -6.10   16.30
   6   8  -5   79.69   20.30
   6   8  -5  103.49   23.00
   6   8  -5  106.49   34.70
  -6  -8   5  106.69   32.00
  -6  -8   5  100.79   23.60
  -6  -8   5  118.69   24.80
   4   8  -5    1.50    6.40
   4   8  -5   11.40   12.40
   4   8  -5   -3.70    6.20
  -4  -8   5    1.60    7.80
  -4  -8   5    6.20    8.20
  -4  -8   5   53.29   22.70
  -2  -8   5   26.20   17.10
  -2  -8   5    1.10    9.80
  -2  -8   5   15.30    7.70
  -2  -8   5   12.30    6.20
   0  -8   5    8.00    3.00
   0  -8   5    2.60    2.50
   0  -8   5   -6.10   14.20
   0  -8   5   -0.20   12.80
   2  -8   5   62.09   23.40
   2  -8   5   80.39    5.90
   2  -8   5   70.99    5.70
   2  -8   5   49.30   20.80
   4  -8   5    4.20    6.20
   4  -8   5    3.50    6.10
   4  -8   5  -25.10    9.40
  -6   8  -5  -12.60   17.60
   6  -8   5   27.10   20.30
   6  -8   5   -1.50    7.90
  -8   8  -5   11.20    8.90
  -8   8  -5   30.60   21.30
  -8   8  -5    6.90    7.80
   8  -8   5   23.90   15.90
   8  -8   5   16.40   21.60
   8  -8   5  -19.50   10.80
 -10   8  -5  -21.30   14.50
  10  -8   5    9.70   14.80
  12  -8   5   12.80   18.80
 -19  -7   5  -41.30   35.30
 -17  -7   5  173.98   54.89
 -17  -7   5  189.28   50.49
  15   7  -5   39.20   23.00
 -15  -7   5   25.90   36.90
 -15  -7   5   32.20   25.60
 -13  -7   5   89.39   43.70
 -13  -7   5   61.29   30.50
  11   7  -5   77.29   22.80
  11   7  -5   62.99   30.70
 -11  -7   5   46.40   27.90
 -11  -7   5   28.60   18.70
 -11  -7   5   35.90   20.50
   9   7  -5  707.63   59.99
   9   7  -5  748.73   71.79
   9   7  -5  685.93   58.99
  -9  -7   5  722.03   72.79
  -9  -7   5  736.23   61.49
  -9  -7   5  685.53   60.89
   7   7  -5  625.84   63.39
   7   7  -5  512.75   44.80
   7   7  -5  623.34   48.90
  -7  -7   5  607.54   63.19
  -7  -7   5  520.35   47.10
  -7  -7   5  494.85   45.50
   5   7  -5  168.78   36.90
   5   7  -5   96.69   19.00
   5   7  -5  155.68   23.80
  -5  -7   5  131.99   23.70
  -5  -7   5  147.59   34.80
  -5  -7   5  118.49   22.40
   3   7  -5  267.27   17.80
   3   7  -5  278.77   18.80
  -3  -7   5  257.67   23.30
  -3  -7   5  330.47   40.90
  -3  -7   5  256.77   22.80
  -1  -7   5    5.40    3.70
  -1  -7   5  -10.90    9.10
  -1  -7   5    9.90    3.80
   1  -7   5    6.90   13.30
   1  -7   5   15.40   14.30
   3  -7   5   56.29   24.70
   3  -7   5   59.39   10.00
   3  -7   5   70.99   10.30
  -5   7  -5  326.47   51.99
   5  -7   5  275.07   25.30
   5  -7   5  244.38   25.50
   5  -7   5  326.37   42.20
  -7   7  -5  570.24   37.00
  -7   7  -5  520.85   60.49
   7  -7   5  614.84   55.29
   7  -7   5  515.45   58.39
   7  -7   5  601.74   47.50
  -9   7  -5   -6.60   19.50
  -9   7  -5   -0.80   11.30
   9  -7   5    3.10   13.20
   9  -7   5   -4.70   17.40
 -11   7  -5  129.79   40.40
  11  -7   5   52.39   23.00
 -13   7  -5   59.39   33.60
  13  -7   5   45.80   27.40
 -20  -6   5  480.55   98.09
 -18  -6   5  -50.99   26.90
 -18  -6   5   28.00   25.90
  16   6  -5   41.20   24.50
 -16  -6   5   -3.50   19.50
 -16  -6   5   58.89   43.80
  14   6  -5   55.79   26.80
  14   6  -5   56.89   31.30
 -14  -6   5   31.50   36.10
 -14  -6   5   59.09   27.90
  12   6  -5  835.02   74.39
  12   6  -5  909.91   84.89
 -12  -6   5  831.22   86.69
 -12  -6   5  801.22   74.89
 -12  -6   5  843.02   76.19
  10   6  -5    6.80   11.90
  10   6  -5  -18.30    8.90
  10   6  -5    8.40   14.00
 -10  -6   5  -12.10   10.10
 -10  -6   5    2.50   15.90
 -10  -6   5   13.70   15.50
   8   6  -5    5.70   11.30
   8   6  -5   18.70   17.10
   8   6  -5   11.50   12.30
  -8  -6   5   43.50   17.30
  -8  -6   5   18.90   21.30
  -8  -6   5   13.80   12.80
   6   6  -5 1177.88   83.89
   6   6  -5 1241.58   66.59
   6   6  -5 1121.19   64.29
  -6  -6   5 1143.29   66.79
  -6  -6   5 1054.59   65.79
  -6  -6   5 1146.09   83.49
   4   6  -5 1399.16   63.69
   4   6  -5 1371.26   93.49
   4   6  -5 1436.26   64.19
  -4  -6   5 1489.75   68.89
  -4  -6   5 1438.06   68.29
  -4  -6   5 1507.15   93.69
  -2  -6   5  349.17   41.40
  -2  -6   5  444.86   24.20
  -2  -6   5  371.96   43.10
   0  -6   5  242.88   41.00
   0  -6   5  285.77   37.00
   2  -6   5  488.55   21.20
   2  -6   5  489.55   21.90
  -4   6  -5  706.53   64.89
   4  -6   5  757.02   63.59
   4  -6   5  741.13   40.90
   4  -6   5  792.42   43.10
  -6   6  -5   68.89   28.40
  -6   6  -5   95.69   17.50
   6  -6   5   86.79   20.10
   6  -6   5  111.19   31.10
   6  -6   5  101.19   24.10
  -8   6  -5 1092.59   87.39
  -8   6  -5  874.21   59.29
   8  -6   5  870.81   73.49
   8  -6   5  791.22   76.09
   8  -6   5  909.51   63.79
 -10   6  -5  421.76   67.89
 -10   6  -5  307.07   50.79
  10  -6   5  463.95   60.19
  10  -6   5  476.45   50.29
 -12   6  -5   41.30   30.80
  12  -6   5   15.90   15.90
  12  -6   5   15.30   23.50
 -14   6  -5   47.40   32.00
  14  -6   5   40.30   24.50
 -19  -5   5  207.38   61.39
  17   5  -5  697.63   78.19
 -17  -5   5  623.44   94.99
 -17  -5   5  775.12   91.19
  15   5  -5  411.06   73.89
  15   5  -5  512.45   64.09
 -15  -5   5  385.06   71.09
 -15  -5   5  600.94   69.69
  13   5  -5   91.49   35.50
  13   5  -5   40.20   29.30
  13   5  -5   23.20   18.80
 -13  -5   5   71.09   30.80
 -13  -5   5   -1.00   16.60
 -13  -5   5   21.70   19.70
  11   5  -5   46.10   18.50
  11   5  -5   70.89   26.80
 -11  -5   5   48.80   22.90
 -11  -5   5   36.60   23.10
 -11  -5   5   91.89   35.60
   9   5  -5 1348.77   95.09
   9   5  -5 1352.26   84.09
  -9  -5   5 1198.98   91.49
  -9  -5   5 1350.26   85.49
  -9  -5   5 1399.36   87.09
   7   5  -5 1023.20   63.59
   7   5  -5 1074.79   65.19
   7   5  -5  924.21   74.49
  -7  -5   5 1076.19   66.69
  -7  -5   5  904.51   74.09
  -7  -5   5  963.30   63.79
   5   5  -5   50.69   14.30
   5   5  -5   82.09   17.00
  -5  -5   5   64.59   16.60
  -5  -5   5   76.59   17.00
  -5  -5   5   30.80   17.60
   3   5  -5 1603.04   61.69
   3   5  -5 1754.12   63.59
  -3  -5   5 1575.24   94.59
  -3  -5   5 1488.25   65.99
  -1  -5   5 1941.61  102.39
  -1  -5   5 1708.53   58.39
  -1  -5   5 1802.92   61.69
  -1  -5   5 1711.63   97.09
   1  -5   5  681.33   23.90
   1  -5   5  613.74   54.19
  -3   5  -5  175.08   35.70
   3  -5   5  148.29   17.70
   3  -5   5  157.98   16.00
   3  -5   5  180.68   35.50
  -5   5  -5  926.51   76.09
  -5   5  -5 1049.99   51.39
  -5   5  -5 1045.00   53.29
   5  -5   5 1121.09   59.09
   5  -5   5 1034.10   58.29
   5  -5   5 1112.59   78.19
  -7   5  -5  486.95   57.29
  -7   5  -5  526.15   42.40
  -7   5  -5  561.64   42.50
   7  -5   5  594.74   61.99
   7  -5   5  427.06   41.00
   7  -5   5  555.74   46.00
  -9   5  -5   25.30   17.80
  -9   5  -5    7.10   18.80
  -9   5  -5  -15.80   12.20
   9  -5   5  -30.40   18.00
   9  -5   5   -4.30   10.90
   9  -5   5   11.70   14.60
 -11   5  -5  606.74   69.59
  11  -5   5  580.74   60.29
  11  -5   5  510.85   75.49
 -13   5  -5  245.58   58.89
  13  -5   5  200.28   46.00
 -15   5  -5   57.49   38.80
  15  -5   5   59.59   30.40
 -18  -4   5  494.95   84.89
 -18  -4   5  371.76   79.69
  16   4  -5   27.70   25.10
  16   4  -5   26.20   16.40
 -16  -4   5   16.00   23.50
 -16  -4   5   52.89   37.80
  14   4  -5  689.03   71.69
  14   4  -5  619.04   71.59
 -14  -4   5  515.25  132.29
 -14  -4   5  610.94   69.99
  12   4  -5  535.65   57.79
  12   4  -5  385.96   61.69
  12   4  -5  464.05   53.59
 -12  -4   5  491.25   60.59
 -12  -4   5  424.96   52.19
  10   4  -5  218.28   43.50
  10   4  -5  302.07   39.30
 -10  -4   5  275.47   44.60
 -10  -4   5  225.38   44.50
   8   4  -5  132.79   27.20
   8   4  -5  180.98   37.20
  -8  -4   5  170.08   31.20
  -8  -4   5  163.78   37.00
   6   4  -5 2798.82  116.19
   6   4  -5 2434.06  133.49
  -6  -4   5 2506.35  130.79
  -6  -4   5 2724.63  117.09
   4   4  -5 2894.91  111.89
   4   4  -5 2913.91  138.79
   4   4  -5 2864.11  111.99
  -4  -4   5 3156.38  142.39
  -4  -4   5 2883.01  114.19
  -4  -4   5 3032.30  115.69
   2   4  -5  200.28   11.10
   2   4  -5  174.28   10.50
  -2  -4   5  201.08   16.40
  -2  -4   5  189.88   15.90
  -2  -4   5  164.98   31.80
  -2  -4   5  177.78   33.50
   0  -4   5 2911.01   93.59
   0  -4   5 2653.43  129.59
   0  -4   5 2809.22   92.79
  -2   4  -5 1110.19   38.20
  -2   4  -5 1070.79   38.10
  -2   4  -5 1105.09   74.69
   2  -4   5 1044.20   47.00
   2  -4   5  955.40   68.69
   2  -4   5 1043.70   46.90
  -4   4  -5  833.82   45.00
  -4   4  -5  945.01   70.79
   4  -4   5  969.10   70.89
   4  -4   5  911.71   50.69
   4  -4   5  827.42   48.50
  -6   4  -5  194.28   40.90
  -6   4  -5  268.37   28.30
   6  -4   5  215.78   27.80
   6  -4   5  240.88   29.70
   6  -4   5  232.18   43.30
  -8   4  -5 2357.56  115.09
  -8   4  -5 2564.54  142.29
   8  -4   5 2291.07  118.89
   8  -4   5 2398.66  140.59
   8  -4   5 2554.54  123.99
 -10   4  -5  493.85   64.49
 -10   4  -5  568.74   53.89
  10  -4   5  424.46   51.59
  10  -4   5  542.05   66.09
 -12   4  -5   18.40   25.20
  12  -4   5   42.70   24.00
  12  -4   5   37.60   30.90
 -14   4  -5   81.59   46.30
  14  -4   5  163.68   40.40
 -21  -3   5  163.78   55.19
 -19  -3   5  112.59   47.20
  17   3  -5  404.76   71.19
 -17  -3   5  590.54   72.69
 -17  -3   5  500.25   82.89
  15   3  -5  237.58   57.69
  15   3  -5  233.38   54.49
  15   3  -5  313.67   58.99
 -15  -3   5  239.18   61.29
 -15  -3   5  219.68   51.59
 -15  -3   5  285.57   61.89
  13   3  -5  -32.20   16.00
  13   3  -5    5.50   14.20
  13   3  -5    6.40   14.80
 -13  -3   5   25.10   23.90
 -13  -3   5   18.70   18.50
  11   3  -5  371.96   48.20
  11   3  -5  467.75   49.00
  11   3  -5  396.46   50.09
 -11  -3   5  477.75   51.99
 -11  -3   5  414.66   52.19
   9   3  -5 1523.55   89.99
   9   3  -5 1538.65   97.69
  -9  -3   5 1702.33  102.49
  -9  -3   5 1413.26   89.89
   7   3  -5  575.34   46.10
   7   3  -5  536.05   53.39
  -7  -3   5  537.55   53.79
  -7  -3   5  547.55   45.70
  -7  -3   5  532.65   45.60
   5   3  -5   26.90   11.50
   5   3  -5   14.50   11.60
   5   3  -5   22.00   13.60
  -5  -3   5    4.00    8.70
  -5  -3   5   23.10   11.50
  -5  -3   5   29.40   18.00
   3   3  -5 2705.93  104.89
   3   3  -5 2843.52  105.19
  -3  -3   5 3016.10  138.69
  -3  -3   5 2848.62  108.29
   1   3  -5 1021.50   40.20
  -1  -3   5  968.20   66.09
  -1  -3   5 1131.09   46.60
  -1  -3   5 1058.79   46.70
  -1   3  -5  100.39   11.10
  -1   3  -5   83.49   10.10
  -1   3  -5   82.99   23.40
   1  -3   5  116.49   13.40
   1  -3   5  126.99   27.80
   1  -3   5  101.89   12.90
  -3   3  -5  283.27   23.70
  -3   3  -5  229.58   40.10
  -3   3  -5  265.67   23.10
   3  -3   5  298.77   38.60
   3  -3   5  290.87   25.50
   3  -3   5  261.37   24.50
  -5   3  -5 1258.77   86.99
  -5   3  -5 1300.27   68.29
  -5   3  -5 1442.76   71.99
   5  -3   5 1248.28   69.69
   5  -3   5 1365.96   72.59
   5  -3   5 1266.97   85.99
  -7   3  -5  645.04   52.49
  -7   3  -5  678.23   65.49
  -7   3  -5  760.42   54.39
   7  -3   5  663.23   53.79
   7  -3   5  768.32   57.69
   7  -3   5  674.23   64.19
  -9   3  -5   44.20   26.70
  -9   3  -5   10.80   14.60
  -9   3  -5   16.80   16.30
   9  -3   5   38.60   19.30
   9  -3   5   14.60   17.40
   9  -3   5    8.50   14.50
 -11   3  -5  535.85   70.99
  11  -3   5  556.54   59.49
  11  -3   5  532.75   80.79
 -13   3  -5  393.86   70.29
  13  -3   5  519.25   62.79
 -15   3  -5  109.59   45.20
  15  -3   5   24.40   31.50
 -20  -2   5  300.47   69.79
 -18  -2   5  122.99   42.90
  16   2  -5   22.20   22.00
  16   2  -5   10.50   20.50
  16   2  -5    4.00   15.50
 -16  -2   5  -14.10   15.80
 -16  -2   5   39.60   30.80
  14   2  -5  504.95   63.39
  14   2  -5  626.74   66.59
  14   2  -5  555.24   66.39
 -14  -2   5  509.45   63.29
 -14  -2   5  502.65   63.89
 -14  -2   5  570.54   67.99
  12   2  -5 1122.39   83.99
  12   2  -5 1018.10   82.79
  12   2  -5  931.41   80.29
 -12  -2   5 1171.28   86.79
 -12  -2   5 1006.30   81.29
 -12  -2   5  970.60   83.39
  10   2  -5  500.25   53.19
  10   2  -5  453.05   48.60
 -10  -2   5  472.75   55.19
 -10  -2   5  515.95   51.39
 -10  -2   5  522.45   52.09
   8   2  -5  120.89   32.40
   8   2  -5  211.68   34.10
  -8  -2   5  129.49   26.80
  -8  -2   5  164.58   34.10
  -8  -2   5  140.49   28.90
   6   2  -5 2607.44  114.29
   6   2  -5 2577.74  124.89
  -6  -2   5 2616.54  115.29
  -6  -2   5 2533.15  124.99
   4   2  -5 1079.09   56.69
   4   2  -5  978.10   67.39
  -4  -2   5 1181.38   59.39
  -4  -2   5 1165.38   71.29
  -4  -2   5 1064.79   57.69
   2   2  -5  246.48   21.10
   2   2  -5  207.08   19.00
  -2  -2   5  171.88   18.90
  -2  -2   5  262.77   32.90
  -2  -2   5  253.57   30.80
  -2  -2   5  228.78   21.20
   0   2  -5  611.54   33.90
   0   2  -5  635.24   33.50
   0   2  -5  578.24   48.90
   0  -2   5  633.04   49.80
   0  -2   5  627.34   36.00
   0  -2   5  625.04   35.40
  -2   2  -5  135.09   19.70
  -2   2  -5  131.89   16.80
  -2   2  -5  148.89   30.70
   2  -2   5  144.79   18.10
   2  -2   5  154.38   30.00
   2  -2   5  131.09   19.70
  -4   2  -5  900.41   55.49
  -4   2  -5  962.70   71.79
  -4   2  -5 1012.90   57.69
   4  -2   5 1043.30   74.39
   4  -2   5 1004.70   58.89
   4  -2   5 1039.40   59.29
  -6   2  -5    8.70   10.90
  -6   2  -5   -0.90   11.90
  -6   2  -5   16.00   12.30
   6  -2   5   -3.90    8.20
   6  -2   5   13.50   20.80
   6  -2   5   17.90   12.80
  -8   2  -5  847.12   75.59
  -8   2  -5  813.42   63.59
  -8   2  -5  786.82   61.89
   8  -2   5  706.43   70.59
   8  -2   5  709.73   60.69
   8  -2   5  773.22   62.79
 -10   2  -5  321.87   50.29
 -10   2  -5  299.57   57.89
  10  -2   5  254.87   54.29
 -12   2  -5   -8.70   24.90
  12  -2   5   18.70   17.90
 -14   2  -5   72.39   43.80
  14  -2   5  162.78   51.49
 -16   2  -5  167.88   72.29
  16  -2   5  216.58   55.79
 -21  -1   5  -66.79   31.30
 -19  -1   5   19.40   27.80
  17   1  -5   51.09   27.70
  17   1  -5  101.99   39.60
 -17  -1   5   22.80   23.80
 -17  -1   5   62.09   34.90
  15   1  -5   11.60   19.60
  15   1  -5   21.90   23.60
  15   1  -5  -23.80   18.00
 -15  -1   5   10.30   22.00
 -15  -1   5   19.60   22.70
 -15  -1   5   12.80   25.00
  13   1  -5    6.70   14.90
  13   1  -5   30.10   19.70
  13   1  -5   32.70   20.00
 -13  -1   5   40.30   27.90
 -13  -1   5   55.99   26.90
 -13  -1   5    7.10   13.10
  11   1  -5  473.65   51.29
  11   1  -5  573.34   58.39
  11   1  -5  495.15   52.29
 -11  -1   5  498.35   53.09
 -11  -1   5  426.06   49.20
 -11  -1   5  462.25   55.89
   9   1  -5  405.16   45.00
   9   1  -5  368.06   40.70
   9   1  -5  367.26   60.69
  -9  -1   5  404.46   43.20
  -9  -1   5  317.37   40.70
  -9  -1   5  367.26   43.30
   7   1  -5  612.04   52.09
   7   1  -5  583.54   47.10
  -7  -1   5  530.45   46.60
  -7  -1   5  572.64   51.69
  -7  -1   5  538.75   46.00
   5   1  -5  678.23   48.10
   5   1  -5  820.12   57.69
   5   1  -5  762.82   50.59
  -5  -1   5  788.82   56.99
  -5  -1   5  829.52   52.39
  -5  -1   5  728.53   49.30
   3   1  -5  143.79   21.80
   3   1  -5  130.59   20.80
  -3  -1   5  208.58   27.50
  -3  -1   5  133.59   25.90
  -3  -1   5  159.68   20.80
  -3  -1   5  174.48   21.00
   1   1  -5  234.38   22.70
   1   1  -5  289.97   34.40
   1   1  -5  324.17   25.10
  -1  -1   5  272.77   24.70
  -1  -1   5  273.37   24.80
  -1  -1   5  326.37   34.60
  -1   1  -5   71.79   14.90
  -1   1  -5   80.29   15.70
   1  -1   5  117.89   22.90
   1  -1   5   69.29   19.70
   1  -1   5   98.39   17.40
  -3   1  -5  775.42   51.19
  -3   1  -5  800.62   63.59
  -3   1  -5  854.91   52.09
   3  -1   5  878.11   53.59
   3  -1   5  897.81   54.69
   3  -1   5  913.91   65.69
  -5   1  -5    8.50   12.70
  -5   1  -5    9.40   11.40
  -5   1  -5   -8.70    8.00
   5  -1   5    5.60    8.90
   5  -1   5   -4.50    8.30
   5  -1   5   -0.10   14.60
  -7   1  -5  783.82   60.49
  -7   1  -5  674.43   57.69
  -7   1  -5  794.22   72.09
   7  -1   5  821.52   62.69
   7  -1   5  784.22   71.29
   7  -1   5  783.32   61.19
  -9   1  -5   25.00   17.30
  -9   1  -5   -8.20   16.50
  -9   1  -5   13.10   18.00
   9  -1   5   20.50   16.90
   9  -1   5   26.90   20.10
   9  -1   5   57.99   28.30
 -11   1  -5  148.79   47.90
 -11   1  -5  132.99   34.10
  11  -1   5  174.58   39.30
  11  -1   5  236.68   55.39
 -13   1  -5   27.30   32.50
  13  -1   5   82.19   29.30
 -15   1  -5  -30.00   26.20
  15  -1   5   22.40   26.50
 -20   0   5  -22.80   17.30
  18   0  -5  -41.50   18.70
 -18   0   5   51.49   36.30
  16   0  -5   25.40   29.70
  16   0  -5   34.30   20.70
  16   0  -5  -19.10   18.90
 -16   0   5    9.90   20.70
 -16   0   5   -7.50   25.60
 -16   0   5   21.70   20.80
  14   0  -5   22.00   19.00
  14   0  -5   -6.90   13.30
  14   0  -5   43.90   24.00
 -14   0   5  -17.60   17.10
 -14   0   5    8.10   20.90
 -14   0   5    2.00   17.80
  12   0  -5   -5.20    8.20
  12   0  -5  -13.30    6.20
  12   0  -5    6.40   11.60
 -12   0   5   -3.50    9.70
 -12   0   5   17.30   15.60
 -12   0   5    7.10   19.00
  10   0  -5    5.90   14.30
  10   0  -5    7.30   10.00
  10   0  -5  -22.10    8.10
 -10   0   5    2.10   10.80
 -10   0   5    0.20   10.00
 -10   0   5   11.20   17.90
   8   0  -5  -15.90    9.10
   8   0  -5    3.70   11.40
  -8   0   5    8.60   11.50
  -8   0   5   -1.50   10.00
  -8   0   5   -2.90    7.90
   6   0  -5  -11.70    4.70
   6   0  -5   -3.40    9.50
   6   0  -5  -11.20    7.50
  -6   0   5   -2.00    7.50
  -6   0   5   -6.50    8.80
  -6   0   5    1.10    8.60
   4   0  -5   -3.10    8.10
   4   0  -5   -8.40    7.70
  -4   0   5   -2.20    8.10
  -4   0   5   -0.10   11.60
  -4   0   5    4.70   10.30
   2   0  -5   -5.00    7.80
   2   0  -5   -7.50    5.50
  -2   0   5    4.60    7.90
  -2   0   5   -2.50    5.80
  -2   0   5   12.00   10.30
   0   0  -5   -7.20    7.00
   0   0  -5   -7.00    4.30
   0   0  -5    8.60    7.70
   0   0   5   -4.40    6.20
   0   0   5    5.30    9.50
   0   0   5    5.00    6.60
  -2   0  -5    0.40    6.40
  -2   0  -5    3.60    9.00
  -2   0  -5   11.40    8.60
   2   0   5    4.50    9.40
   2   0   5   -8.40    3.70
   2   0   5   -3.90    5.70
  -4   0  -5   10.90   10.70
  -4   0  -5    6.50   13.40
  -4   0  -5    1.20    5.90
   4   0   5    3.70   15.90
   4   0   5   -3.70    7.40
   4   0   5   13.30   12.90
  -6   0  -5   -2.50    6.50
  -6   0  -5  -13.40   17.50
  -6   0  -5  -11.00    7.00
   6   0   5    1.80   12.60
   6   0   5   -0.80    8.80
  -8   0  -5    5.10   14.30
  -8   0  -5   14.80   14.00
  -8   0  -5   -7.10    8.10
   8   0   5   -3.70   15.80
   8   0   5   -3.80   12.00
   8   0   5    6.80   13.10
 -10   0  -5    2.80   25.20
 -10   0  -5    0.60   10.20
  10   0   5   16.50   20.90
 -12   0  -5   -3.20   16.00
 -12   0  -5  -20.20   10.20
  12   0   5   -6.40   12.60
  12   0   5  -29.20   14.40
 -14   0  -5   -5.20   33.50
  14   0   5   23.40   27.20
 -16   0  -5  -14.20   34.20
  16   0   5  -30.70   24.40
 -21   1   5   -6.50   32.10
 -19   1   5  -15.90   30.60
  17  -1  -5   48.30   30.10
  17  -1  -5    6.30   27.60
 -17   1   5   88.39   34.80
 -17   1   5   55.49   32.70
  15  -1  -5   32.40   25.50
  15  -1  -5    4.10   12.70
 -15   1   5   31.70   25.20
 -15   1   5   16.40   28.00
 -15   1   5    1.40   22.20
  13  -1  -5   44.30   20.40
  13  -1  -5   31.70   23.20
  13  -1  -5   25.70   19.00
 -13   1   5    3.90   21.20
 -13   1   5   41.00   28.10
 -13   1   5   -3.90   10.20
  11  -1  -5  504.35   54.29
  11  -1  -5  572.34   55.39
  11  -1  -5  479.45   50.19
 -11   1   5  448.86   51.09
 -11   1   5  420.06   51.69
 -11   1   5  483.05   52.59
   9  -1  -5  434.46   43.30
   9  -1  -5  340.77   42.10
   9  -1  -5  375.76   43.70
  -9   1   5  392.56   41.40
  -9   1   5  410.16   44.60
  -9   1   5  383.36   43.90
   7  -1  -5  514.95   44.80
   7  -1  -5  526.15   48.40
   7  -1  -5  561.64   49.50
  -7   1   5  541.15   48.20
  -7   1   5  581.44   47.40
  -7   1   5  649.34   51.79
   5  -1  -5  745.33   54.19
   5  -1  -5  744.33   53.69
   5  -1  -5  709.73   50.09
  -5   1   5  758.92   52.09
  -5   1   5  812.02   55.59
  -5   1   5  795.02   54.49
   3  -1  -5  159.78   25.10
  -3   1   5  148.89   26.90
  -3   1   5  146.09   25.90
   1  -1  -5  316.87   34.00
   1  -1  -5  319.97   31.10
   1  -1  -5  307.97   30.60
  -1   1   5  359.16   33.40
  -1   1   5  335.37   34.50
  -1   1   5  291.07   29.60
  -1  -1  -5   77.79   18.00
  -1  -1  -5  120.79   25.90
  -1  -1  -5  121.09   23.30
   1   1   5  116.79   25.00
   1   1   5   71.39   18.40
   1   1   5   99.89   21.60
  -3  -1  -5  914.41   60.19
  -3  -1  -5  845.12   58.19
  -3  -1  -5  891.21   66.59
   3   1   5  848.12   59.49
   3   1   5  883.41   65.19
   3   1   5  836.32   58.59
  -5  -1  -5  -13.00   10.70
  -5  -1  -5    1.50    9.50
  -5  -1  -5   -7.70    9.20
   5   1   5   10.70   11.90
   5   1   5   -8.80   13.50
   5   1   5    6.20   10.40
  -7  -1  -5  902.41   69.29
  -7  -1  -5  857.71   75.09
   7   1   5  659.93   68.89
   7   1   5  819.02   67.09
   7   1   5  816.52   67.59
  -9  -1  -5   53.89   31.00
  -9  -1  -5   17.50   14.40
   9   1   5  -14.40   12.10
   9   1   5   -8.20   10.90
   9   1   5   38.90   29.30
 -11  -1  -5  278.67   53.89
  11   1   5  249.18   57.89
  11   1   5  206.98   48.80
 -13  -1  -5   88.79   36.60
  13   1   5  141.09   44.30
 -15  -1  -5   55.89   40.90
  15   1   5   37.20   30.20
 -20   2   5  203.88   53.49
  18  -2  -5  128.59   46.60
  18  -2  -5  239.58   53.29
 -18   2   5  193.98   52.69
 -18   2   5  117.69   53.09
  16  -2  -5   -1.50   11.00
  16  -2  -5   -0.30   18.90
 -16   2   5   43.50   29.40
 -16   2   5   14.30   24.00
 -16   2   5    1.20   27.30
  14  -2  -5  398.46   60.79
  14  -2  -5  555.14   64.69
  14  -2  -5  447.96   57.29
 -14   2   5  561.14   66.19
 -14   2   5  436.46   57.49
 -14   2   5  483.65   59.29
  12  -2  -5  976.10   73.39
  12  -2  -5 1023.50   85.29
  12  -2  -5  875.91   76.79
 -12   2   5 1033.70   83.99
 -12   2   5 1016.70   82.19
 -12   2   5  913.31   74.69
  10  -2  -5  498.75   46.30
  10  -2  -5  493.15   51.39
  10  -2  -5  428.66   49.70
 -10   2   5  488.55   46.90
 -10   2   5  400.66   47.30
 -10   2   5  485.65   51.19
   8  -2  -5  234.48   41.90
   8  -2  -5  163.78   32.80
   8  -2  -5  144.49   27.00
  -8   2   5  179.58   34.10
  -8   2   5  205.58   32.30
  -8   2   5  239.58   38.30
   6  -2  -5 2541.05  123.89
   6  -2  -5 2716.53  115.69
   6  -2  -5 2691.83  127.49
  -6   2   5 2657.23  125.09
  -6   2   5 2626.84  124.99
  -6   2   5 2488.45  113.59
   4  -2  -5 1079.79   67.09
   4  -2  -5 1155.18   67.89
  -4   2   5 1053.99   60.39
  -4   2   5 1025.90   59.79
  -4   2   5 1069.49   66.99
  -4   2   5  955.70   63.49
   2  -2  -5  221.88   27.00
   2  -2  -5  262.97   29.10
   2  -2  -5  252.97   28.90
  -2   2   5  251.27   28.80
  -2   2   5  201.58   26.40
  -2   2   5  235.18   27.50
   0  -2  -5  667.93   49.50
   0  -2  -5  642.84   48.30
   0  -2  -5  582.14   45.00
   0   2   5  618.84   46.70
   0   2   5  563.44   45.70
   0   2   5  555.84   45.80
  -2  -2  -5  167.38   31.20
  -2  -2  -5  158.68   29.70
  -2  -2  -5   73.49   20.60
   2   2   5  102.29   27.00
   2   2   5  111.19   25.40
   2   2   5  172.58   29.90
  -4  -2  -5  975.90   68.99
  -4  -2  -5  927.41   72.89
  -4  -2  -5  926.51   67.59
   4   2   5 1142.49   74.09
   4   2   5 1022.90   74.29
   4   2   5 1062.39   71.89
  -6  -2  -5  -22.50    7.80
  -6  -2  -5   -1.70    9.70
  -6  -2  -5   22.00   20.10
   6   2   5   31.40   17.10
   6   2   5   -6.90    8.70
   6   2   5   -9.70   16.20
  -8  -2  -5  794.82   70.29
  -8  -2  -5  772.92   69.29
  -8  -2  -5  830.42   80.29
   8   2   5  674.93   67.69
   8   2   5  810.32   69.89
   8   2   5  714.63   75.09
 -10  -2  -5  453.45   72.99
 -10  -2  -5  322.67   54.29
  10   2   5  351.46   62.89
  10   2   5  248.18   49.20
 -12  -2  -5   10.70   20.50
 -12  -2  -5   -9.50   13.50
  12   2   5   19.30   24.30
 -14  -2  -5   -4.60   28.20
  14   2   5  132.79   45.80
 -16  -2  -5  296.37   70.29
  16   2   5  179.48   54.89
 -21   3   5  -17.30   34.00
  19  -3  -5   59.59   44.30
 -19   3   5   43.90   35.40
  17  -3  -5  534.95   85.19
  17  -3  -5  463.95   62.59
 -17   3   5  409.16   74.69
 -17   3   5  606.64   70.79
  15  -3  -5  348.97   61.89
  15  -3  -5  186.38   42.30
 -15   3   5  305.67   55.79
 -15   3   5  334.97   60.19
 -15   3   5  188.98   48.70
  13  -3  -5   25.70   19.10
  13  -3  -5  -21.30    9.60
  13  -3  -5   -7.50   13.10
 -13   3   5  -21.90   16.70
 -13   3   5  -12.80   10.20
 -13   3   5  -21.60    8.60
  11  -3  -5  401.26   42.90
  11  -3  -5  515.25   56.89
  11  -3  -5  448.56   52.29
 -11   3   5  392.36   51.19
 -11   3   5  420.66   45.40
 -11   3   5  455.35   52.39
   9  -3  -5 1404.26   93.09
   9  -3  -5 1506.45   97.19
   9  -3  -5 1603.94   83.59
  -9   3   5 1520.25   82.79
  -9   3   5 1451.25   95.39
  -9   3   5 1398.56   92.69
   7  -3  -5  621.14   53.79
   7  -3  -5  586.44   53.29
   7  -3  -5  560.84   42.30
  -7   3   5  558.54   52.39
  -7   3   5  447.86   49.20
  -7   3   5  530.35   41.40
   5  -3  -5   28.60   15.60
   5  -3  -5    5.40   11.20
  -5   3   5   15.80   11.00
  -5   3   5   26.20   13.80
  -5   3   5   32.60   18.70
  -5   3   5   14.00   11.80
   3  -3  -5 2826.52  118.59
   3  -3  -5 2879.31  130.19
   3  -3  -5 2957.40  131.39
  -3   3   5 2905.21  131.19
  -3   3   5 2686.93  127.79
  -3   3   5 2973.30  119.09
   1  -3  -5 1228.98   72.09
   1  -3  -5 1132.69   65.19
   1  -3  -5 1020.50   66.79
  -1   3   5 1120.59   69.59
  -1   3   5 1081.99   68.99
  -1   3   5 1145.79   64.59
  -1  -3  -5  100.69   24.60
  -1  -3  -5  127.19   27.80
  -1  -3  -5   77.59   22.50
   1   3   5   94.59   23.20
   1   3   5  112.19   25.90
   1   3   5  109.19   25.80
  -3  -3  -5  320.27   37.70
  -3  -3  -5  284.67   42.60
  -3  -3  -5  270.17   43.70
   3   3   5  333.77   38.20
   3   3   5  361.06   41.00
  -5  -3  -5 1215.18   85.39
  -5  -3  -5 1224.58   85.09
  -5  -3  -5 1325.57   91.29
   5   3   5 1435.76   91.29
   5   3   5 1423.26   90.49
   5   3   5 1441.96   94.09
  -7  -3  -5  640.24   62.99
  -7  -3  -5  773.82   69.09
  -7  -3  -5  683.43   68.99
   7   3   5  625.94   69.29
   7   3   5  756.62   70.19
   7   3   5  689.83   64.19
  -9  -3  -5   12.00   23.20
  -9  -3  -5    0.70   15.80
  -9  -3  -5   20.70   17.00
   9   3   5  -15.80   10.00
   9   3   5   18.40   13.60
   9   3   5    9.50   14.90
 -11  -3  -5  552.44   74.09
 -11  -3  -5  592.74   65.99
  11   3   5  585.74   71.79
  11   3   5  407.76   72.69
 -13  -3  -5  684.33   87.19
 -13  -3  -5  347.57   64.79
  13   3   5  466.95   77.39
 -15  -3  -5  147.19   71.49
  20  -4  -5  347.97   74.99
  18  -4  -5  458.45   80.99
 -18   4   5  533.85   86.19
 -18   4   5  403.86   78.29
  16  -4  -5   13.90   16.80
  16  -4  -5   37.40   26.40
 -16   4   5   41.00   27.50
 -16   4   5   61.29   28.70
  14  -4  -5  593.44   72.29
  14  -4  -5  652.53   61.39
  14  -4  -5  635.94   69.39
 -14   4   5  776.02   78.59
 -14   4   5  545.65   70.29
 -14   4   5  618.24   63.49
  12  -4  -5  460.95   57.49
  12  -4  -5  565.34   50.59
  12  -4  -5  499.55   59.69
 -12   4   5  370.16   46.70
 -12   4   5  553.24   59.99
 -12   4   5  454.95   57.89
  10  -4  -5  311.67   49.99
  10  -4  -5  365.96   58.39
  10  -4  -5  233.98   29.00
 -10   4   5  231.58   45.10
 -10   4   5  265.87   34.40
   8  -4  -5  132.49   23.10
   8  -4  -5  181.18   37.30
  -8   4   5  122.19   23.10
  -8   4   5  192.18   37.60
  -8   4   5  142.29   33.10
   6  -4  -5 2727.83  134.39
   6  -4  -5 2781.12  137.29
  -6   4   5 2740.43  112.19
  -6   4   5 2882.31  137.69
  -6   4   5 2611.04  132.99
   4  -4  -5 3012.30  139.39
   4  -4  -5 2921.41  139.39
  -4   4   5 2967.10  119.89
  -4   4   5 2953.80  118.59
  -4   4   5 3050.89  140.69
  -4   4   5 3140.79  142.49
   2  -4  -5  173.48   31.50
   2  -4  -5  193.68   33.20
   2  -4  -5  205.18   25.10
  -2   4   5  156.28   30.90
  -2   4   5  193.88   34.60
  -2   4   5  181.98   23.40
   0  -4  -5 2618.84  129.29
   0  -4  -5 2838.02  131.99
   0  -4  -5 2803.22  122.89
   0   4   5 2820.22  132.49
   0   4   5 2740.83  131.19
   0   4   5 2754.22  122.29
  -2  -4  -5 1157.48   73.59
  -2  -4  -5 1015.50   73.49
  -2  -4  -5 1087.29   74.59
   2   4   5 1051.89   74.09
   2   4   5 1160.48   76.09
   2   4   5 1078.79   73.09
  -4  -4  -5  820.92   65.99
  -4  -4  -5  837.72   66.99
  -4  -4  -5  736.83   64.29
   4   4   5  895.41   69.29
   4   4   5  782.72   65.69
   4   4   5  896.11   69.99
  -6  -4  -5  194.08   42.10
  -6  -4  -5  313.87   55.09
  -6  -4  -5  199.58   39.50
   6   4   5  262.57   47.80
   6   4   5  252.87   48.20
   6   4   5  227.48   44.00
  -8  -4  -5 2500.15  149.49
  -8  -4  -5 2592.24  146.59
  -8  -4  -5 2422.86  143.09
   8   4   5 2609.94  149.39
   8   4   5 2552.24  145.99
   8   4   5 2476.15  150.48
 -10  -4  -5  388.46   62.69
 -10  -4  -5  541.35   71.79
  10   4   5  576.14   83.99
  10   4   5  418.86   68.59
 -12  -4  -5   58.79   27.20
 -12  -4  -5  -12.40   17.10
  12   4   5  -14.80   24.00
 -14  -4  -5   16.20   40.50
  14   4   5  135.39   45.90
  19  -5  -5   38.10   31.20
  17  -5  -5  578.94   74.49
 -17   5   5  641.24   83.79
 -17   5   5  689.03   69.89
  15  -5  -5  464.65   52.49
  15  -5  -5  512.65   66.69
 -15   5   5  421.76   52.59
 -15   5   5  498.45   76.59
  13  -5  -5    5.00   16.40
 -13   5   5   32.70   20.50
 -13   5   5   35.80   24.10
 -13   5   5   46.70   30.10
  11  -5  -5   48.60   20.60
  11  -5  -5   48.40   17.10
  11  -5  -5   26.60   21.10
 -11   5   5  122.99   27.00
 -11   5   5   13.50   10.80
 -11   5   5   68.19   25.40
   9  -5  -5 1145.59   86.99
   9  -5  -5 1324.57   93.39
   9  -5  -5 1231.08   66.59
  -9   5   5 1299.77   90.69
  -9   5   5 1260.17   67.29
  -9   5   5 1202.58   87.89
   7  -5  -5  900.01   70.89
   7  -5  -5 1074.19   78.49
  -7   5   5  833.12   69.09
  -7   5   5 1016.10   52.09
  -7   5   5  838.72   70.39
   5  -5  -5   53.69   21.90
   5  -5  -5   65.89   25.00
  -5   5   5   76.49   15.40
  -5   5   5   59.69   20.60
  -5   5   5   61.69   14.30
  -5   5   5   70.69   23.40
   3  -5  -5 1585.84   95.59
   3  -5  -5 1692.03   97.19
   3  -5  -5 1787.22   79.39
  -3   5   5 1690.53   98.19
  -3   5   5 1811.92  100.09
  -3   5   5 1697.23   78.09
   1  -5  -5 1784.12   87.59
   1  -5  -5 1759.22  101.59
   1  -5  -5 1799.22  102.69
  -1   5   5 1935.51  105.39
  -1   5   5 1949.30   90.99
  -1   5   5 1911.41  104.09
  -1  -5  -5  665.93   57.59
  -1  -5  -5  604.04   64.39
  -1  -5  -5  639.94   58.29
   1   5   5  655.63   57.39
   1   5   5  583.54   55.99
   1   5   5  695.03   54.09
  -3  -5  -5  169.98   35.10
  -3  -5  -5  194.68   38.60
  -3  -5  -5  184.58   37.00
   3   5   5  129.39   30.60
   3   5   5  166.68   34.90
   3   5   5  165.28   34.50
  -5  -5  -5 1239.68   89.09
  -5  -5  -5  983.10   80.09
  -5  -5  -5 1124.09   84.59
   5   5   5 1005.00   80.59
   5   5   5  981.20   81.19
   5   5   5 1031.20   81.29
  -7  -5  -5  531.35   59.89
  -7  -5  -5  496.15   62.09
  -7  -5  -5  676.23   69.49
   7   5   5  553.74   60.69
   7   5   5  623.84   65.19
   7   5   5  532.15   62.39
  -9  -5  -5   -5.90   10.30
  -9  -5  -5   16.30   19.70
  -9  -5  -5  -33.80   11.70
   9   5   5    1.90   21.50
   9   5   5    0.10   15.00
   9   5   5   38.80   22.70
 -11  -5  -5  504.05   80.99
 -11  -5  -5  543.95   85.19
  11   5   5  570.54   71.79
 -13  -5  -5  345.87   75.09
  13   5   5  308.67   70.59
 -15  -5  -5   80.39   42.80
  20  -6  -5  569.84   96.69
  18  -6  -5  -13.30   26.70
  16  -6  -5  -30.30   19.60
 -16   6   5    1.40   26.00
 -14   6   5   71.79   33.50
 -14   6   5   42.90   26.40
  12  -6  -5  865.01   82.19
  12  -6  -5  878.11   60.29
  12  -6  -5  841.02   78.89
 -12   6   5  891.11   82.09
 -12   6   5  755.22   77.69
 -12   6   5  951.10   65.59
  10  -6  -5   21.60   15.30
  10  -6  -5   -1.30   18.90
  10  -6  -5    6.70    9.00
 -10   6   5   -4.30   13.70
 -10   6   5  -18.30    9.50
 -10   6   5   14.90   11.70
   8  -6  -5   13.70   16.50
   8  -6  -5    7.60   13.10
  -8   6   5   15.50   15.80
  -8   6   5   52.19   21.10
  -8   6   5   27.40   11.40
   6  -6  -5 1163.88   83.89
   6  -6  -5 1224.18   83.89
  -6   6   5 1148.89   52.09
  -6   6   5 1124.39   52.39
  -6   6   5 1177.28   83.29
  -6   6   5 1122.19   95.09
   4  -6  -5 1378.06   91.99
   4  -6  -5 1344.37   89.59
  -4   6   5 1596.74   96.79
  -4   6   5 1541.35   65.49
  -4   6   5 1423.06   91.09
  -4   6   5 1430.36   65.99
   2  -6  -5  351.26   41.70
   2  -6  -5  407.56   33.30
  -2   6   5  363.76   42.20
  -2   6   5  443.56   49.40
  -2   6   5  388.86   33.40
   0  -6  -5  264.77   31.90
   0  -6  -5  329.17   50.39
   0  -6  -5  308.47   38.90
   0   6   5  331.97   34.40
   0   6   5  261.37   44.90
   0   6   5  239.38   40.60
  -2  -6  -5  485.85   47.40
  -2  -6  -5  464.25   51.39
  -2  -6  -5  592.24   56.09
   2   6   5  535.95   53.89
   2   6   5  523.45   50.49
   2   6   5  487.15   54.69
  -4  -6  -5  766.02   81.79
  -4  -6  -5  893.01   70.79
  -4  -6  -5  763.32   69.99
   4   6   5  755.02   68.29
   4   6   5  608.34   77.39
   4   6   5  787.62   67.29
  -6  -6  -5  112.09   37.00
  -6  -6  -5   47.40   21.00
  -6  -6  -5  109.19   33.80
   6   6   5   90.29   28.60
   6   6   5  104.49   35.50
   6   6   5  121.79   34.80
  -8  -6  -5  943.71   87.39
  -8  -6  -5  967.00   87.59
  -8  -6  -5  891.11   86.59
   8   6   5  923.51   85.19
   8   6   5  817.02   84.59
 -10  -6  -5  371.86   69.49
 -10  -6  -5  467.95   74.19
  10   6   5  292.97   62.49
  10   6   5  452.05   73.59
 -12  -6  -5   20.70   22.10
  12   6   5   10.70   23.30
  19  -7  -5    8.50   27.60
  17  -7  -5   25.00   27.20
 -15   7   5   53.69   33.20
  13  -7  -5   51.09   27.40
 -13   7   5   27.60   21.40
 -13   7   5   13.20   18.40
  11  -7  -5   28.40   11.20
  11  -7  -5    9.50   16.50
  11  -7  -5  120.59   38.20
 -11   7   5   56.19   16.80
 -11   7   5   37.30   24.50
 -11   7   5   21.10   19.00
   9  -7  -5  619.74   64.39
   9  -7  -5  701.23   70.69
  -9   7   5  630.24   36.20
  -9   7   5  616.24   64.29
  -9   7   5  790.12   70.59
   7  -7  -5  645.84   62.59
   7  -7  -5  511.85   56.99
  -7   7   5  562.64   60.29
  -7   7   5  550.04   26.20
  -7   7   5  568.74   59.09
   5  -7  -5  166.98   36.40
   5  -7  -5  126.39   31.20
  -5   7   5  149.29   14.00
  -5   7   5  121.19   31.90
  -5   7   5  132.49   13.90
  -5   7   5  105.89   28.30
   3  -7  -5  241.38   23.30
   3  -7  -5  220.68   41.00
   3  -7  -5  315.47   40.80
  -3   7   5  247.68   24.40
  -3   7   5  246.98   43.80
  -3   7   5  342.97   41.80
   1  -7  -5    4.40    8.70
   1  -7  -5   -1.60    8.10
   1  -7  -5   -9.30   14.10
  -1   7   5   62.99   27.20
  -1   7   5   21.90   14.80
  -1   7   5   26.90   18.70
  -1  -7  -5   34.60   21.10
  -1  -7  -5   18.60   14.70
  -1  -7  -5   32.90   21.20
   1   7   5   13.90   15.50
   1   7   5   -2.00   14.90
   1   7   5    6.60   12.80
  -3  -7  -5   92.49   27.00
  -3  -7  -5   85.49   28.90
  -3  -7  -5   58.89   24.20
   3   7   5   79.79   29.10
   3   7   5  101.69   30.90
  -5  -7  -5  227.68   50.09
  -5  -7  -5  267.47   48.30
  -5  -7  -5  304.87   53.29
   5   7   5  243.68   48.90
   5   7   5  203.78   45.30
   5   7   5  308.57   55.09
  -7  -7  -5  478.55   61.49
  -7  -7  -5  696.73   73.09
  -7  -7  -5  528.05   66.09
   7   7   5  481.85   73.09
   7   7   5  558.74   64.59
   7   7   5  566.24   66.99
  -9  -7  -5   38.80   27.30
  -9  -7  -5   21.00   23.30
  -9  -7  -5   87.59   35.60
   9   7   5    8.50   16.00
   9   7   5   -5.10   28.80
 -11  -7  -5   62.79   41.00
 -13  -7  -5   48.90   36.90
  18  -8  -5   -4.40   32.30
  14  -8  -5   -3.40   16.90
 -14   8   5  -13.60   17.30
  12  -8  -5   19.80   20.20
  10  -8  -5  -18.20    9.10
 -10   8   5   44.50   27.10
 -10   8   5   17.70    6.90
 -10   8   5  -12.10   15.70
   8  -8  -5   -0.70   13.80
  -8   8   5   30.60   18.90
  -8   8   5   34.40   18.50
   6  -8  -5  133.79   34.00
   6  -8  -5   67.29   28.30
  -6   8   5   59.09   26.70
  -6   8   5  138.09   33.70
  -4   8   5   11.40   11.20
  -4   8   5    7.70    6.30
  -4   8   5    7.00   12.90
  -4   8   5   -5.90    4.10
   2  -8  -5   17.40   15.70
   2  -8  -5   17.60   10.80
   2  -8  -5   21.00   21.10
  -2   8   5    6.10   14.80
  -2   8   5    2.60   11.00
  -2   8   5   -8.90    9.90
   0  -8  -5   -8.00    9.40
   0  -8  -5   -9.60   15.70
   0   8   5   11.80   13.00
   0   8   5    2.50    9.20
   0   8   5   -7.80   11.70
  -2  -8  -5   65.49   30.20
  -2  -8  -5  110.19   33.00
  -2  -8  -5   77.39   24.30
   2   8   5   94.19   29.40
   2   8   5   76.39   25.90
   2   8   5   91.79   28.70
  -4  -8  -5  -12.60   14.40
  -4  -8  -5   -1.70   14.30
  -4  -8  -5   19.30   17.00
   4   8   5   22.90   22.50
   4   8   5   -1.50   12.50
   4   8   5   29.10   22.40
  -6  -8  -5  -20.00    8.90
  -6  -8  -5  -13.00   17.10
  -6  -8  -5   -1.90   24.10
   6   8   5  -10.70    6.90
   6   8   5   -1.10   17.00
   6   8   5    6.00   25.40
  -8  -8  -5   10.40   22.80
  -8  -8  -5   17.40   19.50
   8   8   5   -2.50   18.90
   8   8   5  -44.00   17.10
   8   8   5   12.50   28.00
 -10  -8  -5   20.10   26.30
 -12  -8  -5  -25.70   32.10
  17  -9  -5  -42.30   22.20
  13  -9  -5    0.40   28.10
 -13   9   5   28.50   25.70
 -11   9   5  -15.50   16.30
   9  -9  -5   79.59   30.20
  -9   9   5   42.40   24.80
   7  -9  -5    6.10   14.70
   7  -9  -5   37.10   23.00
  -7   9   5   83.79   31.50
  -7   9   5   33.20   21.40
   5  -9  -5    9.50   13.00
   5  -9  -5   -5.60   17.80
  -5   9   5   22.00   20.20
  -5   9   5   31.80   23.30
   3  -9  -5   21.50   16.60
   3  -9  -5    1.50   16.40
  -3   9   5   20.20    9.50
  -3   9   5  -22.40    8.60
  -3   9   5   -7.40   14.40
   1  -9  -5  218.28   46.60
   1  -9  -5  259.47   49.99
   1  -9  -5  211.98   27.20
  -1   9   5  285.97   52.09
  -1   9   5  240.28   30.60
  -1   9   5  211.28   42.10
  -1  -9  -5    6.00   16.50
  -1  -9  -5   27.30   20.70
  -1  -9  -5   20.80   16.10
   1   9   5    1.40   14.50
   1   9   5    4.80   12.70
   1   9   5   -4.50   18.10
  -3  -9  -5   32.90   19.00
  -3  -9  -5   18.80   22.50
  -3  -9  -5   49.10   22.00
   3   9   5   14.80   16.20
   3   9   5    8.80   21.70
   3   9   5   26.50   23.90
  -5  -9  -5   17.10   19.00
  -5  -9  -5    6.40   13.60
   5   9   5  -39.50   18.00
   5   9   5    7.60   17.50
  -7  -9  -5   91.99   33.20
  -7  -9  -5   99.79   36.40
   7   9   5   40.70   40.40
   7   9   5   90.19   31.00
  -9  -9  -5   15.30   23.90
   9   9   5   41.90   31.30
 -11  -9  -5  117.09   43.40
  14 -10  -5   33.70   30.50
  12 -10  -5  409.46   72.29
  10 -10  -5   41.40   28.50
 -10  10   5   66.59   26.30
   8 -10  -5   47.20   23.60
  -8  10   5   23.40   19.40
   6 -10  -5  377.86   61.79
  -6  10   5  445.56   56.79
   4 -10  -5  530.15   62.49
  -4  10   5  562.14   63.39
  -4  10   5  541.75   61.49
   2 -10  -5  110.39   18.40
   2 -10  -5   60.69   27.20
   2 -10  -5  120.29   37.30
  -2  10   5  116.39   19.80
  -2  10   5   99.29   30.30
  -2  10   5   85.89   28.20
   0 -10  -5   88.79   31.00
   0 -10  -5   61.29   32.60
   0  10   5  155.78   38.80
   0  10   5   90.19   24.30
   0  10   5   66.19   31.40
  -2 -10  -5  729.03   76.69
  -2 -10  -5  659.23   60.59
   2  10   5  755.02   64.69
   2  10   5  763.12   76.09
   2  10   5  742.83   76.39
  -4 -10  -5  187.58   46.70
  -4 -10  -5  154.28   38.40
   4  10   5  248.78   51.49
   4  10   5  126.59   37.30
  -6 -10  -5   14.80   19.60
  -6 -10  -5    4.60   17.60
   6  10   5  -19.90   23.20
   6  10   5  -40.80   15.50
  -8 -10  -5  212.18   51.69
  -8 -10  -5  157.68   49.10
   8  10   5  189.98   55.39
 -10 -10  -5  246.08   61.39
  15 -11  -5  285.37   70.59
  13 -11  -5  -27.60   21.90
  11 -11  -5  175.78   47.70
   9 -11  -5  469.75   75.79
  -9  11   5  673.63   70.79
   7 -11  -5  115.19   38.60
  -7  11   5  102.79   34.00
   5 -11  -5    8.10   26.30
  -5  11   5    9.70   16.40
   3 -11  -5  320.07   55.59
   1 -11  -5  883.31   84.09
  -1  11   5  613.74   69.99
  -1 -11  -5   55.39   26.20
  -1 -11  -5   49.30   20.10
   1  11   5   24.40   26.60
  -3 -11  -5   43.00   31.20
  -3 -11  -5   35.60   21.80
  -5 -11  -5  740.33   71.69
  -5 -11  -5  693.93   81.99
   5  11   5  738.73   83.29
  -7 -11  -5  204.38   49.30
  -7 -11  -5  283.47   63.09
  -9 -11  -5   17.20   22.10
  14 -12  -5  355.06   83.99
  12 -12  -5  553.24   88.69
  10 -12  -5  142.49   47.20
   8 -12  -5  235.18   49.10
   6 -12  -5  500.55   78.99
  -6  12   5  572.84   68.69
   4 -12  -5  765.32   81.19
  -4  12   5  702.93   74.49
   2 -12  -5  -24.70   16.80
  -2  12   5   -8.70   15.30
   0 -12  -5  505.65   76.69
   0  12   5  636.44   69.69
  -2 -12  -5  305.27   62.09
   2  12   5  354.46   62.49
  -4 -12  -5  311.37   63.99
   4  12   5  301.57   61.09
  -6 -12  -5   44.90   29.20
  -8 -12  -5  383.76  102.79
  11 -13  -5  128.19   44.30
   9 -13  -5   62.59   36.40
   7 -13  -5  439.36   73.79
   5 -13  -5  225.08   50.79
   3 -13  -5  732.73   83.39
   1 -13  -5  256.37   59.19
  -1 -13  -5   96.09   37.20
  -3 -13  -5  172.28   46.50
  -5 -13  -5  287.67   66.09
  -7 -13  -5  170.58   55.49
  10 -14  -5   92.29   54.09
   8 -14  -5   -6.20   30.40
   6 -14  -5  288.17   60.99
   4 -14  -5  136.29   43.10
   2 -14  -5   10.90   19.10
   0 -14  -5  184.78   54.29
  -2 -14  -5  302.57   67.69
  -4 -14  -5  248.78   60.09
   7 -15  -5  256.47   62.99
   5 -15  -5   -2.30   29.70
   3 -15  -5   25.30   33.00
   1 -15  -5   49.99   28.70
  -1 -15  -5   42.40   29.00
  -5 -15   6   85.39   25.10
  -1 -15   6    0.20   10.20
 -10 -14   6  312.47   57.99
  -8 -14   6  232.38   42.60
  -6 -14   6   17.30   20.30
  -4 -14   6  545.15   48.80
  -2 -14   6   25.10   11.30
   0 -14   6   13.00    6.00
 -11 -13   6   45.90   35.50
 -11 -13   6   44.40   26.50
  -9 -13   6  166.98   38.60
  -9 -13   6  102.19   40.50
  -7 -13   6  -31.30   19.30
  -7 -13   6  -10.40   14.30
  -5 -13   6  286.07   35.80
  -5 -13   6  245.08   53.19
  -3 -13   6  400.86   37.70
  -1 -13   6   95.09   16.10
 -14 -12   6   25.40   30.60
 -14 -12   6   84.19   38.50
 -12 -12   6  363.76   73.49
 -12 -12   6  374.86   61.89
 -10 -12   6  343.37   64.09
 -10 -12   6  343.97   55.79
   8  12  -6  170.88   46.60
  -8 -12   6  139.39   31.60
  -8 -12   6  171.08   47.40
   6  12  -6  171.68   45.40
  -6 -12   6  141.19   30.00
  -6 -12   6  135.89   43.10
  -4 -12   6    7.80   19.30
  -4 -12   6   59.89   18.10
  -4 -12   6   40.40   24.20
  -2 -12   6  297.67   27.60
  -2 -12   6  294.87   27.10
  -2 -12   6  335.87   54.99
   0 -12   6  183.58   41.60
   6 -12   6  159.58   11.10
   6 -12   6  158.98   11.40
   8 -12   6   81.89   17.40
 -15 -11   6    7.20   24.90
 -15 -11   6  -26.70   30.90
 -13 -11   6  164.38   53.99
 -13 -11   6  179.78   45.00
 -11 -11   6  200.48   49.70
 -11 -11   6  179.58   43.70
   9  11  -6   14.40   26.30
  -9 -11   6   21.50   23.40
  -9 -11   6   18.60   19.00
   7  11  -6  540.75   45.90
   7  11  -6  459.35   71.89
  -7 -11   6  626.64   70.79
  -7 -11   6  488.15   49.30
   5  11  -6  694.93   42.60
  -5 -11   6  876.01   79.49
  -5 -11   6  697.03   52.29
  -5 -11   6  722.43   53.59
  -3 -11   6  127.99   22.00
  -3 -11   6  139.19   37.00
  -3 -11   6  137.39   22.20
  -3 -11   6  142.09   36.80
  -1 -11   6 1110.59   87.09
  -1 -11   6 1165.78   52.99
  -1 -11   6  941.71   83.19
  -1 -11   6 1033.50   45.80
   1 -11   6  116.99   33.20
   3 -11   6   20.30   19.90
   7 -11   6   19.20    8.30
   9 -11   6  148.99   28.40
 -16 -10   6  190.18   65.09
 -16 -10   6  142.49   52.59
 -14 -10   6   -3.50   31.50
 -14 -10   6   31.90   24.80
 -12 -10   6 1716.23  120.39
 -12 -10   6 1709.03  135.99
  10  10  -6   -7.90   20.50
 -10 -10   6   30.20   26.10
 -10 -10   6   11.50   18.00
   8  10  -6   20.40   14.30
   8  10  -6   22.60   26.40
  -8 -10   6   10.40   18.50
  -8 -10   6   39.40   20.00
   6  10  -6  965.40   88.29
   6  10  -6  961.50   56.89
   6  10  -6  913.41   56.59
  -6 -10   6  781.92   78.49
  -6 -10   6  767.72   58.09
  -6 -10   6  855.21   60.89
   4  10  -6  197.48   14.50
   4  10  -6  232.98   16.00
  -4 -10   6  249.28   28.20
  -4 -10   6  265.77   49.99
  -2 -10   6  379.76   50.99
  -2 -10   6  347.27   24.90
  -2 -10   6  389.76   59.69
  -2 -10   6  350.36   25.70
   0 -10   6 1019.70   81.29
   0 -10   6  993.30   82.69
   2 -10   6   76.99   26.30
   2 -10   6   77.89   27.90
   4 -10   6  623.54  118.99
   4 -10   6  742.33   69.89
   6 -10   6  163.78   17.60
   6 -10   6  146.79   17.80
   8 -10   6    9.20   11.00
 -17  -9   6  414.86   76.99
 -15  -9   6   74.39   28.90
 -15  -9   6  170.78   55.59
 -13  -9   6  622.84   67.59
 -13  -9   6  472.75   82.99
  11   9  -6  335.27   52.09
  11   9  -6  438.36   72.09
 -11  -9   6  311.27   52.69
 -11  -9   6  436.86   73.59
   9   9  -6  214.98   37.50
   9   9  -6  218.98   48.20
  -9  -9   6  180.68   47.60
  -9  -9   6  208.68   38.70
   7   9  -6  828.92   80.59
   7   9  -6  751.42   54.69
   7   9  -6  829.82   57.59
  -7  -9   6  840.72   61.29
  -7  -9   6  682.53   72.59
  -7  -9   6  788.92   60.19
   5   9  -6  767.22   72.19
   5   9  -6  700.23   42.60
   5   9  -6  664.93   41.80
  -5  -9   6  733.13   49.70
  -5  -9   6  736.03   69.99
  -5  -9   6  664.83   49.00
  -3  -9   6   79.89   15.30
  -3  -9   6   79.39   26.40
  -3  -9   6   69.59   14.20
  -3  -9   6   79.09   27.00
  -1  -9   6 2167.88  128.69
  -1  -9   6 2376.16  131.39
   1  -9   6   14.70   17.40
   3  -9   6   43.90   24.30
   3  -9   6   10.10   19.80
   5  -9   6 1924.41  118.89
   5  -9   6 1855.31   73.59
   5  -9   6 1809.32   74.39
  -7   9  -6    0.80   21.50
   7  -9   6   21.40   12.00
   7  -9   6    6.70    9.20
   9  -9   6  150.58   29.60
  11  -9   6  386.06   48.30
 -18  -8   6  419.06   74.29
 -18  -8   6  389.26   86.89
 -16  -8   6   20.70   29.10
 -16  -8   6    5.20   26.90
 -14  -8   6   53.09   25.70
 -14  -8   6   50.99   30.90
  12   8  -6 2220.58  150.78
  12   8  -6 2177.28  131.89
 -12  -8   6 2234.68  151.28
 -12  -8   6 2203.58  135.09
  10   8  -6   76.09   34.60
  10   8  -6   51.89   26.10
 -10  -8   6  110.09   40.00
 -10  -8   6   31.40   19.40
   8   8  -6   14.70   19.20
   8   8  -6    3.80    9.70
   8   8  -6   -7.60   11.80
  -8  -8   6  -10.30   19.00
  -8  -8   6   -1.30   10.10
  -8  -8   6   60.49   21.60
   6   8  -6 2330.57  102.79
   6   8  -6 2222.68  133.89
   6   8  -6 2247.18  101.89
  -6  -8   6 2361.46  108.89
  -6  -8   6 2293.57  135.39
  -6  -8   6 2282.47  107.79
   4   8  -6    5.20    4.40
   4   8  -6   10.10    5.80
  -4  -8   6   -0.90    6.70
  -4  -8   6    2.30   15.60
  -2  -8   6  723.93   67.69
  -2  -8   6  758.62   67.39
  -2  -8   6  780.42   34.90
   0  -8   6  871.61   73.79
   0  -8   6  798.82   69.29
   2  -8   6  517.95   56.79
   2  -8   6  478.25   53.99
   4  -8   6 1032.80   81.29
   4  -8   6  987.10   43.00
   4  -8   6 1001.80   44.30
  -6   8  -6  300.97   57.09
   6  -8   6  295.97   51.79
   6  -8   6  234.78   25.90
   6  -8   6  227.98   26.10
  -8   8  -6  200.68   49.20
  -8   8  -6  126.09   12.90
   8  -8   6  115.99   38.60
   8  -8   6  121.69   25.60
 -10   8  -6  876.51   89.49
  10  -8   6  877.91   67.89
  12  -8   6   18.40   21.40
 -19  -7   6  -25.50   40.60
 -19  -7   6  -29.90   32.80
 -17  -7   6  406.26   72.39
 -17  -7   6  515.65   91.79
  15   7  -6  204.18   46.40
 -15  -7   6  202.28   58.09
 -15  -7   6  248.68   52.59
  13   7  -6   97.19   38.30
  13   7  -6   71.99   25.10
 -13  -7   6   74.29   28.10
 -13  -7   6  178.48   47.60
  11   7  -6  291.17   59.59
  11   7  -6  463.75   54.49
  11   7  -6  406.76   48.60
 -11  -7   6  397.86   50.69
 -11  -7   6  398.36   67.89
   9   7  -6  456.75   47.10
   9   7  -6  541.15   62.09
   9   7  -6  592.24   52.39
  -9  -7   6  422.26   47.40
  -9  -7   6  456.95   61.79
  -9  -7   6  519.15   50.79
   7   7  -6  911.91   60.49
   7   7  -6 1043.20   64.09
   7   7  -6 1099.99   85.89
  -7  -7   6 1027.10   66.59
  -7  -7   6  999.80   65.69
  -7  -7   6  857.31   78.99
   5   7  -6  522.45   36.60
   5   7  -6  583.74   37.90
   5   7  -6  625.04   60.89
  -5  -7   6  633.64   42.90
  -5  -7   6  570.14   61.49
  -3  -7   6   -5.50    5.20
  -3  -7   6  -10.70   10.10
  -3  -7   6   11.60   13.30
  -1  -7   6 3369.26  162.98
  -1  -7   6 3161.78  157.68
   1  -7   6  184.08   38.70
   1  -7   6  183.48   36.30
   3  -7   6   17.30    5.30
   3  -7   6   10.80    4.60
   3  -7   6    9.80   15.10
  -5   7  -6 2025.60  126.69
   5  -7   6 2045.60  123.09
   5  -7   6 2082.09   89.69
   5  -7   6 2108.19   87.59
  -7   7  -6  260.67   21.70
  -7   7  -6  166.98   43.70
   7  -7   6  217.58   28.50
   7  -7   6  224.38   33.70
   7  -7   6  225.18   47.80
  -9   7  -6  461.35   72.69
   9  -7   6  526.15   49.80
   9  -7   6  508.35  118.89
 -11   7  -6  592.44   76.59
  11  -7   6  497.05   55.19
 -13   7  -6  108.99   47.10
  13  -7   6   83.39   31.10
 -20  -6   6  111.99   44.80
 -18  -6   6  324.67   71.29
 -18  -6   6  329.07   71.99
  16   6  -6  178.08   42.60
 -16  -6   6  181.78   46.10
 -16  -6   6  232.68   62.49
  14   6  -6  -12.70   10.00
  14   6  -6   20.20   27.60
 -14  -6   6   18.20   20.30
 -14  -6   6   26.40   27.60
  12   6  -6 1388.76  108.49
  12   6  -6 1367.66   98.59
  12   6  -6 1228.78   91.89
 -12  -6   6 1621.14  117.89
 -12  -6   6 1344.97   97.99
  10   6  -6   12.50   15.20
  10   6  -6    8.30   16.00
  10   6  -6  -10.40   17.80
 -10  -6   6   14.20   19.40
 -10  -6   6   -5.30   12.40
 -10  -6   6   -5.40    7.20
   8   6  -6  145.59   28.40
   8   6  -6   90.29   30.90
   8   6  -6  148.09   31.70
  -8  -6   6  177.38   33.00
  -8  -6   6  142.29   37.70
   6   6  -6 1303.77   70.49
   6   6  -6 1385.76   95.39
   6   6  -6 1505.75   73.59
  -6  -6   6 1426.96   75.69
  -6  -6   6 1325.37   95.79
   4   6  -6    4.60    5.10
   4   6  -6    8.70    6.40
  -4  -6   6   -2.00    9.00
  -4  -6   6    8.10    7.90
  -4  -6   6    3.20    7.00
  -2  -6   6  746.03   64.89
  -2  -6   6  836.22   35.70
  -2  -6   6  848.82   68.49
  -2  -6   6  779.02   34.10
   0  -6   6  642.64   59.49
   0  -6   6  741.63   63.59
   2  -6   6  142.09   10.10
   2  -6   6  115.49    9.20
   2  -6   6  133.99   34.20
  -4   6  -6 1146.49   87.69
   4  -6   6 1156.18   84.49
   4  -6   6 1101.99   53.59
   4  -6   6 1050.19   53.99
  -6   6  -6  979.10   83.99
   6  -6   6 1055.49   59.49
   6  -6   6  828.42   74.59
   6  -6   6  918.41   58.29
  -8   6  -6   11.40   11.40
  -8   6  -6    0.60   12.10
  -8   6  -6   -3.60   12.70
   8  -6   6   23.10   14.10
   8  -6   6   24.90   22.10
   8  -6   6   13.10   15.30
 -10   6  -6  458.35   76.49
  10  -6   6  621.54   73.99
  10  -6   6  550.94   55.69
 -12   6  -6   -2.50   28.00
  12  -6   6   25.10   18.90
 -19  -5   6  128.89   53.99
 -19  -5   6   80.39   48.20
  17   5  -6  486.35   76.59
 -17  -5   6  539.85   82.89
 -17  -5   6  354.56   75.69
  15   5  -6  264.97   54.79
  15   5  -6  206.08   51.69
 -15  -5   6  163.88   51.89
 -15  -5   6  237.18   53.69
  13   5  -6  779.12   98.19
  13   5  -6  844.12   75.89
  13   5  -6  693.73   68.09
 -13  -5   6  677.73   68.59
 -13  -5   6  598.84   73.79
  11   5  -6  603.04   59.89
  11   5  -6  576.14   66.79
  11   5  -6  660.23   61.39
 -11  -5   6  608.84   69.99
 -11  -5   6  601.64   59.49
   9   5  -6  499.25   47.50
   9   5  -6  437.16   45.00
   9   5  -6  367.56   58.89
  -9  -5   6  405.26   44.40
  -9  -5   6  429.36   53.39
   7   5  -6  696.53   51.49
   7   5  -6  782.12   53.89
   7   5  -6  715.53   67.39
  -7  -5   6  714.53   66.09
  -7  -5   6  765.32   54.89
   5   5  -6  441.06   33.00
   5   5  -6  464.25   51.49
   5   5  -6  427.66   32.60
  -5  -5   6  392.06   46.90
  -5  -5   6  481.65   36.40
  -5  -5   6  408.46   33.90
   3   5  -6  134.59   11.00
  -3  -5   6  124.09   30.70
  -3  -5   6  152.88   16.60
  -3  -5   6  167.08   35.60
  -3  -5   6  141.09   16.30
  -1  -5   6 2230.38   72.79
  -1  -5   6 1880.21  111.99
  -1  -5   6 2195.08   72.79
  -1  -5   6 2107.19  117.89
   1  -5   6  389.96   20.30
   1  -5   6  430.96   47.60
   1  -5   6  403.06   20.50
  -3   5  -6  126.19   33.30
   3  -5   6  115.99   16.70
   3  -5   6   82.19   14.70
   3  -5   6   97.19   28.70
  -5   5  -6  989.40   81.09
  -5   5  -6  841.72   47.30
   5  -5   6  917.41   54.49
   5  -5   6  942.91   75.69
  -7   5  -6   -2.50   11.90
  -7   5  -6   24.80   12.30
  -7   5  -6    0.20   18.50
   7  -5   6    6.30   11.70
   7  -5   6   -2.70    9.10
   7  -5   6    5.90   19.50
  -9   5  -6   84.09   32.90
  -9   5  -6  113.89   26.40
   9  -5   6   72.19   24.70
   9  -5   6   54.39   33.30
 -11   5  -6  119.39   45.10
  11  -5   6   90.39   33.20
  11  -5   6   43.90   21.50
 -13   5  -6  -28.80   17.40
  13  -5   6    8.20   14.30
 -20  -4   6  -18.30   24.00
  18   4  -6   43.70   31.50
 -18  -4   6   17.70   27.20
 -18  -4   6   86.39   40.40
  16   4  -6  153.48   45.40
  16   4  -6  107.19   34.20
 -16  -4   6  189.98   46.90
 -16  -4   6   94.09   40.00
  14   4  -6  122.69   39.60
  14   4  -6   40.60   27.80
  14   4  -6   52.09   17.70
 -14  -4   6   30.10   23.80
  12   4  -6  641.24   68.19
  12   4  -6  661.43   64.49
  12   4  -6  587.94   62.49
 -12  -4   6  651.63   71.49
 -12  -4   6  593.24   62.89
 -12  -4   6  632.34   62.09
  10   4  -6  154.28   34.30
  10   4  -6   57.59   26.50
  10   4  -6   68.99   22.80
 -10  -4   6   50.89   20.90
 -10  -4   6   50.79   20.70
 -10  -4   6   90.79   29.40
   8   4  -6 1303.17   78.59
   8   4  -6 1424.86   79.59
   8   4  -6 1221.88   88.59
  -8  -4   6 1184.18   76.19
  -8  -4   6 1273.27   78.29
  -8  -4   6 1210.68   90.29
   6   4  -6 1274.57   70.09
   6   4  -6 1440.86   72.69
   6   4  -6 1282.17   87.49
  -6  -4   6 1253.47   70.69
  -6  -4   6 1254.17   86.79
  -6  -4   6 1345.47   72.79
   4   4  -6  994.80   49.90
  -4  -4   6  875.41   51.09
  -4  -4   6 1037.40   54.19
  -4  -4   6 1058.59   76.39
   2   4  -6  493.65   21.50
   2   4  -6  449.06   21.20
  -2  -4   6  506.65   51.89
  -2  -4   6  492.15   29.10
  -2  -4   6  435.16   27.70
  -2  -4   6  435.06   49.80
   0  -4   6  562.74   29.10
   0  -4   6  556.14   29.30
   0  -4   6  564.44   54.89
  -2   4  -6  528.55   53.19
  -2   4  -6  473.25   24.30
   2  -4   6  401.86   45.40
   2  -4   6  461.65   30.10
   2  -4   6  462.25   29.80
  -4   4  -6  751.82   66.29
  -4   4  -6  721.13   41.30
   4  -4   6  757.22   46.90
   4  -4   6  603.84   42.80
   4  -4   6  608.74   59.89
  -6   4  -6  512.95   40.60
  -6   4  -6  519.25   57.99
   6  -4   6  415.26   39.60
   6  -4   6  478.85   55.49
   6  -4   6  411.26   41.00
  -8   4  -6 1132.69   93.99
  -8   4  -6 1029.20   69.79
   8  -4   6 1107.79   75.89
   8  -4   6 1181.98   97.49
   8  -4   6 1074.99   75.59
 -10   4  -6  136.79   42.40
  10  -4   6  198.78   38.40
  10  -4   6   96.09   41.90
 -12   4  -6  218.78   56.69
  12  -4   6  246.68   49.50
 -14   4  -6  -34.70   32.60
  14  -4   6   17.70   28.10
 -21  -3   6  397.46   89.69
 -19  -3   6  367.86   75.69
  17   3  -6   -7.50   15.30
 -17  -3   6   -6.40   17.30
 -17  -3   6  -19.90   21.70
  15   3  -6  571.94   70.99
  15   3  -6  487.85   62.59
  15   3  -6  519.55   61.79
 -15  -3   6  484.05   75.29
 -15  -3   6  524.25   81.39
  13   3  -6  397.06   63.79
  13   3  -6  306.67   57.89
  13   3  -6  469.85   54.19
 -13  -3   6  389.76   60.59
 -13  -3   6  386.26   63.39
 -13  -3   6  252.87   47.40
  11   3  -6  -16.40   11.10
  11   3  -6   21.90   16.70
  11   3  -6    9.50   15.10
 -11  -3   6   27.40   19.80
 -11  -3   6    4.00   11.00
 -11  -3   6   15.60   18.40
   9   3  -6 1444.66   96.39
   9   3  -6 1295.97   84.49
   9   3  -6 1314.97   84.19
  -9  -3   6 1412.46   87.29
  -9  -3   6 1279.17   92.49
  -9  -3   6 1553.54   90.59
   7   3  -6   -4.60    8.70
   7   3  -6   12.20   16.00
   7   3  -6   11.60   11.50
  -7  -3   6   13.60   13.40
  -7  -3   6   10.50    9.70
  -7  -3   6    0.90    8.80
   5   3  -6 1290.37   67.39
   5   3  -6 1333.07   68.39
   5   3  -6 1395.76   87.19
  -5  -3   6 1365.46   69.99
  -5  -3   6 1232.38   83.19
  -5  -3   6 1290.47   69.29
   3   3  -6  810.32   42.50
  -3  -3   6  713.43   59.59
  -3  -3   6  828.02   45.30
  -3  -3   6  733.13   43.60
  -3  -3   6  705.63   59.49
   1   3  -6   27.90    7.80
   1   3  -6   51.89   10.70
  -1  -3   6   71.79   13.40
  -1  -3   6   51.49   18.80
  -1  -3   6   46.00   11.20
  -1   3  -6 2765.12  138.99
  -1   3  -6 2808.82  102.39
   1  -3   6 2958.70  139.79
   1  -3   6 2758.82  106.39
   1  -3   6 2661.73  105.79
  -3   3  -6 1296.27   60.89
  -3   3  -6 1203.98   59.29
  -3   3  -6 1089.99   82.19
   3  -3   6 1134.49   61.39
   3  -3   6 1239.88   63.39
   3  -3   6 1125.19   81.29
  -5   3  -6    3.30   12.60
  -5   3  -6    2.70    9.70
  -5   3  -6   19.60   11.30
   5  -3   6    9.20   11.00
   5  -3   6    0.20   17.10
   5  -3   6    4.40    9.30
  -7   3  -6  481.75   45.10
  -7   3  -6  412.56   42.40
  -7   3  -6  455.65   58.59
   7  -3   6  339.37   40.80
   7  -3   6  464.05   56.19
   7  -3   6  435.56   45.20
  -9   3  -6   31.80   23.50
  -9   3  -6  -19.20   11.10
   9  -3   6   17.50   26.40
   9  -3   6   13.90   17.70
 -11   3  -6   54.29   34.80
  11  -3   6   95.79   40.80
  11  -3   6   -2.90   21.10
 -13   3  -6  420.26   74.99
  13  -3   6  294.97   52.49
 -15   3  -6   61.69   47.20
  15  -3   6  142.29   41.00
 -20  -2   6  582.34  100.39
 -18  -2   6   79.99   40.20
 -18  -2   6   86.69   40.20
  16   2  -6   28.80   31.00
  16   2  -6   47.40   36.40
  16   2  -6   35.10   23.60
 -16  -2   6   53.29   31.80
 -16  -2   6   80.79   40.30
  14   2  -6  420.36   63.79
  14   2  -6  300.77   56.99
  14   2  -6  318.97   59.89
 -14  -2   6  378.66   64.79
 -14  -2   6  364.16   62.29
 -14  -2   6  344.27   58.29
  12   2  -6    3.20   16.00
  12   2  -6   76.19   29.60
  12   2  -6   40.90   17.60
 -12  -2   6   46.30   24.50
 -12  -2   6   31.80   21.00
 -12  -2   6   23.60   17.90
  10   2  -6 1049.20   79.69
  10   2  -6  931.21   71.39
  10   2  -6 1040.00   75.99
 -10  -2   6  959.80   78.29
 -10  -2   6  957.90   73.39
 -10  -2   6 1099.49   77.79
   8   2  -6 3100.39  142.99
   8   2  -6 3027.40  150.48
  -8  -2   6 3147.08  143.99
  -8  -2   6 3406.56  158.38
  -8  -2   6 3028.50  141.89
   6   2  -6   14.50   15.40
   6   2  -6    8.10    9.80
  -6  -2   6    9.00   10.20
  -6  -2   6  -14.10    8.20
  -6  -2   6   31.90   19.60
   4   2  -6 4116.59  149.88
   4   2  -6 3912.81  149.29
  -4  -2   6 3628.74  148.29
  -4  -2   6 3715.53  148.99
  -4  -2   6 3989.10  170.48
   2   2  -6   85.19   15.60
   2   2  -6  116.29   18.70
  -2  -2   6  101.89   17.90
  -2  -2   6  138.39   21.00
  -2  -2   6  121.39   28.80
   0   2  -6   21.30   14.40
   0   2  -6   27.00   10.30
   0   2  -6   23.20    9.00
   0  -2   6   24.90   10.00
   0  -2   6   48.80   13.00
   0  -2   6   11.70   14.20
  -2   2  -6 4748.43  198.58
  -2   2  -6 4401.86  164.28
  -2   2  -6 4586.34  165.58
   2  -2   6 4518.55  168.38
   2  -2   6 4139.29  190.18
   2  -2   6 4541.45  167.58
  -4   2  -6   87.49   20.30
  -4   2  -6   86.29   19.00
  -4   2  -6   59.29   24.60
   4  -2   6  125.49   23.40
   4  -2   6   74.69   23.30
   4  -2   6  120.49   22.50
  -6   2  -6   26.70   15.00
  -6   2  -6   49.20   18.30
  -6   2  -6    9.90   14.10
   6  -2   6   16.90   20.80
   6  -2   6   27.70   14.10
   6  -2   6   49.40   18.40
  -8   2  -6 1656.93   99.69
  -8   2  -6 1776.32  120.39
  -8   2  -6 1593.44   97.59
   8  -2   6 1785.22  103.99
   8  -2   6 1601.14  100.19
   8  -2   6 1802.82  120.39
 -10   2  -6    8.50   20.10
 -10   2  -6   23.60   21.90
  10  -2   6   42.00   24.60
  10  -2   6   10.60   27.20
 -12   2  -6  680.53   84.69
  12  -2   6  709.63   73.29
 -14   2  -6  262.97   71.59
  14  -2   6  225.88   49.40
 -21  -1   6  232.78   62.19
 -19  -1   6  133.49   49.60
  17   1  -6  -20.70   30.50
  17   1  -6    1.20   24.90
  17   1  -6   -1.40   25.20
 -17  -1   6   -9.10   27.00
 -17  -1   6  -17.80   14.60
  15   1  -6 1412.06  107.39
  15   1  -6 1373.46  106.59
  15   1  -6 1365.16  113.79
 -15  -1   6 1426.26  112.29
 -15  -1   6 1391.36  110.49
 -15  -1   6 1539.15  115.89
  13   1  -6  -21.60   12.10
  13   1  -6   36.70   20.30
  13   1  -6   -2.70   15.70
 -13  -1   6   46.10   23.70
 -13  -1   6  -37.90   13.90
 -13  -1   6    0.90   15.10
  11   1  -6  -16.70    6.00
  11   1  -6    1.10   11.00
  11   1  -6   -5.30    9.10
 -11  -1   6   -0.70   16.60
 -11  -1   6    3.80   13.10
 -11  -1   6   -4.90   13.30
   9   1  -6 5173.18  210.08
   9   1  -6 4957.40  206.78
   9   1  -6 4983.40  212.28
  -9  -1   6 5011.80  208.68
  -9  -1   6 4926.61  212.48
  -9  -1   6 4706.13  205.68
   7   1  -6  151.98   28.60
   7   1  -6  154.08   32.60
   7   1  -6  127.89   27.40
  -7  -1   6  139.49   27.50
  -7  -1   6  171.08   31.10
  -7  -1   6  162.98   33.50
   5   1  -6  238.28   31.80
   5   1  -6  206.78   30.90
  -5  -1   6  234.08   28.60
  -5  -1   6  168.48   29.00
  -5  -1   6  189.28   34.20
   3   1  -6  996.00   57.39
   3   1  -6  964.20   55.49
  -3  -1   6 1007.60   58.89
  -3  -1   6 1037.80   71.99
  -3  -1   6 1058.69   58.89
  -3  -1   6  912.21   65.19
   1   1  -6  371.86   40.00
   1   1  -6  327.77   29.50
   1   1  -6  384.66   30.20
  -1  -1   6  281.97   28.10
  -1  -1   6  364.96   30.70
  -1  -1   6  320.87   37.40
  -1   1  -6 2579.44  133.59
  -1   1  -6 2716.03  115.19
  -1   1  -6 2790.62  115.79
   1  -1   6 2902.81  118.59
   1  -1   6 2903.31  118.69
   1  -1   6 3076.59  141.09
  -3   1  -6 1531.75   95.49
  -3   1  -6 1405.26   75.09
  -3   1  -6 1328.77   74.59
   3  -1   6 1265.37   88.39
   3  -1   6 1441.66   77.99
   3  -1   6 1537.75   79.29
  -5   1  -6  186.78   31.60
  -5   1  -6  140.79   28.00
  -5   1  -6  167.68   39.50
   5  -1   6  216.08   34.60
   5  -1   6  179.98   31.10
   5  -1   6  165.88   36.10
  -7   1  -6 1123.39   77.69
  -7   1  -6 1003.10   72.79
  -7   1  -6 1058.29   90.39
   7  -1   6 1178.38   79.79
   7  -1   6 1157.18   79.59
   7  -1   6  978.40   85.99
  -9   1  -6   42.00   27.10
  -9   1  -6   28.60   27.80
   9  -1   6   47.20   21.50
 -11   1  -6  119.79   34.70
 -11   1  -6   61.49   36.90
  11  -1   6  131.39   38.40
  11  -1   6  132.69   36.00
 -13   1  -6 1026.50  110.39
  13  -1   6 1255.27  102.49
 -15   1  -6   82.89   60.39
  15  -1   6   56.99   30.70
 -20   0   6  855.01  102.09
  18   0  -6   54.89   24.30
 -18   0   6    5.00   21.30
  16   0  -6  290.67   57.09
  16   0  -6  302.67   70.89
  16   0  -6  284.07   57.59
 -16   0   6  210.38   52.99
 -16   0   6  243.68   53.69
 -16   0   6  291.37   58.19
  14   0  -6 1007.90   84.39
  14   0  -6  864.71   79.09
  14   0  -6  728.33   94.39
 -14   0   6  651.43   70.89
 -14   0   6  943.71   86.89
 -14   0   6  791.72   78.99
  12   0  -6 1391.06   94.39
  12   0  -6 1255.77   94.09
  12   0  -6 1305.37   95.89
 -12   0   6 1426.06   97.29
 -12   0   6 1275.97   95.09
 -12   0   6 1163.98   91.49
  10   0  -6 2027.80  112.89
  10   0  -6 1810.32  108.89
 -10   0   6 1965.00  112.89
 -10   0   6 1993.00  113.99
 -10   0   6 1917.81  111.99
   8   0  -6 3901.61  172.28
   8   0  -6 4272.87  177.98
   8   0  -6 4316.37  179.78
  -8   0   6 3783.92  173.78
  -8   0   6 3915.01  174.18
  -8   0   6 3985.60  174.98
   6   0  -6 2702.03  126.09
   6   0  -6 2639.64  121.99
  -6   0   6 2574.74  123.89
  -6   0   6 2491.55  148.19
  -6   0   6 2534.05  123.99
   4   0  -6 2115.59  101.29
   4   0  -6 2245.28  104.49
  -4   0   6 2272.57  110.69
  -4   0   6 2206.08  103.69
  -4   0   6 2225.88  103.69
  -4   0   6 2108.89  107.89
   2   0  -6   53.89   21.10
   2   0  -6   32.30   10.90
   2   0  -6   59.69   16.40
  -2   0   6   35.20   12.50
  -2   0   6   36.30   17.40
   0   0  -6  137.59   24.10
   0   0  -6  120.79   22.40
   0   0  -6  148.59   30.30
   0   0   6  157.28   26.40
   0   0   6  122.79   27.40
   0   0   6  108.09   21.90
  -2   0  -6 5496.55  209.18
  -2   0  -6 5133.59  221.98
  -2   0  -6 5547.44  208.08
   2   0   6 5702.13  209.78
   2   0   6 5474.45  225.28
   2   0   6 5642.24  210.08
  -4   0  -6  407.16   41.10
  -4   0  -6  287.97   48.00
  -4   0  -6  438.46   41.70
   4   0   6  421.96   42.00
   4   0   6  368.46   45.80
   4   0   6  424.46   42.20
  -6   0  -6    1.50    9.80
  -6   0  -6    4.20   18.50
  -6   0  -6   -4.60    7.70
   6   0   6    9.70   15.10
   6   0   6   -4.80   10.80
   6   0   6    9.70   11.10
  -8   0  -6 1716.33  107.39
  -8   0  -6 1852.31  124.19
   8   0   6 1573.94  105.19
   8   0   6 1745.13  109.09
   8   0   6 1781.82  121.19
 -10   0  -6  192.58   41.70
 -10   0  -6  138.19   44.70
  10   0   6  159.98   44.40
  10   0   6  126.69   34.70
 -12   0  -6  948.01   97.49
  12   0   6  869.81   87.99
 -14   0  -6  342.57   73.89
  14   0   6  324.97   65.39
 -21   1   6  415.56   79.09
 -19   1   6  131.69   46.70
  17  -1  -6   -9.90   24.10
  17  -1  -6   10.40   20.20
 -17   1   6    9.00   24.80
 -17   1   6  -17.70   20.30
 -17   1   6  -15.90   14.00
  15  -1  -6 1493.15  106.89
  15  -1  -6 1465.65  111.99
  15  -1  -6 1559.54  119.89
 -15   1   6 1349.16  111.99
 -15   1   6 1579.94  116.19
 -15   1   6 1484.45  109.89
  13  -1  -6   39.40   31.30
  13  -1  -6   -4.10   10.80
  13  -1  -6   23.50   19.20
 -13   1   6    0.10   10.00
 -13   1   6    6.00   22.60
 -13   1   6   25.40   20.00
  11  -1  -6   14.70   14.60
  11  -1  -6  -10.70    6.20
 -11   1   6    5.00   16.40
 -11   1   6   -1.90    9.90
 -11   1   6   11.20   17.00
   9  -1  -6 4765.32  204.38
   9  -1  -6 4779.92  207.68
   9  -1  -6 4785.32  199.38
  -9   1   6 5132.49  203.98
  -9   1   6 4434.16  202.48
  -9   1   6 4897.81  211.68
   7  -1  -6  150.08   32.00
   7  -1  -6  169.68   31.80
   7  -1  -6  138.19   31.60
  -7   1   6  197.38   35.30
  -7   1   6  187.18   39.10
  -7   1   6  170.68   32.30
   5  -1  -6  240.68   37.60
   5  -1  -6  198.58   32.20
  -5   1   6  213.38   28.20
  -5   1   6  236.38   35.90
  -5   1   6  186.18   31.70
  -5   1   6  201.78   33.20
   3  -1  -6  916.61   60.59
   3  -1  -6  930.11   66.59
  -3   1   6 1069.69   67.19
  -3   1   6 1046.60   63.69
  -3   1   6  987.00   62.39
   1  -1  -6  342.87   34.30
   1  -1  -6  388.96   36.30
  -1   1   6  319.87   36.20
  -1   1   6  268.77   31.80
  -1  -1  -6 2952.90  128.59
  -1  -1  -6 2863.31  128.09
  -1  -1  -6 2814.02  136.19
   1   1   6 2870.91  128.49
   1   1   6 2868.11  137.19
   1   1   6 2835.92  128.19
  -3  -1  -6 1429.86   92.19
  -3  -1  -6 1479.05   83.89
  -3  -1  -6 1502.15   84.09
   3   1   6 1218.68   86.19
   3   1   6 1393.76   83.29
   3   1   6 1450.25   84.29
  -5  -1  -6  147.69   30.50
  -5  -1  -6  177.48   32.50
  -5  -1  -6  134.99   35.30
   5   1   6  202.48   35.20
   5   1   6  190.78   40.70
   5   1   6  152.88   33.00
  -7  -1  -6  922.81   85.49
  -7  -1  -6  991.30   77.29
  -7  -1  -6 1108.49   80.39
   7   1   6 1014.30   87.49
   7   1   6 1010.40   78.29
  -9  -1  -6   83.99   36.10
  -9  -1  -6   42.20   23.00
   9   1   6   85.39   35.40
   9   1   6   65.19   27.30
 -11  -1  -6  176.28   50.19
 -11  -1  -6   95.99   31.50
  11   1   6  143.49   38.70
 -13  -1  -6 1059.19  109.99
  13   1   6 1098.59  103.99
 -15  -1  -6   15.60   34.60
  15   1   6   23.20   38.70
 -20   2   6  487.25   82.49
  18  -2  -6   35.30   26.90
  18  -2  -6   70.09   31.70
 -18   2   6   40.00   31.60
  16  -2  -6  106.39   37.30
  16  -2  -6   90.59   32.80
 -16   2   6   87.79   40.10
 -16   2   6   96.19   38.10
 -16   2   6   69.69   31.50
  14  -2  -6  404.36   49.99
  14  -2  -6  326.37   58.29
  14  -2  -6  309.77   59.99
 -14   2   6  253.57   51.49
 -14   2   6  417.96   66.59
 -14   2   6  465.25   53.59
  12  -2  -6   14.10   14.00
  12  -2  -6   53.69   20.70
 -12   2   6   28.30   17.80
 -12   2   6    4.40   19.80
  10  -2  -6  913.11   67.79
  10  -2  -6  985.20   79.39
  10  -2  -6  939.71   75.19
 -10   2   6  792.32   71.19
 -10   2   6 1091.39   73.69
 -10   2   6 1011.90   78.89
   8  -2  -6 3124.59  140.09
   8  -2  -6 3062.89  149.49
   8  -2  -6 3061.19  152.08
  -8   2   6 3035.80  149.49
  -8   2   6 3129.59  144.99
  -8   2   6 3383.16  154.38
   6  -2  -6   11.90   15.50
   6  -2  -6    2.90    8.50
  -6   2   6    7.90   13.20
  -6   2   6   -3.20    7.00
  -6   2   6    4.10   11.90
   4  -2  -6 4098.09  169.38
   4  -2  -6 4170.28  170.28
  -4   2   6 3942.01  162.78
  -4   2   6 4061.19  170.38
  -4   2   6 3902.21  167.68
  -4   2   6 3953.80  163.58
   2  -2  -6  114.79   24.40
   2  -2  -6  134.19   27.50
   2  -2  -6  110.19   23.50
  -2   2   6  106.09   23.40
  -2   2   6   85.19   22.10
  -2   2   6  109.09   25.10
   0  -2  -6   21.80   13.60
   0  -2  -6   27.10   15.30
   0   2   6    8.10   12.50
   0   2   6   37.00   16.30
   0   2   6   34.50   17.10
  -2  -2  -6 4485.05  188.08
  -2  -2  -6 4429.76  193.08
   2   2   6 4531.45  193.98
   2   2   6 4750.72  190.88
   2   2   6 4531.95  188.88
  -4  -2  -6   84.09   26.40
  -4  -2  -6   69.89   22.10
   4   2   6   51.79   19.20
   4   2   6   51.39   20.70
   4   2   6   67.19   27.60
  -6  -2  -6   14.80   12.50
  -6  -2  -6   18.50   18.00
  -6  -2  -6   22.60   19.60
   6   2   6   28.10   17.00
   6   2   6    1.10   12.50
   6   2   6   11.30   17.40
  -8  -2  -6 1663.33  110.29
  -8  -2  -6 1638.54  118.89
  -8  -2  -6 1686.53  109.09
   8   2   6 1607.94  109.49
   8   2   6 1618.24  111.19
   8   2   6 1636.54  119.49
 -10  -2  -6   14.50   18.50
  10   2   6   52.19   27.00
  10   2   6  -11.60   15.40
 -12  -2  -6  755.42   92.29
  12   2   6  625.24   79.29
 -14  -2  -6  111.89   44.80
  14   2   6  213.18   62.29
 -21   3   6  134.89   65.69
  19  -3  -6  272.47   78.39
 -19   3   6  268.67   61.09
  17  -3  -6   48.90   27.10
 -17   3   6  -38.30   21.70
 -17   3   6   13.90   21.20
  15  -3  -6  534.15   60.39
  15  -3  -6  425.66   70.09
  15  -3  -6  589.74   71.19
 -15   3   6  458.95   74.69
 -15   3   6  531.25   79.29
 -15   3   6  580.04   64.59
  13  -3  -6  390.26   63.19
  13  -3  -6  365.66   44.30
 -13   3   6  318.87   57.39
 -13   3   6  323.17   51.29
 -13   3   6  388.26   62.79
  11  -3  -6    6.70   13.20
  11  -3  -6   -2.60    9.70
  11  -3  -6   -4.90   10.80
 -11   3   6    9.10   16.00
 -11   3   6    6.80   11.80
 -11   3   6    8.60   18.30
   9  -3  -6 1267.37   89.19
   9  -3  -6 1348.07   94.49
   9  -3  -6 1506.25   83.09
  -9   3   6 1336.67   91.79
  -9   3   6 1403.46   93.89
  -9   3   6 1432.96   82.79
   7  -3  -6   16.60   14.70
   7  -3  -6    0.60   10.70
  -7   3   6    5.60   10.70
  -7   3   6   23.20   15.20
  -7   3   6   10.30   14.00
   5  -3  -6 1215.38   81.99
   5  -3  -6 1409.36   84.99
  -5   3   6 1367.36   74.69
  -5   3   6 1368.46   74.09
  -5   3   6 1333.57   83.19
  -5   3   6 1203.18   80.49
   3  -3  -6  776.62   54.49
   3  -3  -6  726.23   58.59
   3  -3  -6  779.92   58.89
  -3   3   6  790.52   60.49
  -3   3   6  787.62   59.19
  -3   3   6  785.92   53.99
   1  -3  -6   20.80   15.50
   1  -3  -6   59.29   21.00
   1  -3  -6   39.20   15.90
  -1   3   6   64.49   19.90
  -1   3   6   64.49   20.10
  -1   3   6   52.79   18.90
  -1  -3  -6 2787.52  133.09
  -1  -3  -6 2931.71  136.79
  -1  -3  -6 2589.14  131.79
   1   3   6 2748.93  133.09
   1   3   6 2844.62  135.39
   1   3   6 2817.32  134.49
  -3  -3  -6 1306.47   83.69
  -3  -3  -6 1104.09   78.39
  -3  -3  -6 1115.09   80.59
   3   3   6 1128.29   81.99
   3   3   6 1227.28   81.89
   3   3   6 1167.08   79.99
  -5  -3  -6    2.70   14.80
  -5  -3  -6   -2.30    8.90
  -5  -3  -6  -10.10   11.60
   5   3   6   -9.10   14.70
   5   3   6   -1.40   12.10
   5   3   6   -5.90    7.50
  -7  -3  -6  511.15   63.39
  -7  -3  -6  422.16   53.09
  -7  -3  -6  465.45   54.49
   7   3   6  453.95   54.19
   7   3   6  469.35   54.29
   7   3   6  343.27   61.29
  -9  -3  -6   25.20   23.50
  -9  -3  -6   20.90   17.90
   9   3   6  -10.90   16.90
   9   3   6   18.90   16.90
 -11  -3  -6   31.40   24.50
 -11  -3  -6   30.20   29.20
  11   3   6   -9.10   21.70
 -13  -3  -6  223.08   62.59
  13   3   6  424.16   74.89
 -15  -3  -6   66.99   42.30
  15   3   6   20.60   39.40
 -18   4   6   24.60   29.20
 -18   4   6   83.89   45.70
  16  -4  -6  148.79   44.50
  16  -4  -6  205.38   43.70
 -16   4   6  159.18   49.40
 -16   4   6  205.68   45.10
  14  -4  -6   37.20   19.80
  14  -4  -6   12.60   15.60
 -14   4   6   82.79   35.40
 -14   4   6   56.29   27.80
 -14   4   6   53.89   25.40
  12  -4  -6  517.65   50.39
  12  -4  -6  579.44   63.49
  12  -4  -6  619.44   67.09
 -12   4   6  629.14   65.89
 -12   4   6  513.65   60.59
 -12   4   6  632.34   55.99
  10  -4  -6   75.79   30.30
  10  -4  -6   42.70   20.80
  10  -4  -6   95.79   23.30
 -10   4   6   88.79   24.20
 -10   4   6   61.49   22.00
 -10   4   6  135.69   36.70
   8  -4  -6 1202.68   68.29
   8  -4  -6 1130.79   82.89
   8  -4  -6 1195.28   87.69
  -8   4   6 1166.78   68.79
  -8   4   6 1134.89   83.89
  -8   4   6 1203.68   85.99
   6  -4  -6 1250.37   83.99
   6  -4  -6 1417.96   89.99
  -6   4   6 1343.37   71.99
  -6   4   6 1237.38   84.89
  -6   4   6 1169.18   68.19
  -6   4   6 1346.17   88.29
   4  -4  -6  818.12   64.99
   4  -4  -6  914.31   69.29
  -4   4   6  970.70   71.29
  -4   4   6  887.91   68.39
  -4   4   6  877.21   55.99
   2  -4  -6  456.15   46.80
   2  -4  -6  402.36   38.70
   2  -4  -6  442.86   46.00
  -2   4   6  470.95   42.10
  -2   4   6  564.74   52.59
  -2   4   6  433.46   45.30
   0  -4  -6  522.85   51.19
   0  -4  -6  553.94   52.09
   0  -4  -6  649.24   52.49
   0   4   6  537.85   49.10
   0   4   6  566.44   54.19
   0   4   6  640.54   55.49
  -2  -4  -6  442.76   47.10
  -2  -4  -6  458.25   47.80
  -2  -4  -6  437.66   47.80
   2   4   6  342.87   42.00
   2   4   6  474.85   48.20
   2   4   6  469.65   48.60
  -4  -4  -6  625.84   60.19
  -4  -4  -6  695.63   64.19
  -4  -4  -6  672.93   62.69
   4   4   6  634.84   62.49
   4   4   6  785.82   69.09
   4   4   6  688.13   63.29
  -6  -4  -6  508.55   56.99
  -6  -4  -6  503.15   57.69
  -6  -4  -6  476.55   56.69
   6   4   6  436.36   53.49
   6   4   6  457.75   54.79
   6   4   6  439.56   58.69
  -8  -4  -6 1018.90   88.09
  -8  -4  -6 1204.78  157.88
  -8  -4  -6 1194.78   96.79
   8   4   6  960.30  108.39
   8   4   6 1085.49   91.79
 -10  -4  -6  162.88   46.60
 -10  -4  -6  152.58   46.00
  10   4   6  129.69   47.10
  10   4   6  137.19   44.40
 -12  -4  -6  244.68   59.79
 -12  -4  -6  329.67   66.99
  12   4   6  232.88   53.79
 -14  -4  -6   75.99   39.50
  14   4   6    9.50   26.00
  19  -5  -6  174.68   57.19
 -17   5   6  444.06   57.39
 -17   5   6  419.36   70.89
  15  -5  -6  212.88   42.00
 -15   5   6  164.78   43.60
 -15   5   6  272.17   47.70
  13  -5  -6  965.40   89.79
  13  -5  -6  794.42   78.99
 -13   5   6  775.62   63.49
 -13   5   6  726.63   76.79
 -13   5   6  678.93   75.59
  11  -5  -6  497.05   60.79
  11  -5  -6  642.24   70.49
  11  -5  -6  538.55   47.10
 -11   5   6  646.54   66.09
 -11   5   6  670.23   61.79
 -11   5   6  604.14   63.29
   9  -5  -6  442.56   52.19
   9  -5  -6  476.35   39.00
   9  -5  -6  320.37   55.59
  -9   5   6  345.07   35.70
  -9   5   6  484.65   56.59
  -9   5   6  461.85   54.39
   7  -5  -6  752.82   67.69
   7  -5  -6  692.73   64.19
  -7   5   6  626.64   45.50
  -7   5   6  692.33   47.30
  -7   5   6  784.12   66.99
  -7   5   6  813.02   68.79
   5  -5  -6  352.26   43.00
   5  -5  -6  438.46   48.70
  -5   5   6  479.25   51.09
  -5   5   6  403.46   35.20
  -5   5   6  384.36   56.19
  -5   5   6  402.56   34.50
   3  -5  -6  138.39   34.40
   3  -5  -6  122.89   23.20
   3  -5  -6  153.48   32.60
  -3   5   6  163.18   33.70
  -3   5   6  133.69   30.50
  -3   5   6  129.19   25.10
   1  -5  -6 2233.58  119.09
   1  -5  -6 2141.49  118.69
   1  -5  -6 2227.48  107.19
  -1   5   6 2127.09  105.49
  -1   5   6 2268.27  121.19
  -1   5   6 2049.70  116.79
  -1  -5  -6  407.26   44.10
  -1  -5  -6  402.26   48.70
  -1  -5  -6  367.66   44.20
   1   5   6  415.56   45.50
   1   5   6  423.96   47.60
   1   5   6  507.35   75.79
  -3  -5  -6  107.49   32.80
  -3  -5  -6  108.29   31.90
  -3  -5  -6   83.49   27.00
   3   5   6   54.89   21.90
   3   5   6   69.69   27.40
   3   5   6   80.79   27.40
  -5  -5  -6  928.91   78.89
  -5  -5  -6  810.22   77.09
  -5  -5  -6  985.80   82.19
   5   5   6  958.50   80.29
   5   5   6  905.01   78.39
   5   5   6  991.70   81.89
  -7  -5  -6    9.70   19.40
  -7  -5  -6    8.90   20.00
  -7  -5  -6   -4.80   20.10
   7   5   6   13.50   27.40
   7   5   6    5.60   12.40
   7   5   6   42.60   26.20
  -9  -5  -6  136.49   41.80
  -9  -5  -6  176.28   50.39
   9   5   6  101.29   35.50
   9   5   6  151.18   44.60
 -11  -5  -6   40.00   32.00
 -11  -5  -6   37.70   34.30
  11   5   6   56.89   40.00
 -13  -5  -6  -12.50   25.50
  13   5   6   19.60   25.90
  20  -6  -6  221.28   59.29
  18  -6  -6  456.15   81.49
 -16   6   6  209.78   51.59
  14  -6  -6   16.70   25.20
 -14   6   6    3.90   14.20
 -14   6   6  -10.40   16.70
  12  -6  -6 1305.27   78.59
  12  -6  -6 1286.57  103.39
  12  -6  -6 1530.55  113.79
 -12   6   6 1514.15   92.69
 -12   6   6 1341.17  103.99
 -12   6   6 1320.17  103.59
  10  -6  -6   24.10   18.00
  10  -6  -6  -21.10   14.50
 -10   6   6   19.70   21.70
 -10   6   6    7.10   14.50
   8  -6  -6  101.99   29.80
   8  -6  -6  187.78   44.80
  -8   6   6  125.59   34.40
  -8   6   6  118.69   20.80
  -8   6   6   90.69   18.70
  -8   6   6   99.59   29.20
   6  -6  -6 1465.45   96.49
   6  -6  -6 1443.26   97.29
  -6   6   6 1227.28   90.29
  -6   6   6 1298.07   92.99
  -6   6   6 1472.45   68.89
  -6   6   6 1340.97   65.99
   4  -6  -6   -8.50    8.00
   4  -6  -6  -10.40    6.80
  -4   6   6    9.50   14.00
  -4   6   6   11.00   11.50
  -4   6   6   11.00    9.70
   2  -6  -6  735.23   64.89
   2  -6  -6  740.93   68.89
   2  -6  -6  780.42   53.49
  -2   6   6  816.52   67.09
  -2   6   6  836.32   55.49
  -2   6   6  769.52   67.19
   0  -6  -6  579.44   59.69
   0  -6  -6  620.34   51.89
   0  -6  -6  622.14   59.39
   0   6   6  723.23   56.59
   0   6   6  647.24   63.29
   0   6   6  674.73   62.89
  -2  -6  -6  174.38   35.70
  -2  -6  -6  180.38   39.80
  -2  -6  -6  210.08   40.80
   2   6   6  110.49   31.40
   2   6   6  148.69   35.50
   2   6   6  188.38   40.30
  -4  -6  -6 1065.59   83.39
  -4  -6  -6 1066.99   87.49
  -4  -6  -6 1194.88   89.59
   4   6   6 1030.30   87.19
   4   6   6  932.01   83.59
   4   6   6  979.60   80.79
  -6  -6  -6  909.41   82.19
  -6  -6  -6  904.31   82.69
   6   6   6  909.91   83.39
   6   6   6  975.60   89.79
   6   6   6  938.11   85.39
  -8  -6  -6   51.09   28.50
  -8  -6  -6    3.60   14.50
  -8  -6  -6   38.20   26.40
   8   6   6   -5.50   27.40
   8   6   6  -12.30   13.50
 -10  -6  -6  368.16   67.49
 -10  -6  -6  582.24   72.39
  10   6   6  418.76   72.49
  12   6   6  -39.50   30.70
  19  -7  -6   53.59   33.40
  17  -7  -6  464.95   86.29
 -15   7   6  236.78   51.19
  13  -7  -6   78.59   34.30
 -13   7   6  119.79   40.40
  11  -7  -6  469.05   70.69
  11  -7  -6  271.67   54.09
 -11   7   6  488.55   60.09
 -11   7   6  353.06   33.90
 -11   7   6  353.96   59.89
   9  -7  -6  492.55   59.89
   9  -7  -6  462.25   55.69
  -9   7   6  494.35   33.80
  -9   7   6  474.85   33.70
  -9   7   6  467.25   56.99
  -9   7   6  513.15   58.39
   7  -7  -6 1000.10   81.59
   7  -7  -6 1034.00   85.29
  -7   7   6  948.81   79.69
  -7   7   6 1008.60   84.79
  -7   7   6 1001.30   49.30
  -7   7   6 1015.40   49.30
   5  -7  -6  609.14   64.59
   5  -7  -6  629.64   61.49
  -5   7   6  654.23   39.60
  -5   7   6  648.24   40.70
  -5   7   6  662.13   63.69
  -5   7   6  539.95   60.29
   3  -7  -6    1.50   13.00
   3  -7  -6    1.60    9.00
   3  -7  -6    7.60   10.30
  -3   7   6   -2.30    9.50
  -3   7   6   -2.40   11.20
  -3   7   6  -20.90   12.70
   1  -7  -6 3079.49  162.28
   1  -7  -6 3267.97  140.59
   1  -7  -6 3208.68  162.38
  -1   7   6 3371.66  167.58
  -1   7   6 3342.67  169.08
  -1   7   6 3185.38  139.49
  -1  -7  -6  183.08   42.40
  -1  -7  -6  174.28   39.20
  -1  -7  -6  172.48   33.30
   1   7   6  172.18   38.40
   1   7   6  181.18   43.10
   1   7   6  107.79   30.60
  -3  -7  -6    1.10   15.70
  -3  -7  -6   10.90   16.70
  -3  -7  -6   14.70   19.40
   3   7   6  -27.50   15.50
   3   7   6   23.80   23.90
  -5  -7  -6 2184.68  133.89
  -5  -7  -6 2241.38  140.39
  -5  -7  -6 2162.88  137.29
   5   7   6 2121.79  133.99
   5   7   6 2314.37  143.19
   5   7   6 2342.47  143.99
  -7  -7  -6  145.99   40.90
  -7  -7  -6  178.68   46.80
  -7  -7  -6  233.58   80.69
   7   7   6  187.38   47.80
  -9  -7  -6  593.74   71.39
   9   7   6  443.56   92.59
   9   7   6  450.65   75.39
 -11  -7  -6  592.54   78.99
 -13  -7  -6   46.00   36.90
  18  -8  -6  467.05   85.79
  14  -8  -6  101.69   41.80
 -14   8   6   85.19   31.50
  12  -8  -6 2101.99  144.99
 -12   8   6 2083.79  138.99
  10  -8  -6  109.49   36.70
 -10   8   6   38.80   23.70
 -10   8   6   71.99   30.50
 -10   8   6   53.19   13.00
   8  -8  -6   24.00   17.20
   8  -8  -6   11.40   14.50
  -8   8   6   43.20   22.50
  -8   8   6   13.90   16.60
   6  -8  -6 2430.86  141.89
   6  -8  -6 2286.77  136.39
  -6   8   6 2367.76   85.99
  -6   8   6 2319.37  137.19
  -6   8   6 2373.06   85.39
  -6   8   6 2393.76  141.99
   4  -8  -6  -24.40   12.50
   4  -8  -6  -11.20    8.10
  -4   8   6   14.80   10.20
  -4   8   6   18.30   19.50
  -4   8   6  -12.80    8.70
   2  -8  -6  728.93   68.69
   2  -8  -6  686.23   70.59
   2  -8  -6  653.73   48.50
  -2   8   6  759.72   69.29
  -2   8   6  829.02   74.19
  -2   8   6  698.63   51.39
   0  -8  -6  867.01   63.09
   0  -8  -6  865.71   76.89
   0  -8  -6  853.31   76.29
   0   8   6  877.61   65.59
   0   8   6  900.61   77.49
   0   8   6  855.81   79.99
  -2  -8  -6  488.95   51.69
  -2  -8  -6  524.45   60.09
  -2  -8  -6  632.84   69.39
   2   8   6  607.04   59.69
   2   8   6  576.44   67.09
   2   8   6  499.65   61.19
  -4  -8  -6  956.70   89.89
  -4  -8  -6 1014.60   82.19
  -4  -8  -6  837.32   84.19
   4   8   6 1033.10   90.19
   4   8   6 1004.00   88.59
   4   8   6 1067.59   84.59
  -6  -8  -6  325.77   61.39
  -6  -8  -6  338.57   59.79
  -6  -8  -6  215.18   51.79
   6   8   6  270.37   56.89
   6   8   6  249.68   52.59
   6   8   6  389.66   66.89
  -8  -8  -6  160.68   42.40
   8   8   6  148.89   39.70
   8   8   6   71.19   44.50
 -10  -8  -6  937.51   97.19
 -12  -8  -6    1.10   18.40
  15  -9  -6   91.39   43.30
  13  -9  -6  567.44   86.69
 -13   9   6  555.14   68.79
  11  -9  -6  469.45   76.99
 -11   9   6  562.44   67.89
   9  -9  -6  264.47   53.59
  -9   9   6  223.08   51.09
   7  -9  -6  809.72   78.79
   7  -9  -6  694.93   74.29
  -7   9   6  841.12   77.89
  -7   9   6  761.12   79.19
   5  -9  -6  848.42   78.09
   5  -9  -6  735.33   71.09
  -5   9   6  663.23   31.60
  -5   9   6  794.92   76.39
  -5   9   6  662.33   69.59
   3  -9  -6    3.00   21.20
   3  -9  -6   69.79   27.40
   3  -9  -6   57.09   15.20
  -3   9   6   79.29   17.80
  -3   9   6   85.49   29.40
  -3   9   6   45.90   23.00
   1  -9  -6 2395.76  112.99
   1  -9  -6 2593.54  146.59
   1  -9  -6 2120.29  134.89
  -1   9   6 2358.06  142.29
  -1   9   6 2171.88  108.49
  -1   9   6 2159.88  134.69
  -1  -9  -6   -7.50   13.70
  -1  -9  -6    0.40   13.00
  -1  -9  -6   15.00   13.80
   1   9   6    3.00   19.30
   1   9   6   10.80   17.70
   1   9   6   -0.20   16.90
  -3  -9  -6   17.20   19.50
  -3  -9  -6    2.20   16.00
  -3  -9  -6  -22.40   25.60
   3   9   6   27.70   27.50
   3   9   6   51.69   27.20
   3   9   6   -1.90   18.40
  -5  -9  -6 2177.88  132.59
  -5  -9  -6 2006.70  137.49
   5   9   6 2057.09  139.69
   5   9   6 1926.11  136.99
   5   9   6 1766.22  124.19
  -7  -9  -6    7.50   21.60
  -7  -9  -6   -6.50   14.70
   7   9   6   -7.30   28.00
  -9  -9  -6  221.98   53.69
 -11  -9  -6  409.36   78.19
  16 -10  -6  139.79   47.00
  14 -10  -6    0.80   19.00
  12 -10  -6 1648.73  129.49
  10 -10  -6   -4.50   19.40
 -10  10   6  -26.00   15.80
   8 -10  -6   23.00   22.10
   6 -10  -6  850.11   84.99
  -6  10   6  828.22   79.09
   4 -10  -6  253.77   52.29
  -4  10   6  251.07   49.00
  -4  10   6  286.87   60.59
   2 -10  -6  398.16   67.19
   2 -10  -6  388.36   35.30
  -2  10   6  390.76   67.99
  -2  10   6  350.96   58.39
   0 -10  -6  985.30   90.79
   0 -10  -6  941.51   66.79
   0  10   6  896.21   87.09
   0  10   6  947.51   67.59
   0  10   6  988.20   86.69
  -2 -10  -6   63.69   29.60
  -2 -10  -6   40.20   20.20
   2  10   6   97.49   32.10
   2  10   6   88.99   32.40
  -4 -10  -6  565.84   72.69
  -4 -10  -6  668.83   68.59
   4  10   6  675.73   76.09
   4  10   6  778.42   73.39
  -6 -10  -6  109.39   40.90
  -6 -10  -6  189.08   48.60
   6  10   6  130.19   42.40
  -8 -10  -6   -9.60   24.70
 -10 -10  -6  438.56   78.19
  15 -11  -6    5.00   31.40
  13 -11  -6  137.79   49.90
  11 -11  -6  335.77   67.59
  -9  11   6   10.00   17.20
   7 -11  -6  915.61   87.19
  -7  11   6  608.84   71.59
   5 -11  -6  925.61   90.69
  -5  11   6  706.03   74.79
   3 -11  -6   94.19   33.50
   1 -11  -6 1087.89   96.69
  -1  11   6  905.31   89.79
  -1 -11  -6  100.89   43.10
   1  11   6   72.09   28.30
  -3 -11  -6   69.19   32.80
  -3 -11  -6   -5.30   15.90
  -5 -11  -6  517.75   81.69
  -5 -11  -6  524.15   63.49
   5  11   6  510.75   92.89
  -7 -11  -6   28.00   25.50
  -9 -11  -6  115.29   47.90
  14 -12  -6  138.09   53.19
  12 -12  -6  277.07   64.99
  10 -12  -6  360.96   73.59
   8 -12  -6  161.18   42.50
   6 -12  -6  163.48   48.30
  -6  12   6   83.09   34.20
   4 -12  -6   14.40   23.50
  -4  12   6   -8.80   15.20
   2 -12  -6  338.87   64.89
  -2  12   6  295.07   59.89
   0 -12  -6  288.77   58.79
   0  12   6  265.57   55.49
  -2 -12  -6  364.26   67.19
   2  12   6  413.56   73.59
  -4 -12  -6  366.16   70.99
   4  12   6  367.26   67.59
  -6 -12  -6  274.97   84.39
  11 -13  -6   35.50   37.50
   9 -13  -6  202.18   54.69
   7 -13  -6   -0.90   18.50
   5 -13  -6  308.47   62.59
   3 -13  -6  373.26   68.79
   1 -13  -6  133.99   44.40
  -1 -13  -6  299.47   64.49
  -3 -13  -6  199.88   56.89
   8 -14  -6  114.89   50.29
   6 -14  -6  -29.10   20.10
   4 -14  -6  572.74   88.89
   2 -14  -6   52.49   29.60
   0 -14  -6   -4.60   27.80
  -2 -14  -6  415.26   75.19
  -4 -14  -6   59.99   40.50
   5 -15  -6  110.19   43.80
   3 -15  -6  445.16   84.19
   1 -15  -6    6.30   22.90
  -8 -14   7    0.60   17.40
  -4 -14   7  107.19   20.40
  -2 -14   7   41.70    5.90
 -11 -13   7   79.89   39.50
 -11 -13   7   60.79   29.60
  -9 -13   7  319.07   68.59
  -9 -13   7  220.58   43.40
  -7 -13   7  355.56   65.29
  -7 -13   7  354.76   41.70
  -5 -13   7  -11.00   11.10
  -5 -13   7    1.40   21.70
  -3 -13   7   70.39   15.00
 -14 -12   7   92.69   41.50
 -14 -12   7   94.69   55.49
 -12 -12   7  312.27   61.29
 -12 -12   7  503.15   88.39
 -10 -12   7  121.59   42.60
 -10 -12   7  117.59   32.30
   8  12  -7   19.20   30.50
  -8 -12   7   13.50   16.00
  -8 -12   7   82.29   35.50
  -6 -12   7  446.26   44.40
  -6 -12   7  281.67   60.09
  -4 -12   7  708.03   94.09
  -4 -12   7  689.03   45.80
  -4 -12   7  688.23   75.29
  -2 -12   7   34.40   24.20
   0 -12   7  205.88   48.30
 -15 -11   7  223.78   64.19
 -13 -11   7  165.78   42.90
 -13 -11   7   85.09   41.80
 -11 -11   7   20.40   23.80
 -11 -11   7  -41.90   20.30
   9  11  -7  562.94   76.09
  -9 -11   7  509.95   81.19
  -9 -11   7  659.73   61.99
   7  11  -7  145.19   24.90
   7  11  -7  199.08   50.89
  -7 -11   7  199.98   34.30
  -7 -11   7  166.28   44.30
  -5 -11   7  399.36   36.80
  -5 -11   7  373.46   35.70
  -5 -11   7  360.46   61.29
  -3 -11   7  480.85   63.49
  -3 -11   7  734.93   74.39
  -3 -11   7  583.74   34.40
  -1 -11   7  460.35   59.29
  -1 -11   7  438.46   68.29
   1 -11   7   66.69   31.20
   3 -11   7  -27.70   14.10
   7 -11   7  186.88   14.10
 -16 -10   7   39.00   29.70
 -14 -10   7  155.88   50.49
 -14 -10   7  100.79   33.70
 -12 -10   7  227.88   45.10
 -12 -10   7  325.57   68.19
  10  10  -7  114.89   37.90
 -10 -10   7   69.49   26.40
 -10 -10   7  144.69   42.30
   8  10  -7  -20.70    9.40
   8  10  -7    0.20   17.40
  -8 -10   7    6.00   12.10
   6  10  -7  212.58   48.10
   6  10  -7  202.68   22.80
   6  10  -7  173.18   21.40
  -6 -10   7  196.68   44.00
  -6 -10   7  158.18   28.10
  -6 -10   7  245.68   29.30
  -4 -10   7  172.88   43.30
  -4 -10   7  225.18   48.30
  -4 -10   7  160.08   20.30
  -2 -10   7  -12.00   13.90
  -2 -10   7  -10.00   13.20
   0 -10   7   12.80   17.70
   0 -10   7   16.60   18.50
   2 -10   7  577.64   66.09
   2 -10   7  627.44   66.89
   4 -10   7   14.60   19.90
   6 -10   7   64.99    9.70
   6 -10   7   56.09    8.90
   8 -10   7  254.17   27.10
 -17  -9   7  -16.40   38.50
 -17  -9   7  -16.90   25.10
 -15  -9   7  191.58   49.70
 -15  -9   7  172.48   54.39
 -13  -9   7    2.20   15.90
 -13  -9   7   -7.60   21.00
  11   9  -7    9.30   17.60
  11   9  -7   -3.40   15.20
 -11  -9   7   33.60   30.60
 -11  -9   7   -0.70   13.00
   9   9  -7  123.49   28.10
  -9  -9   7   97.59   27.30
   7   9  -7    5.10   26.50
   7   9  -7   27.10   14.70
  -7  -9   7   32.80   16.10
  -7  -9   7   -5.80   20.40
   5   9  -7    2.70    5.50
   5   9  -7    4.40    5.20
  -5  -9   7   -6.90    8.10
  -5  -9   7  -15.30   14.50
  -3  -9   7   75.69   31.10
  -3  -9   7   69.59   11.90
  -3  -9   7   48.20   10.90
  -3  -9   7   98.29   29.90
  -1  -9   7   48.50   23.80
  -1  -9   7   62.09   29.60
   1  -9   7  144.89   38.30
   1  -9   7  136.29   35.60
   3  -9   7   11.70   18.50
   3  -9   7   49.80   23.70
   5  -9   7  178.98   13.30
   5  -9   7  198.48   46.20
   5  -9   7  180.28   13.90
   7  -9   7  136.59   21.80
  -9   9  -7   -1.80   48.50
   9  -9   7    7.20   10.80
 -18  -8   7  -55.89   31.30
 -18  -8   7    1.10   37.50
 -16  -8   7   40.10   25.30
 -16  -8   7   15.50   24.20
 -14  -8   7  -16.00   20.30
 -14  -8   7  -18.90   17.70
  12   8  -7   31.20   18.20
  12   8  -7   38.70   23.90
 -12  -8   7   12.90   20.10
 -12  -8   7   46.00   32.50
  10   8  -7    4.00   12.40
 -10  -8   7    1.00   18.30
 -10  -8   7   10.60   13.70
   8   8  -7   12.50   12.30
   8   8  -7   15.50   23.30
   8   8  -7   11.10   13.10
  -8  -8   7   14.30   14.00
  -8  -8   7   -6.40   12.10
   6   8  -7  133.59   20.90
   6   8  -7  125.59   34.20
  -6  -8   7   95.29   30.80
  -6  -8   7  166.98   27.40
  -4  -8   7  315.57   26.50
  -4  -8   7  288.57   25.60
  -4  -8   7  304.07   53.79
  -4  -8   7  310.77   53.49
  -2  -8   7    9.60   16.90
  -2  -8   7   78.49   27.40
   0  -8   7   54.19   24.00
   0  -8   7   28.50   20.80
   2  -8   7   -4.60   16.80
   2  -8   7   21.80   22.30
   4  -8   7   62.09   28.80
   4  -8   7  119.39    9.90
   4  -8   7   99.39    9.70
  -6   8  -7   41.90   26.00
   6  -8   7   31.00   11.40
   6  -8   7   24.50   12.50
   6  -8   7    4.80   22.80
  -8   8  -7   42.50   29.40
   8  -8   7   -5.70   10.80
   8  -8   7    4.40   22.70
 -10   8  -7   33.90   30.90
  10  -8   7   12.50   16.80
 -19  -7   7   40.10   39.90
 -19  -7   7  131.39   43.50
 -17  -7   7   12.30   29.90
 -17  -7   7   36.40   32.00
 -15  -7   7  184.48   54.09
 -15  -7   7  235.38   53.69
  13   7  -7   37.20   29.90
  13   7  -7   16.10   15.50
 -13  -7   7   19.80   23.70
 -13  -7   7  114.79   42.30
 -11  -7   7   23.80   29.50
 -11  -7   7    9.70   17.60
   9   7  -7  179.58   45.00
   9   7  -7  162.48   32.20
   9   7  -7  145.89   29.90
  -9  -7   7   97.29   26.30
  -9  -7   7  113.79   35.10
   7   7  -7   49.90   17.00
   7   7  -7   87.79   20.20
   7   7  -7   79.29   29.50
  -7  -7   7   29.60   27.20
  -7  -7   7   51.09   18.50
   5   7  -7   27.40    9.20
  -5  -7   7   34.60   22.60
  -5  -7   7   41.80   14.30
  -3  -7   7   86.29   11.10
  -3  -7   7   73.19   26.70
  -3  -7   7   77.89   12.30
  -3  -7   7   91.39   30.30
  -1  -7   7  262.67   47.10
  -1  -7   7  340.27   55.59
   1  -7   7  119.29   32.50
   1  -7   7  132.39   33.10
   3  -7   7   68.19    8.20
   3  -7   7   33.10   23.40
   3  -7   7   64.39    7.80
  -5   7  -7    0.20   14.90
   5  -7   7    1.80    8.80
   5  -7   7   22.40   23.00
   5  -7   7   32.00   10.90
  -7   7  -7  188.58   14.60
  -7   7  -7  202.88   14.20
  -7   7  -7  217.38   53.19
   7  -7   7  204.48   32.00
   7  -7   7  185.08   55.09
   7  -7   7  239.28   29.70
  -9   7  -7   23.10   28.20
   9  -7   7   -1.00   13.40
   9  -7   7   33.00   30.70
 -11   7  -7   15.40   24.50
  11  -7   7   88.89   30.90
 -20  -6   7  295.77   74.09
 -18  -6   7  250.37   67.49
 -18  -6   7  170.48   50.59
  16   6  -7   86.49   30.50
 -16  -6   7   56.19   36.50
 -16  -6   7    7.80   26.10
  14   6  -7  207.48   51.29
  14   6  -7  208.28   46.60
 -14  -6   7  212.78   52.99
 -14  -6   7  221.88   51.59
  12   6  -7  617.14   62.69
 -12  -6   7  629.44   63.89
  10   6  -7   83.59   32.40
  10   6  -7   44.70   20.90
  10   6  -7   80.79   25.60
 -10  -6   7   61.79   21.10
 -10  -6   7   50.69   31.20
   8   6  -7   34.50   17.00
   8   6  -7   24.80   15.10
   8   6  -7   10.50   17.10
  -8  -6   7   62.39   19.90
  -8  -6   7   46.00   24.80
  -8  -6   7   44.20   18.00
   6   6  -7  126.69   21.80
   6   6  -7   66.19   28.50
   6   6  -7   95.49   18.90
  -6  -6   7  115.99   31.60
  -6  -6   7  102.49   22.30
  -6  -6   7   58.09   17.80
   4   6  -7 1373.36   54.69
   4   6  -7 1494.05   55.59
  -4  -6   7 1422.56   97.99
  -4  -6   7 1383.06   98.49
  -4  -6   7 1286.27   71.29
  -4  -6   7 1436.46   65.89
  -2  -6   7   -1.60   15.20
  -2  -6   7   24.00   15.20
  -2  -6   7    9.50    4.90
  -2  -6   7   15.80    5.40
   0  -6   7   -1.80   12.70
   0  -6   7    2.80   10.50
  -2   6  -7  414.76   52.79
   2  -6   7  448.26   23.30
   2  -6   7  438.96   23.50
   2  -6   7  423.06   51.99
  -4   6  -7  208.48   45.60
   4  -6   7  288.27   25.20
   4  -6   7  352.86   57.79
   4  -6   7  317.97   27.10
  -6   6  -7   36.80   11.10
  -6   6  -7   24.70    9.40
  -6   6  -7   50.39   26.80
   6  -6   7   21.50   11.70
   6  -6   7   20.20   12.90
   6  -6   7   37.20   24.70
  -8   6  -7  583.64   72.19
  -8   6  -7  598.64   46.00
   8  -6   7  624.04   71.89
   8  -6   7  654.93   53.99
 -10   6  -7  183.98   51.79
  10  -6   7  137.19   31.90
 -12   6  -7   52.99   43.70
  12  -6   7   78.99   30.60
 -19  -5   7   11.90   24.20
 -19  -5   7   55.89   45.20
  17   5  -7  267.67   60.89
 -17  -5   7  310.07   69.19
 -17  -5   7  310.67   66.69
  15   5  -7  858.41   93.09
  15   5  -7  757.72   79.59
 -15  -5   7  758.82   92.79
 -15  -5   7  971.70   93.49
  13   5  -7   16.30   25.60
  13   5  -7    5.00   12.50
 -13  -5   7   42.00   32.00
 -13  -5   7   11.50   16.80
  11   5  -7  141.89   33.40
  11   5  -7  178.88   45.60
 -11  -5   7  145.99   37.20
 -11  -5   7  110.99   36.10
 -11  -5   7  133.39   34.30
   9   5  -7 1302.97   81.29
   9   5  -7 1403.46   85.19
   9   5  -7 1298.37   97.09
  -9  -5   7 1204.58   95.69
  -9  -5   7 1206.08   81.39
  -9  -5   7 1316.87   84.69
   7   5  -7  790.92   55.19
   7   5  -7  904.51   58.09
   7   5  -7  878.41   75.59
  -7  -5   7  756.62   56.19
  -7  -5   7  850.91   59.49
  -7  -5   7  829.12   74.29
   5   5  -7   72.59   15.60
  -5  -5   7   46.20   24.90
  -5  -5   7   72.59   17.30
  -5  -5   7   31.60   13.20
   3   5  -7  948.51   36.20
   3   5  -7  996.60   36.50
  -3  -5   7  950.10   48.50
  -3  -5   7  930.51   76.19
  -3  -5   7  942.21   47.80
  -3  -5   7 1028.50   78.79
  -1  -5   7 2252.47  125.29
  -1  -5   7 2196.48   78.89
  -1  -5   7 2032.70  122.29
  -1  -5   7 2182.88   79.29
  -1   5  -7  690.43   65.79
   1  -5   7  754.62   35.70
   1  -5   7  613.74   60.49
   1  -5   7  721.83   35.30
  -3   5  -7   45.50   23.10
   3  -5   7   46.40   12.60
   3  -5   7   87.29   30.00
   3  -5   7   51.39   13.20
  -5   5  -7  430.66   32.60
  -5   5  -7  516.95   62.79
  -5   5  -7  496.55   33.50
   5  -5   7  444.06   39.20
   5  -5   7  432.36   38.30
   5  -5   7  598.44   62.59
  -7   5  -7 1221.68   71.39
  -7   5  -7 1388.96  106.79
  -7   5  -7 1279.07   71.49
   7  -5   7 1349.56  104.89
   7  -5   7 1258.87   78.49
   7  -5   7 1334.57   79.69
  -9   5  -7   46.20   30.60
   9  -5   7   81.79   25.60
   9  -5   7  118.29   41.20
 -11   5  -7  112.59   42.50
  11  -5   7  122.39   33.90
 -13   5  -7  406.16   78.19
  13  -5   7  368.96   60.49
 -20  -4   7  297.87   83.69
  18   4  -7  243.28   53.59
 -18  -4   7  224.68   58.89
 -18  -4   7  264.17   60.19
  16   4  -7   81.49   33.90
  16   4  -7   49.20   32.70
 -16  -4   7   59.29   35.70
 -16  -4   7   49.10   34.20
  14   4  -7  622.24   66.79
  14   4  -7  552.04   68.09
 -14  -4   7  529.35   83.29
 -14  -4   7  495.15   63.29
  12   4  -7  956.60   78.29
  12   4  -7  897.71   83.89
 -12  -4   7  941.91   89.99
 -12  -4   7 1062.89   83.79
 -12  -4   7  861.91   77.09
  10   4  -7  133.09   33.10
  10   4  -7  109.29   28.00
 -10  -4   7   98.29   31.00
 -10  -4   7  100.49   27.70
 -10  -4   7   85.29   24.40
   8   4  -7   15.40   19.20
   8   4  -7   22.60   14.20
   8   4  -7   17.90   12.50
  -8  -4   7   23.30   14.10
  -8  -4   7   16.10   12.60
  -8  -4   7    7.10   13.80
   6   4  -7  450.65   51.49
   6   4  -7  413.46   36.00
   6   4  -7  493.15   38.80
  -6  -4   7  437.56   39.20
  -6  -4   7  430.46   50.39
  -6  -4   7  430.76   38.90
   4   4  -7 2399.36   91.99
   4   4  -7 2053.69   89.39
  -4  -4   7 2352.46  127.09
  -4  -4   7 2214.38   95.99
  -4  -4   7 2093.29   93.99
  -4  -4   7 2205.58  123.79
   2   4  -7  113.79   11.50
   2   4  -7   95.69   10.50
  -2  -4   7  122.29   30.20
  -2  -4   7   97.99   27.90
  -2  -4   7  111.39   16.70
  -2  -4   7   88.79   15.90
   0   4  -7  906.61   32.50
   0   4  -7  937.61   34.60
   0  -4   7  922.71   45.90
   0  -4   7  819.72   43.70
   0  -4   7  984.00   75.59
  -2   4  -7  626.24   32.50
  -2   4  -7  630.64   63.59
  -2   4  -7  576.84   31.20
   2  -4   7  502.95   35.80
   2  -4   7  656.23   64.59
   2  -4   7  631.94   38.60
  -4   4  -7  992.30   53.09
  -4   4  -7  834.02   50.79
  -4   4  -7  937.01   80.19
   4  -4   7 1038.10   59.49
   4  -4   7 1009.10   80.99
   4  -4   7  958.90   57.49
  -6   4  -7    2.00   10.80
  -6   4  -7    9.60   23.90
   6  -4   7    7.90   19.90
   6  -4   7   24.20   13.70
   6  -4   7    9.60   13.90
  -8   4  -7   91.09   37.30
   8  -4   7  205.38   44.60
   8  -4   7   43.20   24.30
 -10   4  -7  835.62   87.29
  10  -4   7  778.12   71.39
  10  -4   7  741.43  117.29
 -12   4  -7   82.79   40.50
  12  -4   7  182.88   40.40
 -21  -3   7   66.59   47.80
 -19  -3   7  115.29   48.80
 -19  -3   7   25.40   42.10
  17   3  -7  307.97   70.49
 -17  -3   7  397.26   72.89
 -17  -3   7  574.64   90.49
  15   3  -7  698.23   76.69
  15   3  -7  670.93   72.89
 -15  -3   7  546.75   69.59
 -15  -3   7  753.92   83.99
  13   3  -7   71.59   31.20
  13   3  -7  129.99   34.70
  13   3  -7  135.49   39.80
 -13  -3   7  115.79   33.00
 -13  -3   7  152.18   37.60
 -13  -3   7  194.88   49.00
  11   3  -7  106.69   33.00
  11   3  -7   91.39   26.80
 -11  -3   7  101.89   31.30
 -11  -3   7  153.78   40.40
 -11  -3   7  117.09   30.20
   9   3  -7  326.17   39.30
   9   3  -7  298.67   49.99
  -9  -3   7  281.77   43.20
  -9  -3   7  284.67   36.20
  -9  -3   7  395.06   49.70
   7   3  -7 2304.67  129.89
   7   3  -7 2340.37  112.59
   7   3  -7 2486.05  115.39
  -7  -3   7 2361.66  114.99
  -7  -3   7 2320.97  114.49
  -7  -3   7 2574.84  135.49
   5   3  -7  124.39   22.40
  -5  -3   7  162.28   26.40
  -5  -3   7  207.78   25.90
  -5  -3   7  149.99   34.40
   3   3  -7 1311.07   62.29
   3   3  -7 1290.57   63.59
  -3  -3   7 1381.76   90.59
  -3  -3   7 1407.66   67.99
  -3  -3   7 1326.57   66.59
  -3  -3   7 1307.07   90.09
   1   3  -7 1475.25   62.59
   1   3  -7 1541.25   65.39
  -1  -3   7 1409.26   67.09
  -1  -3   7 1392.86   91.79
  -1  -3   7 1369.76   66.29
  -1   3  -7  498.75   53.19
  -1   3  -7  465.85   31.90
  -1   3  -7  461.35   31.00
   1  -3   7  414.46   32.70
   1  -3   7  535.15   55.59
   1  -3   7  464.05   33.80
  -3   3  -7   98.69   31.90
  -3   3  -7   63.59   16.10
  -3   3  -7   72.19   15.70
   3  -3   7   78.99   18.00
   3  -3   7   65.49   28.00
   3  -3   7   72.09   18.90
  -5   3  -7  875.41   56.69
  -5   3  -7  772.52   54.59
  -5   3  -7  900.01   79.79
   5  -3   7  850.91   59.39
   5  -3   7  761.52   56.29
   5  -3   7  895.51   79.89
  -7   3  -7  586.24   52.59
  -7   3  -7  662.23   65.39
  -7   3  -7  627.04   71.39
   7  -3   7  686.03   74.39
   7  -3   7  665.03   57.39
  -9   3  -7   65.29   30.60
  -9   3  -7   37.00   21.10
   9  -3   7   55.39   23.20
 -11   3  -7  251.87   60.19
  11  -3   7  252.37   46.30
 -13   3  -7  382.06   74.89
  13  -3   7  387.56   64.59
 -20  -2   7    8.90   42.70
  18   2  -7  173.18   79.59
 -18  -2   7  166.48   48.00
 -18  -2   7  211.68   55.99
  16   2  -7  -19.40   18.40
  16   2  -7   -1.60   21.10
 -16  -2   7    1.60   18.40
 -16  -2   7  -51.59   18.20
  14   2  -7  204.28   45.80
  14   2  -7  122.09   37.20
  14   2  -7  223.28   45.70
 -14  -2   7  181.98   43.10
 -14  -2   7  251.57   56.79
 -14  -2   7  172.88   42.40
  12   2  -7  674.13   65.19
  12   2  -7  711.33   69.39
  12   2  -7  746.93   72.49
 -12  -2   7  830.82   72.09
 -12  -2   7  693.93   72.19
 -12  -2   7  753.72   70.59
  10   2  -7  115.09   32.00
  10   2  -7  174.98   34.40
 -10  -2   7  115.09   32.50
 -10  -2   7  145.49   33.70
 -10  -2   7  136.19   34.70
   8   2  -7  274.37   45.90
   8   2  -7  324.07   37.70
  -8  -2   7  327.97   38.60
  -8  -2   7  322.37   40.00
  -8  -2   7  313.17   51.39
   6   2  -7 1218.68   71.99
   6   2  -7 1229.08   71.79
   6   2  -7 1277.67   86.09
  -6  -2   7 1158.58   71.69
  -6  -2   7 1159.88   71.29
  -6  -2   7 1193.78   83.79
   4   2  -7 1840.32   85.89
   4   2  -7 1827.42   85.69
  -4  -2   7 1412.56   94.69
  -4  -2   7 1810.52  103.89
  -4  -2   7 1708.23   84.89
  -4  -2   7 1691.63   84.69
   2   2  -7  678.93   44.70
   2   2  -7  706.23   43.90
  -2  -2   7  728.43   46.00
  -2  -2   7  776.72   48.00
  -2  -2   7  620.44   57.99
   0   2  -7  937.31   52.89
   0   2  -7  967.50   74.49
   0   2  -7  958.40   51.99
   0  -2   7  958.10   54.69
   0  -2   7  815.62   51.69
   0  -2   7  997.40   74.29
  -2   2  -7  312.87   29.80
  -2   2  -7  269.37   48.40
  -2   2  -7  289.27   29.20
   2  -2   7  257.57   28.80
   2  -2   7  239.48   27.90
   2  -2   7  303.27   49.00
  -4   2  -7  650.63   65.69
  -4   2  -7  660.73   49.40
  -4   2  -7  700.23   51.09
   4  -2   7  650.83   51.39
   4  -2   7  673.23   51.89
   4  -2   7  693.73   66.69
  -6   2  -7   -8.60    9.90
  -6   2  -7  -14.10   10.00
  -6   2  -7  -15.00   17.80
   6  -2   7   -2.00   11.10
   6  -2   7  -24.90   17.50
   6  -2   7   -0.60    9.40
  -8   2  -7  272.17   44.20
  -8   2  -7  195.38   46.50
   8  -2   7  219.78   52.59
   8  -2   7  233.88   41.90
 -10   2  -7  247.88   55.79
  10  -2   7  397.66   59.59
  10  -2   7  359.86   78.89
 -12   2  -7   40.20   33.00
  12  -2   7  120.39   34.70
 -14   2  -7   96.99   63.49
 -21  -1   7    1.80   35.20
 -19  -1   7  118.09   51.39
  17   1  -7   73.19   35.60
  17   1  -7   40.00   27.30
 -17  -1   7  -10.90   29.20
 -17  -1   7   37.30   28.90
  15   1  -7  440.86   57.09
  15   1  -7  318.97   60.39
  15   1  -7  248.08   51.59
 -15  -1   7  244.88   56.59
 -15  -1   7  435.26   71.79
 -15  -1   7  313.97   62.89
  13   1  -7  208.78   43.50
  13   1  -7  211.18   45.20
  13   1  -7  157.78   39.60
 -13  -1   7  269.67   50.89
 -13  -1   7  192.28   45.90
 -13  -1   7  176.18   44.00
  11   1  -7   10.20   13.30
  11   1  -7   25.40   20.50
  11   1  -7   18.50   18.50
 -11  -1   7   48.50   26.50
 -11  -1   7  -12.50   10.20
 -11  -1   7   26.70   16.70
   9   1  -7   81.69   24.00
   9   1  -7   65.49   25.30
  -9  -1   7  104.09   29.30
  -9  -1   7   36.00   20.70
  -9  -1   7   78.19   25.60
   7   1  -7 1181.78   88.29
   7   1  -7 1253.57   78.89
   7   1  -7 1373.76   88.59
  -7  -1   7 1417.76   90.59
  -7  -1   7 1104.29   74.69
  -7  -1   7 1248.98   78.99
   5   1  -7  268.37   31.30
  -5  -1   7  279.67   32.90
  -5  -1   7  246.78   41.20
  -5  -1   7  195.88   36.00
  -5  -1   7  223.18   29.30
   3   1  -7   11.00   10.50
   3   1  -7    2.10    8.60
  -3  -1   7   -7.40    6.40
  -3  -1   7    1.40    9.20
  -3  -1   7    4.70   10.80
  -3  -1   7    4.00    9.70
   1   1  -7  199.98   25.00
   1   1  -7  273.87   36.70
   1   1  -7  261.97   27.80
  -1  -1   7  276.27   29.30
  -1  -1   7  235.78   28.50
  -1  -1   7  234.18   39.40
  -1   1  -7  128.59   23.50
  -1   1  -7  135.49   23.80
  -1   1  -7  138.39   32.60
   1  -1   7  138.59   32.40
   1  -1   7  216.38   32.10
   1  -1   7  155.38   28.20
  -3   1  -7   64.39   19.00
  -3   1  -7  102.09   22.90
  -3   1  -7  112.49   29.60
   3  -1   7  104.79   23.20
   3  -1   7   91.79   28.40
   3  -1   7   79.39   20.80
  -5   1  -7   98.39   32.60
  -5   1  -7   79.49   22.10
  -5   1  -7   89.29   23.50
   5  -1   7   78.09   31.50
   5  -1   7   90.29   24.10
   5  -1   7   87.49   23.30
  -7   1  -7   86.09   32.10
  -7   1  -7  131.79   31.60
  -7   1  -7  117.69   29.20
   7  -1   7  103.09   28.50
   7  -1   7  174.28   36.10
   7  -1   7  187.88   49.20
  -9   1  -7   15.20   22.30
  -9   1  -7   -2.30   14.30
   9  -1   7   -9.20   16.40
 -11   1  -7  160.28   49.40
  11  -1   7  178.28   45.20
 -13   1  -7   13.50   25.90
  13  -1   7   23.00   21.70
 -20   0   7  -17.00   27.40
  18   0  -7   35.10   23.90
 -18   0   7   38.70   33.70
 -18   0   7  -18.70   28.30
  16   0  -7   16.60   27.90
  16   0  -7  -16.20   15.60
 -16   0   7    5.50   25.10
 -16   0   7   11.30   20.70
  14   0  -7   -3.00   13.80
  14   0  -7  -19.70   17.00
  14   0  -7  -19.60   10.10
 -14   0   7   32.30   22.20
 -14   0   7   62.89   32.30
 -14   0   7   14.40   17.40
  12   0  -7  -12.70    8.00
  12   0  -7   -9.20    7.60
  12   0  -7  -12.80   14.80
 -12   0   7    4.50   15.70
 -12   0   7  -37.70   14.00
 -12   0   7    6.00   12.50
  10   0  -7  -13.40    9.40
  10   0  -7    7.00   11.70
 -10   0   7   -9.00    7.00
 -10   0   7    0.60    9.60
 -10   0   7  -11.40   11.40
   8   0  -7    9.40   15.10
   8   0  -7   11.60   12.00
   8   0  -7   -2.30   11.60
  -8   0   7    8.70   11.80
  -8   0   7   13.80   16.00
  -8   0   7    1.40   12.90
   6   0  -7   -2.60    8.10
   6   0  -7   -7.30    9.10
  -6   0   7   -5.90    7.20
  -6   0   7   -6.10    5.80
  -6   0   7    4.60   10.10
   4   0  -7   -1.90    9.00
   4   0  -7    4.10    7.00
  -4   0   7   -1.00    7.50
  -4   0   7    1.10   10.20
  -4   0   7   20.60   13.80
  -4   0   7   16.50   13.10
   2   0  -7   -5.90   11.90
   2   0  -7   -2.60    8.50
  -2   0   7    8.00    8.90
  -2   0   7   -6.00   10.40
  -2   0   7    0.10    7.40
   0   0  -7    5.40    8.90
   0   0  -7   -1.10   12.30
   0   0  -7    1.20    8.60
   0   0   7    9.60   12.20
   0   0   7  -10.10    5.20
   0   0   7  -14.10    7.20
  -2   0  -7    8.10   11.30
  -2   0  -7   -3.30    6.40
  -2   0  -7   -5.30    9.00
   2   0   7  -16.60    6.80
   2   0   7    4.60    8.40
   2   0   7   -2.80   13.50
  -4   0  -7    6.40   11.60
  -4   0  -7   -0.10    9.20
  -4   0  -7    8.80   12.80
   4   0   7   -2.30   15.00
   4   0   7   12.00   11.80
   4   0   7   -9.30    9.10
  -6   0  -7   21.30   13.10
  -6   0  -7   -4.90   18.10
  -6   0  -7   10.90   12.00
   6   0   7   22.40   15.10
   6   0   7  -10.50   10.90
   6   0   7  -24.50   15.30
  -8   0  -7  -26.50   19.70
  -8   0  -7    7.30   17.10
   8   0   7    5.00   29.20
   8   0   7  -13.00   13.70
 -10   0  -7   16.70   26.90
 -10   0  -7  -19.60   12.90
  10   0   7  -16.60   18.80
 -12   0  -7   16.30   25.80
  12   0   7   15.80   18.80
  14   0   7  -38.00   24.30
 -21   1   7   58.99   35.70
 -19   1   7    4.80   21.00
  17  -1  -7   44.20   27.50
  17  -1  -7   93.09   43.00
 -17   1   7   22.50   35.20
 -17   1   7   66.69   32.00
  15  -1  -7  375.46   63.99
  15  -1  -7  223.68   51.59
  15  -1  -7  271.47   53.39
 -15   1   7  300.57   56.59
 -15   1   7  308.07   58.69
 -15   1   7  298.07   58.79
  13  -1  -7  207.68   47.90
  13  -1  -7  174.58   41.70
  13  -1  -7  199.68   42.50
 -13   1   7  233.78   49.50
 -13   1   7  178.38   42.10
 -13   1   7  241.98   47.70
  11  -1  -7   -3.00    9.00
  11  -1  -7   14.00   13.50
 -11   1   7   18.30   12.80
 -11   1   7   25.30   20.00
 -11   1   7   22.00   18.40
   9  -1  -7   95.69   27.10
   9  -1  -7   71.09   28.90
   9  -1  -7   43.50   20.90
  -9   1   7  105.49   29.00
  -9   1   7   43.60   19.70
  -9   1   7   54.19   21.10
   7  -1  -7 1168.98   79.89
   7  -1  -7 1149.19   80.59
  -7   1   7 1178.08   79.39
  -7   1   7 1189.88   79.99
  -7   1   7 1244.88   81.39
   5  -1  -7  240.48   31.20
  -5   1   7  217.28   37.80
  -5   1   7  330.17   36.90
  -5   1   7  272.37   36.00
  -5   1   7  221.78   37.10
   3  -1  -7   19.00   11.00
   3  -1  -7    8.30   11.70
  -3   1   7    3.10   11.70
  -3   1   7   -0.40    8.70
  -3   1   7    3.30    9.50
   1  -1  -7  195.08   31.40
   1  -1  -7  231.08   35.40
   1  -1  -7  230.48   39.60
  -1   1   7  271.77   50.99
  -1   1   7  318.67   34.10
  -1   1   7  201.28   32.60
  -1  -1  -7  192.08   38.70
  -1  -1  -7  145.39   28.40
   1   1   7  154.38   30.10
   1   1   7  119.29   26.50
   1   1   7  170.18   35.70
  -3  -1  -7  117.89   32.10
  -3  -1  -7   98.59   23.90
   3   1   7  108.49   30.70
   3   1   7  123.39   27.50
   3   1   7   91.89   25.20
  -5  -1  -7   45.60   18.70
  -5  -1  -7   14.10   23.10
  -5  -1  -7   68.49   23.50
   5   1   7   46.30   24.80
   5   1   7   57.39   20.70
   5   1   7   61.49   19.90
  -7  -1  -7   94.79   36.60
  -7  -1  -7  133.59   31.20
  -7  -1  -7  157.28   36.30
   7   1   7  191.58   40.50
   7   1   7  134.99   42.70
   7   1   7  113.99   30.50
  -9  -1  -7   16.00   20.20
  -9  -1  -7   22.10   24.00
   9   1   7   35.70   26.90
   9   1   7  -13.00   11.20
 -11  -1  -7  130.29   49.50
  11   1   7  150.08   40.40
 -13  -1  -7   30.50   36.60
  13   1   7   39.90   29.40
 -20   2   7   68.19   37.60
  18  -2  -7  244.88   75.39
  18  -2  -7  176.38   51.49
 -18   2   7  224.08   55.59
  16  -2  -7   -1.10   25.60
  16  -2  -7   16.90   26.60
  16  -2  -7  -12.90   18.50
 -16   2   7   -0.90   26.50
 -16   2   7   27.60   30.00
 -16   2   7   -7.30   14.50
  14  -2  -7  164.68   37.60
  14  -2  -7  315.57   64.09
  14  -2  -7  174.98   44.90
 -14   2   7  233.28   50.39
 -14   2   7  222.88   45.60
 -14   2   7  213.28   47.40
  12  -2  -7  678.03   61.89
  12  -2  -7  670.23   80.49
  12  -2  -7  718.33   71.49
 -12   2   7  691.03   69.79
 -12   2   7  679.43   68.69
 -12   2   7  660.43   65.49
  10  -2  -7  130.09   35.40
  10  -2  -7  140.09   37.70
  10  -2  -7  152.28   36.80
 -10   2   7  132.49   35.60
 -10   2   7  114.49   30.50
 -10   2   7  125.39   34.70
   8  -2  -7  287.57   45.90
   8  -2  -7  306.47   47.10
   8  -2  -7  265.77   34.40
  -8   2   7  262.97   43.80
  -8   2   7  317.57   40.40
  -8   2   7  275.17   42.20
   6  -2  -7 1170.78   78.99
   6  -2  -7 1212.98   81.49
  -6   2   7 1234.28   76.69
  -6   2   7 1165.78   76.79
  -6   2   7 1281.37   82.49
  -6   2   7 1195.08   82.39
   4  -2  -7 1802.22   98.49
   4  -2  -7 1754.52   98.59
  -4   2   7 1624.44   93.49
  -4   2   7 1692.03   97.29
  -4   2   7 1815.92  100.29
   2  -2  -7  529.85   65.29
   2  -2  -7  661.03   53.59
   2  -2  -7  761.22   59.89
  -2   2   7  650.13   53.89
  -2   2   7  701.73   56.39
  -2   2   7  674.33   54.89
   0  -2  -7 1016.20   73.19
   0  -2  -7  933.11   77.39
   0   2   7  849.22   66.99
   0   2   7  961.40   68.29
   0   2   7  890.31   65.79
  -2  -2  -7  314.07   39.70
  -2  -2  -7  258.47   45.00
   2   2   7  364.46   42.10
   2   2   7  265.27   47.40
   2   2   7  313.47   38.50
  -4  -2  -7  708.03   67.49
  -4  -2  -7  719.63   62.89
   4   2   7  740.03   63.99
   4   2   7  591.04   65.59
   4   2   7  748.43   64.89
  -6  -2  -7   -3.40   13.90
  -6  -2  -7   50.69   25.40
   6   2   7   12.50   15.90
   6   2   7  -15.50   11.40
   6   2   7    7.80   21.70
  -8  -2  -7  283.67   51.39
  -8  -2  -7  269.57   58.79
   8   2   7  282.87   57.39
   8   2   7  301.67   59.89
 -10  -2  -7  230.58   58.19
 -10  -2  -7  262.77   52.59
  10   2   7  423.46   65.89
 -12  -2  -7   18.80   34.90
  12   2   7   46.30   28.10
 -14  -2  -7  -48.90   30.80
  14   2   7  -35.20   29.00
 -19   3   7  101.39   39.90
  17  -3  -7  456.75   80.39
  17  -3  -7  439.56   58.19
 -17   3   7  337.37   60.29
 -17   3   7  310.47   71.49
  15  -3  -7  928.81   92.49
  15  -3  -7  662.43   67.79
  15  -3  -7  792.52   84.29
 -15   3   7  841.32   86.29
 -15   3   7  777.32   81.69
 -15   3   7  634.44   69.29
  13  -3  -7   83.69   34.40
  13  -3  -7  111.89   30.60
  13  -3  -7  113.29   38.20
 -13   3   7  147.79   40.90
 -13   3   7  166.18   37.60
 -13   3   7   77.19   33.20
  11  -3  -7  124.39   28.40
  11  -3  -7   63.59   24.50
 -11   3   7  110.19   30.70
 -11   3   7  116.49   31.20
 -11   3   7  116.59   33.70
   9  -3  -7  369.36   47.30
   9  -3  -7  271.87   34.90
   9  -3  -7  278.17   50.09
  -9   3   7  308.37   58.49
  -9   3   7  373.56   45.40
  -9   3   7  301.07   37.90
   7  -3  -7 2199.18  123.79
   7  -3  -7 2463.95  130.39
  -7   3   7 2344.67  120.39
  -7   3   7 2351.56  128.29
  -7   3   7 2421.66  116.49
  -7   3   7 2349.26  127.99
   5  -3  -7  123.99   29.40
   5  -3  -7  104.99   28.20
  -5   3   7  178.48   32.30
  -5   3   7  142.19   30.50
  -5   3   7  111.69   26.60
  -5   3   7   75.99   24.80
   3  -3  -7 1442.56   88.49
   3  -3  -7 1366.66   85.29
   3  -3  -7 1417.46   83.39
  -3   3   7 1298.27   79.39
  -3   3   7 1307.07   84.59
  -3   3   7 1283.27   84.39
   1  -3  -7 1395.76   86.89
   1  -3  -7 1434.46   88.49
   1  -3  -7 1514.85   88.89
  -1   3   7 1296.67   85.59
  -1   3   7 1489.55   90.99
  -1   3   7 1497.65   88.59
  -1  -3  -7  545.45   52.69
  -1  -3  -7  400.16   45.20
  -1  -3  -7  491.35   48.70
   1   3   7  505.85   49.60
   1   3   7  448.26   49.99
   1   3   7  523.05   51.49
  -3  -3  -7   86.59   31.40
  -3  -3  -7   87.99   25.20
  -3  -3  -7  122.39   33.00
   3   3   7   78.19   25.70
   3   3   7   94.49   31.70
   3   3   7   98.29   27.70
  -5  -3  -7  848.72   76.99
  -5  -3  -7  919.81   75.39
  -5  -3  -7  931.61   76.09
   5   3   7  805.22   71.59
   5   3   7  933.91   77.49
   5   3   7  836.12   79.89
  -7  -3  -7  612.04   64.29
  -7  -3  -7  697.23   88.49
  -7  -3  -7  677.33   68.49
   7   3   7  739.83   73.99
  -9  -3  -7   41.20   27.80
  -9  -3  -7   58.99   24.20
   9   3   7   91.89   36.90
   9   3   7   57.39   28.90
 -11  -3  -7  174.48   54.69
  11   3   7  266.97   56.29
  13   3   7  383.26   78.49
  18  -4  -7  415.86   77.69
 -18   4   7  288.27   60.09
  16  -4  -7    6.40   27.40
  16  -4  -7   69.29   26.70
 -16   4   7   64.79   29.20
 -16   4   7   92.69   34.50
  14  -4  -7  626.44   70.89
  14  -4  -7  674.13   61.99
 -14   4   7  504.85   66.09
 -14   4   7  549.95   60.19
 -14   4   7  505.55   77.39
  12  -4  -7 1023.40   92.39
  12  -4  -7 1086.59   91.89
  12  -4  -7 1038.40   74.79
 -12   4   7 1050.89   89.09
 -12   4   7  988.10   73.69
 -12   4   7  940.61   88.79
  10  -4  -7  110.89   26.00
  10  -4  -7   71.19   27.30
  10  -4  -7  112.19   31.50
 -10   4   7   89.79   24.50
 -10   4   7   90.79   32.40
 -10   4   7  109.99   31.60
   8  -4  -7   23.10   17.40
   8  -4  -7   33.10   21.00
  -8   4   7   15.50   13.30
  -8   4   7   45.10   21.90
  -8   4   7   32.70   19.50
   6  -4  -7  402.26   50.39
   6  -4  -7  483.95   51.19
  -6   4   7  453.35   42.10
  -6   4   7  416.66   47.90
  -6   4   7  419.46   40.80
  -6   4   7  428.46   49.10
   4  -4  -7 2393.76  126.69
   4  -4  -7 2209.58  121.89
  -4   4   7 2313.47  123.79
  -4   4   7 2262.27  109.89
  -4   4   7 2219.78  123.39
   2  -4  -7  116.19   26.70
   2  -4  -7  126.79   28.60
   2  -4  -7   94.29   26.70
  -2   4   7  101.19   24.30
  -2   4   7   54.99   19.80
  -2   4   7  104.79   30.00
   0  -4  -7  909.91   68.89
   0  -4  -7  968.90   72.99
   0  -4  -7  867.71   70.29
   0   4   7  820.22   65.99
   0   4   7  899.21   70.89
   0   4   7 1125.59   78.39
  -2  -4  -7  523.05   55.19
  -2  -4  -7  604.64   58.49
  -2  -4  -7  568.44   59.99
   2   4   7  660.03   62.99
   2   4   7  595.14   58.49
   2   4   7  618.34   58.59
  -4  -4  -7 1076.29   81.89
  -4  -4  -7 1058.99   82.29
  -4  -4  -7  855.31   78.19
   4   4   7  992.50   81.79
   4   4   7 1019.40   83.49
   4   4   7  890.91   80.29
  -6  -4  -7   59.09   29.60
  -6  -4  -7   42.00   22.60
  -6  -4  -7   20.70   24.30
   6   4   7   63.89   25.80
   6   4   7    8.90   26.50
   6   4   7   36.30   20.50
  -8  -4  -7  143.29   38.10
  -8  -4  -7  124.99   43.30
   8   4   7  115.89   41.90
   8   4   7   70.99   29.60
 -10  -4  -7  959.40   97.79
 -10  -4  -7  727.73   83.39
  10   4   7  786.72   88.79
 -12  -4  -7  145.79   46.60
  12   4   7  122.29   45.70
  19  -5  -7   -6.00   21.90
  17  -5  -7  436.36   78.89
 -17   5   7  691.53   84.79
 -17   5   7  408.76   64.59
 -15   5   7  676.83   80.09
 -15   5   7  796.82   69.19
  13  -5  -7   -6.00   10.40
  13  -5  -7    2.70   13.80
  13  -5  -7   18.80   20.90
 -13   5   7    1.30   19.50
 -13   5   7   37.70   26.20
 -13   5   7  -38.20   17.90
  11  -5  -7  181.28   44.30
  11  -5  -7  126.59   28.20
  11  -5  -7  173.28   42.80
 -11   5   7  151.08   37.10
 -11   5   7  140.79   37.80
 -11   5   7  103.99   27.00
   9  -5  -7 1205.18   92.49
   9  -5  -7 1440.16  101.39
  -9   5   7 1259.37   74.59
  -9   5   7 1176.28   94.39
  -9   5   7 1224.78   93.89
   7  -5  -7  806.82   70.79
  -7   5   7  767.92   68.49
  -7   5   7  796.82   55.29
  -7   5   7  847.12   56.79
  -7   5   7  743.03   70.09
   5  -5  -7   73.99   25.50
   5  -5  -7   89.99   25.70
  -5   5   7   93.29   21.70
  -5   5   7   61.69   18.90
  -5   5   7   64.79   22.50
  -5   5   7   75.39   27.70
   3  -5  -7  975.30   77.09
   3  -5  -7 1016.10   77.09
   3  -5  -7  873.91   61.69
  -3   5   7  876.91   72.69
  -3   5   7 1001.90   78.39
  -3   5   7  964.80   63.89
   1  -5  -7 2410.76  130.09
   1  -5  -7 2212.58  124.49
   1  -5  -7 2342.37  117.29
  -1   5   7 2218.88  125.79
  -1   5   7 2270.37  115.89
  -1   5   7 2120.19  124.39
  -1  -5  -7  756.62   67.59
  -1  -5  -7  709.83   77.89
  -1  -5  -7  785.92   65.29
   1   5   7  673.63   63.69
   1   5   7  748.63   67.39
   1   5   7  684.23   62.79
  -3  -5  -7   37.90   17.70
  -3  -5  -7   30.70   20.50
  -3  -5  -7   38.70   21.40
   3   5   7   61.59   27.40
   3   5   7   91.19   29.20
   3   5   7   38.40   21.20
  -5  -5  -7  442.96   59.49
  -5  -5  -7  407.16   65.49
  -5  -5  -7  557.34   63.59
   5   5   7  508.85   59.89
   5   5   7  418.36   67.89
   5   5   7  548.55   61.59
  -7  -5  -7 1248.08  101.39
  -7  -5  -7 1399.66  110.89
   7   5   7 1254.77  108.49
   7   5   7 1386.06  106.79
  -9  -5  -7   38.40   34.00
  -9  -5  -7   43.80   26.70
   9   5   7  105.29   40.00
 -11  -5  -7  143.49   51.79
 -11  -5  -7  106.49   50.49
  11   5   7  108.79   43.40
 -13  -5  -7  442.26   88.59
  13   5   7  488.45   86.49
  18  -6  -7  219.28   63.99
 -16   6   7   60.19   31.40
  14  -6  -7  268.87   58.09
 -14   6   7  198.68   38.50
 -14   6   7  230.88   54.69
  12  -6  -7  568.94   67.79
  12  -6  -7  708.43   54.99
  12  -6  -7  703.23   75.99
 -12   6   7  578.44   71.09
 -12   6   7  660.73   54.19
 -12   6   7  639.04   71.99
  10  -6  -7   81.59   29.90
  10  -6  -7   34.40   28.80
 -10   6   7   95.69   23.50
 -10   6   7   68.99   30.20
 -10   6   7   79.59   32.90
   8  -6  -7   63.99   32.50
   8  -6  -7   72.49   26.60
  -8   6   7   59.69   29.00
  -8   6   7   67.79   18.30
  -8   6   7   59.79   17.70
  -8   6   7   56.69   21.80
   6  -6  -7  115.99   32.40
   6  -6  -7   80.79   28.40
  -6   6   7  112.59   23.30
  -6   6   7  102.99   33.50
  -6   6   7  148.09   37.30
  -6   6   7  109.49   22.30
   4  -6  -7 1418.56  102.79
   4  -6  -7 1380.16   97.19
  -4   6   7 1617.84  104.59
  -4   6   7 1523.55   81.19
  -4   6   7 1503.85  103.39
   2  -6  -7   13.50   11.00
   2  -6  -7  -11.80   12.20
   2  -6  -7   -0.50   11.40
  -2   6   7    0.80   11.60
  -2   6   7   -3.70   12.60
  -2   6   7   21.00   16.50
   0  -6  -7  -13.70    7.40
   0  -6  -7  -12.90    6.50
   0  -6  -7   -2.30   10.80
   0   6   7    0.30   10.60
   0   6   7    8.10   16.10
   0   6   7   -0.20   10.30
  -2  -6  -7  447.86   51.29
  -2  -6  -7  474.85   70.89
  -2  -6  -7  395.36   50.59
   2   6   7  466.95   54.89
   2   6   7  434.56   50.09
   2   6   7  396.06   51.09
  -4  -6  -7  257.77   51.49
  -4  -6  -7  253.37   50.49
  -4  -6  -7  293.37   52.49
   4   6   7  280.37   52.69
   4   6   7  286.27   52.99
   4   6   7  279.77   54.59
  -6  -6  -7   34.40   17.50
  -6  -6  -7   21.90   23.20
  -6  -6  -7   35.20   28.90
   6   6   7   28.40   21.80
   6   6   7   54.59   29.00
  -8  -6  -7  657.93   79.29
  -8  -6  -7  543.05   66.99
   8   6   7  677.43   84.79
   8   6   7  556.94   83.09
 -10  -6  -7  204.88   56.29
  10   6   7  163.18   49.10
  19  -7  -7   54.69   36.20
 -15   7   7  215.08   54.89
  13  -7  -7   11.50   21.20
 -13   7   7   54.39   30.20
  11  -7  -7   84.09   36.10
 -11   7   7   -5.30   20.50
 -11   7   7   37.00   16.30
 -11   7   7   46.40   17.70
 -11   7   7    6.60   17.80
   9  -7  -7  137.69   38.20
   9  -7  -7   80.99   31.60
  -9   7   7  120.09   21.90
  -9   7   7  155.28   23.50
  -9   7   7  127.89   34.90
  -9   7   7   75.19   35.40
   7  -7  -7   56.79   27.00
   7  -7  -7   91.19   29.40
  -7   7   7   29.20   23.20
  -7   7   7   70.29   17.10
  -7   7   7   28.50   17.70
  -7   7   7   63.39   16.40
   5  -7  -7   47.80   22.90
   5  -7  -7   15.70   20.30
  -5   7   7   22.20   14.40
  -5   7   7   28.90   21.00
  -5   7   7   56.49   17.40
  -5   7   7   54.09   22.50
   3  -7  -7   83.89   22.30
   3  -7  -7  115.99   32.40
   3  -7  -7   92.99   31.40
  -3   7   7   89.49   22.20
  -3   7   7   90.49   37.10
  -3   7   7   32.70   20.20
   1  -7  -7  294.47   38.50
   1  -7  -7  311.37   54.99
   1  -7  -7  355.96   60.19
  -1   7   7  400.46   42.90
  -1   7   7  346.97   56.69
  -1   7   7  311.07   65.49
  -1  -7  -7   89.79   33.20
  -1  -7  -7  139.59   31.80
  -1  -7  -7  152.78   40.60
   1   7   7  155.98   40.90
   1   7   7  139.89   39.20
   1   7   7  139.89   34.70
  -3  -7  -7   38.20   22.40
  -3  -7  -7  109.79   35.50
  -3  -7  -7   57.09   32.50
   3   7   7   44.40   28.30
   3   7   7    4.20   24.90
  -5  -7  -7   46.90   28.70
  -5  -7  -7   44.00   30.10
  -5  -7  -7   23.30   20.10
   5   7   7   29.50   29.80
   5   7   7    5.60   21.50
   5   7   7   -4.90   20.70
  -7  -7  -7  219.18   54.59
  -7  -7  -7  198.78   48.40
   7   7   7  230.28   54.39
   7   7   7  189.58   50.09
  -9  -7  -7   49.30   29.30
   9   7   7   -3.50   16.10
 -11  -7  -7   43.90   31.40
  16  -8  -7   -7.20   29.60
  14  -8  -7    5.90   19.70
 -14   8   7    5.10   17.30
  12  -8  -7   25.40   21.80
 -12   8   7   -1.50   13.80
  10  -8  -7    9.40   21.00
 -10   8   7   12.40   15.80
 -10   8   7   40.50   31.30
   8  -8  -7    5.80   15.00
   8  -8  -7   29.40   24.30
  -8   8   7   14.90   22.80
  -8   8   7    9.10    8.70
  -8   8   7    2.90    8.60
  -8   8   7   25.70   19.30
   6  -8  -7  132.09   37.80
   6  -8  -7  144.19   41.40
  -6   8   7  180.18   46.50
  -6   8   7   53.29   24.00
  -6   8   7   95.69   18.50
  -6   8   7  101.39   18.80
   4  -8  -7  293.17   53.99
   4  -8  -7  274.07   53.89
  -4   8   7  285.17   57.69
  -4   8   7  258.77   50.69
  -4   8   7  293.07   32.00
   2  -8  -7   22.10   16.70
   2  -8  -7   63.99   24.50
   2  -8  -7    8.60   15.80
  -2   8   7    0.80   12.40
  -2   8   7   19.40   17.60
  -2   8   7   29.10   18.80
   0  -8  -7   56.29   27.10
   0  -8  -7   35.00   26.50
   0  -8  -7   29.50   17.40
   0   8   7   67.59   26.00
   0   8   7   43.90   25.30
   0   8   7   74.19   31.50
  -2  -8  -7   23.00   16.50
  -2  -8  -7   42.60   30.20
  -2  -8  -7   21.10   20.50
   2   8   7   21.60   19.70
   2   8   7   43.30   27.20
   2   8   7   41.80   24.80
  -4  -8  -7  105.49   42.80
  -4  -8  -7  134.29   41.90
  -4  -8  -7   52.59   26.60
   4   8   7  107.99   40.10
   4   8   7   88.19   32.00
   4   8   7  117.79   36.00
  -6  -8  -7   71.39   41.20
  -6  -8  -7   70.49   32.70
   6   8   7   36.90   28.70
   6   8   7   21.10   31.80
  -8  -8  -7   -3.00   20.90
 -10  -8  -7   24.90   22.20
  15  -9  -7  190.98   53.59
  13  -9  -7   52.39   33.00
 -13   9   7  -14.90   13.60
  11  -9  -7   33.30   23.10
 -11   9   7   18.80   28.10
   9  -9  -7   95.99   35.60
  -9   9   7   63.09   29.20
   7  -9  -7    3.60   15.20
  -7   9   7    5.70   16.40
  -7   9   7   -7.50   18.30
   5  -9  -7   26.80   23.20
   5  -9  -7   25.50   18.30
  -5   9   7   11.20   11.00
  -5   9   7   10.90    9.80
  -5   9   7   -6.50   11.50
  -5   9   7  -15.30   21.70
   3  -9  -7   82.79   30.10
   3  -9  -7   69.09   19.90
   3  -9  -7   71.59   33.10
  -3   9   7   86.49   37.10
  -3   9   7   57.29   21.20
  -3   9   7   91.89   32.50
   1  -9  -7   56.29   24.90
   1  -9  -7   97.39   34.50
   1  -9  -7   56.59   23.20
  -1   9   7  142.89   30.60
  -1   9   7   57.79   33.70
  -1   9   7   38.80   23.00
  -1  -9  -7   81.99   36.70
  -1  -9  -7  130.19   38.60
  -1  -9  -7  148.19   36.10
   1   9   7  160.38   46.80
   1   9   7  164.58   39.30
   1   9   7   97.09   38.50
  -3  -9  -7   30.10   23.50
  -3  -9  -7   13.10   19.80
   3   9   7   43.30   29.00
   3   9   7   48.00   35.90
   3   9   7   97.59   33.90
  -5  -9  -7  233.58   50.49
  -5  -9  -7  168.58   52.09
   5   9   7  284.37   58.99
  -7  -9  -7  165.18   48.10
   7   9   7  217.88   52.69
  -9  -9  -7   65.39   35.00
  16 -10  -7   68.89   41.60
  14 -10  -7  158.98   55.09
  12 -10  -7  187.58   50.29
  10 -10  -7  113.49   43.90
 -10  10   7   72.29   26.70
   8 -10  -7  -12.20   24.80
   6 -10  -7  173.78   48.00
  -6  10   7  165.18   44.20
   4 -10  -7  149.79   44.60
  -4  10   7  163.48   42.50
   2 -10  -7  -17.70   22.80
  -2  10   7    7.80   17.30
   0 -10  -7    8.20   11.70
   0 -10  -7  -14.00   10.50
   0  10   7   -9.20   12.80
  -2 -10  -7  577.54   70.99
  -2 -10  -7  504.45   56.29
   2  10   7  581.94   65.49
   2  10   7  558.44   70.69
  -4 -10  -7   48.40   29.40
  -4 -10  -7   14.40   18.70
   4  10   7  -20.90   24.70
  -6 -10  -7   41.30   28.90
  -8 -10  -7  230.38   58.49
  15 -11  -7  215.08   64.09
  13 -11  -7  125.89   48.10
  11 -11  -7  114.39   48.90
   9 -11  -7  845.62   90.39
  -9  11   7  645.64   77.69
   7 -11  -7  213.68   52.59
  -7  11   7  201.68   45.50
   5 -11  -7  316.97   62.19
  -5  11   7  295.87   57.59
   3 -11  -7  659.33   76.79
   1 -11  -7  524.05   81.89
  -1  11   7  359.56   81.99
  -1 -11  -7   71.79   33.10
  -3 -11  -7    0.40   21.20
   3  11   7  -54.39   19.40
  -5 -11  -7  467.95   62.99
  -7 -11  -7  135.89   43.40
  14 -12  -7  178.08   58.09
  12 -12  -7  348.17   77.89
  10 -12  -7   96.99   44.00
   8 -12  -7  -10.10   27.70
   6 -12  -7  327.77   65.59
  -6  12   7  456.85   89.09
   4 -12  -7  690.23   84.39
  -4  12   7  711.83   80.99
   2 -12  -7   49.40   31.80
  -2  12   7   27.90   23.90
   0 -12  -7  377.66   73.49
   0  12   7  172.38   51.39
  -2 -12  -7  595.84   91.29
   2  12   7  344.37   66.99
  -4 -12  -7  322.97   81.29
  11 -13  -7  -39.80   32.20
   9 -13  -7  233.08   67.69
   7 -13  -7  239.68   60.79
   5 -13  -7   70.79   33.10
   3 -13  -7   93.99   36.90
   1 -13  -7  535.85   89.09
  -1 -13  -7   39.00   33.40
  -3 -13  -7   36.20   35.60
   8 -14  -7  -41.90   25.30
   6 -14  -7  130.79   46.50
   4 -14  -7  120.19   45.90
   2 -14  -7  -10.60   20.40
   0 -14  -7   74.49   39.00
  -2 -14  -7  247.18   68.39
  -8 -14   8  166.18   34.40
  -6 -14   8  320.27   41.70
  -4 -14   8    4.40    7.30
 -11 -13   8  156.78   50.29
  -9 -13   8   80.49   46.30
  -7 -13   8  498.75   83.19
  -7 -13   8  431.76   44.10
  -5 -13   8   25.30   24.70
  -5 -13   8   35.80   13.00
 -12 -12   8   63.59   41.10
 -10 -12   8  147.29   37.30
 -10 -12   8  159.48   50.19
  -8 -12   8  245.78   56.29
  -8 -12   8  235.08   40.40
  -6 -12   8    7.20   24.60
  -6 -12   8   19.10   26.30
  -6 -12   8   27.40   14.40
  -4 -12   8  127.89   15.70
  -4 -12   8  181.58   47.50
  -2 -12   8   70.19   33.60
   0 -12   8   44.70   32.10
 -15 -11   8  242.58   65.69
 -15 -11   8  294.47   60.19
 -13 -11   8   28.60   21.00
 -13 -11   8  -34.00   23.00
 -11 -11   8  225.18   43.60
 -11 -11   8  189.28   49.70
   9  11  -8  318.97   82.59
  -9 -11   8  287.37   46.60
  -9 -11   8  350.16   71.29
   7  11  -8   -0.70    8.10
  -7 -11   8   31.40   14.00
  -7 -11   8  -10.90   22.00
  -5 -11   8  224.58   52.29
  -5 -11   8  197.88   45.80
  -5 -11   8  218.88   23.90
  -5 -11   8  238.98   25.40
  -3 -11   8  310.17   61.89
  -1 -11   8   11.00   25.90
  -1 -11   8   -5.10   18.00
   1 -11   8  479.35   62.89
   3 -11   8  148.89   39.40
 -16 -10   8  -27.10   22.30
 -14 -10   8  119.99   52.89
 -14 -10   8  150.08   39.10
 -12 -10   8   36.30   22.80
 -12 -10   8    3.80   24.50
  10  10  -8  535.95   87.29
 -10 -10   8  658.03   62.49
 -10 -10   8  687.43   80.79
   8  10  -8  147.69   43.70
   8  10  -8   88.89   21.90
  -8 -10   8  155.28   31.10
  -8 -10   8  116.79   39.20
  -6 -10   8   31.20   16.00
  -6 -10   8   41.70   15.90
  -4 -10   8 1219.28  101.19
  -4 -10   8 1146.19   98.99
  -4 -10   8 1286.47   57.29
  -4 -10   8 1336.47   57.39
  -2 -10   8   18.00   21.80
  -2 -10   8  101.19   36.90
   0 -10   8   17.00   21.70
   0 -10   8   38.90   26.20
   2 -10   8 1573.94  117.29
   2 -10   8 1904.51  128.59
   4 -10   8   75.49   30.80
   8 -10   8  313.37   28.30
 -17  -9   8   21.20   32.80
 -15  -9   8 1129.49  100.59
 -15  -9   8  878.81  105.49
 -13  -9   8    9.40   21.90
 -13  -9   8   27.20   20.50
  11   9  -8  116.09   44.10
 -11  -9   8   92.19   29.50
 -11  -9   8  102.49   42.80
   9   9  -8 1456.15  121.29
   9   9  -8 1554.04   88.99
  -9  -9   8 1647.44  124.39
  -9  -9   8 1634.64   97.89
   7   9  -8  303.67   60.59
   7   9  -8  302.27   28.80
  -7  -9   8  341.17   37.20
  -7  -9   8  325.67   36.00
  -7  -9   8  322.37   60.89
  -5  -9   8  586.54   40.70
  -5  -9   8  601.14   68.59
  -5  -9   8  502.65   64.59
  -3  -9   8  612.74   67.69
  -3  -9   8  469.25   61.19
  -1  -9   8   21.40   22.80
  -1  -9   8   61.99   28.90
   1  -9   8 1167.38   94.49
   1  -9   8 1273.87  100.99
   3  -9   8  554.34   66.79
   3  -9   8  533.25   64.69
   5  -9   8   45.90   30.90
  -7   9  -8  882.41   93.99
   7  -9   8  791.82   46.50
   9  -9   8   17.70   15.40
 -18  -8   8   48.20   42.30
 -18  -8   8  136.39   51.59
 -16  -8   8  147.39   47.00
 -16  -8   8  163.08   53.89
 -14  -8   8  303.27   58.79
 -14  -8   8  533.95   90.69
  12   8  -8  104.09   36.50
  12   8  -8  184.28   49.30
 -12  -8   8  173.68   39.90
 -12  -8   8  155.88   49.30
  10   8  -8 1401.76   88.09
  10   8  -8 1408.36  113.69
 -10  -8   8 1322.97  111.79
 -10  -8   8 1394.66   93.79
   8   8  -8  477.85   49.30
   8   8  -8  488.05   43.10
   8   8  -8  512.25   77.79
  -8  -8   8  551.54   49.20
  -8  -8   8  414.96   69.99
  -8  -8   8  463.95   47.10
   6   8  -8    8.60    8.10
   6   8  -8    7.70    7.90
  -6  -8   8   -2.00    9.20
  -6  -8   8   88.49   33.10
  -6  -8   8   18.30   10.80
  -4  -8   8 2013.50   82.69
  -4  -8   8 1967.80  129.19
  -4  -8   8 2000.70   80.99
  -4  -8   8 2053.89  133.39
  -2  -8   8   -3.80   11.80
  -2  -8   8   -3.00   14.40
   0  -8   8   11.90   17.10
   0  -8   8  -12.20   12.50
   2  -8   8 1292.27  100.99
   2  -8   8 1264.57  100.99
   4  -8   8  287.97   58.39
  -6   8  -8  286.37   61.79
   6  -8   8  231.18   53.29
   6  -8   8  306.97   27.50
   6  -8   8  277.97   27.90
  -8   8  -8  441.06   78.39
   8  -8   8  524.05   44.90
 -10   8  -8   42.80   35.30
  10  -8   8   44.10   18.50
 -19  -7   8   40.50   31.40
 -19  -7   8   34.30   24.30
 -17  -7   8   26.40   26.00
 -17  -7   8   34.70   31.80
 -15  -7   8 1144.29  101.99
 -15  -7   8 1295.07  117.29
  13   7  -8    9.70   15.30
  13   7  -8   -7.90   19.20
 -13  -7   8   29.50   22.20
 -13  -7   8   -7.30   24.20
  11   7  -8  122.19   30.90
  11   7  -8  186.98   47.30
 -11  -7   8  122.89   33.10
 -11  -7   8  161.98   45.60
   9   7  -8 2580.94  120.69
   9   7  -8 2268.57  116.29
   9   7  -8 2224.78  145.69
  -9  -7   8 2320.07  147.09
  -9  -7   8 2203.78  119.19
  -9  -7   8 2226.78  119.59
   7   7  -8   72.99   27.10
   7   7  -8   71.99   17.50
   7   7  -8   48.50   15.20
  -7  -7   8   80.59   20.90
  -7  -7   8   81.99   36.40
  -7  -7   8   59.19   18.80
   5   7  -8  267.97   18.50
   5   7  -8  254.27   18.00
  -5  -7   8  279.97   27.20
  -5  -7   8  276.07   51.09
  -5  -7   8  251.07   50.19
  -5  -7   8  262.07   27.80
  -3  -7   8  777.92   37.50
  -3  -7   8  784.52   36.70
  -3  -7   8  717.93   73.49
  -3  -7   8  844.12   77.99
  -1  -7   8  161.78   42.00
  -1  -7   8  206.98   46.10
   1  -7   8 1449.85  106.69
   1  -7   8 1403.46  103.29
   3  -7   8  590.14   27.70
   3  -7   8  521.75   26.30
   3  -7   8  468.15   59.89
  -5   7  -8   21.10   23.40
   5  -7   8   19.80   10.00
   5  -7   8    6.30    8.00
  -7   7  -8 1273.47  112.99
   7  -7   8 1422.76   77.89
   7  -7   8 1367.36  111.79
  -9   7  -8  -44.70   22.90
   9  -7   8   31.30   16.80
 -11   7  -8  -44.20   25.30
  11  -7   8   33.10   21.00
 -20  -6   8  200.08   63.39
 -18  -6   8  -52.29   20.30
 -18  -6   8   56.69   37.20
 -16  -6   8  219.68   50.39
 -16  -6   8  183.28   53.69
  14   6  -8  356.56   60.39
  14   6  -8  347.87   67.99
 -14  -6   8  495.25   83.59
 -14  -6   8  433.16   68.29
  12   6  -8   26.70   22.90
  12   6  -8   27.40   21.00
 -12  -6   8  117.29   39.20
  10   6  -8  840.02   66.99
  10   6  -8  890.71   86.89
  10   6  -8  803.52   65.79
 -10  -6   8  887.61   86.29
 -10  -6   8  771.12   66.59
 -10  -6   8  983.50   73.39
   8   6  -8  237.78   30.30
   8   6  -8  226.08   49.20
   8   6  -8  233.08   30.30
  -8  -6   8  230.38   36.40
  -8  -6   8  223.38   36.10
  -8  -6   8  232.48   51.39
   6   6  -8   82.79   17.40
   6   6  -8   52.59   14.70
  -6  -6   8   49.80   15.90
  -6  -6   8   53.49   16.20
  -6  -6   8   95.29   29.10
   4   6  -8 1741.73   59.49
   4   6  -8 1780.22   59.79
  -4  -6   8 1890.51   81.09
  -4  -6   8 1874.41  119.89
  -4  -6   8 1804.12   79.19
  -4  -6   8 1917.01  121.49
  -2  -6   8   72.29   26.00
  -2  -6   8   81.29   10.50
  -2  -6   8   92.39   29.10
  -2  -6   8  107.19   11.60
   0  -6   8   39.80   22.70
   0  -6   8   71.69    7.00
   0  -6   8   74.09    6.90
   0  -6   8   51.89   26.10
  -2   6  -8  938.01   84.49
   2  -6   8  928.41   42.80
   2  -6   8  917.91   43.10
   2  -6   8  879.51   81.99
  -4   6  -8    4.80   15.20
   4  -6   8   -7.90    8.00
   4  -6   8    9.30   20.20
  -6   6  -8  605.94   33.90
  -6   6  -8  588.64   73.19
   6  -6   8  768.32   76.39
   6  -6   8  732.83   52.09
   6  -6   8  625.14   48.40
  -8   6  -8  382.46   70.49
   8  -6   8  386.66   43.20
   8  -6   8  322.87   59.89
 -10   6  -8  -10.50   23.40
  10  -6   8   34.20   22.00
 -19  -5   8  134.79   54.09
 -19  -5   8   92.59   52.29
 -17  -5   8   36.30   33.90
 -17  -5   8  -14.20   35.20
  15   5  -8  176.58   66.09
  15   5  -8  200.48   44.40
 -15  -5   8  290.17   63.79
 -15  -5   8  232.88   49.30
  13   5  -8   80.19   31.90
 -13  -5   8   29.60   31.40
 -13  -5   8   85.49   28.10
  11   5  -8   10.60   13.40
  11   5  -8   48.10   28.50
  11   5  -8   38.30   19.80
 -11  -5   8   83.19   36.10
 -11  -5   8   51.49   21.80
 -11  -5   8   14.10   19.30
   9   5  -8  336.97   40.00
   9   5  -8  351.06   39.90
   9   5  -8  379.56   62.59
  -9  -5   8  329.17   39.90
  -9  -5   8  322.37   59.09
  -9  -5   8  318.97   40.40
   7   5  -8   11.90   16.60
   7   5  -8    4.50    8.90
   7   5  -8    6.60   11.30
  -7  -5   8    8.60   15.70
  -7  -5   8   20.90   12.80
  -7  -5   8    4.90    9.80
   5   5  -8  956.10   50.29
   5   5  -8  834.72   48.30
  -5  -5   8  901.31   78.49
  -5  -5   8  819.92   52.59
  -5  -5   8  871.91   54.59
  -5  -5   8  852.11   76.29
   3   5  -8 1031.20   39.70
   3   5  -8 1106.49   42.40
  -3  -5   8 1069.89   55.39
  -3  -5   8 1085.79   54.79
  -3  -5   8 1106.89   88.29
  -3  -5   8 1155.58   88.69
  -1  -5   8  121.69   14.70
  -1  -5   8   77.49   13.10
  -1  -5   8  121.09   34.00
  -1  -5   8   75.29   27.80
  -1   5  -8  518.35   59.79
   1  -5   8  420.26   52.79
   1  -5   8  481.05   30.50
   1  -5   8  470.05   30.80
  -3   5  -8  258.47   13.90
  -3   5  -8  286.07   14.90
  -3   5  -8  345.67   60.19
   3  -5   8  319.47   28.70
   3  -5   8  317.87   57.09
   3  -5   8  248.88   25.90
  -5   5  -8   40.20   26.60
  -5   5  -8   18.30   10.30
  -5   5  -8   23.40   11.10
   5  -5   8   13.50   13.60
   5  -5   8   74.49   32.50
   5  -5   8   41.40   16.30
  -7   5  -8  298.67   60.79
  -7   5  -8  235.38   29.60
   7  -5   8  247.58   37.70
   7  -5   8  303.47   59.69
  -9   5  -8   59.69   36.10
   9  -5   8   57.69   20.50
 -11   5  -8   -2.10   33.10
  11  -5   8  -20.70   19.70
 -20  -4   8  -14.70   52.89
  18   4  -8  152.78   49.10
 -18  -4   8  132.19   43.30
 -18  -4   8  199.38   53.29
  16   4  -8  213.68   47.90
 -16  -4   8   95.39   43.40
 -16  -4   8  122.19   37.30
  14   4  -8  316.37   61.89
  14   4  -8  278.27   51.79
 -14  -4   8  263.57   57.19
 -14  -4   8  282.57   55.49
  12   4  -8  464.15   52.59
  12   4  -8  469.45   60.29
  12   4  -8  493.55   56.79
 -12  -4   8  466.05   56.99
 -12  -4   8  372.56   65.19
 -12  -4   8  366.86   57.49
  10   4  -8  218.28   38.80
  10   4  -8  191.38   44.60
  10   4  -8  256.47   42.70
 -10  -4   8  203.48   37.40
 -10  -4   8  220.48   49.40
 -10  -4   8  187.28   37.70
   8   4  -8  328.67   37.20
   8   4  -8  342.07   38.70
   8   4  -8  341.57   55.49
  -8  -4   8  423.96   55.69
  -8  -4   8  449.46   44.30
  -8  -4   8  408.26   43.00
   6   4  -8  552.74   43.70
   6   4  -8  565.54   43.90
  -6  -4   8  535.45   44.80
  -6  -4   8  561.44   45.40
  -6  -4   8  550.94   59.69
   4   4  -8  667.03   40.60
   4   4  -8  557.84   37.50
  -4  -4   8  700.83   66.29
  -4  -4   8  623.84   63.99
  -4  -4   8  589.14   42.40
  -4  -4   8  575.34   42.40
   2   4  -8  390.26   24.60
  -2  -4   8  396.76   31.00
  -2  -4   8  394.86   31.20
  -2  -4   8  346.47   56.19
  -2  -4   8  406.06   50.09
   0   4  -8   44.50    8.40
   0   4  -8   -4.90   12.20
   0  -4   8   12.70   16.80
   0  -4   8   43.70   12.20
  -2   4  -8  486.55   58.09
  -2   4  -8  474.95   30.20
   2  -4   8  476.65   36.60
   2  -4   8  525.25   60.99
  -4   4  -8   80.19   18.00
  -4   4  -8  115.99   36.00
   4  -4   8   80.29   29.50
   4  -4   8   84.99   18.70
  -6   4  -8  317.87   35.90
   6  -4   8  356.46   41.00
   6  -4   8  269.87   53.69
   6  -4   8  283.57   37.00
  -8   4  -8   86.29   36.90
   8  -4   8   69.59   31.70
   8  -4   8   51.59   22.70
 -10   4  -8   53.89   34.20
  10  -4   8   71.29   25.40
 -12   4  -8   -5.80   36.80
  12  -4   8  -17.10   16.50
 -21  -3   8  -48.20   32.70
 -19  -3   8   47.50   32.90
 -19  -3   8   27.40   42.50
  17   3  -8  468.45   78.19
 -17  -3   8  411.86   74.49
 -17  -3   8  290.17   67.29
  15   3  -8   14.80   21.40
  15   3  -8   -5.50   13.10
 -15  -3   8  -14.40   15.20
 -15  -3   8   26.90   25.40
  13   3  -8  377.36   59.79
  13   3  -8  301.77   51.59
  13   3  -8  312.07   57.49
 -13  -3   8  292.47   57.79
 -13  -3   8  378.06   59.49
 -13  -3   8  302.87   52.29
  11   3  -8  400.26   47.00
  11   3  -8  269.67   51.59
  11   3  -8  237.48   43.30
 -11  -3   8  294.27   50.99
 -11  -3   8  270.27   55.89
 -11  -3   8  332.07   42.50
   9   3  -8   -3.90   11.90
   9   3  -8   18.40   13.40
  -9  -3   8   34.60   23.30
  -9  -3   8   19.30   15.10
  -9  -3   8  -11.00   10.10
   7   3  -8  578.34   48.30
   7   3  -8  512.05   46.50
   7   3  -8  505.95   57.99
  -7  -3   8  554.04   48.50
  -7  -3   8  588.14   49.90
  -7  -3   8  564.14   59.69
   5   3  -8  853.31   55.39
  -5  -3   8  974.80   78.09
  -5  -3   8  921.31   75.79
  -5  -3   8  958.20   60.39
  -5  -3   8  933.81   59.79
   3   3  -8  150.38   19.60
   3   3  -8  122.49   21.30
  -3  -3   8  180.78   23.50
  -3  -3   8  140.59   33.20
  -3  -3   8  127.69   34.90
  -3  -3   8  154.18   24.40
   1   3  -8 2154.08   87.39
   1   3  -8 2145.69   89.69
  -1  -3   8 1903.11   90.79
  -1  -3   8 2053.79  121.69
  -1  -3   8 2090.19   92.89
  -1   3  -8    2.70    9.00
  -1   3  -8  -17.60   12.10
  -1   3  -8   -0.20    7.80
   1  -3   8    6.10    8.70
   1  -3   8   22.50   22.00
   1  -3   8  -10.20    5.70
  -3   3  -8  459.65   37.90
  -3   3  -8  516.95   40.10
  -3   3  -8  486.35   61.99
   3  -3   8  555.24   44.40
   3  -3   8  452.55   57.79
   3  -3   8  443.26   40.40
  -5   3  -8  730.53   52.59
  -5   3  -8  639.44   70.49
  -5   3  -8  653.33   51.19
   5  -3   8  549.05   69.09
   5  -3   8  670.53   55.29
   5  -3   8  765.52   58.49
  -7   3  -8   49.30   28.50
  -7   3  -8   35.80   18.40
   7  -3   8   35.10   31.20
   7  -3   8   38.00   19.40
  -9   3  -8  713.83   85.69
   9  -3   8  626.94   63.39
 -11   3  -8  203.58   55.89
  11  -3   8  176.98   44.00
  13  -3   8  -19.30   16.90
 -20  -2   8  173.48   59.29
  18   2  -8  510.95   83.19
 -18  -2   8  678.33   88.19
 -18  -2   8  577.34   89.09
  16   2  -8   26.20   23.50
  16   2  -8   24.50   19.70
 -16  -2   8   15.70   21.30
 -16  -2   8   14.00   25.90
  14   2  -8  137.59   39.50
  14   2  -8   77.69   34.70
  14   2  -8  103.19   33.40
 -14  -2   8  121.29   38.80
 -14  -2   8  188.88   43.00
  12   2  -8 1668.93  115.99
  12   2  -8 1730.43  111.89
  12   2  -8 1654.83  110.89
 -12  -2   8 1799.92  114.19
 -12  -2   8 1776.02  122.69
 -12  -2   8 1706.03  112.79
  10   2  -8   72.09   22.80
  10   2  -8   71.59   27.50
  10   2  -8   65.09   22.30
 -10  -2   8   86.29   31.30
   8   2  -8 1014.40   71.49
   8   2  -8 1085.09   83.09
  -8  -2   8  951.30   69.89
  -8  -2   8 1055.69   73.99
  -8  -2   8 1048.60   81.99
   6   2  -8 2323.47  113.19
   6   2  -8 2459.35  116.29
  -6  -2   8 2315.57  114.59
  -6  -2   8 2428.16  133.99
  -6  -2   8 2432.76  116.69
   4   2  -8   20.60   12.40
   4   2  -8   30.80   13.00
  -4  -2   8   68.39   18.90
  -4  -2   8   19.30   14.30
  -4  -2   8   52.69   21.80
  -4  -2   8   60.29   26.40
   2   2  -8 1358.66   71.69
   2   2  -8 1284.97   68.69
  -2  -2   8 1314.27   91.69
  -2  -2   8 1399.06   74.59
  -2  -2   8 1411.06   74.09
   0   2  -8  330.07   31.10
   0   2  -8  383.86   50.99
   0   2  -8  315.67   31.50
   0  -2   8  357.96   33.90
   0  -2   8  364.76   35.00
   0  -2   8  381.06   46.30
  -2   2  -8   -5.90    8.50
  -2   2  -8   24.90   14.20
  -2   2  -8   25.30   22.10
   2  -2   8    3.20   11.00
   2  -2   8   23.80   12.40
   2  -2   8   20.60   17.20
  -4   2  -8  425.46   41.80
  -4   2  -8  423.66   41.50
  -4   2  -8  342.37   60.09
   4  -2   8  464.35   57.09
   4  -2   8  512.85   45.80
   4  -2   8  355.46   39.40
  -6   2  -8   44.20   27.20
  -6   2  -8   17.20   16.90
  -6   2  -8   27.70   17.10
   6  -2   8   -5.70   10.80
   6  -2   8   16.30   18.60
  -8   2  -8   33.80   28.30
  -8   2  -8   17.50   17.40
   8  -2   8    4.00   15.40
   8  -2   8   55.19   31.10
 -10   2  -8  793.02   90.39
  10  -2   8  729.63   73.29
 -12   2  -8    2.40   22.60
  12  -2   8  -21.90   20.30
 -21  -1   8   96.29   46.50
 -19  -1   8   86.29   50.89
  17   1  -8  888.91   91.89
  17   1  -8  716.83   82.39
 -17  -1   8  836.22   90.09
 -17  -1   8  902.21   93.89
  15   1  -8   41.60   23.70
  15   1  -8   36.90   25.60
  15   1  -8   57.99   32.10
 -15  -1   8   65.49   30.60
 -15  -1   8   51.29   32.40
  13   1  -8 1119.79   92.29
  13   1  -8 1026.40   85.49
  13   1  -8 1050.29   90.39
 -13  -1   8 1076.89   90.49
 -13  -1   8 1086.39   90.79
 -13  -1   8 1167.98   96.09
  11   1  -8  249.78   44.30
  11   1  -8  255.47   48.70
  11   1  -8  245.38   46.70
 -11  -1   8  244.68   47.20
 -11  -1   8  246.18   47.80
 -11  -1   8  286.57   49.60
   9   1  -8  924.61   69.69
   9   1  -8  780.22   69.39
  -9  -1   8  755.62   64.69
  -9  -1   8  711.43   64.69
  -9  -1   8  770.62   70.29
   7   1  -8 2503.45  122.79
  -7  -1   8 2367.76  131.99
  -7  -1   8 2285.37  119.49
  -7  -1   8 2459.55  122.79
   5   1  -8  144.29   26.60
   5   1  -8  121.09   26.10
  -5  -1   8  164.88   37.20
  -5  -1   8  121.09   26.90
  -5  -1   8  160.58   34.30
  -5  -1   8  146.89   28.80
   3   1  -8   20.80   12.50
   3   1  -8   19.20   12.20
  -3  -1   8   86.79   28.20
  -3  -1   8   34.90   14.40
  -3  -1   8   44.30   17.80
   1   1  -8 5987.30  218.18
   1   1  -8 5921.11  216.48
   1   1  -8 6189.88  249.38
  -1  -1   8 5374.46  215.78
  -1  -1   8 5881.31  218.98
  -1  -1   8 5307.67  238.08
  -1   1  -8   76.29   20.80
  -1   1  -8   29.80   19.30
  -1   1  -8   67.99   19.70
   1  -1   8  112.79   24.10
   1  -1   8  119.59   26.00
   1  -1   8   82.79   26.50
  -3   1  -8  118.99   27.20
  -3   1  -8  142.79   27.90
  -3   1  -8  178.98   43.10
   3  -1   8  151.08   30.50
   3  -1   8  169.48   42.10
   3  -1   8  169.68   31.30
  -5   1  -8 1740.53  120.79
  -5   1  -8 1592.74   96.39
  -5   1  -8 1789.42  100.79
   5  -1   8 1645.04  117.29
   5  -1   8 1864.51  104.39
   5  -1   8 1805.02  103.79
  -7   1  -8  167.98   42.00
  -7   1  -8  144.89   32.90
   7  -1   8  145.39   42.70
   7  -1   8  123.29   31.90
  -9   1  -8  409.46   71.49
   9  -1   8  496.05   60.09
 -11   1  -8  259.77   60.79
  11  -1   8  344.77   61.49
 -13   1  -8  112.99   46.20
  13  -1   8  150.78   42.30
 -20   0   8  234.78   62.29
  18   0  -8  434.46   76.09
 -18   0   8  390.26   71.49
 -18   0   8  434.16   81.29
  16   0  -8   49.80   32.60
  16   0  -8   46.40   28.40
  16   0  -8   26.00   27.20
 -16   0   8   17.90   26.80
  14   0  -8   58.69   28.10
  14   0  -8    1.40   14.90
  14   0  -8    7.90   18.00
 -14   0   8   45.60   29.60
 -14   0   8   17.20   24.60
 -14   0   8   16.80   19.10
  12   0  -8 2346.77  136.59
  12   0  -8 2224.48  133.79
 -12   0   8 2376.86  140.99
 -12   0   8 2393.36  139.69
 -12   0   8 2464.65  141.49
  10   0  -8   11.10   12.30
  10   0  -8   -1.10   14.50
  10   0  -8    1.50    7.90
 -10   0   8   -0.80    7.80
 -10   0   8   -6.30    9.60
 -10   0   8   22.70   19.80
   8   0  -8  370.16   45.80
   8   0  -8  299.07   46.50
  -8   0   8  236.78   44.10
  -8   0   8  263.17   42.40
  -8   0   8  295.97   45.70
   6   0  -8 1966.70  107.59
   6   0  -8 2038.70  106.69
  -6   0   8 1969.00  106.59
  -6   0   8 1792.02  108.89
  -6   0   8 2031.80  113.89
  -6   0   8 1827.22  103.49
   4   0  -8  708.13   54.89
  -4   0   8  741.43   63.89
  -4   0   8  719.23   55.89
  -4   0   8  762.52   58.69
  -4   0   8  718.43   62.89
   2   0  -8 2852.41  127.69
   2   0  -8 2769.12  144.19
   2   0  -8 2722.03  127.39
  -2   0   8 2673.23  127.09
  -2   0   8 2938.31  144.39
  -2   0   8 2787.92  129.69
   0   0  -8 2065.79  104.09
   0   0  -8 2092.09  121.99
   0   0  -8 1996.10  102.49
   0   0   8 2012.70  118.99
   0   0   8 2101.59  106.09
   0   0   8 2016.40  104.89
  -2   0  -8   21.10   13.90
  -2   0  -8   29.60   15.10
  -2   0  -8   31.10   22.10
   2   0   8   -0.80   11.10
   2   0   8    3.40   12.40
   2   0   8   12.80   10.30
  -4   0  -8 3915.61  172.18
  -4   0  -8 3986.00  196.48
  -4   0  -8 3754.82  170.78
   4   0   8 3883.11  173.58
   4   0   8 3605.64  171.58
   4   0   8 3748.62  192.18
  -6   0  -8  279.97   50.19
  -6   0  -8  287.17   46.80
  -6   0  -8  346.47   63.59
   6   0   8  341.27   51.79
  -8   0  -8   26.90   17.00
  -8   0  -8   29.90   20.80
   8   0   8   21.10   19.40
   8   0   8  -14.50   19.60
 -10   0  -8 1242.88  115.69
  10   0   8 1395.36  108.09
 -12   0  -8   22.50   25.50
  12   0   8   50.89   30.70
 -21   1   8   44.20   39.50
 -19   1   8   -9.30   30.10
  17  -1  -8  900.81   87.19
 -17   1   8  753.12   81.49
 -17   1   8  851.31   91.89
  15  -1  -8   73.19   36.90
  15  -1  -8   44.20   27.70
  15  -1  -8   12.30   14.80
 -15   1   8   49.00   31.80
 -15   1   8   56.59   31.60
 -15   1   8   62.89   29.50
  13  -1  -8 1008.70   85.29
  13  -1  -8 1084.89   90.69
 -13   1   8 1061.49   88.79
 -13   1   8 1077.29   91.39
 -13   1   8 1080.29   92.29
  11  -1  -8  248.38   47.60
  11  -1  -8  304.17   48.80
  11  -1  -8  233.18   43.50
 -11   1   8  342.77   54.19
 -11   1   8  245.88   46.50
 -11   1   8  170.68   42.30
   9  -1  -8  746.33   68.89
   9  -1  -8  791.52   67.89
   9  -1  -8  810.72   67.29
  -9   1   8  754.32   67.19
  -9   1   8  674.53   64.39
  -9   1   8  763.02   65.79
   7  -1  -8 2449.75  125.19
   7  -1  -8 2255.47  124.89
  -7   1   8 2267.07  122.99
  -7   1   8 2394.86  125.39
  -7   1   8 2192.08  122.09
  -7   1   8 2399.26  126.89
   5  -1  -8  152.18   30.70
  -5   1   8   92.49   28.50
  -5   1   8  172.88   36.70
  -5   1   8  133.09   30.80
  -5   1   8  245.48   39.80
   3  -1  -8   34.10   15.20
   3  -1  -8   18.50   14.00
  -3   1   8   65.79   21.30
  -3   1   8   -3.90   13.90
  -3   1   8   54.89   20.10
   1  -1  -8 5388.26  231.98
   1  -1  -8 5656.33  220.38
  -1   1   8 5740.93  222.68
  -1   1   8 5466.65  231.38
  -1   1   8 5329.97  219.48
  -1  -1  -8   74.39   25.60
  -1  -1  -8   65.29   20.20
   1   1   8   48.70   21.90
   1   1   8   55.59   20.70
   1   1   8   62.29   24.90
  -3  -1  -8  261.07   51.89
  -3  -1  -8  165.88   34.80
   3   1   8  209.48   39.10
   3   1   8  208.58   40.30
   3   1   8  125.09   35.00
  -5  -1  -8 1948.21  127.29
  -5  -1  -8 1649.23  106.19
   5   1   8 1871.81  126.69
   5   1   8 1859.81  112.59
   5   1   8 1782.72  110.59
  -7  -1  -8  174.28   49.70
  -7  -1  -8  136.29   36.70
   7   1   8  118.49   36.90
  -9  -1  -8  629.04   95.29
   9   1   8  608.14   70.59
 -11  -1  -8  399.96   75.49
  11   1   8  421.66   73.09
 -13  -1  -8   83.49   41.50
  13   1   8   51.19   32.00
 -20   2   8   47.40   37.60
  18  -2  -8  433.16   71.89
 -18   2   8  543.25   82.49
  16  -2  -8   83.99   31.50
  16  -2  -8    5.20   28.20
  16  -2  -8   28.80   25.10
 -16   2   8   55.29   34.00
 -16   2   8   27.50   21.30
  14  -2  -8  124.79   33.00
  14  -2  -8  131.69   39.00
 -14   2   8   80.59   34.00
 -14   2   8   99.29   34.30
  12  -2  -8 1675.63  114.79
  12  -2  -8 1702.03  106.99
  12  -2  -8 1874.51  123.99
 -12   2   8 1643.04  115.79
 -12   2   8 1797.22  118.89
 -12   2   8 1708.43  109.99
  10  -2  -8   80.39   29.30
  10  -2  -8   91.09   27.10
  10  -2  -8   83.69   28.80
 -10   2   8   67.29   26.60
 -10   2   8   45.00   26.90
 -10   2   8   77.19   29.40
   8  -2  -8 1026.30   80.99
   8  -2  -8  991.80   88.69
  -8   2   8  970.00   79.29
  -8   2   8 1064.09   75.59
  -8   2   8  981.50   78.09
   6  -2  -8 2196.98  122.99
  -6   2   8 2216.38  120.29
  -6   2   8 2487.95  124.69
  -6   2   8 2329.47  125.29
  -6   2   8 2280.67  123.89
   4  -2  -8   36.00   16.60
   4  -2  -8   56.09   20.40
  -4   2   8   59.49   21.10
  -4   2   8   83.69   26.40
   2  -2  -8 1376.26   88.09
   2  -2  -8 1186.68   80.39
  -2   2   8 1241.68   83.09
  -2   2   8 1358.16   87.39
  -2   2   8 1301.07   83.49
   0  -2  -8  444.46   46.70
   0  -2  -8  352.36   45.70
   0   2   8  404.06   45.00
   0   2   8  366.26   44.40
   0   2   8  422.46   49.10
  -2  -2  -8   10.40   13.30
  -2  -2  -8    9.00   15.40
  -2  -2  -8   19.30   16.50
   2   2   8   47.40   21.00
   2   2   8   18.00   13.70
   2   2   8  -12.70   11.90
  -4  -2  -8  417.56   50.09
  -4  -2  -8  423.06   52.39
  -4  -2  -8  482.65   58.49
   4   2   8  374.26   49.10
   4   2   8  377.06   61.69
   4   2   8  424.46   49.90
  -6  -2  -8   38.70   19.80
   6   2   8   31.80   25.40
   6   2   8   67.19   28.00
  -8  -2  -8   18.30   20.20
  -8  -2  -8   26.60   25.50
   8   2   8  -13.60   11.20
   8   2   8  -20.50   16.60
 -10  -2  -8  662.43   86.29
  10   2   8  859.11   88.79
 -12  -2  -8   10.50   38.00
  12   2   8   -9.70   15.50
 -19   3   8   -9.50   25.30
  17  -3  -8  330.67   59.99
  17  -3  -8  344.37   70.29
 -17   3   8  368.16   65.19
  15  -3  -8   -3.30   17.90
  15  -3  -8    8.70   16.10
 -15   3   8   27.40   25.20
 -15   3   8  -20.50   22.30
 -15   3   8   11.10   18.20
  13  -3  -8  379.36   47.60
  13  -3  -8  450.55   70.79
  13  -3  -8  284.27   57.09
 -13   3   8  396.96   66.49
 -13   3   8  381.36   57.69
 -13   3   8  348.27   61.19
  11  -3  -8  291.77   54.09
  11  -3  -8  235.38   42.30
  11  -3  -8  213.18   50.09
 -11   3   8  311.77   57.79
 -11   3   8  304.67   48.10
 -11   3   8  299.57   52.49
   9  -3  -8    0.20   12.30
   9  -3  -8   11.40   11.90
  -9   3   8   11.50   13.30
  -9   3   8   -9.90   14.30
  -9   3   8   -2.40   16.80
   7  -3  -8  566.64   55.49
   7  -3  -8  493.85   55.09
  -7   3   8  428.66   47.20
  -7   3   8  606.04   54.79
  -7   3   8  486.65   53.29
  -7   3   8  579.44   57.39
   5  -3  -8 1005.60   76.49
   5  -3  -8  953.60   75.59
  -5   3   8 1011.00   72.09
  -5   3   8  947.81   75.09
  -5   3   8  864.31   70.99
  -5   3   8 1027.50   71.89
   3  -3  -8  133.29   31.40
   3  -3  -8   93.29   29.60
   3  -3  -8  128.79   29.60
  -3   3   8  109.99   28.40
  -3   3   8  179.08   35.50
  -3   3   8  168.58   40.20
   1  -3  -8 2120.69  116.99
   1  -3  -8 2122.69  116.19
   1  -3  -8 2042.20  114.79
  -1   3   8 2091.49  117.49
  -1   3   8 1921.51  113.69
  -1   3   8 2034.80  115.89
  -1  -3  -8  -12.00   13.40
  -1  -3  -8    2.90   11.20
  -1  -3  -8    2.40    7.90
   1   3   8   21.20   17.00
   1   3   8   37.10   19.60
   1   3   8   -0.50   10.30
  -3  -3  -8  468.35   54.09
  -3  -3  -8  473.05   58.59
  -3  -3  -8  465.35   55.09
   3   3   8  536.65   58.19
   3   3   8  514.15   55.39
   3   3   8  426.26   54.69
  -5  -3  -8  746.93   71.09
  -5  -3  -8  661.73   67.49
  -5  -3  -8  566.44   69.49
   5   3   8  625.34   64.59
   5   3   8  536.95   65.09
   5   3   8  685.63   76.49
  -7  -3  -8    2.70   13.90
  -7  -3  -8   41.30   24.00
   7   3   8   20.30   23.00
   7   3   8   25.10   26.60
  -9  -3  -8  668.83   72.49
  -9  -3  -8  651.33   80.39
   9   3   8  691.03   76.69
 -11  -3  -8  260.57   70.29
  11   3   8  210.08   50.49
 -13  -3  -8  -18.20   33.30
  13   3   8  -50.59   29.00
 -18   4   8  296.97   57.19
  16  -4  -8  123.89   35.80
 -16   4   8   62.59   31.90
 -16   4   8   42.20   37.40
  14  -4  -8  190.48   40.10
  14  -4  -8  317.57   59.39
  14  -4  -8  188.58   48.20
 -14   4   8  255.17   55.99
 -14   4   8  343.97   65.49
 -14   4   8  272.97   49.70
  12  -4  -8  412.36   67.19
  12  -4  -8  488.45   50.79
 -12   4   8  538.75   66.39
 -12   4   8  445.76   57.89
 -12   4   8  478.55   52.89
  10  -4  -8  143.79   38.10
  10  -4  -8  228.98   55.99
 -10   4   8  184.28   42.90
 -10   4   8  341.47   57.39
 -10   4   8  249.58   41.60
   8  -4  -8  416.66   50.79
   8  -4  -8  464.85   54.09
  -8   4   8  422.86   44.20
  -8   4   8  386.56   44.30
  -8   4   8  408.16   53.49
  -8   4   8  457.35   54.79
   6  -4  -8  665.93   64.99
   6  -4  -8  478.35   52.79
  -6   4   8  541.65   50.09
  -6   4   8  480.75   53.19
  -6   4   8  612.64   52.29
  -6   4   8  454.65   53.59
   4  -4  -8  558.54   57.29
   4  -4  -8  601.04   57.49
  -4   4   8  621.74   62.29
  -4   4   8  603.94   60.49
  -4   4   8  596.04   53.29
   2  -4  -8  385.46   47.10
   2  -4  -8  415.76   48.60
   2  -4  -8  468.35   48.90
  -2   4   8  373.76   45.70
  -2   4   8  408.56   48.00
  -2   4   8  400.06   48.20
   0  -4  -8   73.69   26.60
   0  -4  -8    6.90   14.40
   0  -4  -8   57.59   23.20
   0   4   8   42.20   24.20
   0   4   8   24.20   15.60
   0   4   8   62.99   23.40
  -2  -4  -8  508.15   56.19
  -2  -4  -8  434.76   50.99
  -2  -4  -8  446.46   53.49
   2   4   8  403.46   60.59
   2   4   8  471.85   58.09
   2   4   8  576.64   59.99
  -4  -4  -8  106.89   36.20
  -4  -4  -8  127.29   35.50
  -4  -4  -8  103.29   32.10
   4   4   8  104.39   30.20
   4   4   8  102.49   38.20
   4   4   8  119.89   33.20
  -6  -4  -8  235.78   47.30
  -6  -4  -8  306.07   57.89
   6   4   8  191.78   45.10
   6   4   8  295.37   57.09
  -8  -4  -8   17.30   18.80
  -8  -4  -8  111.49   39.50
   8   4   8   39.50   24.50
 -10  -4  -8   41.90   40.70
  10   4   8   15.40   29.80
 -12  -4  -8  -18.60   25.00
  12   4   8  -30.80   33.20
  15  -5  -8  239.28   56.49
 -15   5   8  223.68   52.59
 -15   5   8  195.28   41.00
  13  -5  -8  111.49   28.80
  13  -5  -8   63.99   32.30
  13  -5  -8  106.29   35.20
 -13   5   8  148.99   42.80
 -13   5   8  124.39   33.30
 -13   5   8  118.19   38.40
  11  -5  -8    6.30   14.90
  11  -5  -8   20.40   25.00
 -11   5   8   25.50   24.40
 -11   5   8   35.40   23.10
 -11   5   8   69.89   24.60
   9  -5  -8  294.37   53.79
   9  -5  -8  242.98   49.10
  -9   5   8  282.57   54.69
  -9   5   8  304.57   38.90
  -9   5   8  344.77   58.99
  -9   5   8  327.37   39.30
   7  -5  -8   -3.30   12.80
   7  -5  -8   16.40   13.90
  -7   5   8   10.40   14.70
  -7   5   8   13.90   15.50
  -7   5   8    7.60   12.20
   5  -5  -8  877.41   74.99
   5  -5  -8  810.62   71.89
  -5   5   8  836.92   73.29
  -5   5   8  911.21   63.99
  -5   5   8  931.91   66.29
  -5   5   8  843.92   75.19
   3  -5  -8 1172.58   87.79
   3  -5  -8 1167.28   77.39
   3  -5  -8 1176.98   87.69
  -3   5   8 1061.79   74.49
  -3   5   8 1155.28   87.29
  -3   5   8 1048.60   85.19
   1  -5  -8  116.39   32.20
   1  -5  -8  124.89   31.70
   1  -5  -8  102.79   29.20
  -1   5   8  130.09   33.20
  -1   5   8  104.49   34.80
  -1   5   8  106.79   29.80
  -1  -5  -8  417.06   52.59
  -1  -5  -8  498.75   53.09
  -1  -5  -8  418.06   50.79
   1   5   8  502.25   56.09
   1   5   8  435.16   53.69
   1   5   8  424.36   54.49
  -3  -5  -8  227.68   49.20
  -3  -5  -8  265.77   49.99
  -3  -5  -8  321.07   56.09
   3   5   8  315.97   56.59
   3   5   8  257.07   51.29
   3   5   8  216.48   46.60
  -5  -5  -8   29.60   23.00
  -5  -5  -8   13.50   19.50
  -5  -5  -8   30.70   21.90
   5   5   8   58.19   29.50
   5   5   8   67.39   31.40
  -7  -5  -8  343.97   62.79
  -7  -5  -8  365.36   67.19
   7   5   8  229.68   56.89
   7   5   8  235.08   58.69
  -9  -5  -8   63.49   32.90
  -9  -5  -8   75.09   35.50
   9   5   8  113.09   39.70
 -11  -5  -8  -17.30   30.90
  11   5   8   53.19   29.50
  18  -6  -8  -27.90   19.40
  16  -6  -8  191.68   50.49
 -16   6   8  247.28   63.09
  14  -6  -8  370.96   71.99
 -14   6   8  447.66   51.39
 -14   6   8  407.46   70.49
  12  -6  -8   21.20   18.70
  12  -6  -8   28.80   34.00
 -12   6   8   57.29   21.70
 -12   6   8   94.69   34.00
  10  -6  -8  912.91   83.29
  10  -6  -8  859.01   83.89
 -10   6   8  899.91   83.39
 -10   6   8  872.91   64.49
 -10   6   8  849.52   61.69
 -10   6   8  677.73   88.19
   8  -6  -8  220.48   45.60
   8  -6  -8  264.37   53.59
  -8   6   8  273.27   33.60
  -8   6   8  174.18   44.40
  -8   6   8  267.07   33.10
  -8   6   8  264.47   60.29
   6  -6  -8   85.79   29.80
   6  -6  -8   86.69   30.70
  -6   6   8   50.09   20.60
  -6   6   8   80.59   24.30
  -6   6   8   79.79   28.10
  -6   6   8  171.28   44.70
   4  -6  -8 1745.33  115.39
  -4   6   8 1772.82   98.49
  -4   6   8 2006.00  123.09
  -4   6   8 1949.01  122.09
   2  -6  -8  127.29   37.40
   2  -6  -8  109.99   28.60
  -2   6   8   85.59   26.10
  -2   6   8   44.40   25.90
  -2   6   8  117.19   34.70
   0  -6  -8   69.39   29.90
   0  -6  -8   73.29   27.60
   0  -6  -8   54.09   23.00
   0   6   8   60.79   25.80
   0   6   8   44.20   28.10
   0   6   8   72.39   28.20
  -2  -6  -8  890.81   82.89
  -2  -6  -8 1006.80   81.19
  -2  -6  -8  933.61   85.09
   2   6   8  837.72   78.59
   2   6   8  868.51   81.49
   2   6   8  831.82   78.49
  -4  -6  -8   22.20   22.50
  -4  -6  -8   -8.50   12.10
  -4  -6  -8  -15.80   19.40
   4   6   8   33.90   28.80
   4   6   8    4.80   17.20
  -6  -6  -8  641.44   72.69
  -6  -6  -8  757.92   79.99
   6   6   8  696.63   80.29
   6   6   8  643.54   79.79
  -8  -6  -8  335.07   62.49
  -8  -6  -8  471.55   79.69
   8   6   8  320.57   67.29
 -10  -6  -8   27.10   37.00
  10   6   8   60.09   36.10
  15  -7  -8 1400.36  125.09
 -15   7   8 1213.18  110.59
  13  -7  -8   -2.10   24.40
 -13   7   8   18.10   16.30
  11  -7  -8   50.09   34.90
 -11   7   8  121.79   26.70
 -11   7   8  141.69   41.60
 -11   7   8  149.88   41.80
   9  -7  -8 2644.74  156.68
   9  -7  -8 2231.48  144.79
  -9   7   8 2343.07  109.29
  -9   7   8 2474.75  150.78
  -9   7   8 2520.15  150.68
  -9   7   8 2356.86  109.39
   7  -7  -8   52.69   26.60
   7  -7  -8   33.60   29.60
  -7   7   8   57.89   20.10
  -7   7   8   88.49   36.30
  -7   7   8   36.00   17.90
   5  -7  -8  220.38   45.50
   5  -7  -8  267.07   52.39
  -5   7   8  310.67   59.59
  -5   7   8  262.57   33.60
  -5   7   8  281.57   34.60
   3  -7  -8  706.93   59.19
   3  -7  -8  775.12   78.49
   3  -7  -8  798.32   75.29
  -3   7   8  816.32   77.39
  -3   7   8  848.12   91.09
  -3   7   8  721.03   58.69
   1  -7  -8  153.88   41.60
   1  -7  -8  240.08   49.30
   1  -7  -8  230.58   40.30
  -1   7   8  170.78   44.10
  -1   7   8  168.38   45.40
  -1   7   8  239.58   44.10
  -1  -7  -8 1324.47  104.89
  -1  -7  -8 1447.36  107.89
  -1  -7  -8 1440.56   97.39
   1   7   8 1428.96  109.29
   1   7   8 1387.76   97.59
   1   7   8 1327.07  105.49
  -3  -7  -8  646.24   66.99
  -3  -7  -8  596.74   68.29
  -3  -7  -8  560.34   69.89
   3   7   8  404.26   67.49
   3   7   8  508.15   64.29
  -5  -7  -8   52.39   27.80
  -5  -7  -8   13.20   23.50
   5   7   8   57.19   33.00
   5   7   8  -19.70   15.10
  -7  -7  -8 1576.74  120.99
  -7  -7  -8 1196.88  120.39
   7   7   8 1516.55  124.89
   9   7   8  -41.10   27.40
 -11  -7  -8   36.60   25.90
  16  -8  -8  164.88   57.19
  14  -8  -8  402.86   90.99
 -14   8   8  503.95   81.09
  12  -8  -8  268.17   59.79
 -12   8   8  299.17   61.59
  10  -8  -8 1477.95  117.39
 -10   8   8 1238.68  133.79
 -10   8   8 1246.08  104.99
   8  -8  -8  349.67   62.09
   8  -8  -8  481.25   75.19
  -8   8   8  508.55   77.39
  -8   8   8  729.33   79.39
  -8   8   8  528.05   40.70
   6  -8  -8   30.60   21.40
   6  -8  -8   12.40   19.70
  -6   8   8   -2.90   10.70
  -6   8   8   15.30   15.30
  -6   8   8  -27.10   10.80
  -6   8   8    9.70   13.70
   4  -8  -8 1933.71  131.29
   4  -8  -8 2061.99  136.19
  -4   8   8 2272.17  137.79
  -4   8   8 1944.01  101.19
   2  -8  -8   -3.90   13.90
   2  -8  -8   -3.70   20.40
   2  -8  -8    3.60   11.90
  -2   8   8   -5.40   10.70
  -2   8   8    4.00   22.20
   0  -8  -8   18.60   29.20
   0  -8  -8   11.80   23.70
   0  -8  -8  -16.30   13.00
   0   8   8  -20.70   11.00
   0   8   8   10.20   20.40
   0   8   8   35.60   19.90
  -2  -8  -8 1285.37  107.09
  -2  -8  -8 1435.66  112.79
  -2  -8  -8 1315.57   97.09
   2   8   8 1213.78  103.19
   2   8   8 1423.76  102.49
   2   8   8 1264.47  107.69
  -4  -8  -8  262.47   56.79
  -4  -8  -8  250.27   59.49
  -4  -8  -8  365.86   59.79
   4   8   8  325.27   60.39
   4   8   8  306.17   59.99
  -6  -8  -8  279.57   57.29
   6   8   8  332.67   65.69
   6   8   8  259.57   58.59
  -8  -8  -8  612.34   93.99
 -10  -8  -8   15.20   27.30
  17  -9  -8  -78.09   28.40
  15  -9  -8 1121.89  110.79
  13  -9  -8    5.10   23.10
 -13   9   8   71.79   31.40
  11  -9  -8   86.39   35.10
 -11   9   8   80.69   46.20
   9  -9  -8 1247.48  109.59
  -9   9   8 1537.85  117.89
   7  -9  -8  402.26   68.79
  -7   9   8  343.97   78.89
  -7   9   8  368.86   65.69
   5  -9  -8  503.75   76.49
  -5   9   8  445.56   72.99
  -5   9   8  536.15   44.30
  -5   9   8  600.84   70.79
   3  -9  -8  503.25   47.00
   3  -9  -8  497.35   79.99
   3  -9  -8  475.35   77.29
  -3   9   8  562.54   68.59
  -3   9   8  561.84   95.79
  -3   9   8  520.25   50.09
   1  -9  -8   61.49   23.40
   1  -9  -8   99.49   33.30
   1  -9  -8   63.69   32.20
  -1   9   8   64.89   31.10
  -1   9   8   38.40   29.50
  -1   9   8   42.20   24.60
  -1  -9  -8 1302.27  108.29
  -1  -9  -8 1124.59   85.39
   1   9   8 1214.38  104.19
   1   9   8 1044.80   86.69
   1   9   8 1025.80   97.99
  -3  -9  -8  650.03   68.19
  -3  -9  -8  624.44   76.09
   3   9   8  641.44   71.89
   3   9   8  576.54  103.59
  -5  -9  -8   35.00   24.90
   5   9   8   -8.40   28.00
  -7  -9  -8  550.34   73.29
  -9  -9  -8  -27.80   30.30
  16 -10  -8  -15.80   26.10
  14 -10  -8  140.49   52.89
  12 -10  -8   20.90   25.80
 -12  10   8   36.30   35.40
  10 -10  -8  644.74   80.69
 -10  10   8  553.24   69.49
   8 -10  -8   54.79   38.10
   6 -10  -8   82.69   40.20
  -6  10   8    1.00   27.60
   4 -10  -8 1568.74  120.79
  -4  10   8 1259.87  107.79
   2 -10  -8   21.30   22.90
  -2  10   8   82.09   32.60
   0 -10  -8   30.50   21.20
   0 -10  -8   49.40   35.70
   0  10   8   32.50   31.60
  -2 -10  -8 1730.83  131.69
  -2 -10  -8 1646.74  109.89
  -4 -10  -8   27.90   23.10
  -6 -10  -8  186.58   50.39
  -8 -10  -8  515.45   86.49
  15 -11  -8  224.18   60.89
  13 -11  -8   32.20   39.40
  11 -11  -8   96.29   43.40
   9 -11  -8  230.18   60.49
  -9  11   8  323.67   67.39
   7 -11  -8   -6.50   23.60
  -7  11   8  -12.60   21.70
   5 -11  -8  169.28   50.89
  -5  11   8  212.38   53.69
   3 -11  -8  327.87   64.99
  -3  11   8  278.67   58.59
   1 -11  -8   41.30   32.40
  -1 -11  -8  456.15   77.79
  12 -12  -8    1.80   38.30
  10 -12  -8  191.78   57.69
   8 -12  -8  327.47   70.19
   6 -12  -8   -5.40   25.00
   4 -12  -8  169.78   51.99
  -4  12   8  119.29   40.10
   2 -12  -8   97.39   40.20
  -2  12   8  118.49   41.60
   0 -12  -8   96.29   39.60
  11 -13  -8  121.29   55.69
   9 -13  -8   84.59   42.50
   7 -13  -8  521.95   85.69
   5 -13  -8   83.69   40.90
   3 -13  -8   -8.30   16.20
   1 -13  -8  273.97   63.89
   8 -14  -8  168.08   51.29
   6 -14  -8  366.06   76.09
   4 -14  -8  -44.30   25.80
   2 -14  -8  278.27   62.99
   0 -14  -8   53.59   76.99
  -9 -13   9  186.18   55.09
  -9 -13   9  280.57   44.90
  -7 -13   9  343.77   36.00
  -7 -13   9  418.26   77.09
  -5 -13   9   58.09   34.70
  -5 -13   9   71.09   11.20
 -12 -12   9  246.38   66.39
 -12 -12   9  185.68   41.70
 -10 -12   9  303.47   69.59
  -8 -12   9   41.60   19.30
  -8 -12   9   52.69   45.50
  -6 -12   9   79.49   41.00
  -6 -12   9  167.58   21.80
  -4 -12   9  566.04   74.99
  -2 -12   9  132.89   44.30
 -13 -11   9  112.79   42.80
 -11 -11   9   44.80   26.40
 -11 -11   9   25.60   20.50
  -9 -11   9  194.58   53.19
  -9 -11   9  176.68   35.70
  -7 -11   9  407.36   39.50
  -7 -11   9  496.95   78.39
  -5 -11   9  176.98   21.40
  -5 -11   9  196.18   47.10
  -5 -11   9  105.19   16.30
  -5 -11   9  151.38   46.40
  -3 -11   9  206.38   48.80
  -3 -11   9  100.09   42.30
  -1 -11   9  174.48   49.60
  -1 -11   9  392.16   65.29
   1 -11   9  172.18   49.99
   3 -11   9   60.69   35.80
 -16 -10   9   12.80   25.80
 -16 -10   9  110.69   49.10
 -14 -10   9  -35.70   27.40
 -14 -10   9    8.90   20.90
 -12 -10   9  179.88   42.60
 -12 -10   9  195.98   56.69
 -10 -10   9   85.79   27.10
 -10 -10   9   62.89   31.30
  -8 -10   9  266.37   40.20
  -8 -10   9  346.57   69.59
  -6 -10   9  295.37   29.60
  -6 -10   9  293.57   61.49
  -6 -10   9  358.36   65.09
  -6 -10   9  335.67   31.60
  -4 -10   9   37.40   25.40
  -4 -10   9    3.50   24.00
  -2 -10   9  167.68   45.70
  -2 -10   9  164.38   45.30
   0 -10   9    3.20   16.40
   0 -10   9    4.00   24.20
   2 -10   9  315.47   62.59
   2 -10   9  308.77   61.89
   4 -10   9  103.59   39.00
 -17  -9   9  -36.10   22.80
 -17  -9   9   13.70   31.80
 -15  -9   9  -14.70   23.80
 -15  -9   9   16.20   29.90
 -13  -9   9  -11.80   16.50
 -13  -9   9    3.80   23.10
 -11  -9   9   61.19   32.50
 -11  -9   9   -2.50   18.20
   9   9  -9  199.58   50.89
   9   9  -9  182.58   30.30
  -9  -9   9  191.18   48.80
  -9  -9   9  185.08   35.10
   7   9  -9   -5.80    6.80
   7   9  -9   -3.90    7.30
  -7  -9   9   25.50   13.50
  -7  -9   9   12.40   11.30
  -7  -9   9  -21.90   17.00
  -5  -9   9  -23.20   12.00
  -5  -9   9   -0.50    7.40
  -5  -9   9    1.60    7.90
  -3  -9   9   -7.90   18.70
  -1  -9   9  100.59   40.70
   1  -9   9    0.90   14.10
   1  -9   9   36.80   27.70
   3  -9   9    1.50   14.60
   3  -9   9  -26.60   17.90
   7  -9   9   18.50    8.70
 -18  -8   9  -18.90   28.80
 -18  -8   9   70.39   35.40
 -16  -8   9  -12.20   16.90
 -16  -8   9   32.60   30.70
 -14  -8   9   -5.20   18.30
 -14  -8   9   31.60   27.20
 -12  -8   9  -25.40   15.50
 -12  -8   9  -41.80   22.60
  10   8  -9   -0.60   27.00
  10   8  -9    3.00   13.50
 -10  -8   9   16.00   21.70
 -10  -8   9   -6.70   11.10
   8   8  -9   32.40   14.90
   8   8  -9   19.60   21.30
   8   8  -9    8.00   12.30
  -8  -8   9   28.20   15.40
  -8  -8   9   36.00   27.10
  -8  -8   9   19.10   16.70
   6   8  -9   79.79    9.60
   6   8  -9   84.39    9.90
  -6  -8   9   69.79   18.00
  -6  -8   9  112.99   22.90
  -6  -8   9   47.30   31.50
  -6  -8   9   60.19   30.00
  -4  -8   9   41.80   24.30
  -4  -8   9   41.40   26.00
  -4  -8   9   59.19   11.10
  -4  -8   9   65.89   12.40
  -2  -8   9   -1.40   13.00
  -2  -8   9    7.40   20.80
   0  -8   9   27.60   19.70
   0  -8   9   70.09   28.40
   2  -8   9   18.70   20.60
   2  -8   9   21.70   23.70
   4  -8   9  -21.20   23.60
  -6   8  -9    3.90   19.50
   6  -8   9  -11.30    7.60
  -8   8  -9    6.50   28.10
   8  -8   9    9.70   13.70
 -19  -7   9  -46.80   22.00
 -19  -7   9    9.40   23.20
 -17  -7   9   53.09   39.30
 -17  -7   9  112.49   43.80
 -15  -7   9  112.69   39.00
 -15  -7   9   52.29   33.90
 -13  -7   9  117.79   33.00
 -13  -7   9  130.49   48.60
  11   7  -9   -6.80   17.80
  11   7  -9   29.40   22.10
 -11  -7   9   13.70   20.10
 -11  -7   9   -1.00   15.10
   9   7  -9   36.80   14.90
   9   7  -9   16.50   15.90
   9   7  -9   42.00   28.60
  -9  -7   9    2.00   14.10
  -9  -7   9   30.00   17.80
  -9  -7   9   33.80   25.30
   7   7  -9   38.10   13.40
   7   7  -9   28.40   14.60
  -7  -7   9   76.29   21.70
  -7  -7   9   50.39   18.40
  -7  -7   9   50.49   30.60
  -5  -7   9   81.79   17.80
  -5  -7   9   52.59   25.70
  -5  -7   9   78.89   17.80
  -5  -7   9   74.39   32.70
  -3  -7   9   64.89   11.50
  -3  -7   9   71.89   33.50
  -3  -7   9   81.49   12.00
  -3  -7   9  130.89   39.30
  -1  -7   9  352.46   62.59
  -1  -7   9  369.36   63.19
   1  -7   9   96.79   32.40
   1  -7   9   36.20   29.50
   3  -7   9   90.39   13.00
   3  -7   9   65.29   31.20
   3  -7   9  106.39   12.40
  -5   7  -9   52.39   29.40
   5  -7   9   42.40   13.90
   5  -7   9   84.79   16.80
   5  -7   9   75.59   34.20
  -7   7  -9  133.99   47.60
   7  -7   9  156.98   27.60
  -9   7  -9  -11.50   26.20
 -18  -6   9  284.07   71.49
 -18  -6   9  271.87   63.89
 -16  -6   9  123.29   42.40
 -16  -6   9    6.10   25.60
  14   6  -9    1.20   17.80
 -14  -6   9   21.90   29.00
 -14  -6   9   16.40   15.30
  12   6  -9  817.72   73.29
  12   6  -9  896.61   95.09
 -12  -6   9 1020.00   97.89
 -12  -6   9  865.31   77.19
  10   6  -9   12.40   17.20
  10   6  -9   42.20   20.20
 -10  -6   9    4.30   14.70
   8   6  -9  105.89   24.70
   8   6  -9   75.19   24.60
   8   6  -9  148.19   42.50
  -8  -6   9  175.18   32.30
  -8  -6   9   71.09   33.60
  -8  -6   9   94.09   25.70
   6   6  -9  234.08   25.20
  -6  -6   9  262.37   52.29
  -6  -6   9  389.26   65.19
  -6  -6   9  253.17   30.80
  -4  -6   9  889.81   50.99
  -4  -6   9 1019.50   87.29
  -4  -6   9  986.60   53.69
  -4  -6   9  915.71   85.59
  -2  -6   9   69.09   27.40
  -2  -6   9   98.19   14.10
  -2  -6   9   94.79   31.70
  -2  -6   9  106.79   15.30
   0  -6   9    8.70   19.00
   0  -6   9   -2.10    4.90
   0  -6   9    3.70    4.90
   0  -6   9  -14.90    9.80
   2  -6   9  246.98   22.10
   2  -6   9  221.38   21.00
   2  -6   9  418.06   67.59
  -4   6  -9  473.75   75.19
   4  -6   9  419.86   70.49
   4  -6   9  415.66   35.60
   4  -6   9  492.35   37.40
  -6   6  -9  172.38   50.89
   6  -6   9  138.99   26.60
   6  -6   9  103.69   33.80
  -8   6  -9  183.78   51.29
   8  -6   9  159.98   32.70
 -10   6  -9   85.19   40.20
  10  -6   9   95.99   31.50
 -19  -5   9   23.20   28.20
 -19  -5   9   54.59   50.39
 -17  -5   9  144.79   45.70
 -17  -5   9   75.19   45.20
  15   5  -9  375.26   64.59
 -15  -5   9  576.04   70.99
 -15  -5   9  428.96   75.99
  13   5  -9  319.57   53.69
  13   5  -9  261.47   55.39
 -13  -5   9  247.68   60.09
 -13  -5   9  251.97   50.29
  11   5  -9  -20.50   12.10
  11   5  -9   17.20   18.50
 -11  -5   9    9.10   15.60
 -11  -5   9   27.20   24.00
   9   5  -9  574.24   51.99
   9   5  -9  638.84   54.49
   9   5  -9  600.74   69.79
  -9  -5   9  643.04   72.19
  -9  -5   9  584.64   54.69
  -9  -5   9  732.63   60.49
   7   5  -9 1145.99   68.29
   7   5  -9 1055.39   67.39
  -7  -5   9 1217.68   74.59
  -7  -5   9 1129.99   94.39
  -7  -5   9 1287.47   75.19
   5   5  -9    8.20    8.50
   5   5  -9   13.80    8.10
  -5  -5   9  -28.30   15.20
  -5  -5   9  -13.60   11.30
  -5  -5   9   -1.40   11.40
  -5  -5   9   -4.20    7.40
   3   5  -9  259.27   16.30
   3   5  -9  278.07   16.20
  -3  -5   9  277.97   52.29
  -3  -5   9  255.57   26.10
  -3  -5   9  256.97   49.10
  -3  -5   9  345.97   28.70
  -1  -5   9  787.42   76.79
  -1  -5   9  715.03   42.40
  -1  -5   9  789.62   74.59
  -1  -5   9  712.73   41.80
  -1   5  -9  213.58   47.60
   1  -5   9  160.58   37.70
   1  -5   9  179.18   21.80
   1  -5   9  213.88   21.90
  -3   5  -9    7.10   16.40
  -3   5  -9    2.40    4.40
  -3   5  -9   -0.80    5.20
   3  -5   9    2.40   10.40
   3  -5   9    1.10   17.60
   3  -5   9   -5.80    7.80
  -5   5  -9  408.06   71.09
   5  -5   9  331.67   37.20
   5  -5   9  338.27   36.40
   5  -5   9  323.97   61.49
  -7   5  -9  501.75   84.39
   7  -5   9  527.35   51.79
  -9   5  -9  209.08   54.59
   9  -5   9  190.08   40.40
 -11   5  -9   56.99   41.30
  11  -5   9   94.79   32.50
 -20  -4   9  104.69   45.00
 -20  -4   9  158.18   62.69
 -18  -4   9  367.86   72.79
 -18  -4   9  486.75   87.99
  16   4  -9  175.58   44.90
 -16  -4   9  177.48   45.20
 -16  -4   9  286.57   64.79
  14   4  -9  134.29   37.50
  14   4  -9  178.28   50.39
 -14  -4   9  167.18   49.20
  12   4  -9  210.48   43.30
  12   4  -9  231.38   60.29
 -12  -4   9  280.27   51.89
 -12  -4   9  274.37   58.59
  10   4  -9 1366.66  106.99
  10   4  -9 1346.87   90.99
  10   4  -9 1487.95   93.89
 -10  -4   9 1584.54   98.79
 -10  -4   9 1507.45   96.29
 -10  -4   9 1587.34  116.59
   8   4  -9   29.70   17.10
   8   4  -9   24.30   15.20
   8   4  -9   28.40   20.40
  -8  -4   9   46.90   18.60
  -8  -4   9   45.00   26.90
  -8  -4   9    0.30   14.00
   6   4  -9  905.81   58.89
   6   4  -9  981.00   60.29
  -6  -4   9  868.11   61.09
  -6  -4   9  949.11   63.19
  -6  -4   9  998.10   85.89
  -6  -4   9  912.41   81.49
   4   4  -9 2016.40   87.99
  -4  -4   9 2095.49   96.19
  -4  -4   9 1875.51   93.39
  -4  -4   9 2126.69  129.79
  -4  -4   9 1954.10  124.49
   2   4  -9  168.88   17.90
  -2  -4   9  212.48   44.00
  -2  -4   9  255.67   49.80
  -2  -4   9  185.78   30.20
  -2  -4   9  193.58   24.70
   0   4  -9   10.20    6.50
   0   4  -9   -0.90    6.50
   0  -4   9    6.30   13.00
   0  -4   9   12.30   10.00
   0  -4   9   -1.90    7.80
  -2   4  -9  213.78   49.00
  -2   4  -9  351.56   26.90
  -2   4  -9  289.77   26.40
   2  -4   9  222.68   28.50
   2  -4   9  277.17   53.19
   2  -4   9  227.78   28.40
  -4   4  -9 1021.00   59.99
   4  -4   9 1078.09   68.59
   4  -4   9 1147.79   69.89
   4  -4   9 1032.10   97.29
  -6   4  -9  109.89   23.60
  -6   4  -9  128.89   43.20
   6  -4   9  118.09   25.60
   6  -4   9  108.29   36.60
  -8   4  -9  126.49   39.30
   8  -4   9  105.99   32.10
 -10   4  -9  559.74   92.99
  10  -4   9  558.54   62.89
 -21  -3   9   76.39   43.40
 -19  -3   9  -26.30   28.70
 -19  -3   9  -29.70   30.10
  17   3  -9  132.29   39.20
 -17  -3   9  177.48   58.09
 -17  -3   9  105.29   44.60
  15   3  -9  567.64   66.69
  15   3  -9  649.04   76.29
 -15  -3   9  657.13   82.39
 -15  -3   9  575.44   70.19
  13   3  -9  226.88   47.30
 -13  -3   9  279.07   69.59
 -13  -3   9  242.78   48.70
  11   3  -9   -4.30    9.30
  11   3  -9   17.50   15.40
  11   3  -9   -1.30   16.60
 -11  -3   9   19.30   19.60
 -11  -3   9  -20.30    9.30
 -11  -3   9   11.90   13.50
   9   3  -9  672.23   58.69
   9   3  -9  681.43   58.89
   9   3  -9  591.34   65.79
  -9  -3   9  582.74   56.89
  -9  -3   9  641.44   58.29
  -9  -3   9  603.84   66.69
   7   3  -9 1836.32   96.39
  -7  -3   9 1802.62   98.19
  -7  -3   9 1713.03   96.99
  -7  -3   9 1598.24  112.79
   5   3  -9   13.50   13.60
  -5  -3   9    1.40   10.50
  -5  -3   9   25.00   18.20
  -5  -3   9   12.50    9.70
  -5  -3   9   25.50   16.50
   3   3  -9  241.48   28.10
   3   3  -9  264.17   26.60
  -3  -3   9  233.88   28.20
  -3  -3   9  244.28   47.50
  -3  -3   9  331.37   32.60
  -3  -3   9  246.78   46.20
   1   3  -9  713.13   45.50
   1   3  -9  762.42   48.90
  -1  -3   9  798.62   52.09
  -1  -3   9  743.83   50.99
  -1  -3   9  786.82   74.19
  -1   3  -9  944.71   84.19
  -1   3  -9  909.41   53.49
  -1   3  -9  886.41   54.39
   1  -3   9  856.31   80.09
   1  -3   9  900.91   58.49
   1  -3   9  898.01   58.29
  -3   3  -9   -1.20   12.40
  -3   3  -9   14.50   12.00
  -3   3  -9   76.99   33.10
   3  -3   9    6.90   11.70
   3  -3   9   44.70   16.50
   3  -3   9   22.40   21.70
  -5   3  -9  202.58   48.60
  -5   3  -9  133.79   26.20
   5  -3   9  129.89   42.30
   5  -3   9  150.28   30.40
  -7   3  -9  498.55   82.09
   7  -3   9  464.15   53.39
  -9   3  -9  214.98   53.89
   9  -3   9  140.59   36.70
 -11   3  -9   46.60   36.90
  11  -3   9  139.39   42.80
  18   2  -9  235.98   55.09
 -18  -2   9  239.58   57.49
 -18  -2   9  159.78   57.29
  16   2  -9   28.50   26.50
 -16  -2   9  -36.30   20.80
 -16  -2   9    5.00   31.50
  14   2  -9   54.59   30.60
  14   2  -9   39.20   32.80
 -14  -2   9   73.79   31.20
  12   2  -9   86.59   26.00
  12   2  -9  115.89   34.70
 -12  -2   9  106.39   33.20
 -12  -2   9   96.99   32.50
 -12  -2   9   50.69   27.60
  10   2  -9  428.46   50.09
  10   2  -9  404.46   48.10
  10   2  -9  413.66   54.59
 -10  -2   9  566.04   57.79
 -10  -2   9  387.76   47.20
 -10  -2   9  407.06   54.79
   8   2  -9   93.39   25.60
  -8  -2   9   86.19   30.40
  -8  -2   9   54.79   21.10
  -8  -2   9   88.19   25.60
   6   2  -9   51.09   18.70
   6   2  -9   96.69   22.30
  -6  -2   9   79.49   22.60
  -6  -2   9   67.69   21.80
  -6  -2   9   93.19   28.40
  -6  -2   9  131.39   33.90
   4   2  -9  746.63   53.89
   4   2  -9  824.92   57.99
  -4  -2   9  852.01   58.99
  -4  -2   9  733.23   56.19
  -4  -2   9  857.01   74.69
  -4  -2   9  748.83   71.49
   2   2  -9   64.19   18.70
   2   2  -9   48.20   14.50
  -2  -2   9   41.90   16.20
  -2  -2   9   62.39   17.90
  -2  -2   9   84.39   27.80
   0   2  -9   15.50   13.20
   0   2  -9   15.00   11.70
   0   2  -9   22.60   19.10
   0  -2   9   26.90   14.60
   0  -2   9    7.30   11.10
   0  -2   9   38.60   16.20
  -2   2  -9  605.04   69.39
  -2   2  -9  648.04   49.70
  -2   2  -9  604.24   49.20
   2  -2   9  599.84   50.99
   2  -2   9  578.34   65.69
   2  -2   9  765.52   56.99
  -4   2  -9 1112.09   70.99
  -4   2  -9  911.71   87.59
   4  -2   9  914.01   69.39
  -6   2  -9   35.80   18.00
  -6   2  -9    8.30   24.80
   6  -2   9   -5.00   12.80
   6  -2   9  -33.70   19.20
  -8   2  -9  149.09   48.70
   8  -2   9  184.58   40.00
 -10   2  -9  270.87   64.79
  10  -2   9  157.58   39.10
 -12   2  -9   57.99   46.60
  12  -2   9  234.58   49.80
 -21  -1   9  104.79   51.89
 -19  -1   9   -9.00   38.20
 -19  -1   9  -18.70   28.80
  17   1  -9  138.79   47.00
 -17  -1   9  189.48   50.59
 -17  -1   9  126.09   49.10
  15   1  -9  128.79   38.10
  15   1  -9   91.59   31.40
 -15  -1   9  184.98   51.09
 -15  -1   9  150.48   40.50
  13   1  -9    9.00   15.10
  13   1  -9  -11.00   18.00
  13   1  -9   -5.70   18.30
 -13  -1   9  -11.30   14.00
 -13  -1   9   39.80   28.20
 -13  -1   9   -9.60   11.20
  11   1  -9   81.49   28.90
  11   1  -9   41.00   18.60
 -11  -1   9   61.69   23.80
 -11  -1   9   52.69   29.10
 -11  -1   9   35.60   22.20
   9   1  -9  239.78   40.90
   9   1  -9  193.18   38.60
   9   1  -9  198.58   43.10
  -9  -1   9  173.88   37.90
  -9  -1   9  188.28   39.40
  -9  -1   9  198.38   41.90
   7   1  -9   16.50   15.30
   7   1  -9   68.19   22.50
  -7  -1   9   63.09   23.60
  -7  -1   9   12.00   14.10
  -7  -1   9   42.50   18.60
  -7  -1   9   33.10   23.90
   5   1  -9   14.20   11.80
   5   1  -9    8.80   12.60
  -5  -1   9   13.40   14.50
  -5  -1   9   17.80   13.70
  -5  -1   9   21.60   18.10
  -5  -1   9    5.30    9.60
   3   1  -9   -2.10   10.40
   3   1  -9    2.90   10.30
  -3  -1   9    6.10    9.80
  -3  -1   9    8.30   14.80
   1   1  -9  501.05   44.70
   1   1  -9  513.55   44.60
   1   1  -9  509.75   60.49
  -1  -1   9  512.55   59.09
  -1  -1   9  653.73   51.49
  -1  -1   9  436.96   44.20
  -1   1  -9  568.74   47.10
  -1   1  -9  413.16   54.39
  -1   1  -9  575.74   49.20
   1  -1   9  513.85   47.90
   1  -1   9  457.65   46.30
   1  -1   9  505.05   60.99
  -3   1  -9    9.70   13.60
  -3   1  -9  -15.90    7.50
  -3   1  -9   57.39   26.60
   3  -1   9    7.20   12.40
   3  -1   9    9.50   15.30
   3  -1   9   -5.10   17.40
  -5   1  -9   29.90   27.60
  -5   1  -9    7.70   11.30
   5  -1   9   -9.80   20.40
   5  -1   9   11.30   14.90
  -7   1  -9   68.09   33.80
   7  -1   9  186.78   39.80
   7  -1   9  223.38   64.19
  -9   1  -9   -1.20   31.10
   9  -1   9   33.30   22.50
 -11   1  -9   49.00   24.60
  11  -1   9   30.50   25.10
 -20   0   9  -18.40   34.60
 -18   0   9  -12.20   19.40
 -18   0   9  -24.90   16.50
  16   0  -9    8.60   16.50
  16   0  -9  -36.60   16.60
 -16   0   9   -4.50   18.70
 -16   0   9  -26.20   14.30
  14   0  -9   22.00   25.50
  14   0  -9    8.90   19.60
 -14   0   9    2.40   22.10
 -14   0   9   10.70   25.10
  12   0  -9   18.90   19.60
  12   0  -9    0.90   11.80
 -12   0   9  -16.30    8.50
 -12   0   9   -5.20    9.80
 -12   0   9   -3.20   13.80
  10   0  -9  -12.60    6.20
  10   0  -9   -4.50    8.60
  10   0  -9    5.10   13.50
 -10   0   9   10.40   11.70
 -10   0   9   25.10   20.20
 -10   0   9    7.50   16.00
   8   0  -9   -6.60    5.80
  -8   0   9   20.30   12.50
  -8   0   9    0.00   13.90
  -8   0   9  -16.50   12.40
   6   0  -9   -1.20    8.70
   6   0  -9    6.00    9.70
  -6   0   9    2.90   11.70
  -6   0   9   -5.00   13.60
  -6   0   9   -1.40   15.20
  -6   0   9  -14.80   10.60
   4   0  -9   -5.90    9.10
   4   0  -9   13.20   12.60
  -4   0   9   17.60   18.20
  -4   0   9   -6.10    9.30
  -4   0   9   26.00   15.90
  -4   0   9    1.80    9.30
   2   0  -9    9.20   17.70
   2   0  -9    9.70   10.20
   2   0  -9   -8.20    8.00
  -2   0   9    4.00   15.10
  -2   0   9    1.10    9.40
  -2   0   9   16.60   13.40
   0   0  -9   -3.10    9.80
   0   0  -9  -15.60   12.30
   0   0  -9  -12.50    7.40
   0   0   9   -0.20    9.30
   0   0   9  -18.50   12.20
   0   0   9    0.50   10.40
  -2   0  -9  -12.10    9.40
  -2   0  -9   -0.80   12.10
  -2   0  -9   24.60   17.10
   2   0   9    3.90   10.80
   2   0   9    6.60   14.80
   2   0   9   11.40   13.70
  -4   0  -9   27.10   16.20
  -4   0  -9  -21.30   10.30
   4   0   9    6.80   12.40
   4   0   9   11.90   24.80
   4   0   9  -27.50    9.90
  -6   0  -9  -19.90   11.50
  -6   0  -9    6.10   15.50
   6   0   9   10.40   16.80
   6   0   9   -3.10   17.40
  -8   0  -9    2.80   22.20
   8   0   9    8.20   18.70
 -10   0  -9   -1.30   15.60
  10   0   9  -18.70   15.90
 -12   0  -9   -5.30   32.30
  12   0   9   70.79   31.60
 -21   1   9   71.89   42.90
 -19   1   9   57.39   39.50
  17  -1  -9   88.39   38.20
  17  -1  -9   83.29   38.70
 -17   1   9  187.48   52.99
 -17   1   9  135.99   42.70
  15  -1  -9  206.18   57.69
  15  -1  -9  102.79   31.10
  15  -1  -9  118.79   38.70
 -15   1   9  148.39   41.80
 -15   1   9  142.89   39.90
  13  -1  -9   -4.40   13.70
  13  -1  -9  -16.70   15.50
 -13   1   9  -23.20   12.90
 -13   1   9   15.50   22.70
 -13   1   9  -13.00   10.20
  11  -1  -9   28.80   17.30
  11  -1  -9  114.09   37.90
  11  -1  -9   37.20   20.90
 -11   1   9   78.39   28.10
 -11   1   9   53.39   24.40
 -11   1   9   26.70   23.10
   9  -1  -9  137.19   35.00
   9  -1  -9  168.38   37.00
  -9   1   9  233.58   45.00
  -9   1   9  172.38   36.30
  -9   1   9  235.68   44.50
   7  -1  -9   48.10   25.80
   7  -1  -9   25.30   16.30
  -7   1   9   44.20   21.00
  -7   1   9   57.69   25.30
  -7   1   9   81.09   25.90
  -7   1   9   72.19   26.20
   5  -1  -9    2.60   10.70
   5  -1  -9   37.90   16.80
  -5   1   9   32.90   22.20
  -5   1   9   17.60   15.30
  -5   1   9   32.50   19.70
  -5   1   9    5.30    9.30
   3  -1  -9    3.90   11.20
   3  -1  -9   32.90   17.30
   3  -1  -9   14.90   12.30
  -3   1   9    7.10   14.40
  -3   1   9   21.90   14.70
  -3   1   9  -20.50   11.70
   1  -1  -9  453.05   48.40
   1  -1  -9  456.45   53.99
  -1   1   9  517.35   50.69
  -1   1   9  500.45   49.99
  -1   1   9  556.74   60.49
  -1  -1  -9  494.35   51.39
  -1  -1  -9  558.34   61.59
   1   1   9  528.15   53.59
   1   1   9  455.35   57.89
   1   1   9  588.64   55.69
  -3  -1  -9  -18.90    8.30
  -3  -1  -9    4.70   15.70
  -3  -1  -9  -14.30   13.50
   3   1   9  -14.30   12.90
   3   1   9  -14.60    9.40
   3   1   9    5.60   14.10
  -5  -1  -9   -8.10   14.30
  -5  -1  -9   12.80   12.80
   5   1   9    5.40   14.10
   5   1   9   22.50   29.50
  -7  -1  -9  209.18   54.79
  -7  -1  -9   83.79   33.50
   7   1   9  203.18   43.70
  -9  -1  -9   13.50   31.40
   9   1   9   10.70   21.00
 -11  -1  -9   73.29   40.60
  11   1   9  -33.50   20.40
 -20   2   9  -13.50   24.10
  18  -2  -9  181.98   47.00
 -18   2   9  260.47   58.09
  16  -2  -9   29.20   23.30
  16  -2  -9   -2.50   20.10
 -16   2   9  -14.90   24.10
 -16   2   9   54.09   28.20
  14  -2  -9   81.39   36.40
  14  -2  -9   83.49   27.50
 -14   2   9   45.30   25.90
 -14   2   9   71.49   39.80
 -14   2   9   27.70   26.00
  12  -2  -9  106.09   29.50
  12  -2  -9   57.39   26.30
  12  -2  -9  119.89   40.10
 -12   2   9   33.70   24.90
 -12   2   9   57.59   32.60
 -12   2   9   46.20   25.40
  10  -2  -9  515.35   58.89
  10  -2  -9  417.26   52.29
 -10   2   9  412.96   52.69
 -10   2   9  646.94   65.09
 -10   2   9  401.66   53.49
   8  -2  -9   77.59   26.80
   8  -2  -9   90.99   26.90
  -8   2   9   41.70   22.40
  -8   2   9   81.69   28.10
  -8   2   9   74.29   25.90
  -8   2   9   87.19   27.00
   6  -2  -9   72.49   24.10
   6  -2  -9  109.49   30.50
  -6   2   9   88.69   25.50
  -6   2   9   58.19   23.20
  -6   2   9   46.00   20.80
  -6   2   9   50.09   22.10
   4  -2  -9  595.34   78.39
   4  -2  -9  753.12   64.69
  -4   2   9  761.02   65.99
  -4   2   9  728.63   64.99
  -4   2   9  733.43   64.39
   2  -2  -9   74.19   20.70
   2  -2  -9   24.50   21.70
  -2   2   9   38.20   19.80
  -2   2   9   70.29   23.50
  -2   2   9   48.10   19.30
   0  -2  -9   32.10   19.30
   0  -2  -9   39.40   19.00
   0  -2  -9    8.60   14.50
   0   2   9   14.70   14.80
   0   2   9   -2.50   13.30
  -2  -2  -9  633.74   59.29
  -2  -2  -9  473.65   62.29
  -2  -2  -9  510.65   55.79
   2   2   9  699.03   70.79
   2   2   9  602.04   60.69
  -4  -2  -9  954.10   88.09
  -4  -2  -9 1004.40   87.69
  -4  -2  -9  960.80   80.09
   4   2   9 1016.80   96.49
   4   2   9 1185.58   89.59
  -6  -2  -9   20.30   18.30
  -6  -2  -9   20.50   27.20
   6   2   9   -7.10   16.40
   6   2   9   54.59   34.30
  -8  -2  -9  193.38   53.79
   8   2   9  176.98   43.80
 -10  -2  -9  130.39   50.69
  10   2   9  165.98   47.40
 -12  -2  -9  129.49   49.00
  12   2   9  218.68   60.09
 -19   3   9    5.20   28.00
  17  -3  -9  171.78   41.60
 -17   3   9  237.78   53.29
  15  -3  -9  494.85   78.59
  15  -3  -9  548.75   64.09
 -15   3   9  568.14   67.39
 -15   3   9  595.04   71.89
  13  -3  -9  232.48   50.49
  13  -3  -9  162.58   45.40
  13  -3  -9  211.18   43.60
 -13   3   9  213.58   50.49
 -13   3   9  303.47   52.69
 -13   3   9  187.38   46.80
  11  -3  -9    4.30   21.40
  11  -3  -9   22.10   17.10
 -11   3   9    5.50   17.10
 -11   3   9  -17.80   11.40
 -11   3   9   -5.10   13.40
   9  -3  -9  553.44   62.19
   9  -3  -9  472.45   56.49
  -9   3   9  553.54   55.89
  -9   3   9  570.94   61.49
  -9   3   9  523.55   55.59
  -9   3   9  479.15   57.69
   7  -3  -9 1868.21  115.89
   7  -3  -9 1810.62  113.19
  -7   3   9 1631.44  102.99
  -7   3   9 1925.01  116.59
  -7   3   9 1779.22  105.89
  -7   3   9 1643.44  108.79
   5  -3  -9    9.40   12.40
   5  -3  -9   21.80   17.00
  -5   3   9   57.59   28.50
  -5   3   9    7.70   13.80
  -5   3   9   12.30   12.20
  -5   3   9   12.90   16.30
   3  -3  -9  236.48   43.40
   3  -3  -9  309.27   49.00
   3  -3  -9  281.67   46.50
  -3   3   9  265.87   46.80
  -3   3   9  212.28   43.40
  -3   3   9  285.17   47.80
   1  -3  -9  731.43   66.19
   1  -3  -9  839.62   71.99
   1  -3  -9  722.33   65.89
  -1   3   9  774.02   71.19
  -1   3   9  892.11   72.39
  -1   3   9  751.92   68.99
  -1  -3  -9  942.21   77.29
  -1  -3  -9  934.21   76.99
  -1  -3  -9  947.21   81.19
   1   3   9  859.51   74.69
   1   3   9 1030.70   81.29
   1   3   9  881.71   78.09
  -3  -3  -9   10.50   20.00
  -3  -3  -9   49.70   23.60
  -3  -3  -9   32.80   22.90
   3   3   9   41.20   24.50
   3   3   9   33.70   21.80
   3   3   9   22.80   20.20
  -5  -3  -9  126.09   39.30
  -5  -3  -9  116.49   38.30
   5   3   9  222.98   54.69
   5   3   9  165.38   42.10
  -7  -3  -9  560.04   67.49
  -7  -3  -9  465.95   81.09
   7   3   9  619.64   69.79
  -9  -3  -9  241.08   58.29
   9   3   9  121.09   39.40
 -11  -3  -9   87.09   45.20
  11   3   9   98.39   37.30
 -18   4   9  343.07   74.39
 -16   4   9  191.88   47.30
  14  -4  -9   83.49   35.10
  14  -4  -9  141.49   43.20
  14  -4  -9  120.09   34.30
 -14   4   9  123.39   44.10
 -14   4   9  120.19   40.10
 -14   4   9  128.69   35.20
  12  -4  -9  240.18   53.69
  12  -4  -9  174.08   43.70
 -12   4   9  168.58   44.90
 -12   4   9  210.78   43.50
 -12   4   9  209.08   49.20
  10  -4  -9 1509.55  108.09
  10  -4  -9 1420.76  108.89
 -10   4   9 1541.75   97.69
 -10   4   9 1413.66  107.09
 -10   4   9 1557.94  113.49
 -10   4   9 1405.86   92.69
   8  -4  -9   50.89   25.80
   8  -4  -9   34.40   18.60
  -8   4   9   27.10   21.40
  -8   4   9   73.69   22.80
  -8   4   9   25.20   18.00
  -8   4   9   21.40   20.80
   6  -4  -9  943.71   78.79
   6  -4  -9  977.10   82.59
  -6   4   9  916.41   79.19
  -6   4   9  968.10   73.89
  -6   4   9  962.20   82.69
  -6   4   9  988.40   72.59
   4  -4  -9 1876.21  117.79
   4  -4  -9 2012.10  122.59
  -4   4   9 2107.09  124.39
  -4   4   9 1761.52  108.49
  -4   4   9 2095.19  123.69
   2  -4  -9  175.88   37.00
   2  -4  -9  207.38   40.50
   2  -4  -9  140.49   37.50
  -2   4   9  168.18   38.00
  -2   4   9  204.68   42.50
  -2   4   9  216.68   43.00
   0  -4  -9   17.10   20.50
   0  -4  -9   -6.50   14.30
   0  -4  -9   11.20   16.10
   0   4   9   38.50   23.70
   0   4   9   10.70   13.80
   0   4   9   -6.70   11.30
  -2  -4  -9  290.07   50.29
  -2  -4  -9  301.87   53.89
  -2  -4  -9  264.27   50.69
   2   4   9  239.08   48.80
   2   4   9  311.47   55.49
   2   4   9  278.87   52.99
  -4  -4  -9 1056.39  141.09
  -4  -4  -9  859.01   82.29
   4   4   9 1027.30   90.19
  -6  -4  -9  153.38   38.30
  -6  -4  -9  151.98   43.40
   6   4   9   33.20   33.00
  -8  -4  -9  112.39   41.90
   8   4   9  102.79   39.10
 -10  -4  -9  512.95   90.29
  10   4   9  443.56   77.99
  15  -5  -9  540.35   86.79
 -15   5   9  540.75  113.69
 -15   5   9  447.56   58.49
  13  -5  -9  298.47   65.39
  13  -5  -9  283.77   57.99
 -13   5   9  310.97   49.99
 -13   5   9  403.96   78.29
 -13   5   9  303.97   61.29
  11  -5  -9   44.20   28.00
  11  -5  -9   -4.80   12.00
 -11   5   9  -13.00   18.20
 -11   5   9   45.80   25.40
 -11   5   9   11.70   16.60
 -11   5   9   34.80   23.40
   9  -5  -9  748.13   75.69
   9  -5  -9  758.92   74.79
  -9   5   9  607.54   56.99
  -9   5   9  637.64   60.99
  -9   5   9  616.94   69.59
  -9   5   9  710.13   73.09
   7  -5  -9 1154.78   94.99
   7  -5  -9 1089.39   89.69
  -7   5   9 1176.18   80.29
  -7   5   9 1111.29   78.99
  -7   5   9 1293.87   98.49
  -7   5   9 1175.48   96.19
   5  -5  -9   32.50   20.00
   5  -5  -9   -4.40   11.20
  -5   5   9   37.70   19.40
  -5   5   9    8.20   14.70
  -5   5   9   16.00   21.00
  -5   5   9    2.10   12.80
   3  -5  -9  291.17   46.20
   3  -5  -9  308.27   52.09
   3  -5  -9  316.87   54.79
  -3   5   9  265.87   44.70
  -3   5   9  365.76   58.79
  -3   5   9  281.47   51.29
   1  -5  -9  760.72   72.39
   1  -5  -9  776.02   73.39
   1  -5  -9  721.23   67.39
  -1   5   9  977.30   81.19
  -1   5   9  803.02   71.79
  -1   5   9  866.41   78.09
  -1  -5  -9  218.58   47.10
  -1  -5  -9  148.09   37.70
  -1  -5  -9  231.18   46.70
   1   5   9  278.67   51.69
   1   5   9  136.49   40.80
   1   5   9  275.07   50.19
  -3  -5  -9    9.00   14.60
  -3  -5  -9    9.60   12.50
  -3  -5  -9   32.30   20.10
   3   5   9    2.00   19.40
   3   5   9    0.00   24.40
  -5  -5  -9  424.96   71.39
  -5  -5  -9  345.07   61.59
   5   5   9  367.66   63.89
   5   5   9  341.57   66.39
  -7  -5  -9  626.94   79.99
  -7  -5  -9  555.34   72.89
   7   5   9  607.44   73.59
  -9  -5  -9  134.99   50.69
   9   5   9  218.48   53.89
 -11  -5  -9   23.90   44.00
  11   5   9   71.59   45.10
  16  -6  -9   49.90   35.80
  14  -6  -9   54.89   35.20
 -14   6   9   60.49   33.00
 -14   6   9   58.09   29.60
  12  -6  -9  730.63   82.49
  12  -6  -9  895.61   91.99
 -12   6   9  814.32   85.49
 -12   6   9  926.61   89.49
 -12   6   9  807.42   66.89
  10  -6  -9   27.60   18.60
  10  -6  -9   43.00   33.00
 -10   6   9   26.70   24.80
 -10   6   9   87.69   33.60
 -10   6   9   22.00   20.70
 -10   6   9   60.69   22.60
   8  -6  -9   77.49   29.50
   8  -6  -9  128.69   37.60
  -8   6   9   86.89   25.10
  -8   6   9  101.39   29.20
  -8   6   9  115.79   36.10
  -8   6   9   79.59   33.10
   6  -6  -9  315.57   57.39
   6  -6  -9  311.27   54.89
  -6   6   9  234.28   40.40
  -6   6   9  272.57   54.49
  -6   6   9  324.67   39.40
  -6   6   9  306.27   54.99
   4  -6  -9 1030.00   87.89
   4  -6  -9  898.21   81.59
  -4   6   9  953.20   73.39
  -4   6   9 1063.39   89.19
  -4   6   9 1099.39   90.89
   2  -6  -9   90.29   30.90
   2  -6  -9  126.59   32.20
   2  -6  -9  127.09   35.20
  -2   6   9   90.19   32.40
  -2   6   9  123.39   34.20
  -2   6   9   68.39   32.50
   0  -6  -9   -8.00   13.20
   0  -6  -9   -2.10   12.50
   0  -6  -9   67.39   29.30
   0   6   9   32.90   26.90
   0   6   9   15.80   18.90
   0   6   9  -14.90   11.40
  -2  -6  -9  239.48   49.00
  -2  -6  -9  288.17   54.19
  -2  -6  -9  276.57   55.39
   2   6   9  233.88   49.99
   2   6   9  214.38   48.00
  -4  -6  -9  345.97   63.19
  -4  -6  -9  438.86   70.19
   4   6   9  460.95   71.49
   4   6   9  481.55   63.19
  -6  -6  -9   62.49   30.20
  -6  -6  -9  112.29   38.40
   6   6   9  107.39   38.60
  -8  -6  -9  194.68   51.09
   8   6   9   56.09   36.80
 -10  -6  -9   83.09   45.60
  10   6   9   99.99   43.80
  17  -7  -9   57.39   34.20
  15  -7  -9  190.78   54.99
  13  -7  -9   94.39   44.80
 -13   7   9  103.39   42.50
  11  -7  -9   11.80   22.90
 -11   7   9   -6.70   14.40
 -11   7   9   -4.60   25.30
 -11   7   9   44.20   25.90
   9  -7  -9  -10.40   23.30
  -9   7   9    8.50   14.20
  -9   7   9   40.20   19.30
  -9   7   9   -4.10   15.30
   7  -7  -9   14.60   20.50
   7  -7  -9   69.89   29.90
  -7   7   9   68.89   35.10
  -7   7   9   64.09   22.80
  -7   7   9   40.50   17.30
  -7   7   9   25.40   24.50
   5  -7  -9   86.79   34.80
   5  -7  -9   59.89   28.30
  -5   7   9   38.70   27.90
  -5   7   9   59.69   23.50
  -5   7   9   71.69   29.40
   3  -7  -9   62.69   22.50
   3  -7  -9   92.29   35.20
   3  -7  -9   79.49   30.20
  -3   7   9   79.49   35.50
  -3   7   9  103.29   30.90
  -3   7   9   31.10   24.20
   1  -7  -9  444.66   69.69
   1  -7  -9  382.26   67.19
   1  -7  -9  436.76   51.69
  -1   7   9  336.07   71.89
  -1   7   9  473.15   55.99
  -1   7   9  493.25   61.59
  -1  -7  -9   66.09   30.00
  -1  -7  -9  116.09   34.10
  -1  -7  -9    4.80   27.20
   1   7   9   83.59   31.60
   1   7   9   67.39   48.10
   1   7   9  130.99   38.70
  -3  -7  -9   37.50   25.40
  -3  -7  -9   80.99   37.70
   3   7   9   98.59   34.00
   3   7   9  100.39   36.20
  -5  -7  -9   79.99   37.40
  -5  -7  -9  101.39   32.60
   5   7   9  127.69   42.10
   5   7   9  126.79   40.70
  -7  -7  -9  161.08   46.70
   7   7   9  162.48   45.60
  -9  -7  -9  -39.60   23.10
  16  -8  -9  -63.99   35.80
  14  -8  -9    6.80   25.30
 -14   8   9   92.49   39.70
  12  -8  -9    6.70   19.60
 -12   8   9  -33.80   18.70
  10  -8  -9  -19.60   12.70
 -10   8   9  -20.10   20.00
   8  -8  -9   34.00   26.10
  -8   8   9   18.20   25.40
  -8   8   9   32.90   26.60
  -8   8   9   40.10   20.40
   6  -8  -9   78.89   36.10
   6  -8  -9   50.49   33.60
  -6   8   9   74.79   26.20
  -6   8   9   87.99   26.30
  -6   8   9   87.79   34.30
  -6   8   9   41.00   32.70
   4  -8  -9   31.70   30.70
   4  -8  -9   48.30   30.90
  -4   8   9   45.00   26.10
  -4   8   9   34.30   27.80
   2  -8  -9   11.80   17.50
   2  -8  -9   32.80   19.20
   2  -8  -9   -2.10    9.80
  -2   8   9    0.00   17.50
  -2   8   9    3.90   21.30
  -2   8   9    3.50   16.60
   0  -8  -9   73.39   28.10
   0  -8  -9   85.19   35.90
   0  -8  -9   75.39   31.00
   0   8   9   49.80   26.80
   0   8   9   87.29   38.60
   0   8   9   61.29   28.80
  -2  -8  -9    7.00   25.40
  -2  -8  -9    8.10   15.60
   2   8   9   -6.20   22.80
   2   8   9   33.50   28.80
  -4  -8  -9  -22.70   14.50
   4   8   9   24.20   24.10
   4   8   9   91.79   34.70
  -6  -8  -9   18.30   31.30
  -8  -8  -9  -18.60   28.20
  17  -9  -9  -33.90   45.00
  15  -9  -9   28.80   33.00
  13  -9  -9    9.20   32.20
 -13   9   9   33.20   29.40
  11  -9  -9   34.50   33.30
   9  -9  -9  166.38   54.29
  -9   9   9  255.67   59.39
   7  -9  -9    5.40   22.00
  -7   9   9   -5.40   16.50
   5  -9  -9   -2.30   24.00
  -5   9   9   13.10   28.10
  -5   9   9   12.00   26.10
   3  -9  -9    1.60   13.10
   3  -9  -9  -36.40   14.60
  -3   9   9    1.60   14.10
  -3   9   9   65.39   35.80
   1  -9  -9  164.48   48.60
   1  -9  -9   70.69   25.30
  -1   9   9   54.69   29.90
  -1   9   9  107.49   38.10
  -1  -9  -9   55.79   36.00
  -1  -9  -9   17.80   22.20
   1   9   9    1.20   20.40
   1   9   9   18.70   29.10
  -3  -9  -9  -25.30   18.10
   3   9   9  -29.20   27.00
  -5  -9  -9  111.09   42.30
  -7  -9  -9  106.79   43.10
  16 -10  -9   13.30   43.90
  14 -10  -9   28.70   36.60
  12 -10  -9  170.78   56.89
 -12  10   9  205.28   58.69
  10 -10  -9  260.67   77.29
   8 -10  -9  363.66   71.59
   6 -10  -9  373.46   69.99
  -6  10   9  259.27   57.89
   4 -10  -9   60.29   28.80
  -4  10   9   41.90   28.50
   2 -10  -9  169.08   50.19
  -2  10   9  146.59   42.40
   0 -10  -9   34.70   31.90
  -2 -10  -9  221.78   48.40
  -4 -10  -9  102.49   38.40
  -6 -10  -9   30.10   32.00
  13 -11  -9  231.28   61.19
  11 -11  -9    4.40   24.20
   9 -11  -9  185.58   50.89
  -9  11   9  161.68   46.90
   7 -11  -9  508.75   86.79
  -7  11   9  409.76   72.49
   5 -11  -9  109.89   45.50
  -5  11   9  149.49   41.30
   3 -11  -9  223.18   56.39
  -3  11   9  115.39   60.89
   1 -11  -9  326.47   69.79
  12 -12  -9  322.97   73.59
  10 -12  -9  226.18   57.29
   8 -12  -9    2.10   31.30
   6 -12  -9   62.99   41.40
   4 -12  -9  497.25   87.09
   2 -12  -9   32.40   37.40
   9 -13  -9  383.06   75.39
   7 -13  -9  303.07   70.89
   5 -13  -9  142.89   53.19
   3 -13  -9    8.00   35.90
  -7 -13  10   -5.90   23.90
  -5 -13  10   40.10   31.70
 -10 -12  10    0.90   25.30
 -10 -12  10   20.20   19.70
  -8 -12  10   28.00   29.00
  -8 -12  10   47.20   15.90
  -6 -12  10   30.80   27.20
  -6 -12  10   53.49   11.90
  -4 -12  10  122.99   43.90
  -2 -12  10   63.69   32.70
 -13 -11  10  170.98   39.70
 -11 -11  10   56.29   37.60
 -11 -11  10   67.59   25.70
  -9 -11  10   76.99   24.70
  -9 -11  10   50.19   33.20
  -7 -11  10  569.34   42.80
  -7 -11  10  588.94   74.19
  -5 -11  10  103.89   41.20
  -3 -11  10   61.09   34.90
  -1 -11  10  411.26   75.89
   1 -11  10   90.09   36.60
 -14 -10  10   61.49   44.80
 -12 -10  10  558.54   61.39
 -12 -10  10  501.15   89.59
 -10 -10  10    6.20   28.50
 -10 -10  10   -9.90   16.20
  -8 -10  10  461.65   78.09
  -8 -10  10  382.66   41.10
  -6 -10  10  577.34  104.39
  -6 -10  10  780.62   85.69
  -6 -10  10  668.63   42.20
  -6 -10  10  629.94   43.00
  -4 -10  10   22.30   25.40
  -4 -10  10   21.60   28.90
  -2 -10  10  670.13   81.89
  -2 -10  10  599.24   78.39
   0 -10  10  173.18   45.50
   0 -10  10  195.08   51.49
   2 -10  10   19.80   28.10
   4 -10  10  348.27   71.19
 -15  -9  10  -51.59   19.20
 -15  -9  10    2.00   39.40
 -13  -9  10  599.74   66.59
 -13  -9  10  563.64   94.59
 -11  -9  10  163.28   46.00
 -11  -9  10   99.19   29.50
  -9  -9  10   72.29   23.80
  -9  -9  10  168.28   47.80
  -7  -9  10 1230.68   69.59
  -7  -9  10 1102.09   80.29
  -7  -9  10 1131.59  103.89
  -7  -9  10 1163.38  105.29
  -5  -9  10  -25.60   13.30
  -5  -9  10   20.10    8.50
  -5  -9  10  -10.20   21.00
  -5  -9  10    8.20    7.20
  -3  -9  10  138.99   44.60
  -3  -9  10  104.99   36.70
  -1  -9  10 1073.69  101.79
  -1  -9  10 1180.08  102.59
   1  -9  10  210.88   50.79
   1  -9  10  104.89   40.60
   3  -9  10  210.58   55.19
 -16  -8  10  -13.40   36.70
 -16  -8  10   26.80   19.10
 -14  -8  10   34.50   27.50
 -14  -8  10  119.79   33.00
 -12  -8  10 1171.08   90.39
 -12  -8  10 1109.59  109.29
  10   8 -10  109.29   36.10
 -10  -8  10  137.89   34.00
 -10  -8  10  122.79   41.20
   8   8 -10  344.27   33.00
  -8  -8  10  478.25   78.79
  -8  -8  10  365.36   39.80
  -6  -8  10  668.93   47.60
  -6  -8  10  715.43   80.89
  -6  -8  10  750.72   48.90
  -6  -8  10  595.34   88.19
  -4  -8  10  104.79   12.40
  -4  -8  10   84.89   13.50
  -4  -8  10  136.59   39.40
  -4  -8  10   70.99   33.70
  -2  -8  10 1569.94  122.59
   0  -8  10  174.98   40.70
   0  -8  10  160.88   45.90
   2  -8  10   -6.30   28.10
   2  -8  10   -2.00   20.80
  -6   8 -10   81.59   38.60
   6  -8  10   29.60   11.30
 -17  -7  10  235.08   67.09
 -17  -7  10  195.08   52.79
 -15  -7  10   40.10   31.70
 -15  -7  10   70.39   26.70
 -13  -7  10  863.71   99.29
 -13  -7  10  833.02   77.89
  11   7 -10  179.88   53.79
  11   7 -10  128.49   29.40
 -11  -7  10  167.28   48.90
 -11  -7  10  276.37   47.10
   9   7 -10   39.30   16.20
  -9  -7  10   42.10   21.30
  -9  -7  10   35.70   32.30
  -7  -7  10 1178.28  106.09
  -7  -7  10 1369.06  112.29
  -7  -7  10 1236.08   75.39
  -7  -7  10 1299.77   75.89
  -5  -7  10   -4.10   16.80
  -5  -7  10    3.50    8.90
  -3  -7  10  220.28   18.00
  -3  -7  10  182.68   16.60
  -3  -7  10  181.98   47.70
  -1  -7  10 1721.43  122.49
  -1  -7  10 1542.35  121.29
   1  -7  10  -21.00   15.50
   1  -7  10   23.70   26.70
   3  -7  10  441.46   28.80
   3  -7  10  397.76   68.29
   3  -7  10  487.55   29.70
  -5   7 -10  782.12   93.29
   5  -7  10  751.52   48.10
  -7   7 -10   65.89   37.70
 -18  -6  10  205.48   53.19
 -18  -6  10  170.08   89.09
 -16  -6  10   49.60   28.20
 -16  -6  10   11.80   33.10
 -14  -6  10  175.48   45.10
 -14  -6  10  136.59   45.30
  12   6 -10 1242.28  111.89
  12   6 -10 1208.48   89.39
 -12  -6  10 1398.46   98.49
 -12  -6  10 1237.58  111.19
  10   6 -10   29.40   16.60
  10   6 -10   40.00   24.90
 -10  -6  10   24.60   18.50
 -10  -6  10   18.80   20.10
   8   6 -10  700.43   53.59
   8   6 -10  587.24   58.89
  -8  -6  10  719.83   58.19
  -8  -6  10  785.42   61.19
   6   6 -10  705.63   43.40
   6   6 -10  727.13   43.90
  -6  -6  10  722.03   77.79
  -6  -6  10  738.13   52.29
  -6  -6  10  708.33   52.19
  -6  -6  10  613.04   74.69
  -4  -6  10    4.50   17.60
  -4  -6  10  -10.40   13.80
  -4  -6  10   23.80   12.00
  -4  -6  10   23.60   11.40
  -2  -6  10  680.13   75.09
  -2  -6  10  737.53   41.00
  -2  -6  10  687.43   39.50
  -2  -6  10  658.93   75.79
   0  -6  10  359.06   62.29
   0  -6  10  262.87   21.90
   0  -6  10  310.87   61.79
   0  -6  10  271.77   25.90
   2  -6  10    7.40    9.10
   2  -6  10   -8.20   11.10
   2  -6  10    5.80    8.30
  -4   6 -10  860.81   91.49
   4  -6  10  900.91   54.59
   4  -6  10  845.82   94.79
   4  -6  10  789.32   57.09
  -6   6 -10   16.00   21.60
   6  -6  10   -0.20   12.40
  -8   6 -10   -7.30   32.90
 -19  -5  10  -35.90   23.20
 -19  -5  10   33.70   29.90
 -17  -5  10   50.29   29.30
 -17  -5  10  -63.49   23.10
 -15  -5  10    8.90   16.20
 -15  -5  10    9.60   22.30
  13   5 -10  265.37   62.19
  13   5 -10  302.57   50.19
 -13  -5  10  358.16   71.79
 -13  -5  10  471.35   58.09
  11   5 -10  527.35   68.59
  11   5 -10  546.35   57.29
 -11  -5  10  667.73   79.99
 -11  -5  10  600.44   61.49
   9   5 -10   96.09   30.10
   9   5 -10  149.69   31.70
  -9  -5  10  132.19   41.70
  -9  -5  10  115.89   29.00
  -9  -5  10   90.59   26.70
   7   5 -10  911.71   59.19
   7   5 -10  868.41   58.29
  -7  -5  10  914.61   63.59
  -7  -5  10  864.41   64.59
  -7  -5  10  867.11   84.79
  -7  -5  10  746.43   78.49
   5   5 -10   -5.40    8.90
   5   5 -10    6.50    8.10
  -5  -5  10   22.20   23.30
  -5  -5  10  -16.90   14.60
  -5  -5  10   15.30   12.40
  -5  -5  10    8.90   12.10
   3   5 -10    2.60    4.60
   3   5 -10    6.70    5.50
  -3  -5  10   -1.90    8.20
  -3  -5  10   22.70   20.40
  -3  -5  10  -15.20   11.00
  -3  -5  10    0.90    9.30
  -1  -5  10  276.57   54.99
  -1  -5  10  332.67   60.79
  -1  -5  10  290.97   28.30
  -1  -5  10  267.67   26.80
   1  -5  10   23.00   12.60
   1  -5  10   41.20   13.70
   1  -5  10   35.90   24.70
  -3   5 -10  358.26   67.49
  -3   5 -10  363.86   22.70
   3  -5  10  389.06   36.50
   3  -5  10  430.86   74.79
   3  -5  10  345.27   34.90
  -5   5 -10   85.19   38.50
   5  -5  10  122.29   27.10
  -7   5 -10    9.90   29.40
   7  -5  10  -11.30   13.30
  -9   5 -10   30.10   39.00
   9  -5  10  138.49   35.60
 -20  -4  10   53.39   38.70
 -20  -4  10  184.08   54.89
 -18  -4  10  120.89   43.00
 -16  -4  10   30.60   31.60
 -16  -4  10   28.90   28.10
  14   4 -10   77.29   30.10
  14   4 -10   -5.20   30.90
 -14  -4  10   86.29   35.80
 -14  -4  10   76.89   36.70
  12   4 -10  -24.10   12.10
  12   4 -10   11.10   15.20
 -12  -4  10  -12.40   14.30
  10   4 -10  143.99   40.70
  10   4 -10  180.38   37.30
  10   4 -10  128.89   32.60
 -10  -4  10  153.98   35.80
 -10  -4  10  282.67   58.09
 -10  -4  10  134.99   33.70
   8   4 -10  145.29   30.10
   8   4 -10  169.48   32.60
  -8  -4  10  181.38   44.60
  -8  -4  10  142.49   31.50
  -8  -4  10  215.58   38.30
   6   4 -10   76.39   20.20
   6   4 -10   69.19   19.30
  -6  -4  10   85.49   36.60
  -6  -4  10   40.20   26.00
  -6  -4  10   51.19   19.90
  -6  -4  10   95.69   22.90
   4   4 -10  615.14   41.10
  -4  -4  10  571.44   65.39
  -4  -4  10  620.54   48.40
  -4  -4  10  597.94   46.90
  -4  -4  10  471.15   59.49
   2   4 -10  228.58   22.50
   2   4 -10  202.08   23.30
  -2  -4  10  207.08   26.40
  -2  -4  10  222.38   48.30
  -2  -4  10  231.48   50.39
  -2  -4  10  269.17   30.50
   0   4 -10  179.38   21.90
   0   4 -10  223.88   21.60
   0  -4  10  172.28   28.30
   0  -4  10  228.48   27.30
   0  -4  10  166.78   45.70
  -2   4 -10  218.38   54.09
   2  -4  10  187.78   47.20
   2  -4  10  203.18   31.60
   2  -4  10  206.28   32.00
  -4   4 -10    0.80   16.70
  -4   4 -10   28.00   12.50
   4  -4  10   18.90   22.00
   4  -4  10   29.90   16.20
  -6   4 -10   36.20   23.70
   6  -4  10   85.19   25.10
  -8   4 -10   -8.80   23.60
   8  -4  10  -38.10   13.80
 -10   4 -10   96.69   53.39
  10  -4  10  194.28   43.50
 -19  -3  10  -16.90   28.80
 -19  -3  10   -9.60   18.30
 -17  -3  10  126.29   41.20
 -17  -3  10   98.39   42.70
  15   3 -10  393.66   63.19
  15   3 -10  320.47   65.69
 -15  -3  10  506.75   65.79
 -15  -3  10  430.16   74.79
  13   3 -10   15.20   20.60
  13   3 -10   -7.20   21.30
 -13  -3  10  -12.40   17.80
 -13  -3  10    8.20   23.40
  11   3 -10  898.51   74.59
  11   3 -10  967.00   92.19
  11   3 -10  887.51   74.09
 -11  -3  10  773.12   81.79
 -11  -3  10  818.12   73.99
 -11  -3  10  751.62   74.89
   9   3 -10  683.63   60.79
   9   3 -10  784.12   64.89
  -9  -3  10  765.52   65.49
  -9  -3  10  678.73   76.79
  -9  -3  10  660.03   61.49
   7   3 -10   14.90   15.00
  -7  -3  10   47.10   26.70
  -7  -3  10   -0.10   11.90
  -7  -3  10  -17.00   16.40
  -7  -3  10   21.70   15.30
   5   3 -10   23.20   13.90
   5   3 -10   18.50   14.50
  -5  -3  10   15.60   15.40
  -5  -3  10   48.00   18.30
  -5  -3  10   17.70   15.00
  -5  -3  10   35.20   22.90
   3   3 -10  265.27   29.50
   3   3 -10  313.17   33.60
  -3  -3  10  317.97   35.40
  -3  -3  10  322.47   56.59
  -3  -3  10  318.37   35.20
  -3  -3  10  314.77   55.19
   1   3 -10   30.80   13.00
   1   3 -10   66.19   18.50
  -1  -3  10   62.09   17.90
  -1  -3  10   24.60   14.60
  -1  -3  10   33.00   19.20
  -1   3 -10  721.53   79.99
  -1   3 -10  695.53   50.39
  -1   3 -10  739.83   49.80
   1  -3  10  837.92   58.19
   1  -3  10  622.64   73.29
   1  -3  10  702.03   54.69
  -3   3 -10  465.55   50.79
  -3   3 -10  572.34   73.89
  -3   3 -10  586.64   47.40
   3  -3  10  537.45   49.80
   3  -3  10  496.05   65.89
   3  -3  10  599.94   51.09
  -5   3 -10  191.08   52.89
   5  -3  10  260.87   43.50
  -7   3 -10  406.16   76.89
   7  -3  10  326.27   54.29
  -9   3 -10   47.40   39.30
   9  -3  10  -10.50   21.70
 -20  -2  10  223.38   69.99
 -20  -2  10  250.27   94.59
  18   2 -10    7.40   29.60
 -18  -2  10   -2.60   24.00
 -18  -2  10   -5.90   22.90
  16   2 -10  329.17   61.09
  16   2 -10  265.57   58.49
 -16  -2  10  473.45   80.69
 -16  -2  10  388.26   67.99
  14   2 -10   72.49   30.30
 -14  -2  10   57.99   27.30
 -14  -2  10   74.79   38.10
  12   2 -10  271.97   50.59
  12   2 -10  157.28   45.70
  12   2 -10  285.37   54.09
 -12  -2  10  366.46   64.39
 -12  -2  10  331.27   56.49
  10   2 -10 1361.36  106.19
  10   2 -10 1339.57   92.39
 -10  -2  10 1354.56   94.79
 -10  -2  10 1310.27   93.19
 -10  -2  10 1320.77  104.69
   8   2 -10   63.79   22.00
   8   2 -10   98.89   26.70
  -8  -2  10   23.10   17.40
  -8  -2  10   41.30   18.90
  -8  -2  10   31.50   22.50
  -8  -2  10   14.00   18.40
   6   2 -10   23.40   16.10
   6   2 -10   -5.90    9.00
  -6  -2  10   22.10   16.10
  -6  -2  10    7.70   14.60
  -6  -2  10   13.40   21.40
  -6  -2  10   -2.00   11.50
   4   2 -10 1679.03   91.89
   4   2 -10 1703.23   89.89
  -4  -2  10 1558.14  111.49
  -4  -2  10 1591.84  112.59
  -4  -2  10 1548.15   90.39
  -4  -2  10 1499.15   90.29
   2   2 -10    0.40    9.10
   2   2 -10   23.20   13.70
  -2  -2  10    8.10   12.90
  -2  -2  10   19.10   18.40
  -2  -2  10   11.10   13.10
   0   2 -10  194.08   32.50
   0   2 -10  246.28   30.90
   0   2 -10  239.98   53.29
   0  -2  10  233.88   38.40
   0  -2  10  146.99   38.50
   0  -2  10  216.38   35.20
  -2   2 -10 1147.39   73.69
  -2   2 -10 1063.79  113.69
   2  -2  10 1172.28   78.09
  -4   2 -10  169.58   45.60
  -4   2 -10  110.89   27.10
   4  -2  10  139.39   31.30
   4  -2  10  179.48   48.00
  -6   2 -10  488.75   79.89
   6  -2  10  520.85   56.99
  -8   2 -10  204.18   52.69
   8  -2  10  164.38   38.20
  10  -2  10  -38.50   15.20
 -21  -1  10  318.27   78.09
 -19  -1  10   80.49   44.20
 -19  -1  10   97.39   39.10
  17   1 -10   10.90   26.50
 -17  -1  10   17.20   31.10
  15   1 -10 1394.36  112.09
  15   1 -10 1303.87  110.89
 -15  -1  10 1627.34  123.29
 -15  -1  10 1517.05  122.79
  13   1 -10   38.50   22.20
  13   1 -10   78.89   31.20
 -13  -1  10   30.30   24.80
 -13  -1  10   35.10   22.50
  11   1 -10  246.08   52.19
  11   1 -10  219.68   43.70
 -11  -1  10  285.57   57.79
 -11  -1  10  255.47   47.10
 -11  -1  10  187.68   43.40
   9   1 -10 1526.65   97.59
  -9  -1  10 1469.35   96.99
  -9  -1  10 1439.36   97.09
  -9  -1  10 1269.17  100.69
   7   1 -10  -13.90   10.00
   7   1 -10   24.30   16.10
  -7  -1  10   -2.20   15.50
  -7  -1  10   -5.80    8.90
  -7  -1  10   -5.60   11.70
  -7  -1  10   -5.40   10.50
   5   1 -10 1335.17   85.39
   5   1 -10 1313.37   82.09
  -5  -1  10 1369.56  100.39
  -5  -1  10 1197.68   82.39
  -5  -1  10 1317.17   85.09
  -5  -1  10 1208.28   94.69
   3   1 -10  789.32   60.99
   3   1 -10  912.21   63.09
  -3  -1  10  806.42   63.39
  -3  -1  10  772.52   73.99
  -3  -1  10  774.52   62.29
   1   1 -10   54.79   27.00
   1   1 -10   62.59   19.40
   1   1 -10   52.89   19.30
  -1  -1  10   41.50   18.90
  -1  -1  10   44.70   22.80
  -1  -1  10   47.90   19.90
  -1   1 -10 2217.38  145.79
  -1   1 -10 2424.66  120.19
  -1   1 -10 2489.75  121.89
   1  -1  10 2438.26  150.68
   1  -1  10 2538.45  127.09
   1  -1  10 2300.27  122.79
  -3   1 -10   54.99   30.80
   3  -1  10  102.99   37.90
   3  -1  10   52.99   22.40
  -5   1 -10   24.30   17.60
  -5   1 -10  -40.80   22.80
   5  -1  10    5.10   14.10
   5  -1  10    8.90   26.00
  -7   1 -10 1445.16  123.19
   7  -1  10 1400.26  101.99
  -9   1 -10   16.80   20.50
   9  -1  10   49.20   23.10
 -20   0  10  570.54   94.49
 -18   0  10   67.99   41.60
 -18   0  10   34.70   28.80
  16   0 -10 1223.68  105.49
  16   0 -10 1203.38  104.39
 -16   0  10 1249.68  108.49
 -16   0  10 1052.09  104.69
  14   0 -10  366.16   61.19
  14   0 -10  273.77   56.29
 -14   0  10  306.87   62.39
 -14   0  10  416.76   67.39
  12   0 -10   46.50   29.50
  12   0 -10   49.70   25.30
 -12   0  10  117.59   40.00
 -12   0  10   36.40   26.10
 -12   0  10   62.79   27.60
  10   0 -10 2128.79  130.39
  10   0 -10 1801.22  117.69
 -10   0  10 1776.82  117.29
 -10   0  10 2049.20  130.09
 -10   0  10 2014.10  123.19
   8   0 -10  497.25   53.79
   8   0 -10  591.94   59.99
  -8   0  10  450.95   55.89
  -8   0  10  490.45   55.29
  -8   0  10  485.65   58.19
  -8   0  10  559.14   56.69
   6   0 -10  407.16   46.20
  -6   0  10  310.97   48.80
  -6   0  10  260.77   48.30
  -6   0  10  270.47   49.70
  -6   0  10  328.97   42.50
   4   0 -10 3616.84  166.68
   4   0 -10 3409.06  162.58
  -4   0  10 3654.23  183.28
  -4   0  10 3734.23  184.48
  -4   0  10 3516.05  166.18
  -4   0  10 3816.42  170.58
   2   0 -10   98.19   26.40
   2   0 -10   86.79   30.50
   2   0 -10   88.49   24.30
  -2   0  10   93.19   26.10
  -2   0  10   45.00   20.80
  -2   0  10  103.69   32.10
   0   0 -10  754.32   62.19
   0   0 -10  735.43   61.09
   0   0 -10  709.53   72.29
   0   0  10  498.15   66.69
   0   0  10  790.62   64.19
   0   0  10  665.43   61.09
  -2   0 -10 1801.62  124.39
  -2   0 -10 1662.43  101.79
  -2   0 -10 1708.03  102.29
   2   0  10 1602.74  102.59
   2   0  10 1722.33  128.89
   2   0  10 1629.14  103.89
  -4   0 -10  547.55   84.79
  -4   0 -10  522.05   55.49
   4   0  10  693.03   65.39
   4   0  10  529.85   80.99
  -6   0 -10  207.98   51.59
   6   0  10  223.98   44.50
  -8   0 -10  464.15   82.29
   8   0  10  376.86   63.29
 -10   0 -10   72.19   37.20
  10   0  10   37.70   26.90
 -21   1  10  379.96   78.49
 -19   1  10   79.09   38.70
  17  -1 -10   33.30   26.40
  17  -1 -10    5.40   19.10
 -17   1  10  -55.99   21.00
 -17   1  10   40.50   32.60
  15  -1 -10 1333.27  107.79
  15  -1 -10 1372.56  114.39
 -15   1  10 1549.74  117.89
 -15   1  10 1325.37  114.69
  13  -1 -10   46.00   28.10
  13  -1 -10   86.19   32.20
  13  -1 -10   67.19   26.70
 -13   1  10    9.70   27.60
 -13   1  10   46.70   30.00
  11  -1 -10  285.67   53.39
  11  -1 -10  187.78   41.40
 -11   1  10  231.98   47.90
 -11   1  10  159.78   40.00
 -11   1  10  335.77   55.49
   9  -1 -10 1299.97   96.39
   9  -1 -10 1311.17   97.69
  -9   1  10 1444.16  100.79
  -9   1  10 1453.95  103.69
  -9   1  10 1512.25  102.19
  -9   1  10 1325.67   97.69
   7  -1 -10    3.10   12.30
  -7   1  10   18.10   21.70
  -7   1  10   -2.80   17.20
  -7   1  10   13.60   12.70
   5  -1 -10 1414.46   91.99
   5  -1 -10 1427.96   94.39
  -5   1  10 1431.16   99.99
  -5   1  10 1334.97   98.69
  -5   1  10 1499.35   96.29
  -5   1  10 1290.67   90.99
   3  -1 -10  700.23   62.49
  -3   1  10  837.72   74.29
  -3   1  10  791.82   66.99
  -3   1  10  703.33   64.59
   1  -1 -10   61.49   25.50
   1  -1 -10   40.20   18.30
   1  -1 -10   57.09   23.70
  -1   1  10   37.20   18.80
  -1   1  10   91.39   30.50
  -1   1  10   75.39   25.10
  -1  -1 -10 2594.84  133.99
  -1  -1 -10 2426.56  131.69
  -1  -1 -10 2495.55  150.98
   1   1  10 2306.17  145.69
   1   1  10 2255.67  130.19
   1   1  10 2449.85  133.69
  -3  -1 -10  133.49   34.00
  -3  -1 -10  142.19   40.90
   3   1  10   90.09   33.20
  -5  -1 -10   -9.10   10.70
  -5  -1 -10   -8.20   21.70
   5   1  10   16.30   33.10
   5   1  10    2.10   16.50
  -7  -1 -10 1367.86  117.89
   7   1  10 1034.80   91.19
  -9  -1 -10    6.30   27.70
   9   1  10   27.90   29.20
 -20   2  10  334.47   66.89
  18  -2 -10   38.80   21.40
 -18   2  10  -27.30   26.60
  16  -2 -10  311.87   64.69
 -16   2  10  509.15   81.19
 -16   2  10  388.46   66.49
  14  -2 -10   83.79   34.80
  14  -2 -10  121.89   34.90
  14  -2 -10   64.69   29.30
 -14   2  10  127.09   37.60
 -14   2  10   47.80   28.00
  12  -2 -10  251.17   52.69
  12  -2 -10  290.37   57.29
  12  -2 -10  274.47   49.90
 -12   2  10  293.57   51.79
 -12   2  10  212.38   46.90
 -12   2  10  247.58   50.99
  10  -2 -10 1490.25  106.49
  10  -2 -10 1356.66   99.99
 -10   2  10 1415.26  104.79
 -10   2  10 1289.67   95.79
 -10   2  10 1298.87   97.29
 -10   2  10 1178.68   96.69
   8  -2 -10   50.29   24.00
   8  -2 -10   60.39   22.00
  -8   2  10   42.50   22.60
  -8   2  10   37.80   22.90
  -8   2  10   45.30   20.90
  -8   2  10   20.70   17.30
   6  -2 -10   21.80   18.20
   6  -2 -10   21.30   14.90
  -6   2  10    5.10   13.20
  -6   2  10   88.49   28.80
  -6   2  10    8.90   12.30
  -6   2  10   35.70   20.90
   4  -2 -10 1627.24  104.59
  -4   2  10 1655.23  108.29
  -4   2  10 1751.92  108.69
  -4   2  10 1611.14  106.59
   2  -2 -10   -7.30   11.10
   2  -2 -10    9.50   13.50
   2  -2 -10   16.10   14.30
  -2   2  10   -5.70   14.60
  -2   2  10    7.40   14.50
  -2   2  10   16.60   13.50
   0  -2 -10  242.88   43.50
   0  -2 -10  202.08   41.10
   0  -2 -10  183.18   43.50
   0   2  10  220.08   44.00
   0   2  10  194.28   45.30
   0   2  10  265.67   48.80
  -2  -2 -10  995.70   82.89
  -2  -2 -10 1074.19   93.79
   2   2  10 1316.47  102.49
   2   2  10 1023.70   85.49
  -4  -2 -10  182.28   40.60
  -4  -2 -10  178.48   51.69
   4   2  10  169.28   40.30
   4   2  10  125.89   41.40
  -6  -2 -10  389.06   70.49
   6   2  10  421.26   66.39
  -8  -2 -10  188.08   53.59
   8   2  10  149.69   44.10
 -10  -2 -10   30.60   27.10
  10   2  10  -41.40   25.80
 -19   3  10   58.39   35.90
  15  -3 -10  476.55   78.99
  15  -3 -10  481.95   60.99
 -15   3  10  547.35   84.59
 -15   3  10  496.95   64.49
  13  -3 -10   25.40   23.90
  13  -3 -10   -4.00   25.30
  13  -3 -10   12.80   17.70
 -13   3  10    6.80   25.70
 -13   3  10  -15.90    9.90
 -13   3  10    1.60   21.00
  11  -3 -10  990.80   89.19
  11  -3 -10 1013.30   91.89
 -11   3  10  908.21   86.69
 -11   3  10 1023.70   91.79
 -11   3  10  828.52   77.19
   9  -3 -10  612.04   64.19
   9  -3 -10  778.82   78.89
  -9   3  10  757.82   70.79
  -9   3  10  705.43   66.99
  -9   3  10  743.73   73.59
  -9   3  10  698.33   71.59
   7  -3 -10    8.60   12.50
   7  -3 -10   24.80   19.80
  -7   3  10   -1.20   17.40
  -7   3  10   27.90   19.40
  -7   3  10  -13.60   12.80
  -7   3  10   18.20   17.50
   5  -3 -10   20.40   14.10
   5  -3 -10   13.60   15.90
  -5   3  10   20.70   20.10
  -5   3  10   19.40   17.90
  -5   3  10   45.00   24.50
  -5   3  10   74.59   26.30
   3  -3 -10  375.36   59.49
   3  -3 -10  311.77   52.39
   3  -3 -10  243.08   47.80
  -3   3  10  269.07   48.80
  -3   3  10  341.97   57.49
  -3   3  10  302.47   52.99
   1  -3 -10   39.60   23.00
   1  -3 -10   27.40   15.90
   1  -3 -10   28.40   19.80
  -1   3  10   29.80   21.70
  -1   3  10   29.90   20.50
  -1   3  10   43.50   23.00
  -1  -3 -10  732.13   72.39
  -1  -3 -10  645.64   72.29
  -1  -3 -10  666.93   97.79
   1   3  10  743.23   72.59
   1   3  10  678.13   74.69
  -3  -3 -10  547.25   68.89
   3   3  10  694.13   70.49
   3   3  10  505.45   66.69
  -5  -3 -10  220.78   52.69
  -5  -3 -10  195.28   45.70
   5   3  10  154.68   48.90
   5   3  10  143.79   41.40
  -7  -3 -10  332.37   69.09
   7   3  10  427.76   72.99
  -9  -3 -10   19.30   28.80
   9   3  10   42.20   31.30
 -16   4  10   30.10   27.50
  14  -4 -10  121.69   41.50
  14  -4 -10   78.29   36.70
  14  -4 -10   74.09   28.50
 -14   4  10   83.79   38.80
 -14   4  10   97.49   35.70
  12  -4 -10   33.00   25.50
  12  -4 -10   -0.30   18.00
 -12   4  10  -20.10   16.90
 -12   4  10   18.50   23.70
 -12   4  10   29.10   28.30
  10  -4 -10  195.78   47.80
  10  -4 -10  199.68   46.80
 -10   4  10  202.18   47.50
 -10   4  10  123.69   33.80
 -10   4  10  110.29   31.80
 -10   4  10  119.49   42.50
   8  -4 -10  183.78   45.90
   8  -4 -10  127.19   36.20
  -8   4  10  202.08   46.20
  -8   4  10  257.77   47.50
  -8   4  10  170.18   41.50
  -8   4  10  218.78   43.50
   6  -4 -10  100.49   29.90
   6  -4 -10   74.39   26.50
  -6   4  10   61.39   26.40
  -6   4  10   62.89   27.90
  -6   4  10  106.09   32.30
  -6   4  10   38.80   22.20
   4  -4 -10  790.72   74.89
   4  -4 -10  497.35   57.59
  -4   4  10  666.53   64.19
  -4   4  10  607.04   64.39
  -4   4  10  494.45   59.49
   2  -4 -10  268.77   49.40
   2  -4 -10  177.38   41.80
   2  -4 -10  206.28   43.40
  -2   4  10  253.67   48.40
  -2   4  10  159.88   40.70
  -2   4  10  216.98   46.10
   0  -4 -10  152.98   40.50
   0  -4 -10  238.08   46.70
   0  -4 -10  196.78   46.10
   0   4  10  267.57   49.99
   0   4  10  264.17   51.69
   0   4  10  191.58   45.10
  -2  -4 -10  125.79   39.50
  -2  -4 -10  128.59   39.10
   2   4  10  193.58   46.30
   2   4  10  211.68   47.00
  -4  -4 -10  -41.40   21.30
  -4  -4 -10  -10.10   20.70
   4   4  10   14.30   23.40
  -6  -4 -10   86.39   38.00
  -6  -4 -10   81.29   38.70
   6   4  10   58.49   29.50
  -8  -4 -10   16.60   29.00
   8   4  10  -11.70   19.70
 -10  -4 -10   82.19   33.50
  10   4  10   55.99   37.60
  15  -5 -10  -81.89   34.90
 -15   5  10   24.70   26.80
  13  -5 -10  524.05   68.29
  13  -5 -10  455.35   75.69
 -13   5  10  437.96   74.69
 -13   5  10  407.26   52.59
  11  -5 -10  679.13   77.99
  11  -5 -10  790.02   80.69
 -11   5  10  713.33   64.19
 -11   5  10  610.24   63.39
 -11   5  10  687.23   77.59
 -11   5  10  659.63   75.99
   9  -5 -10   65.09   33.30
   9  -5 -10  138.69   38.70
  -9   5  10  126.89   32.90
  -9   5  10  143.09   42.10
  -9   5  10  163.08   36.70
  -9   5  10   91.59   35.00
   7  -5 -10  937.41   87.79
   7  -5 -10  935.11   85.89
  -7   5  10  880.21   72.59
  -7   5  10  996.40   87.49
  -7   5  10  952.00   74.99
  -7   5  10  803.52   79.09
   5  -5 -10    7.00   16.90
   5  -5 -10   16.80   19.50
  -5   5  10    6.70   17.70
  -5   5  10  -15.20   18.90
  -5   5  10  -15.30    9.80
   3  -5 -10   12.10   12.90
   3  -5 -10   -1.00   16.50
   3  -5 -10    2.40   14.70
  -3   5  10   12.60   21.90
  -3   5  10   -4.60   12.30
  -3   5  10   -0.60   20.20
   1  -5 -10  272.27   50.59
   1  -5 -10  182.98   41.60
   1  -5 -10  252.17   48.80
  -1   5  10  290.47   53.99
  -1   5  10  257.27   52.09
  -1   5  10  275.27   54.49
  -1  -5 -10   52.49   23.40
  -1  -5 -10  101.39   32.80
   1   5  10   36.10   26.20
   1   5  10    2.40   17.10
  -3  -5 -10  472.35   85.89
  -3  -5 -10  324.77   60.79
   3   5  10  235.08   57.89
   3   5  10  343.27   61.59
  -5  -5 -10  152.68   42.00
  -5  -5 -10  189.38   49.30
   5   5  10  179.18   48.80
  -7  -5 -10  -25.10   20.10
   7   5  10  -36.10   22.30
  -9  -5 -10   99.19   53.99
   9   5  10  128.09   52.09
  14  -6 -10  171.18   51.19
  12  -6 -10 1475.65  120.39
 -12   6  10 1269.07  112.79
 -12   6  10 1297.67   90.79
 -12   6  10 1512.45  120.49
  10  -6 -10  -10.00   14.50
  10  -6 -10   77.69   31.10
 -10   6  10   29.90   24.00
 -10   6  10   41.40   22.40
 -10   6  10   68.99   33.70
 -10   6  10   31.30   23.30
   8  -6 -10  800.52   83.59
   8  -6 -10  750.02   77.29
  -8   6  10  684.83   78.59
  -8   6  10  691.03   61.79
  -8   6  10  727.63   64.39
  -8   6  10  664.43   78.19
   6  -6 -10  655.53   75.49
   6  -6 -10  792.22   77.89
  -6   6  10  841.22   82.89
  -6   6  10  679.93   63.19
  -6   6  10  853.91   70.79
  -6   6  10  604.14   73.79
   4  -6 -10   41.70   26.70
   4  -6 -10  -41.00   17.50
  -4   6  10   17.10   20.40
  -4   6  10   35.60   27.50
  -4   6  10   17.70   20.50
   2  -6 -10  631.64   69.89
   2  -6 -10  689.23   76.19
   2  -6 -10  645.24   65.79
  -2   6  10  726.53   74.59
  -2   6  10  844.72   83.89
  -2   6  10  675.43   67.89
   0  -6 -10  243.18   50.99
   0  -6 -10  251.97   48.60
   0  -6 -10  296.47   57.69
   0   6  10  266.47   54.09
   0   6  10  314.07   55.99
  -2  -6 -10   22.30   23.70
  -2  -6 -10   37.70   22.80
   2   6  10   -4.00   16.20
  -4  -6 -10  770.52   84.29
  -4  -6 -10  900.71   88.89
   4   6  10 1032.90  102.49
   4   6  10  731.63   86.99
  -6  -6 -10   19.00   21.40
  -6  -6 -10   16.00   20.30
   6   6  10  -27.40   19.60
  -8  -6 -10   24.70   23.00
   8   6  10   41.00   38.10
  15  -7 -10   58.19   66.29
  13  -7 -10  985.70  100.39
  11  -7 -10  181.28   50.59
 -11   7  10  197.78   51.89
 -11   7  10  259.77   62.69
   9  -7 -10   52.19   31.40
   9  -7 -10   26.90   20.90
  -9   7  10   79.29   33.40
  -9   7  10   -1.40   24.80
  -9   7  10   24.60   20.40
   7  -7 -10 1064.29   97.79
   7  -7 -10 1076.59   97.89
  -7   7  10 1271.77   84.19
  -7   7  10 1239.18   83.79
  -7   7  10 1282.77  105.89
  -7   7  10 1295.07  108.19
   5  -7 -10   -2.90   15.70
   5  -7 -10    2.10   17.30
  -5   7  10  -28.70   13.60
  -5   7  10   13.60   18.10
  -5   7  10   48.10   23.80
   3  -7 -10  159.58   36.40
   3  -7 -10  247.88   54.29
   3  -7 -10  191.98   44.80
  -3   7  10  190.08   49.20
  -3   7  10  135.09   37.70
  -3   7  10  213.38   49.60
   1  -7 -10 1713.53  126.39
   1  -7 -10 1863.41  117.69
   1  -7 -10 1884.41  132.19
  -1   7  10 1689.83  114.39
  -1   7  10 1599.14  123.59
  -1  -7 -10   31.60   17.10
  -1  -7 -10   46.10   26.10
   1   7  10   29.20   23.70
   1   7  10   72.49   32.40
  -3  -7 -10  459.05   73.59
  -3  -7 -10  395.56   79.99
   3   7  10  435.36   74.89
   3   7  10  379.16   70.19
  -5  -7 -10  633.44   75.89
  -5  -7 -10  607.54  119.59
   5   7  10  740.73   83.69
  -7  -7 -10  -13.90   18.20
   7   7  10   23.10   33.10
  14  -8 -10   70.69   35.30
  12  -8 -10 1190.08  112.89
  10  -8 -10  135.99   45.00
 -10   8  10  146.19   45.50
   8  -8 -10  452.85   78.49
  -8   8  10  412.66   71.49
  -8   8  10  237.98   52.79
   6  -8 -10  742.43   84.79
   6  -8 -10  621.44   77.29
  -6   8  10  716.63   80.49
  -6   8  10  715.13   63.69
  -6   8  10  836.42   88.09
   4  -8 -10   97.19   34.20
   4  -8 -10   59.99   28.20
  -4   8  10  149.79   41.50
  -4   8  10   59.59   34.50
  -4   8  10  129.49   40.80
   2  -8 -10 1684.03  128.79
   2  -8 -10 1515.65  120.79
   2  -8 -10 1715.93  108.99
  -2   8  10 1530.55  106.99
  -2   8  10 1803.52  131.99
   0  -8 -10  226.38   47.30
   0  -8 -10  158.88   45.10
   0   8  10  181.08   49.70
   0   8  10  215.48   49.20
  -2  -8 -10  102.59   34.50
   2   8  10   70.29   35.00
   2   8  10   51.59   29.40
  -4  -8 -10 1209.68  105.99
   4   8  10 1419.06  125.49
  -6  -8 -10    9.40   27.20
  13  -9 -10  588.04   98.09
  11  -9 -10  162.08   47.50
   9  -9 -10   54.09   29.80
  -9   9  10    9.70   30.50
   7  -9 -10 1281.97  113.29
  -7   9  10 1032.70  102.19
   5  -9 -10   69.09   40.30
   3  -9 -10  205.58   52.59
   1  -9 -10 1039.30   83.69
  -1  -9 -10   61.49   30.50
  -3  -9 -10  199.48   49.10
  -5  -9 -10  670.43   79.79
  14 -10 -10   84.29   50.79
  12 -10 -10  578.84   94.29
   8 -10 -10  429.36   77.09
   4 -10 -10   28.50   27.40
  13 -11 -10  141.99   55.99
  11 -11 -10   59.69   45.80
   9 -11 -10   83.99   43.50
   7 -11 -10  669.63  101.49
   5 -11 -10  116.19   44.40
  10 -12 -10   80.29   49.60
   8 -12 -10   24.20   33.10
   6 -12 -10   47.90   56.49
 -10 -12  11  230.48   75.69
  -8 -12  11  147.59   52.89
  -6 -12  11   55.99   45.90
  -4 -12  11  244.68   60.59
  -2 -12  11   61.19   33.30
 -11 -11  11    0.80   29.50
 -11 -11  11  -31.10   18.90
  -9 -11  11   85.59   42.40
  -9 -11  11   20.10   17.60
  -7 -11  11  307.07   71.79
  -7 -11  11  349.07   30.20
  -5 -11  11  276.97   66.19
  -3 -11  11   -8.20   24.00
  -1 -11  11  128.99   50.59
   1 -11  11  259.67   64.19
 -14 -10  11   19.80   24.20
 -14 -10  11   34.40   40.60
 -12 -10  11   54.09   41.30
 -10 -10  11  115.19   29.30
 -10 -10  11  251.67   67.39
  -8 -10  11   20.60   14.50
  -8 -10  11   28.80   26.60
  -6 -10  11   39.10   10.60
  -6 -10  11   87.29   39.50
  -4 -10  11   76.99   40.50
  -2 -10  11  354.36   69.69
   0 -10  11   39.60   34.70
   2 -10  11  127.39   47.60
 -15  -9  11   -3.50   17.10
 -15  -9  11    0.50   24.20
 -13  -9  11   61.59   38.50
 -13  -9  11   36.60   26.10
 -11  -9  11   11.70   34.00
 -11  -9  11   20.10   17.90
  -9  -9  11   15.50   16.50
  -9  -9  11   10.10   21.30
  -7  -9  11   45.40   17.20
  -7  -9  11   43.20   31.30
  -5  -9  11   69.79   10.80
  -5  -9  11   50.79   34.60
  -3  -9  11    3.50   14.50
  -1  -9  11  -15.50   11.70
   1  -9  11  212.48   51.19
   3  -9  11   35.70   27.30
 -16  -8  11   10.70   25.80
 -16  -8  11   37.40   34.40
 -14  -8  11   65.69   39.70
 -14  -8  11  -16.40   20.20
 -12  -8  11   14.80   19.10
 -10  -8  11   30.60   24.50
   8   8 -11    6.00   10.20
  -8  -8  11   23.00   15.40
  -8  -8  11   75.59   34.10
  -6  -8  11   21.30   20.90
  -6  -8  11    6.70   10.20
  -6  -8  11  -58.59   22.00
  -6  -8  11   48.90   13.70
  -4  -8  11   15.20   19.30
  -4  -8  11    4.80   15.10
  -4  -8  11    3.60    5.00
  -4  -8  11    4.10    5.40
  -2  -8  11   52.69   26.50
  -2  -8  11  123.69   41.00
   0  -8  11   -8.60   21.60
   2  -8  11   -2.80   23.90
   6  -8  11    4.30   14.40
 -17  -7  11  -35.10   17.60
 -17  -7  11   23.10   25.10
 -15  -7  11  109.49   48.90
 -15  -7  11  140.19   37.00
 -13  -7  11   29.00   28.10
 -13  -7  11   40.80   23.00
 -11  -7  11   94.69   43.00
 -11  -7  11   72.19   26.60
   9   7 -11   -4.00   10.50
  -9  -7  11  -11.90   15.50
  -9  -7  11   12.90   11.90
   7   7 -11  124.09   18.90
   7   7 -11   67.89   15.10
  -7  -7  11  105.19   24.20
  -7  -7  11   80.99   22.00
  -7  -7  11   97.69   39.30
  -7  -7  11   68.69   29.50
  -5  -7  11  103.59   41.70
  -5  -7  11  163.08   25.20
  -5  -7  11  110.39   21.70
  -5  -7  11  120.49   37.10
  -3  -7  11    9.20    7.00
  -3  -7  11   18.40    7.90
  -3  -7  11   -9.90   20.00
  -3  -7  11   -2.10   15.10
  -1  -7  11  188.78   12.10
  -1  -7  11  176.38   13.70
  -1  -7  11  196.38   48.30
  -1  -7  11  252.67   58.09
   1  -7  11   59.79    9.10
   1  -7  11   59.09   33.90
   3  -7  11   16.80    9.00
  -5   7 -11   51.49   35.70
   5  -7  11   20.10   12.30
  -7   7 -11   48.10   38.00
   7  -7  11   -4.70   15.30
 -18  -6  11  130.69   49.40
 -18  -6  11  138.09   50.99
 -16  -6  11  102.89   37.10
 -16  -6  11   45.60   42.40
 -14  -6  11  -22.20   17.00
 -14  -6  11    8.20   23.20
 -12  -6  11  624.24   82.29
 -12  -6  11  559.84   63.29
  10   6 -11   21.40   18.40
 -10  -6  11   -6.10   15.20
 -10  -6  11   30.00   24.70
   8   6 -11  288.87   33.90
  -8  -6  11  323.07   64.69
  -8  -6  11  345.37   64.89
  -8  -6  11  438.66   44.30
   6   6 -11   34.10   13.20
   6   6 -11   41.10   14.20
  -6  -6  11   80.19   22.80
  -6  -6  11   43.30   27.20
  -6  -6  11   61.69   33.70
  -6  -6  11   69.89   20.20
  -4  -6  11  717.73   48.50
  -4  -6  11  657.43   76.69
  -4  -6  11  694.73   48.00
  -4  -6  11  739.03   80.19
  -2  -6  11  268.37   24.20
  -2  -6  11  214.78   53.79
  -2  -6  11  199.58   22.80
  -2  -6  11  227.38   53.49
   0  -6  11    9.70    7.00
   0  -6  11   -0.50    8.30
   0  -6  11  -53.69   20.10
   0  -6  11    4.30   20.80
   2  -6  11  202.48   25.20
   2  -6  11  210.28   24.30
  -4   6 -11  398.56   77.89
  -6   6 -11   67.99   36.50
   6  -6  11   45.50   19.60
 -19  -5  11  131.59   49.40
 -19  -5  11  155.58   59.59
 -17  -5  11   21.40   28.50
 -17  -5  11   51.69   30.50
 -15  -5  11  286.27   59.29
 -15  -5  11  413.36   78.79
 -13  -5  11  471.75   59.99
 -13  -5  11  506.05   83.89
  11   5 -11   82.99   35.80
  11   5 -11  191.18   38.60
 -11  -5  11  146.89   45.00
 -11  -5  11  148.89   36.20
   9   5 -11  105.99   26.50
  -9  -5  11  145.09   42.60
  -9  -5  11  123.09   30.20
   7   5 -11  375.46   38.90
   7   5 -11  439.76   39.80
  -7  -5  11  367.36   64.69
  -7  -5  11  311.77   62.89
  -7  -5  11  407.26   43.20
  -7  -5  11  377.36   42.80
   5   5 -11  328.17   30.10
   5   5 -11  327.77   29.50
  -5  -5  11  399.06   40.40
  -5  -5  11  388.46   38.70
  -5  -5  11  372.36   68.89
  -5  -5  11  405.56   69.49
   3   5 -11    9.30    5.90
   3   5 -11    0.50    6.90
  -3  -5  11    2.20   14.90
  -3  -5  11   52.99   31.50
  -3  -5  11   -4.00   10.70
  -3  -5  11   -7.30    8.50
  -1  -5  11  872.71   89.09
  -1  -5  11  854.11   85.19
  -1  -5  11  845.32   53.09
  -1  -5  11  755.62   52.59
   1  -5  11  124.79   40.80
   1  -5  11  229.28   28.60
   1  -5  11  201.98   25.90
  -3   5 -11   -3.70   25.30
   3  -5  11  128.69   26.00
  -5   5 -11   73.39   39.50
   5  -5  11   82.39   23.60
  -7   5 -11  184.38   59.59
 -20  -4  11  -36.90   22.90
 -18  -4  11  368.46   72.99
 -18  -4  11  322.97   71.69
 -16  -4  11  348.37   74.69
 -16  -4  11  383.56   70.09
  14   4 -11   55.99   29.40
 -14  -4  11   13.40   19.50
 -14  -4  11   -7.90   18.00
  12   4 -11  457.85   78.69
  12   4 -11  326.37   52.89
 -12  -4  11  429.16   73.69
 -12  -4  11  387.06   61.49
  10   4 -11  787.72   68.49
 -10  -4  11  830.62   72.59
 -10  -4  11  765.92   84.09
   8   4 -11   57.19   25.20
   8   4 -11  117.69   30.40
  -8  -4  11  115.39   29.40
  -8  -4  11   68.69   34.90
   6   4 -11  162.38   28.30
  -6  -4  11  154.98   31.90
  -6  -4  11   84.39   45.20
  -6  -4  11  222.78   40.50
  -6  -4  11  134.79   42.30
   4   4 -11 1184.28   64.49
  -4  -4  11 1092.99  105.79
  -4  -4  11 1097.19   73.99
  -4  -4  11 1368.76  166.68
   2   4 -11  647.84   41.00
   2   4 -11  588.34   41.80
  -2  -4  11  619.14   51.09
  -2  -4  11  574.74   72.69
  -2  -4  11  547.05   67.39
  -2  -4  11  645.74   49.30
   0   4 -11   -7.50    8.50
   0   4 -11   -3.70    7.60
   0  -4  11  -14.60   21.10
   0  -4  11    4.70   10.60
   0  -4  11   -6.10   10.80
  -2   4 -11  559.44   72.59
   2  -4  11  485.45   78.89
   2  -4  11  493.15   46.60
  -4   4 -11  170.58   53.89
   4  -4  11  299.17   43.20
  -6   4 -11  296.27   64.69
   6  -4  11  337.07   50.39
  -8   4 -11   36.10   44.50
   8  -4  11  -21.30   16.90
 -19  -3  11   57.39   34.90
 -19  -3  11  124.79   46.30
 -17  -3  11   41.90   34.80
 -17  -3  11   57.19   41.80
  15   3 -11  335.47   60.49
 -15  -3  11  345.27   68.19
 -15  -3  11  356.66   63.19
  13   3 -11  179.38   41.60
  13   3 -11  100.09   41.20
 -13  -3  11  147.19   41.30
 -13  -3  11  123.89   40.30
  11   3 -11   93.19   36.70
  11   3 -11   71.69   29.20
 -11  -3  11  129.09   43.10
 -11  -3  11   89.89   39.30
   9   3 -11  254.57   49.90
  -9  -3  11  346.57   61.99
  -9  -3  11  303.97   49.99
  -9  -3  11  424.76   49.60
  -9  -3  11  316.17   59.99
   7   3 -11  503.65   49.90
  -7  -3  11  552.74   70.09
  -7  -3  11  581.84   55.69
  -7  -3  11  495.65   61.89
  -7  -3  11  613.04   55.89
   5   3 -11  176.58   31.60
   5   3 -11  233.68   35.30
  -5  -3  11  183.98   45.50
  -5  -3  11  107.99   39.70
  -5  -3  11  108.79   27.30
  -5  -3  11  268.07   40.50
   3   3 -11   19.40   11.80
   3   3 -11    4.70   13.20
  -3  -3  11   29.00   17.30
  -3  -3  11   15.60   23.80
  -3  -3  11   21.90   21.60
  -3  -3  11   16.30   14.40
   1   3 -11  855.51   58.29
  -1  -3  11  819.42   62.69
  -1  -3  11  811.12   60.49
  -1  -3  11  859.41   83.89
  -1   3 -11  502.45   51.49
  -1   3 -11  454.45   74.99
  -1   3 -11  607.54   46.40
   1  -3  11  438.16   46.80
   1  -3  11  544.15   70.99
  -3   3 -11   65.29   23.90
  -3   3 -11   52.09   32.50
   3  -3  11   95.79   26.70
  -5   3 -11    3.10   27.10
   5  -3  11   28.00   17.00
  -7   3 -11  547.25   93.39
   7  -3  11  454.45   55.59
  -9   3 -11  442.36   84.49
   9  -3  11  311.57   56.89
 -20  -2  11   95.09   49.80
 -20  -2  11   73.39   39.90
 -18  -2  11  237.68   62.99
 -18  -2  11  435.56   80.59
  16   2 -11  126.79   35.40
 -16  -2  11  182.68   46.50
 -16  -2  11  154.88   51.49
  14   2 -11    3.80   20.50
  14   2 -11  -28.10   17.50
 -14  -2  11   14.10   25.70
 -14  -2  11    5.80   23.20
  12   2 -11  413.96   53.69
  12   2 -11  348.97   63.79
 -12  -2  11  394.66   73.29
 -12  -2  11  338.97   58.79
  10   2 -11  303.87   48.40
 -10  -2  11  256.97   48.40
 -10  -2  11  198.18   50.39
   8   2 -11   32.40   20.60
   8   2 -11   -9.30   12.50
  -8  -2  11   22.50   25.80
  -8  -2  11   17.50   16.20
  -8  -2  11   55.49   23.00
  -8  -2  11   92.79   33.00
   6   2 -11   34.60   20.90
  -6  -2  11   29.90   21.90
  -6  -2  11   81.19   34.10
  -6  -2  11  142.39   32.90
  -6  -2  11   98.19   27.40
   4   2 -11  311.47   37.30
   4   2 -11  346.97   40.10
  -4  -2  11  336.67   60.59
  -4  -2  11  338.47   60.19
  -4  -2  11  434.26   47.30
  -4  -2  11  349.07   41.60
   2   2 -11  165.38   29.70
   2   2 -11  233.28   36.60
  -2  -2  11  273.07   52.49
  -2  -2  11  283.97   42.30
  -2  -2  11  239.28   40.40
   0   2 -11   -7.90   15.10
   0   2 -11   -4.30    9.50
   0   2 -11   -9.70   13.20
   0  -2  11  -15.80   12.80
   0  -2  11   -4.00   10.50
   0  -2  11    3.50   16.20
  -2   2 -11  215.28   34.60
  -2   2 -11  309.47   64.59
   2  -2  11  235.68   41.50
   2  -2  11  171.78   46.40
  -4   2 -11  155.78   47.00
   4  -2  11  153.08   36.80
  -6   2 -11   96.39   37.30
   6  -2  11   68.99   26.30
  -8   2 -11   -0.70   17.20
 -19  -1  11   22.20   38.70
 -19  -1  11  110.09   44.80
  17   1 -11   41.40   29.50
 -17  -1  11   10.00   31.30
 -17  -1  11  112.49   41.70
  15   1 -11   29.00   26.30
  15   1 -11   21.10   27.20
 -15  -1  11   46.90   35.60
 -15  -1  11   33.70   25.20
  13   1 -11   -4.20   19.80
 -13  -1  11    8.10   16.20
 -13  -1  11   30.10   26.90
  11   1 -11  -21.30   11.50
 -11  -1  11    6.10   12.40
 -11  -1  11   17.10   26.40
   9   1 -11   48.70   23.80
   9   1 -11  102.19   27.70
  -9  -1  11   69.29   27.50
  -9  -1  11   73.49   25.90
  -9  -1  11   36.80   27.20
  -9  -1  11   64.69   30.70
   7   1 -11  136.39   33.20
   7   1 -11  168.28   35.30
  -7  -1  11  145.09   33.70
  -7  -1  11  136.69   38.20
  -7  -1  11  133.89   38.70
  -7  -1  11  100.59   31.30
   5   1 -11   54.89   20.60
   5   1 -11  106.69   27.80
  -5  -1  11   91.19   27.10
  -5  -1  11   95.69   32.40
  -5  -1  11   34.10   24.30
  -5  -1  11   45.10   20.60
   3   1 -11   13.50   14.60
   3   1 -11   34.10   20.30
  -3  -1  11   39.80   27.00
  -3  -1  11   -6.90   12.40
  -3  -1  11   -6.70    8.30
   1   1 -11  148.89   44.40
   1   1 -11  147.69   32.20
   1   1 -11  120.29   28.80
  -1  -1  11  127.29   31.20
  -1  -1  11   68.39   22.20
  -1  -1  11  210.18   52.89
  -1   1 -11  355.26   66.09
  -1   1 -11  213.68   38.30
   1  -1  11  365.76   45.30
   1  -1  11  313.47   61.09
  -3   1 -11  -11.10   14.80
  -3   1 -11   28.40   16.10
   3  -1  11    5.60   15.80
   3  -1  11   64.49   29.80
  -5   1 -11    8.60   19.80
   5  -1  11   33.70   24.90
  -7   1 -11  100.09   50.19
   7  -1  11  129.39   36.90
  -9   1 -11  -37.10   32.50
   9  -1  11   87.19   31.00
  18   0 -11   -0.90   15.50
 -18   0  11   25.60   25.50
 -18   0  11   23.90   25.80
  16   0 -11   13.00   25.00
  16   0 -11   22.00   19.00
 -16   0  11   20.80   24.80
  14   0 -11   69.59   30.10
 -14   0  11  -12.40   14.30
 -14   0  11   25.30   23.50
  12   0 -11   27.60   19.50
 -12   0  11    0.00   15.30
 -12   0  11   26.30   22.80
  10   0 -11   -8.70   15.00
 -10   0  11    6.50   21.00
 -10   0  11  -17.80   12.30
 -10   0  11    1.10   14.00
 -10   0  11   14.00   16.70
   8   0 -11   38.90   19.70
  -8   0  11   17.90   20.40
  -8   0  11    9.00   15.20
  -8   0  11   73.59   29.70
  -8   0  11   38.20   22.20
   6   0 -11   -3.20    9.60
   6   0 -11    2.00   11.70
  -6   0  11  -10.30   11.30
  -6   0  11   29.30   18.80
  -6   0  11    4.30   11.20
   4   0 -11  -14.50    9.20
   4   0 -11   23.60   16.50
  -4   0  11   20.10   13.40
  -4   0  11   18.00   16.10
  -4   0  11   -7.20   13.60
  -4   0  11  -19.90   10.10
   2   0 -11   -6.00   12.30
   2   0 -11   -1.50   10.40
   2   0 -11  -14.50   21.90
  -2   0  11   -7.00   13.70
  -2   0  11   21.30   16.80
   0   0 -11    5.70   27.10
   0   0 -11  -18.30   10.60
   0   0  11   70.39   37.20
  -2   0 -11    7.60   20.00
  -2   0 -11    0.70   17.20
   2   0  11  -16.60   12.50
   2   0  11   18.80   16.70
  -4   0 -11   -9.40   16.90
   4   0  11   31.70   15.80
   6   0  11    3.10   16.90
  -8   0 -11   18.50   21.40
   8   0  11   42.80   23.70
 -19   1  11  105.89   49.40
  17  -1 -11   29.90   30.30
  17  -1 -11  106.39   42.40
 -17   1  11   61.19   47.50
 -17   1  11  124.69   41.10
  15  -1 -11   15.20   17.20
  15  -1 -11   50.29   33.10
 -15   1  11   29.70   22.70
 -15   1  11    3.70   19.30
  13  -1 -11   16.00   17.40
  13  -1 -11    8.80   15.90
 -13   1  11   -9.30   19.90
 -13   1  11    8.10   21.00
  11  -1 -11   55.39   28.40
  11  -1 -11   52.79   22.30
 -11   1  11   14.70   22.20
 -11   1  11    2.90   21.50
   9  -1 -11  133.09   34.30
   9  -1 -11   35.40   28.90
  -9   1  11  107.39   33.50
  -9   1  11   95.49   36.60
  -9   1  11   65.89   26.70
  -9   1  11   98.19   30.90
   7  -1 -11  143.69   35.50
   7  -1 -11   76.79   28.30
  -7   1  11  102.69   30.00
  -7   1  11  125.89   33.40
  -7   1  11  128.09   34.90
  -7   1  11   81.39   32.20
   5  -1 -11   70.99   25.30
  -5   1  11  102.49   30.30
  -5   1  11  104.99   35.40
  -5   1  11  136.59   38.80
  -5   1  11   68.39   25.90
   3  -1 -11   -2.80   13.80
  -3   1  11   37.80   21.50
  -3   1  11   13.50   15.70
  -3   1  11   36.40   22.20
   1  -1 -11   28.10   30.00
   1  -1 -11   53.39   23.70
  -1   1  11  119.49   31.10
  -1   1  11  152.98   44.20
  -1   1  11  180.78   43.70
  -1  -1 -11  318.17   63.99
  -1  -1 -11  350.76   52.69
   1   1  11  280.87   60.19
   1   1  11  402.86   51.99
  -3  -1 -11   14.10   19.30
  -3  -1 -11   -1.50   13.60
   3   1  11  -49.00   21.00
   3   1  11   15.10   16.20
  -5  -1 -11   23.90   22.10
   5   1  11   26.50   22.10
  -7  -1 -11  186.38   53.19
   7   1  11  265.27   54.89
  -9  -1 -11   49.30   37.30
 -20   2  11   52.29   40.60
 -18   2  11  175.68   48.40
  16  -2 -11  173.38   47.00
  16  -2 -11  103.79   37.10
 -16   2  11  143.39   45.40
 -16   2  11  163.88   47.10
  14  -2 -11  -15.60   13.60
  14  -2 -11   49.00   26.10
 -14   2  11   -2.40   14.80
 -14   2  11    6.70   18.90
  12  -2 -11  470.55   60.69
 -12   2  11  366.56   62.49
 -12   2  11  364.76   63.99
  10  -2 -11  255.47   51.49
  10  -2 -11  284.07   55.29
 -10   2  11  203.98   46.70
 -10   2  11  291.37   51.09
 -10   2  11  153.18   44.60
 -10   2  11  207.28   46.30
   8  -2 -11   68.89   25.70
   8  -2 -11   -4.80   18.10
  -8   2  11   20.20   18.60
  -8   2  11   -2.70   14.60
  -8   2  11   21.70   24.20
  -8   2  11   23.10   22.50
   6  -2 -11   57.49   27.20
   6  -2 -11   57.29   25.60
  -6   2  11   49.70   27.80
  -6   2  11   45.40   26.30
  -6   2  11   46.90   23.50
  -6   2  11   53.49   24.30
   4  -2 -11  345.07   55.29
   4  -2 -11  296.27   50.69
  -4   2  11  394.26   59.79
  -4   2  11  323.47   52.69
  -4   2  11  353.06   59.29
   2  -2 -11  200.68   40.50
   2  -2 -11  247.48   52.49
   2  -2 -11  197.18   42.80
  -2   2  11  214.18   45.90
  -2   2  11  199.98   49.40
  -2   2  11  206.08   42.80
   0  -2 -11   -2.60   16.00
   0  -2 -11   -1.70   14.40
   0   2  11   -9.00   15.10
   0   2  11   32.10   21.60
  -2  -2 -11  184.88   42.20
  -2  -2 -11  248.08   53.09
   2   2  11  182.38   44.70
   2   2  11  141.09   40.70
  -4  -2 -11  155.68   47.30
   4   2  11  165.88   44.00
  -6  -2 -11   51.59   38.90
   6   2  11   29.20   27.70
   8   2  11   18.00   26.30
 -19   3  11   61.69   39.00
 -17   3  11   57.99   31.70
  15  -3 -11  259.47   59.29
  15  -3 -11  324.57   59.69
 -15   3  11  395.66   72.69
 -15   3  11  350.56   62.19
  13  -3 -11  212.78   52.49
 -13   3  11  177.48   48.70
 -13   3  11  201.18   46.10
  11  -3 -11  117.09   35.40
  11  -3 -11   61.29   29.50
 -11   3  11  207.58   46.30
 -11   3  11  162.08   41.10
 -11   3  11  161.98   44.30
   9  -3 -11  374.16   63.59
   9  -3 -11  441.56   66.59
  -9   3  11  305.37   54.29
  -9   3  11  450.85   69.99
  -9   3  11  366.86   59.19
  -9   3  11  374.86   49.60
   7  -3 -11  646.54   65.09
   7  -3 -11  630.14   70.09
  -7   3  11  565.84   64.39
  -7   3  11  508.15   61.19
  -7   3  11  568.44   66.79
  -7   3  11  512.15   60.79
   5  -3 -11  167.08   41.80
   5  -3 -11  242.78   45.90
  -5   3  11  256.67   49.40
  -5   3  11  168.78   40.80
  -5   3  11  139.09   39.00
  -5   3  11  156.88   40.40
   3  -3 -11   16.50   16.10
   3  -3 -11   14.10   14.00
   3  -3 -11    5.40   15.60
  -3   3  11   -3.20   20.20
  -3   3  11    8.30   13.80
  -3   3  11   -9.20   17.50
   1  -3 -11  895.01   83.79
   1  -3 -11  884.21   78.89
  -1   3  11  682.93   78.09
  -1   3  11  811.72   76.29
  -1  -3 -11  468.05   61.19
  -1  -3 -11  509.65   60.49
   1   3  11  554.44   70.79
   1   3  11  435.96   68.99
  -3  -3 -11   72.49   36.40
  -3  -3 -11   98.99   32.90
   3   3  11   37.10   29.10
   3   3  11  104.99   35.70
  -5  -3 -11  -21.50   27.70
   5   3  11  -13.10   17.80
  -7  -3 -11  466.45   84.79
   7   3  11  467.45   76.49
  -9  -3 -11  313.17   72.59
   9   3  11  198.88   56.09
 -16   4  11  351.96   63.19
  14  -4 -11   21.40   28.00
 -14   4  11    9.50   30.80
 -14   4  11   20.40   22.40
  12  -4 -11  384.76   69.99
  12  -4 -11  405.76   87.19
 -12   4  11  494.05   57.29
 -12   4  11  425.86   71.79
 -12   4  11  472.95   58.19
  10  -4 -11 1078.19   96.79
  10  -4 -11  675.73   76.89
 -10   4  11  863.11   77.09
 -10   4  11  767.82   74.29
 -10   4  11  852.31   86.79
   8  -4 -11  107.89   35.30
   8  -4 -11  127.79   41.80
  -8   4  11  134.89   40.70
  -8   4  11  114.09   36.90
  -8   4  11   94.09   31.10
  -8   4  11   59.29   26.80
   6  -4 -11  152.38   39.10
   6  -4 -11  165.88   40.00
  -6   4  11  211.18   45.00
  -6   4  11  184.78   42.40
  -6   4  11  149.88   38.50
  -6   4  11  150.58   41.70
   4  -4 -11 1060.19   89.69
   4  -4 -11  996.80   85.99
  -4   4  11 1101.69   93.99
  -4   4  11  965.00  104.49
  -4   4  11 1074.49   88.59
   2  -4 -11  692.23   73.59
   2  -4 -11  603.24   66.29
   2  -4 -11  557.14   91.89
  -2   4  11  697.63   75.29
  -2   4  11  697.73   71.99
   0  -4 -11    3.10   22.00
   0  -4 -11   -2.80   13.70
   0   4  11   -9.60   14.80
  -2  -4 -11  525.65   66.29
  -2  -4 -11  507.25   63.19
   2   4  11  461.25   71.89
   2   4  11  395.16   71.19
  -4  -4 -11  153.58   47.90
  -4  -4 -11  256.97   59.79
   4   4  11  218.68   52.99
  -6  -4 -11  270.77   62.19
   6   4  11  372.56   70.69
  -8  -4 -11   20.70   34.50
   8   4  11   -2.00   27.30
 -15   5  11  221.38   51.49
  13  -5 -11  307.17   66.29
 -13   5  11  322.07   54.59
 -13   5  11  414.46   70.89
  11  -5 -11  137.29   41.00
  11  -5 -11  141.09   47.70
 -11   5  11  110.99   33.90
 -11   5  11  164.08   40.00
 -11   5  11  127.49   35.20
   9  -5 -11   54.59   30.00
   9  -5 -11  116.89   49.99
  -9   5  11  122.79   35.30
  -9   5  11   85.59   33.30
  -9   5  11  146.99   44.70
   7  -5 -11  433.66   73.99
   7  -5 -11  420.06   66.19
  -7   5  11  457.35   89.19
  -7   5  11  452.95   54.19
  -7   5  11  340.07   64.89
  -7   5  11  422.76   54.89
   5  -5 -11  411.56   64.99
   5  -5 -11  227.48   49.30
  -5   5  11  377.46   60.29
  -5   5  11  458.85   70.99
   3  -5 -11   -8.00   16.10
   3  -5 -11   26.10   26.40
   3  -5 -11   49.60   26.70
  -3   5  11   19.90   19.00
  -3   5  11   18.10   18.90
   1  -5 -11  849.72   84.99
   1  -5 -11  812.12   78.39
  -1   5  11  804.72   80.99
  -1   5  11  806.82   81.59
  -1  -5 -11  187.58   49.30
  -1  -5 -11  239.18   53.29
   1   5  11  219.08   51.39
   1   5  11  191.58   47.50
  -3  -5 -11  117.99   38.50
  -3  -5 -11  167.58   46.50
   3   5  11   66.49   41.50
   3   5  11  104.49   36.90
  -5  -5 -11  104.09   35.60
   5   5  11   58.79   30.40
  -7  -5 -11  269.67   65.59
   7   5  11  158.48   46.50
 -12   6  11  701.63   81.69
 -12   6  11  479.35   59.69
  10  -6 -11    2.90   13.30
  10  -6 -11  -32.00   23.70
 -10   6  11   24.00   19.50
 -10   6  11   21.90   21.30
 -10   6  11  -12.40   15.40
   8  -6 -11  340.17   63.49
   8  -6 -11  451.05   76.99
  -8   6  11  397.76   67.99
  -8   6  11  308.27   51.49
  -8   6  11  372.66   57.59
   6  -6 -11   80.19   36.70
  -6   6  11   41.90   23.20
  -6   6  11   48.50   27.60
  -6   6  11   42.50   24.70
   4  -6 -11  636.94   75.19
   4  -6 -11  598.74   68.79
  -4   6  11  520.55   69.09
  -4   6  11  743.03   71.79
   2  -6 -11  225.58   48.70
   2  -6 -11  308.07   59.29
  -2   6  11  222.78   50.29
  -2   6  11  182.98   45.10
   0  -6 -11    7.00   16.50
   0  -6 -11  -19.90   19.10
   0   6  11   -3.30   14.40
  -2  -6 -11  205.58   51.79
  -2  -6 -11  163.98   48.20
   2   6  11  181.28   48.90
  -4  -6 -11  518.35   81.39
  -4  -6 -11  310.97   72.99
   4   6  11  476.75   83.19
  -6  -6 -11   26.90   33.00
   6   6  11  -36.00   29.60
  11  -7 -11  123.39   55.29
 -11   7  11  111.59   63.29
   9  -7 -11  -36.80   16.40
  -9   7  11   38.70   20.00
  -9   7  11    5.20   24.50
   7  -7 -11  110.59   39.10
   7  -7 -11  142.49   42.90
  -7   7  11   90.49   30.20
  -7   7  11  175.68   46.50
   5  -7 -11  150.58   51.49
   5  -7 -11   50.99   33.40
  -5   7  11  206.48   48.90
  -5   7  11   85.29   32.70
   3  -7 -11   -1.00   20.40
   3  -7 -11  -26.90   15.40
  -3   7  11   40.60   28.00
  -3   7  11  -10.90   16.70
   1  -7 -11  156.28   49.10
   1  -7 -11  198.38   45.90
  -1   7  11  138.19   40.80
  -1   7  11  159.88   45.20
  -1  -7 -11   97.09   32.50
  -1  -7 -11   81.79   40.00
   1   7  11   78.49   36.10
   1   7  11  -15.40   29.30
  -3  -7 -11   12.00   27.30
  -3  -7 -11    4.90   24.60
   3   7  11   35.50   30.10
  -5  -7 -11   34.90   19.30
   5   7  11   90.49   42.60
  -7  -7 -11   39.60   39.80
  10  -8 -11   22.90   26.30
   8  -8 -11   83.39   41.20
  -8   8  11   33.20   37.60
  -6   8  11   39.80   26.90
  -6   8  11   22.00   25.10
  -4   8  11   29.80   27.80
   2  -8 -11   37.20   21.80
  -2   8  11   72.49   33.90
   0  -8 -11   15.30   28.20
   0   8  11   -3.40   19.40
  -2  -8 -11    3.00   20.20
   2   8  11   -2.80   32.00
   2   8  11  -11.40   24.10
  -4  -8 -11   25.20   25.40
  -6  -8 -11   65.99   33.00
   1  -9 -11    2.50   31.60
  -1  -9 -11   93.39   34.70
  -3  -9 -11  -14.10   23.90
  -9 -11  12  245.38   36.50
  -9 -11  12  305.77   66.49
  -7 -11  12   30.20   30.30
  -5 -11  12  100.69   45.20
  -3 -11  12   82.19   44.20
 -12 -10  12    6.30   28.60
 -12 -10  12   -1.10   20.00
 -10 -10  12 1032.40  108.39
 -10 -10  12  839.52   80.79
  -8 -10  12   34.50   16.20
  -8 -10  12    9.00   21.10
  -6 -10  12   12.60    5.80
  -6 -10  12   -0.90    4.60
  -6 -10  12   46.30   33.70
  -4 -10  12  271.87   71.39
  -2 -10  12    1.70   29.10
   0 -10  12  300.57   69.39
 -15  -9  12  353.66   88.69
 -15  -9  12  561.94   65.59
 -13  -9  12  -14.30   19.10
 -13  -9  12  -18.40   33.10
 -11  -9  12  386.16   77.49
 -11  -9  12  387.46   57.39
  -9  -9  12  620.34   56.29
  -9  -9  12  613.04   80.99
  -7  -9  12   34.50   14.20
  -7  -9  12   44.20   28.10
  -5  -9  12  488.05   23.00
  -5  -9  12  537.55   88.59
  -5  -9  12  454.05   22.30
  -3  -9  12   36.80   30.20
  -1  -9  12   21.30   32.50
   1  -9  12  723.33   88.69
 -16  -8  12  464.45   72.59
 -16  -8  12  300.77   81.09
 -14  -8  12   85.19   35.30
 -14  -8  12   79.99   38.40
 -12  -8  12   48.50   22.90
 -12  -8  12   63.59   35.50
 -10  -8  12  587.24   95.29
 -10  -8  12  600.94   58.59
  -8  -8  12   34.60   31.30
  -6  -8  12  -39.40   25.20
  -6  -8  12   30.90   12.90
  -4  -8  12 1473.65   58.99
  -4  -8  12 1503.65  129.29
  -2  -8  12  -30.10   22.10
   0  -8  12  478.75   83.49
   2  -8  12  525.95   89.59
 -17  -7  12  135.09   55.09
 -17  -7  12   33.20   29.70
 -15  -7  12  509.95   88.89
 -15  -7  12  479.25   74.99
 -13  -7  12  -30.00   17.50
 -13  -7  12   10.30   24.50
 -11  -7  12  884.31   74.89
 -11  -7  12  959.50  105.49
  -9  -7  12  601.94   57.19
  -9  -7  12  583.64   78.79
   7   7 -12   29.00    9.80
   7   7 -12   21.80    8.80
  -7  -7  12   37.40   28.90
  -7  -7  12   16.00   15.00
  -5  -7  12 1136.29   63.79
  -5  -7  12 1356.56  117.19
  -5  -7  12 1094.79   63.59
  -3  -7  12  130.29   16.40
  -3  -7  12   67.59   37.60
  -3  -7  12   78.39   14.90
  -1  -7  12   21.00    6.60
  -1  -7  12   53.29   30.00
   1  -7  12  694.33   88.69
   1  -7  12  725.93   36.40
   1  -7  12  668.33   35.70
   3  -7  12  -13.70    7.80
  -5   7 -12  -26.40   20.50
   5  -7  12   24.70   12.80
 -18  -6  12   35.10   34.90
 -16  -6  12  380.16   72.19
 -16  -6  12  264.57   57.39
 -14  -6  12  195.28   44.30
 -12  -6  12   -0.90   16.80
 -12  -6  12   34.80   24.90
 -10  -6  12  382.26   47.60
 -10  -6  12  449.36   80.09
   8   6 -12   -3.50   10.40
  -8  -6  12  -14.00   12.30
  -8  -6  12   28.80   25.30
   6   6 -12   16.00    8.20
   6   6 -12    4.40    8.80
  -6  -6  12   -1.60   17.90
  -6  -6  12   -1.10   12.40
  -6  -6  12   33.20   23.90
  -4  -6  12 1043.70  127.39
  -4  -6  12 1140.49  107.29
  -4  -6  12 1086.39   64.89
  -4  -6  12 1073.29   63.79
  -2  -6  12    6.40    9.20
  -2  -6  12    0.80    9.70
  -2  -6  12  -24.90   16.50
   0  -6  12  352.96   32.20
   0  -6  12  366.46   70.89
   0  -6  12  296.17   29.00
   2  -6  12  269.97   29.70
  -4   6 -12   24.00   31.90
   4  -6  12   11.90   12.70
  -6   6 -12  395.06   91.59
   6  -6  12  380.16   42.80
 -17  -5  12  135.99   58.29
 -17  -5  12  180.08   51.59
 -15  -5  12  225.28   57.09
 -15  -5  12  178.88   47.60
 -13  -5  12   97.19   42.00
 -13  -5  12   36.20   20.70
 -11  -5  12  133.29   34.80
 -11  -5  12  109.49   43.40
   9   5 -12   71.69   23.50
  -9  -5  12   48.40   35.60
  -9  -5  12  160.48   44.90
  -9  -5  12  120.39   31.00
   7   5 -12   17.10   15.00
  -7  -5  12   34.30   17.80
  -7  -5  12   29.90   25.70
  -7  -5  12   39.80   28.80
  -5  -5  12  320.47   61.79
  -5  -5  12  377.96   40.70
  -5  -5  12  252.97   38.40
  -5  -5  12  326.57   63.99
   3   5 -12  210.48   18.30
  -3  -5  12  278.47   33.50
  -3  -5  12  294.07   32.50
  -3  -5  12  233.98   53.69
  -3  -5  12  214.48   54.29
  -1  -5  12  186.98   32.40
  -1  -5  12  126.49   45.10
  -1  -5  12  152.38   27.40
   1  -5  12  420.26   41.40
  -3   5 -12   26.60   26.40
   3  -5  12   56.29   21.50
  -5   5 -12   27.10   30.20
   5  -5  12   10.50   19.40
 -18  -4  12   15.50   30.10
 -16  -4  12   68.99   41.70
 -16  -4  12  142.89   48.50
 -14  -4  12  168.68   43.40
 -14  -4  12  223.98   59.39
 -12  -4  12   91.49   32.60
 -12  -4  12   79.59   35.50
  10   4 -12  114.99   31.00
 -10  -4  12  180.38   47.90
 -10  -4  12  140.69   35.90
 -10  -4  12  156.78   47.80
   8   4 -12  107.69   26.70
  -8  -4  12  109.19   37.60
  -8  -4  12  160.78   34.80
  -8  -4  12  177.78   44.70
   6   4 -12  159.58   29.00
  -6  -4  12  160.48   45.20
  -6  -4  12  240.78   40.80
  -6  -4  12  202.28   51.59
   4   4 -12  306.77   30.80
  -4  -4  12  253.17   56.79
  -4  -4  12  302.37   61.79
  -4  -4  12  299.87   42.80
  -4  -4  12  173.88   33.70
   2   4 -12  223.38   29.10
   2   4 -12  163.48   24.40
  -2  -4  12  339.47   65.89
  -2  -4  12  232.68   52.99
  -2  -4  12  191.68   39.60
  -2  -4  12  254.57   38.20
   0   4 -12  223.78   25.40
   0  -4  12  250.97   37.70
  -2   4 -12  -15.40   15.70
   2  -4  12   22.40   15.40
  -4   4 -12   52.19   43.20
   4  -4  12  249.08   43.00
  -6   4 -12   74.79   36.60
   6  -4  12  167.38   48.60
 -19  -3  12  148.49   47.40
 -19  -3  12   61.99   65.39
 -17  -3  12  205.78   58.59
 -17  -3  12  240.38   63.49
 -15  -3  12   79.59   31.90
 -15  -3  12  157.28   51.49
 -13  -3  12  705.83   73.19
 -13  -3  12  693.73   84.29
  11   3 -12   64.19   21.90
 -11  -3  12   50.99   26.30
 -11  -3  12   57.59   30.20
   9   3 -12   83.99   24.10
  -9  -3  12   66.49   33.70
  -9  -3  12   52.79   24.10
  -9  -3  12   23.30   22.00
   7   3 -12  939.31   69.29
  -7  -3  12  839.02   87.09
  -7  -3  12  939.41   91.09
  -7  -3  12  899.11   74.19
   5   3 -12   27.00   18.30
   5   3 -12   25.90   13.50
  -5  -3  12   -5.00   12.20
  -5  -3  12  -12.40   13.90
  -5  -3  12   19.10   21.40
  -5  -3  12   43.50   27.20
   3   3 -12  256.87   33.20
   3   3 -12  304.47   39.30
  -3  -3  12  249.68   54.49
  -3  -3  12  356.16   42.30
  -3  -3  12  367.36   67.29
   1   3 -12  275.37   31.70
  -1  -3  12  182.48   51.79
  -1  -3  12  268.47   41.40
  -1   3 -12  -23.70   25.50
   1  -3  12    3.70   14.40
  -3   3 -12  294.77   67.49
   3  -3  12  213.38   40.00
  -5   3 -12  128.79   42.80
   5  -3  12   80.39   31.50
  -7   3 -12   -8.40   19.40
   7  -3  12   22.80   20.70
 -20  -2  12   61.19   42.70
 -20  -2  12   32.40   40.10
 -18  -2  12  307.17   65.19
 -18  -2  12  456.05   88.29
 -16  -2  12    3.90   23.60
 -16  -2  12  -24.30   23.20
  14   2 -12   -6.10   25.00
 -14  -2  12   51.09   29.10
 -14  -2  12   35.90   29.30
  12   2 -12  297.97   52.39
 -12  -2  12  194.68   51.29
 -12  -2  12  277.47   52.39
  10   2 -12  151.78   36.00
 -10  -2  12   62.59   23.50
 -10  -2  12   79.99   37.00
 -10  -2  12  101.39   39.40
   8   2 -12  721.73   63.59
  -8  -2  12  645.54   75.19
  -8  -2  12  622.04   63.39
  -8  -2  12  753.62   80.69
   6   2 -12  650.33   59.09
  -6  -2  12  703.93   76.49
  -6  -2  12  541.95   70.19
  -6  -2  12  648.14   62.09
   4   2 -12   25.40   20.30
   4   2 -12   -3.60   13.10
  -4  -2  12   47.50   26.10
  -4  -2  12   17.90   20.40
  -4  -2  12    3.40   14.90
   2   2 -12  721.23   59.09
  -2  -2  12  949.60   71.29
  -2  -2  12  673.93   79.49
   0   2 -12  198.08   34.30
   0   2 -12  361.96   70.29
   0  -2  12  244.38   41.60
   0  -2  12  153.18   43.90
  -2   2 -12  144.79   47.00
   2  -2  12   56.19   23.10
  -4   2 -12 1107.29  111.79
   4  -2  12  912.71   79.89
  -6   2 -12   -5.90   30.40
   6  -2  12  -39.60   15.80
 -19  -1  12  319.37   73.09
 -19  -1  12  262.67   61.49
 -17  -1  12  210.18   58.19
 -17  -1  12  291.47   61.29
  15   1 -12  -18.90   13.20
 -15  -1  12    6.00   23.10
 -15  -1  12   35.00   27.60
  13   1 -12 1227.18  101.39
 -13  -1  12 1390.26  116.99
 -13  -1  12 1182.08  102.59
  11   1 -12   39.20   21.50
 -11  -1  12  -28.50   21.60
 -11  -1  12  -15.20   16.40
 -11  -1  12    9.50   14.80
   9   1 -12   39.40   22.60
  -9  -1  12   92.49   43.00
   7   1 -12 1735.13  131.19
  -7  -1  12 2044.40  139.09
  -7  -1  12 2173.08  166.68
  -7  -1  12 2356.96  134.89
   5   1 -12    4.10   13.90
  -5  -1  12   -6.20   15.50
  -5  -1  12   19.20   19.30
   3   1 -12   67.89   22.70
  -3  -1  12   72.59   24.70
  -3  -1  12   77.39   29.70
   1   1 -12  674.03   60.39
   1   1 -12  829.22   89.89
  -1  -1  12  671.13   76.99
  -1  -1  12  672.73   63.79
  -1   1 -12  237.58   57.99
   1  -1  12  245.58   45.80
  -3   1 -12  586.24   79.29
   3  -1  12  769.62   71.19
  -5   1 -12  353.06   75.49
   5  -1  12  415.06   63.79
  -7   1 -12   43.30   27.50
   7  -1  12   45.30   28.60
 -20   0  12    2.50   35.00
 -18   0  12  739.73   89.79
 -18   0  12  708.63   89.09
  16   0 -12   44.80   27.30
 -16   0  12   33.60   32.20
 -16   0  12   79.59   35.90
  14   0 -12   30.10   26.10
 -14   0  12   53.99   30.80
 -14   0  12    5.90   27.50
  12   0 -12  883.11   82.49
 -12   0  12  831.52   88.69
 -10   0  12   98.39   33.70
 -10   0  12   85.39   29.50
 -10   0  12   43.50   30.80
   8   0 -12 1617.34  109.39
  -8   0  12 1448.06  116.29
  -8   0  12 1470.75  114.59
  -8   0  12 1930.81  118.89
   6   0 -12  464.35   69.39
  -6   0  12  396.66   66.29
  -6   0  12  403.56   52.19
  -6   0  12  379.46   63.79
   4   0 -12  184.18   46.20
  -4   0  12  284.87   59.99
   2   0 -12  376.26   47.20
   2   0 -12  446.86   74.09
  -2   0  12  353.96   63.59
  -2   0  12  408.86   52.29
   0   0 -12   32.30   20.20
   0   0 -12   83.39   36.40
   0   0  12   -1.40   19.20
   0   0  12   68.19   24.50
  -2   0 -12  -17.30   24.80
   2   0  12   43.90   27.00
  -4   0 -12 1669.83  139.79
   4   0  12 1693.13  117.39
  -6   0 -12  -33.30   27.20
   6   0  12   22.00   20.90
  -8   0 -12  127.29   47.00
   8   0  12   50.89   34.10
 -19   1  12  248.68   65.29
  17  -1 -12  149.99   45.70
 -17   1  12  186.38   52.79
 -17   1  12  268.97   65.59
  15  -1 -12   -6.70   20.40
  15  -1 -12   21.70   24.10
 -15   1  12   55.09   29.10
 -15   1  12   49.90   28.70
  13  -1 -12 1093.89   99.39
 -13   1  12 1243.98  112.39
 -13   1  12 1270.97  108.99
  11  -1 -12  -16.70   13.10
 -11   1  12   54.69   29.80
 -11   1  12   -3.10   25.90
 -11   1  12  -42.80   16.20
   9  -1 -12   35.20   25.40
  -9   1  12   54.09   23.90
  -9   1  12   45.20   25.90
  -9   1  12   32.40   26.80
   7  -1 -12 2412.86  137.89
  -7   1  12 2311.97  138.39
  -7   1  12 2226.08  143.49
  -7   1  12 2280.97  145.19
   5  -1 -12    9.30   16.90
  -5   1  12   27.80   20.70
  -5   1  12   -8.40   20.70
  -5   1  12    8.40   18.90
   3  -1 -12  117.59   30.20
   1  -1 -12  700.93   67.39
   1  -1 -12  708.13   79.69
  -1   1  12  671.33   78.59
  -1   1  12  601.94   66.29
  -1  -1 -12  280.57   62.79
  -1  -1 -12  210.78   43.00
   1   1  12  214.28   46.60
   1   1  12  281.57   60.29
  -3  -1 -12  810.82   94.39
   3   1  12  726.43   74.59
  -5  -1 -12  269.97   69.99
   5   1  12  264.97   53.09
  -7  -1 -12   62.49   39.40
   7   1  12   55.19   28.90
 -20   2  12   45.40   31.60
 -18   2  12  333.47   69.89
  16  -2 -12   12.20   23.10
  16  -2 -12   -7.20   24.00
 -16   2  12  -16.60   22.80
 -16   2  12   -1.80   31.00
  14  -2 -12   55.29   33.10
 -14   2  12   69.79   31.70
 -14   2  12  108.19   47.40
  12  -2 -12  230.48   52.59
 -12   2  12  333.97   61.99
 -12   2  12  231.58   54.79
 -12   2  12  242.08   51.49
 -10   2  12   52.89   25.50
 -10   2  12   85.99   37.40
 -10   2  12   73.89   28.50
   8  -2 -12  603.94   66.09
  -8   2  12  738.53   75.09
  -8   2  12  681.53   74.69
  -8   2  12  831.42   78.09
   6  -2 -12  669.03   67.49
  -6   2  12  566.14   69.49
  -6   2  12  741.83   72.59
  -6   2  12  607.24   69.49
   4  -2 -12   -4.60   14.50
  -4   2  12   12.60   16.80
  -4   2  12  -34.90   14.60
   2  -2 -12  769.12   89.79
   2  -2 -12  817.42   75.99
  -2   2  12  861.01   96.79
  -2   2  12  868.11   85.29
   0  -2 -12  227.18   50.79
   0  -2 -12  318.87   55.69
   0   2  12  302.97   61.29
   0   2  12  248.88   51.69
  -2  -2 -12   17.40   26.50
   2   2  12   39.10   21.80
  -4  -2 -12  923.21  102.79
   4   2  12 1179.68  100.69
  -6  -2 -12   45.70   31.00
   6   2  12   48.20   28.50
 -17   3  12  148.69   45.80
  15  -3 -12   34.80   31.70
 -15   3  12   96.09   45.30
 -15   3  12   11.20   30.60
  13  -3 -12  570.94   71.39
 -13   3  12  636.94   94.99
 -13   3  12  671.53   74.99
 -13   3  12  646.14   72.59
  11  -3 -12   61.99   25.40
 -11   3  12  107.29   38.00
 -11   3  12   59.29   27.90
 -11   3  12   -1.90   18.90
   9  -3 -12   52.09   30.60
  -9   3  12   74.39   30.20
  -9   3  12   -4.90   27.40
  -9   3  12   98.49   33.20
   7  -3 -12  906.91   83.09
  -7   3  12  910.31   84.89
  -7   3  12  913.31   83.89
  -7   3  12  957.80   90.09
   5  -3 -12   19.60   20.80
  -5   3  12    2.40   13.20
  -5   3  12    6.70   21.90
  -5   3  12  -14.50   12.60
   3  -3 -12  357.06   64.99
  -3   3  12  279.07   52.89
  -3   3  12  257.87   55.69
   1  -3 -12  170.58   42.30
   1  -3 -12  241.88   54.79
  -1   3  12  234.78   49.40
  -1   3  12  274.67   59.19
  -1  -3 -12  -31.10   12.60
   1   3  12   27.80   24.20
   1   3  12    2.70   17.10
  -3  -3 -12  288.67   60.69
   3   3  12  232.08   54.59
  -5  -3 -12   48.80   44.20
   5   3  12  100.69   35.40
  -7  -3 -12   -6.80   22.30
   7   3  12   19.10   25.20
 -16   4  12   37.10   44.50
  14  -4 -12  214.08   51.39
 -14   4  12  148.39   41.30
 -14   4  12   77.79   59.89
 -14   4  12  239.08   58.89
  12  -4 -12  131.49   43.50
 -12   4  12   83.19   34.60
 -12   4  12  148.89   45.30
 -12   4  12  116.29   37.80
  10  -4 -12   68.69   34.80
 -10   4  12  114.69   35.70
 -10   4  12  258.97   55.49
 -10   4  12  262.97   49.80
   8  -4 -12  154.58   40.80
  -8   4  12  148.29   42.40
  -8   4  12  135.19   41.10
  -8   4  12  191.68   46.70
   6  -4 -12  200.28   44.70
  -6   4  12  345.57   59.29
  -6   4  12  283.57   54.89
  -6   4  12  228.18   52.49
   4  -4 -12  241.18   50.49
  -4   4  12  228.08   51.89
  -4   4  12  355.16   62.79
   2  -4 -12  347.57   59.29
  -2   4  12  207.28   52.59
  -2   4  12  289.77   69.59
   0  -4 -12  251.77   56.09
   0  -4 -12  322.07   59.89
   0   4  12  220.98   48.60
   0   4  12  237.68   57.29
  -2  -4 -12   52.69   30.90
   2   4  12    9.50   24.40
  -4  -4 -12  177.78   56.49
   4   4  12  185.28   49.50
  -6  -4 -12   88.99   41.00
   6   4  12   93.39   38.30
 -13   5  12   25.80   26.00
 -13   5  12   66.89   29.30
  11  -5 -12   99.19   36.20
 -11   5  12  146.69   40.50
 -11   5  12   66.79   33.00
 -11   5  12   44.60   26.90
   9  -5 -12  176.28   44.90
  -9   5  12  127.89   39.30
  -9   5  12   79.39   30.10
  -9   5  12  118.29   36.40
   7  -5 -12  -28.50   21.60
  -7   5  12   25.90   20.60
  -7   5  12  -16.40   16.80
  -7   5  12   25.70   25.30
   5  -5 -12  286.57   54.59
  -5   5  12  384.86   64.39
  -5   5  12  357.46   64.69
   3  -5 -12  188.88   53.69
   3  -5 -12  215.98   47.70
  -3   5  12  358.86   64.19
  -3   5  12  245.18   55.09
   1  -5 -12  161.98   44.70
   1  -5 -12  177.78   47.40
  -1   5  12  161.38   52.39
  -1   5  12  220.58   49.20
  -1  -5 -12  547.85   66.59
  -1  -5 -12  580.34   72.99
   1   5  12  412.36   72.79
   1   5  12  347.97   70.69
  -3  -5 -12   31.30   26.60
   3   5  12   23.70   33.10
  -5  -5 -12   34.50   31.70
   5   5  12   23.00   31.70
 -12   6  12  -13.10   29.90
  10  -6 -12  345.97   64.49
 -10   6  12  358.16   71.39
 -10   6  12  461.85   56.29
   8  -6 -12  -18.90   13.50
  -8   6  12  -43.70   17.80
  -8   6  12   17.40   23.20
  -8   6  12   -0.70   19.70
   6  -6 -12   15.00   19.00
  -6   6  12   13.00   16.40
  -6   6  12    9.40   18.90
  -6   6  12   64.59   26.20
   4  -6 -12  984.30   93.39
  -4   6  12  978.00   90.29
  -4   6  12 1202.28  105.79
   2  -6 -12    3.20   19.00
   2  -6 -12    3.60   23.10
  -2   6  12   88.89   56.29
  -2   6  12   -7.70   14.60
   0  -6 -12  408.96   72.69
   0  -6 -12  286.47   60.79
   0   6  12  381.06   68.79
   0   6  12  397.06   74.59
  -2  -6 -12  221.88   54.79
   2   6  12  355.46   66.79
  -4  -6 -12   26.90   28.50
   4   6  12   39.60   32.40
  -6  -6 -12  295.07   69.49
   6   6  12  240.58   61.79
  -9   7  12  550.94   86.39
   7  -7 -12    5.80   19.10
  -7   7  12   46.60   23.60
  -7   7  12    9.90   32.60
   5  -7 -12 1342.67  115.89
  -5   7  12 1167.58  109.29
   3  -7 -12   77.29   39.60
   3  -7 -12   80.89   34.80
  -3   7  12  194.48   55.29
  -3   7  12   50.69   31.40
   1  -7 -12   -1.70   24.00
   1  -7 -12    4.20   22.00
  -1   7  12    0.70   29.40
  -1  -7 -12  583.04   90.39
  -1  -7 -12  762.12   83.09
   1   7  12  752.12   91.79
  -3  -7 -12  -23.90   24.00
   3   7  12   68.29   37.40
  -5  -7 -12   21.00   24.30
   5   7  12    9.40   63.99
  -6   8  12   36.80   33.70
  -4   8  12 1339.67  121.79
   2  -8 -12    4.80   20.20
  -2   8  12   16.70   33.10
   0  -8 -12  421.46   73.49
   0   8  12  559.74   93.59
  -2  -8 -12  462.05   79.49
  -4  -8 -12   77.39   39.20
 -10 -10  13  139.49   31.70
 -10 -10  13  141.39   48.70
  -8 -10  13    7.00   12.10
  -8 -10  13   31.40   24.60
  -6 -10  13    5.60   18.70
  -4 -10  13    9.60   22.90
  -2 -10  13  135.49   59.59
 -13  -9  13   68.79   51.69
 -13  -9  13   68.89   31.30
 -11  -9  13    3.10   22.30
  -9  -9  13  -15.40   14.20
  -9  -9  13   -1.10   15.00
  -7  -9  13   28.60   14.70
  -7  -9  13   32.40   24.50
  -5  -9  13   60.09   37.40
  -3  -9  13    8.00   18.80
  -1  -9  13   40.70   35.70
 -14  -8  13   30.40   27.30
 -14  -8  13  -14.10   18.80
 -12  -8  13   34.90   37.90
 -12  -8  13   20.10   24.70
 -10  -8  13    2.10   26.20
 -10  -8  13   16.50   17.80
  -8  -8  13    7.20   13.40
  -8  -8  13   60.29   35.30
  -6  -8  13   13.40    9.50
  -6  -8  13   32.10   27.70
  -4  -8  13   30.60    7.70
  -4  -8  13   33.90   30.20
  -4  -8  13   38.30    8.70
  -2  -8  13   -9.50   23.60
   0  -8  13   13.20   30.20
   2  -8  13  -38.00   29.90
 -15  -7  13  158.48   54.49
 -15  -7  13  110.49   37.90
 -13  -7  13   -2.60   33.40
 -13  -7  13    2.70   20.60
 -11  -7  13   24.10   31.00
 -11  -7  13   48.60   20.50
  -9  -7  13  -15.00   20.60
  -9  -7  13   10.10   16.30
  -7  -7  13  125.69   26.70
  -7  -7  13   78.89   45.60
  -5  -7  13   13.20   31.40
  -5  -7  13   26.10   14.40
  -3  -7  13   18.80   10.00
  -3  -7  13   30.00   30.50
  -1  -7  13   38.00   35.70
  -1  -7  13   16.70    8.20
  -1  -7  13   -6.30    7.30
   1  -7  13   58.89   33.60
   1  -7  13   48.60   12.50
 -16  -6  13  156.58   53.39
 -16  -6  13  228.08   63.79
 -14  -6  13   45.20   22.40
 -14  -6  13    0.60   29.90
 -12  -6  13   62.59   26.70
 -12  -6  13   78.99   40.10
 -10  -6  13    1.10   27.50
 -10  -6  13   26.40   21.20
  -8  -6  13  407.76   79.59
  -8  -6  13  274.77   43.10
  -6  -6  13   43.60   32.80
  -4  -6  13  297.17   35.00
  -4  -6  13  211.48   59.49
  -2  -6  13   88.79   43.60
  -2  -6  13   94.49   20.60
   0  -6  13   72.79   37.70
   0  -6  13  148.59   26.00
   2  -6  13  136.89   25.40
   4  -6  13   55.89   21.20
 -17  -5  13   -1.00   20.60
 -15  -5  13  252.47   65.99
 -15  -5  13  286.77   58.99
 -13  -5  13  254.67   63.79
 -13  -5  13  246.68   49.90
 -11  -5  13  162.38   37.40
 -11  -5  13  181.98   53.49
  -9  -5  13  246.78   59.39
  -9  -5  13  216.48   40.40
  -7  -5  13  210.58   38.10
  -7  -5  13  229.88   60.19
  -5  -5  13  473.15   78.49
  -5  -5  13  605.64   53.39
   3   5 -13    8.70    7.50
  -3  -5  13   57.99   18.90
  -3  -5  13   19.60   29.90
  -1  -5  13  209.98   35.00
  -1  -5  13  112.09   47.50
   1  -5  13  649.24   55.59
  -3   5 -13  212.78   60.49
   3  -5  13  103.49   26.90
 -18  -4  13  290.37   69.79
 -18  -4  13  151.68   47.40
 -16  -4  13   82.79   35.50
 -16  -4  13   31.00   35.80
 -14  -4  13   19.30   29.30
 -14  -4  13  135.59   42.00
 -12  -4  13  115.59   37.00
 -12  -4  13  204.38   55.89
 -10  -4  13  613.04   63.29
 -10  -4  13  519.45   86.09
  -8  -4  13  123.09   39.10
  -8  -4  13   88.29   28.40
   6   4 -13   -1.90   13.40
  -6  -4  13  -14.70   25.00
  -6  -4  13    9.70   13.60
   4   4 -13  149.88   27.90
  -4  -4  13  190.48   48.80
  -4  -4  13  205.38   37.80
  -2  -4  13  417.16   46.70
  -2  -4  13  317.87   66.39
   0  -4  13   16.20   18.60
  -2   4 -13   29.40   23.90
   2  -4  13   58.59   22.10
  -4   4 -13  371.46   96.69
 -19  -3  13   39.30   34.70
 -19  -3  13   82.29   41.20
 -17  -3  13  -12.40   26.60
 -17  -3  13  -24.60   28.20
 -15  -3  13   91.59   42.10
 -15  -3  13  171.98   50.19
 -13  -3  13  683.03   75.69
 -13  -3  13  544.15   88.69
 -11  -3  13  135.29   41.30
 -11  -3  13  128.69   34.20
   9   3 -13  139.69   40.10
  -9  -3  13  212.68   58.39
  -9  -3  13  241.28   46.90
  -9  -3  13  372.66   70.99
   7   3 -13  156.28   33.60
  -7  -3  13  137.39   42.40
  -7  -3  13  229.58   42.90
  -7  -3  13   84.39   43.30
   5   3 -13  327.67   39.70
  -5  -3  13  318.37   66.99
  -5  -3  13  372.06   46.00
  -5  -3  13  252.57   56.09
  -3  -3  13   40.10   22.00
  -3  -3  13   67.59   34.30
  -1  -3  13  534.85   55.89
  -1   3 -13  207.78   56.19
   1  -3  13  238.18   42.60
  -3   3 -13   -2.90   37.40
   3  -3  13   96.89   29.50
  -5   3 -13   -6.40   24.50
   5  -3  13    6.00   17.60
 -18  -2  13   63.99   44.60
 -18  -2  13   68.29   38.30
 -16  -2  13  122.79   43.40
 -16  -2  13  208.68   55.69
 -14  -2  13   44.70   33.90
 -14  -2  13  110.09   35.40
 -12  -2  13  186.78   49.40
 -12  -2  13  104.69   34.40
  10   2 -13  163.08   36.20
 -10  -2  13  227.68   48.30
 -10  -2  13  168.68   46.70
 -10  -2  13  161.68   49.90
   8   2 -13  168.58   36.30
  -8  -2  13  226.28   52.29
  -8  -2  13  162.98   47.60
  -8  -2  13  183.48   43.30
   6   2 -13   40.80   20.70
  -6  -2  13   35.40   32.10
  -6  -2  13   14.50   22.20
  -6  -2  13   10.10   19.70
   4   2 -13  109.19   27.30
  -4  -2  13  180.48   48.50
  -4  -2  13  174.98   50.09
  -4  -2  13  214.88   41.40
  -2  -2  13  243.68   44.80
   0   2 -13   68.69   38.90
   0  -2  13   90.99   29.10
  -2   2 -13   48.70   35.20
   2  -2  13   33.40   19.90
  -4   2 -13   85.79   42.10
   4  -2  13   34.50   28.30
  -6   2 -13   22.20   35.70
   6  -2  13   39.50   29.10
 -19  -1  13   91.89   43.00
 -19  -1  13    1.10   25.20
 -17  -1  13   16.70   24.90
 -17  -1  13    2.40   18.10
 -15  -1  13   33.40   23.70
 -15  -1  13   22.80   32.70
 -13  -1  13  379.36   66.39
 -13  -1  13  376.56   72.69
 -11  -1  13  -14.60   13.60
 -11  -1  13  -18.70    8.20
 -11  -1  13  -45.80   18.40
   9   1 -13  -28.70   11.60
  -9  -1  13   15.40   17.80
  -9  -1  13   -5.50   12.30
  -9  -1  13    4.00   15.80
   7   1 -13   92.49   26.90
  -7  -1  13  113.89   34.10
  -7  -1  13   52.89   35.30
  -7  -1  13  189.98   48.50
   5   1 -13   26.20   15.80
  -5  -1  13   18.00   20.10
  -5  -1  13    1.30   15.80
  -5  -1  13   40.00   27.20
   3   1 -13   38.60   19.10
  -3  -1  13   68.39   28.00
  -3  -1  13   41.40   31.90
   1   1 -13  191.48   51.79
  -1  -1  13  175.18   39.10
  -1   1 -13   -9.50   28.40
   1  -1  13    9.00   15.10
  -3   1 -13    0.60   27.50
   3  -1  13   10.60   21.70
  -5   1 -13    9.90   32.20
 -18   0  13   -3.80   23.20
 -18   0  13  -26.00   31.50
 -16   0  13   -8.40   28.40
 -16   0  13   21.60   18.80
 -14   0  13   -9.20   22.30
 -14   0  13   32.00   31.20
  12   0 -13   12.10   17.70
 -12   0  13   -7.60   17.10
 -12   0  13   -1.10   18.40
 -12   0  13   18.70   19.10
  10   0 -13  -10.70   10.10
 -10   0  13   19.20   22.00
 -10   0  13   29.70   25.60
 -10   0  13    3.70   22.70
  -8   0  13   -5.60   14.70
  -8   0  13   -1.90   17.30
   6   0 -13    5.20   15.00
  -6   0  13   41.10   23.20
  -6   0  13   29.60   25.00
   4   0 -13   -6.90   19.90
  -4   0  13  -17.90   18.70
  -4   0  13  -18.20    7.30
  -4   0  13   14.30   18.90
  -2   0  13  -32.70   23.50
  -2   0  13   -2.70   15.80
   0   0 -13   12.50   29.00
   0   0  13    8.90   18.00
  -2   0 -13   37.80   27.30
   2   0  13   33.90   20.60
  -4   0 -13  -53.09   20.30
  -6   0 -13   30.50   27.00
 -19   1  13   73.29   39.80
 -17   1  13   10.40   33.80
 -17   1  13  -21.80   19.00
 -15   1  13  -47.50   25.50
 -15   1  13    5.00   18.70
  13  -1 -13  221.88   50.79
 -13   1  13  299.77   62.59
 -13   1  13  256.87   59.99
 -13   1  13  324.87   63.69
  11  -1 -13   11.40   19.70
 -11   1  13    9.70   24.90
 -11   1  13  -21.80   21.70
 -11   1  13   -6.40   18.60
   9  -1 -13    6.90   19.30
  -9   1  13    1.40   16.30
  -9   1  13  -21.60   18.60
  -9   1  13  -17.30   16.80
   7  -1 -13   90.59   33.60
  -7   1  13   89.59   32.50
  -7   1  13   75.49   31.80
  -7   1  13  108.09   39.30
   5  -1 -13   -3.90   16.60
  -5   1  13   22.50   24.10
  -5   1  13    0.70   16.10
  -5   1  13    3.20   15.70
   3  -1 -13   29.70   19.60
  -3   1  13   57.89   27.30
  -3   1  13   21.20   28.30
   1  -1 -13  221.68   58.49
  -1   1  13  189.18   41.60
  -1  -1 -13  -13.60   21.40
   1   1  13   45.80   21.50
  -3  -1 -13  -39.00   26.20
   3   1  13   31.10   20.90
  -5  -1 -13   44.90   37.30
   5   1  13   44.60   24.10
 -18   2  13   11.10   32.00
 -16   2  13  138.59   46.50
 -16   2  13  140.29   46.70
  14  -2 -13   27.40   29.40
 -14   2  13   65.09   34.50
 -14   2  13   64.79   30.00
 -14   2  13   59.59   34.10
  12  -2 -13  132.09   40.60
 -12   2  13  151.98   49.30
 -12   2  13  156.68   47.20
 -12   2  13  161.88   45.50
  10  -2 -13  199.58   46.70
 -10   2  13  225.98   52.79
 -10   2  13  155.88   48.10
 -10   2  13  195.68   81.19
   8  -2 -13  109.89   38.60
  -8   2  13  268.47   53.69
  -8   2  13  214.28   62.99
   6  -2 -13   64.29   29.00
  -6   2  13   82.29   28.10
  -6   2  13   36.00   22.00
  -6   2  13   49.80   30.10
   4  -2 -13  206.28   46.30
  -4   2  13  236.88   49.40
  -4   2  13  243.88   53.49
   2  -2 -13  280.87   61.09
   2  -2 -13  218.28   45.50
  -2   2  13  334.77   60.49
  -2   2  13  216.38   51.99
   0  -2 -13   92.79   37.10
   0   2  13  181.68   45.60
  -2  -2 -13   40.70   28.40
   2   2  13  -15.30   22.00
  -4  -2 -13   75.19   37.10
   4   2  13   87.39   36.60
  -6  -2 -13  -18.40   35.80
   6   2  13  133.29   41.40
 -17   3  13   29.20   34.10
  15  -3 -13   77.39   38.80
 -15   3  13  161.38   48.70
 -15   3  13  136.49   45.70
  13  -3 -13  608.84   76.09
 -13   3  13  551.44   85.89
 -13   3  13  691.53   82.09
 -13   3  13  591.34   71.99
  11  -3 -13   98.89   32.30
 -11   3  13  157.48   52.79
 -11   3  13  113.59   42.00
   9  -3 -13  285.67   55.29
  -9   3  13  215.18   50.09
  -9   3  13  203.78   50.59
   7  -3 -13  128.59   35.70
  -7   3  13  237.08   51.79
  -7   3  13  185.48   60.79
   5  -3 -13  479.25   60.89
  -5   3  13  374.96   66.19
  -5   3  13  414.16   70.49
  -5   3  13  395.46   68.79
   3  -3 -13   35.70   24.40
  -3   3  13   18.00   26.80
  -3   3  13   45.20   28.90
   1  -3 -13  527.25   68.79
  -1   3  13  454.85   71.29
  -1  -3 -13  221.88   59.49
   1   3  13  192.68   49.70
  -3  -3 -13   43.10   40.40
   3   3  13  120.29   42.80
  -5  -3 -13    5.90   28.00
   5   3  13   -1.40   17.60
  14  -4 -13   45.40   61.89
 -14   4  13  107.89   48.80
  12  -4 -13  252.47   59.49
 -12   4  13  305.07   59.29
 -12   4  13  210.28   51.79
 -12   4  13  225.88   59.29
  10  -4 -13  495.55   77.99
 -10   4  13  521.95   67.99
 -10   4  13  550.84   69.29
 -10   4  13  574.44   85.59
   8  -4 -13  123.29   36.70
  -8   4  13   85.39   42.10
  -8   4  13   70.69   28.80
  -8   4  13  128.09   35.70
   6  -4 -13   37.20   27.20
  -6   4  13    5.80   24.80
  -6   4  13  -16.20   25.20
   4  -4 -13  224.98   49.90
  -4   4  13  101.19   44.10
  -4   4  13  181.48   46.30
   2  -4 -13  224.98   52.39
   2  -4 -13  422.36   70.39
  -2   4  13  409.06   70.49
  -2   4  13  508.75   80.09
   0  -4 -13   32.20   22.80
   0   4  13   80.79   39.00
  -2  -4 -13   -9.10   21.80
   2   4  13    3.20   31.80
  -4  -4 -13  592.24   79.29
   4   4  13  472.25   79.99
 -13   5  13  340.27   70.29
 -13   5  13  312.17   57.49
  11  -5 -13  175.18   44.20
 -11   5  13  133.89   48.90
 -11   5  13   98.99   36.30
   9  -5 -13  237.88   54.59
  -9   5  13  127.49   42.30
  -9   5  13  244.18   51.69
  -9   5  13  222.98   54.89
   7  -5 -13  233.08   47.50
  -7   5  13  155.38   43.70
  -7   5  13  273.47   53.79
  -7   5  13  263.17   57.59
   5  -5 -13  380.76   66.09
  -5   5  13  666.03   82.69
   3  -5 -13   53.59   30.90
   3  -5 -13    6.00   25.60
  -3   5  13   60.89   31.70
  -3   5  13   33.20   31.60
   1  -5 -13  177.58   48.30
  -1   5  13  160.48   60.49
  -1   5  13  257.67   56.89
  -1  -5 -13  442.46   79.49
   1   5  13  592.54   89.89
  -3  -5 -13  163.38   50.99
   3   5  13  117.89   43.70
 -12   6  13  106.79   47.40
 -10   6  13   62.39   33.10
 -10   6  13   31.90   34.30
   8  -6 -13  322.57   64.29
  -8   6  13  260.27   50.99
  -8   6  13  307.37   65.99
   6  -6 -13  -32.10   27.00
  -6   6  13   67.69   28.80
  -6   6  13   33.80   29.00
  -6   6  13  -19.20   17.80
   4  -6 -13  169.58   51.19
  -4   6  13  240.18   50.99
  -4   6  13  127.69   49.99
   2  -6 -13   55.79   34.10
   2  -6 -13  104.79   36.10
  -2   6  13   84.89   44.50
  -2   6  13   80.49   36.60
   0  -6 -13  136.19   43.30
   0   6  13  107.19   44.10
  -2  -6 -13  161.98   45.50
   2   6  13  210.78   54.99
   4   6  13   68.99   37.10
  -9   7  13   25.40   23.90
  -7   7  13  101.69   41.10
  -7   7  13   57.39   38.20
   5  -7 -13   24.40   29.90
   3  -7 -13    8.70   25.20
   3  -7 -13    6.50   21.70
  -3   7  13    7.00   18.50
   1  -7 -13   40.30   26.80
  -1   7  13   43.10   31.90
  -1  -7 -13  129.49   40.60
   1   7  13   69.59   47.60
  -3  -7 -13   11.80   23.20
   3   7  13   -5.20   39.00
   0  -8 -13    8.20   21.60
  -9  -9  14   42.40   34.70
  -9  -9  14   50.19   19.90
  -7  -9  14  572.64  101.99
  -7  -9  14  441.36   36.70
  -5  -9  14   83.59   44.00
 -12  -8  14  107.79   28.20
 -12  -8  14   50.49   33.60
 -10  -8  14   44.60   25.70
  -8  -8  14  585.74   98.19
  -8  -8  14  566.34   51.49
  -6  -8  14  114.69   21.50
  -6  -8  14   83.39   46.40
  -4  -8  14    3.40   23.90
  -4  -8  14    2.10    6.10
  -2  -8  14  651.43  109.49
 -13  -7  14  483.55   62.39
 -13  -7  14  436.06   86.99
 -11  -7  14  -30.90   15.80
 -11  -7  14   31.70   32.30
  -9  -7  14  -12.70   14.50
  -9  -7  14   15.40   23.20
  -7  -7  14  524.35   89.59
  -7  -7  14  456.15   46.40
  -5  -7  14   50.59   34.20
  -5  -7  14   42.60   15.50
  -3  -7  14  234.38   61.59
  -3  -7  14  150.18   22.70
  -1  -7  14  270.87   24.60
 -16  -6  14   88.59   41.30
 -14  -6  14  281.37   68.09
 -12  -6  14   49.30   31.40
 -12  -6  14  207.38   43.60
 -10  -6  14   16.60   18.80
 -10  -6  14   15.10   26.20
  -8  -6  14  421.36   83.29
  -8  -6  14  329.07   49.80
  -6  -6  14  151.38   54.49
  -6  -6  14  127.99   27.90
  -4  -6  14   72.09   39.00
  -2  -6  14  559.14   46.50
  -2  -6  14  542.45   90.79
   0  -6  14   -4.50   14.70
 -15  -5  14    1.60   21.90
 -13  -5  14  225.88   53.19
 -13  -5  14  292.57   67.49
 -11  -5  14   66.09   44.70
 -11  -5  14   76.59   34.10
  -9  -5  14  273.47   46.60
  -9  -5  14  250.47   63.59
  -7  -5  14  635.14   83.49
  -7  -5  14  566.04   57.59
  -5  -5  14  182.18   50.09
  -5  -5  14  213.68   39.60
  -3  -5  14  310.67   39.10
  -3  -5  14  219.88   61.09
  -1  -5  14  111.79   46.50
  -1  -5  14  118.89   26.50
 -16  -4  14  201.58   52.39
 -14  -4  14  140.99   43.50
 -14  -4  14  169.78   55.29
 -12  -4  14  166.68   50.79
 -10  -4  14   57.89   24.50
 -10  -4  14   50.49   30.30
  -8  -4  14   49.20   24.80
  -8  -4  14   64.99   36.10
  -6  -4  14  195.88   53.29
  -6  -4  14  222.98   41.00
  -4  -4  14  129.29   32.40
  -4  -4  14  118.39   43.00
  -2  -4  14  224.28   57.89
  -2  -4  14  264.17   43.20
   0  -4  14  223.78   41.20
   2  -4  14  151.78   34.30
 -17  -3  14  -34.80   25.20
 -15  -3  14  187.58   52.89
 -15  -3  14  192.78   65.39
 -13  -3  14    1.90   22.60
 -13  -3  14   19.10   27.20
 -11  -3  14  308.77   57.89
 -11  -3  14  135.89   51.79
  -9  -3  14  421.06   79.99
  -9  -3  14  500.65   61.19
  -7  -3  14  133.39   35.10
  -7  -3  14   41.20   29.70
  -5  -3  14  560.44   91.09
  -5  -3  14  281.67   45.60
  -3  -3  14   31.40   26.00
  -3  -3  14   39.80   20.90
  -1  -3  14  -20.70   13.80
  -1   3 -14  275.47   65.59
   1  -3  14  284.17   45.80
  -3   3 -14   67.39   40.80
   3  -3  14   -4.90   18.90
 -18  -2  14  -34.20   21.30
 -18  -2  14   -2.60   31.30
 -16  -2  14  421.56   86.29
 -16  -2  14  382.96   78.59
 -14  -2  14  -33.40   24.50
 -14  -2  14   32.00   35.70
 -12  -2  14   -4.50   24.30
 -12  -2  14   87.99   40.30
 -10  -2  14  802.42   90.59
 -10  -2  14  685.03   72.29
  -8  -2  14  -19.00   15.70
  -8  -2  14   -8.90   15.30
  -6  -2  14  206.88   44.30
  -6  -2  14  184.88   51.59
  -4  -2  14  562.44   59.79
  -4  -2  14  397.36   74.29
  -2  -2  14   12.00   17.30
   0  -2  14  745.73   70.99
  -2   2 -14  262.17   69.59
   2  -2  14  216.88   53.39
  -4   2 -14   94.69   45.70
   4  -2  14   10.60   22.30
 -17  -1  14   55.79   37.80
 -17  -1  14   44.80   33.80
 -15  -1  14  347.17   66.69
 -15  -1  14  287.27   68.49
 -13  -1  14   75.99   36.00
 -13  -1  14   24.40   29.20
 -11  -1  14  352.56   70.59
 -11  -1  14  583.64   70.49
  -9  -1  14  183.78   54.79
  -9  -1  14  280.57   55.89
  -7  -1  14  104.79   41.30
  -7  -1  14  129.89   36.90
  -5  -1  14  702.93   72.69
  -5  -1  14  680.63   82.09
  -3  -1  14   13.10   24.00
  -1  -1  14   -5.10   11.30
  -1   1 -14 1095.39  112.19
   1  -1  14  932.31   84.19
  -3   1 -14   -2.10   35.80
   3  -1  14   -8.10   14.40
 -18   0  14  -33.90   21.30
 -18   0  14   42.20   31.10
 -16   0  14  656.83   84.09
 -16   0  14  650.13  100.39
 -14   0  14   65.89   36.40
 -14   0  14   80.89   37.50
 -12   0  14    4.80   19.90
 -12   0  14  -17.30   13.30
 -10   0  14 1658.23  130.69
 -10   0  14 1608.94  120.79
  -8   0  14  158.18   49.20
  -8   0  14  199.58   50.99
  -8   0  14  180.38   44.50
  -6   0  14   80.69   32.80
  -6   0  14   64.49   30.20
  -4   0  14  697.13   72.69
  -4   0  14  707.43   83.59
  -2   0  14  108.79   35.70
   0   0 -14  658.53   87.29
   0   0  14  715.13   72.09
  -2   0 -14  281.97   64.69
   2   0  14  379.36   61.99
  -4   0 -14   89.09   41.80
   4   0  14   98.79   39.10
 -17   1  14  -12.60   39.20
 -17   1  14   88.39   43.90
 -15   1  14  314.37   68.99
 -15   1  14  367.36   70.89
 -13   1  14   37.90   29.40
 -13   1  14    9.40   24.50
 -11   1  14  458.75   79.19
 -11   1  14  379.36   69.99
 -11   1  14  446.66   72.59
  -9   1  14  140.29   47.50
  -9   1  14  254.17   57.89
  -9   1  14  182.08   46.90
  -7   1  14   84.09   39.20
  -7   1  14  111.59   34.90
  -7   1  14  133.69   42.10
  -5   1  14  623.84   79.39
  -5   1  14  687.33   75.49
  -3   1  14   20.30   25.40
   1  -1 -14    9.30   19.00
  -1  -1 -14  738.23  113.29
   1   1  14  886.51   85.79
  -3  -1 -14  -41.70   17.20
   3   1  14  -49.90   19.40
 -18   2  14  -24.10   32.60
 -16   2  14  466.05   82.19
 -16   2  14  434.56   80.79
 -14   2  14   11.00   21.50
 -12   2  14  -47.10   27.20
 -12   2  14    5.20   26.50
 -12   2  14    5.90   29.10
 -10   2  14  774.92   84.19
 -10   2  14  695.33   82.59
 -10   2  14  639.64   80.59
   8  -2 -14   18.10   20.10
  -8   2  14  -20.50   13.00
  -8   2  14   11.60   16.50
  -8   2  14    5.90   23.90
  -6   2  14  234.08   54.99
  -6   2  14  230.08   52.49
  -6   2  14  230.68   53.49
  -4   2  14  579.44   84.09
   2  -2 -14   13.10   19.00
  -2   2  14  -43.70   15.40
   0  -2 -14  748.93   90.69
   0   2  14  762.32   83.09
  -2  -2 -14  268.67   63.19
   2   2  14  182.28   49.99
  -4  -2 -14    5.80   30.00
   4   2  14    4.00   28.00
 -17   3  14   26.80   33.50
 -15   3  14  193.48   53.69
 -15   3  14  197.18   55.19
 -13   3  14   33.90   28.50
 -13   3  14   10.40   27.40
 -13   3  14   24.60   30.20
  11  -3 -14  140.49   44.80
 -11   3  14  241.28   56.09
 -11   3  14  245.08   57.19
 -11   3  14  291.07   62.19
   9  -3 -14  542.95   67.09
  -9   3  14  457.85   73.59
  -9   3  14  332.57   63.09
  -9   3  14  362.66   68.19
   7  -3 -14   84.19   36.60
  -7   3  14   69.89   38.20
  -7   3  14   78.49   32.10
  -7   3  14  120.79   43.90
  -5   3  14  250.17   56.59
  -5   3  14  361.96   67.39
  -5   3  14  403.56   70.79
  -3   3  14   15.50   20.10
   1  -3 -14   14.20   16.80
  -1   3  14   18.30   26.40
  -1  -3 -14  440.06   79.79
   1   3  14  289.17   59.79
  -3  -3 -14   78.29   49.50
   3   3  14    1.30   24.90
 -14   4  14  170.98   53.49
 -14   4  14  335.17   65.29
  12  -4 -14   84.09   41.30
 -12   4  14   62.39   35.00
 -12   4  14   71.79   34.40
  10  -4 -14   17.80   30.20
 -10   4  14   28.80   26.90
 -10   4  14   38.50   28.30
 -10   4  14   24.90   29.00
   8  -4 -14    7.40   28.50
  -8   4  14   16.20   25.90
  -8   4  14  109.89   42.20
  -8   4  14   73.79   31.80
  -6   4  14  236.48   55.89
  -6   4  14  115.19   37.20
  -6   4  14  140.99   43.30
  -4   4  14  160.48   58.79
  -4   4  14  175.48   51.79
   2  -4 -14  261.77   59.99
  -2   4  14  269.77   60.59
   0   4  14  287.37   66.09
  -2  -4 -14  119.69   43.50
   2   4  14  271.27   61.39
 -13   5  14  196.08   49.99
  11  -5 -14   69.29   31.60
 -11   5  14  140.19   48.40
 -11   5  14   68.39   39.70
  -9   5  14  360.46   72.29
  -9   5  14  374.76   66.59
   7  -5 -14  422.16   75.69
  -7   5  14  768.12   81.39
  -7   5  14  526.05   84.49
  -7   5  14  481.65   75.99
  -5   5  14  118.19   38.60
  -5   5  14   88.59   39.30
  -5   5  14   50.19   31.30
  -3   5  14  281.47   65.89
   1  -5 -14  139.59   46.00
  -1   5  14   47.90   39.20
  -1  -5 -14   15.00   34.60
   1   5  14    3.10   24.10
 -10   6  14  -11.20   19.00
   8  -6 -14  289.77   60.89
  -8   6  14  382.36   72.69
  -8   6  14  266.97   56.19
  -6   6  14   66.69   40.80
  -6   6  14  166.88   46.00
  -4   6  14   16.60   28.40
   2  -6 -14  479.25   81.59
  -2   6  14  664.73   83.89
   0  -6 -14  -30.50   17.60
   0   6  14  -65.59   29.00
  -7   7  14  571.34   91.89
  -5   7  14   61.49   43.30
  -5   7  14  117.19   37.90
  -3   7  14  258.87   64.89
   1  -7 -14  233.78   58.39
  -1   7  14  232.18   61.89
  -8  -8  15   28.70   32.90
  -8  -8  15  -16.90   11.80
 -11  -7  15   23.30   21.60
 -11  -7  15  -35.60   30.30
  -9  -7  15  -55.79   29.20
  -9  -7  15   -0.40   16.90
  -7  -7  15   87.99   40.00
  -7  -7  15   -8.70   30.70
  -5  -7  15    8.80   28.10
  -3  -7  15   53.29   17.50
  -3  -7  15   48.70   35.90
 -14  -6  15   46.40   36.50
 -14  -6  15  -47.60   18.50
 -12  -6  15    2.20   34.70
 -12  -6  15   15.90   24.50
  -8  -6  15  255.27   69.19
  -8  -6  15  182.88   42.50
  -6  -6  15   10.10   23.10
  -6  -6  15   11.40   16.50
  -4  -6  15   31.00   40.30
  -4  -6  15   36.70   20.20
  -2  -6  15  142.59   54.59
  -2  -6  15  161.98   30.60
 -15  -5  15   42.20   26.80
 -15  -5  15   48.70   48.40
 -13  -5  15  106.49   36.10
 -13  -5  15  179.08   58.99
 -11  -5  15   32.60   25.70
 -11  -5  15    0.70   24.40
  -9  -5  15  -31.20   26.70
  -9  -5  15   77.69   27.90
  -7  -5  15  101.49   28.10
  -7  -5  15  -23.70   37.50
  -5  -5  15  365.06   45.90
  -5  -5  15  307.07   76.99
  -3  -5  15   -5.80   19.40
  -1  -5  15  -12.40   35.50
  -1  -5  15   46.40   25.40
 -16  -4  15  408.46   81.19
 -16  -4  15  332.47   68.09
 -12  -4  15  138.59   37.50
 -12  -4  15   74.49   35.10
 -10  -4  15  137.09   49.20
 -10  -4  15  204.88   43.80
  -8  -4  15  343.27   77.29
  -8  -4  15  170.28   39.10
  -6  -4  15   65.19   39.50
  -6  -4  15  115.59   31.40
  -4  -4  15  116.99   40.40
  -4  -4  15  110.69   30.30
   0  -4  15   11.60   20.30
 -15  -3  15   21.00   35.00
 -13  -3  15  393.86   66.39
 -13  -3  15  297.87   69.09
 -11  -3  15   76.79   36.40
 -11  -3  15   66.79   31.40
  -9  -3  15   17.90   19.70
  -9  -3  15  -28.60   13.30
  -7  -3  15  101.49   29.00
  -7  -3  15   45.50   29.20
  -5  -3  15  397.36   81.79
  -5  -3  15  492.15   56.59
  -3  -3  15   32.30   23.40
  -3  -3  15    7.80   20.30
   1  -3  15   54.49   25.90
 -16  -2  15  193.78   57.79
 -16  -2  15  417.26  140.19
 -14  -2  15   -9.40   22.50
 -14  -2  15   81.49   40.80
 -12  -2  15   33.10   26.70
 -12  -2  15   36.50   36.10
 -10  -2  15  109.69   33.30
 -10  -2  15   68.59   42.80
  -8  -2  15  197.68   45.90
  -8  -2  15  183.68   51.59
  -6  -2  15  -15.60   15.40
  -6  -2  15   57.39   32.10
  -4  -2  15  196.98   58.39
  -4  -2  15  167.38   38.50
  -2  -2  15  326.97   55.99
   0  -2  15  -45.20   20.10
 -17  -1  15   45.00   35.40
 -17  -1  15   -5.60   20.30
 -15  -1  15   58.99   36.30
 -15  -1  15   19.60   31.50
 -13  -1  15   42.80   37.30
 -13  -1  15   49.90   35.30
 -11  -1  15   91.49   35.00
 -11  -1  15  -34.40   23.80
  -9  -1  15    3.70   25.60
  -9  -1  15  -25.90   21.50
  -7  -1  15   41.30   26.60
  -7  -1  15   73.79   35.90
  -5  -1  15   32.70   21.30
  -5  -1  15   38.20   23.40
  -3  -1  15   34.50   21.60
  -3  -1  15   51.89   22.50
  -1  -1  15   55.89   25.10
  -1   1 -15   -3.20   21.20
   1  -1  15   -5.00   16.80
 -16   0  15   40.90   34.40
 -16   0  15   23.20   36.10
 -14   0  15  -32.20   19.40
 -14   0  15   11.70   32.60
 -12   0  15  -38.80   21.70
 -12   0  15    9.70   17.40
 -10   0  15  -22.40   23.70
 -10   0  15   -6.20   22.80
  -8   0  15  -11.80   18.90
  -8   0  15   -5.40   24.10
  -6   0  15    7.80   14.30
  -6   0  15  -37.10   14.80
  -4   0  15   -9.10   15.70
  -4   0  15   31.80   24.80
  -2   0  15   45.90   30.90
   0   0 -15   -4.80   42.60
  -2   0 -15  -32.00   27.60
   2   0  15  -25.90   19.00
 -17   1  15   47.80   41.00
 -17   1  15   10.50   35.90
 -15   1  15  106.59   44.70
 -15   1  15    1.20   30.50
 -13   1  15    8.00   29.50
 -13   1  15   79.19   34.50
 -11   1  15   44.80   31.70
 -11   1  15   21.60   23.90
  -9   1  15   -2.50   23.80
  -9   1  15  -16.40   22.00
  -7   1  15   -3.10   23.00
  -7   1  15   39.50   29.20
  -5   1  15   10.40   19.50
  -5   1  15   63.79   30.60
  -3   1  15   26.10   23.10
   1  -1 -15   37.30   27.60
  -1   1  15   53.09   26.60
  -1  -1 -15  -19.90   26.90
   1   1  15  -14.90   19.00
 -16   2  15   58.49   33.10
 -16   2  15   94.89   47.40
 -14   2  15   58.59   37.20
 -14   2  15   23.50   34.50
 -12   2  15   70.99   35.20
 -12   2  15    3.30   33.50
 -10   2  15  116.49   43.80
 -10   2  15   42.30   33.90
  -8   2  15  280.37   60.99
  -8   2  15  198.48   55.99
  -6   2  15    5.40   20.70
  -6   2  15   47.20   29.10
  -4   2  15  161.68   42.10
  -2   2  15  208.28   51.89
   0  -2 -15   50.69   30.90
   0   2  15   28.30   29.80
 -15   3  15   15.50   33.90
 -15   3  15  -12.60   38.00
 -13   3  15  324.07   67.79
 -13   3  15  244.78   57.59
 -11   3  15   59.89   40.40
 -11   3  15   23.40   32.90
  -9   3  15  -32.20   28.70
  -9   3  15   27.90   23.40
  -7   3  15  170.88   47.60
  -7   3  15   48.60   33.00
  -5   3  15  504.95   83.99
  -5   3  15  547.95   85.59
  -3   3  15   47.10   28.60
   1  -3 -15   20.30   17.40
  -1   3  15   71.79   31.90
  -1  -3 -15   76.99   42.50
   1   3  15  166.88   61.59
 -14   4  15   48.70   40.70
 -14   4  15  141.09   52.09
 -12   4  15   91.59   41.50
 -12   4  15   46.00   39.30
 -10   4  15   99.29   44.20
 -10   4  15  180.28   52.49
  -8   4  15  125.89   41.70
  -8   4  15  142.59   52.19
  -6   4  15  124.39   43.10
  -6   4  15   -4.60   29.70
  -4   4  15  110.79   40.60
   2  -4 -15  460.15   85.49
  -2   4  15  509.95   83.19
   0  -4 -15   30.50   35.00
   0   4  15   45.00   36.90
 -11   5  15   -8.40   24.50
 -11   5  15   91.39   42.90
  -9   5  15   37.60   32.10
  -9   5  15   37.50   32.70
  -7   5  15   99.09   43.60
  -7   5  15  163.08   41.60
  -5   5  15  540.25   88.79
  -5   5  15  455.15   80.49
  -3   5  15   80.59   42.90
   1  -5 -15  -47.50   28.40
  -1   5  15   65.49   35.00
 -10   6  15  -26.50   23.20
  -8   6  15  312.67   77.69
  -6   6  15   56.19   32.50
  -6   6  15   84.89   41.00
  -4   6  15  -48.70   32.40
   2  -6 -15  150.38   49.50
  -2   6  15   94.39   41.50
  -5   7  15   21.30   34.50
  -3   7  15   99.59   59.99
  -8  -6  16  -10.30   20.70
  -8  -6  16    5.70   18.00
 -11  -5  16  161.38   57.19
 -11  -5  16  137.09   38.10
  -9  -5  16   74.69   27.30
  -9  -5  16    5.00   35.90
  -7  -5  16   56.59   26.20
  -7  -5  16   61.69   44.30
  -5  -5  16  119.39   32.80
  -5  -5  16  105.59   48.10
 -12  -4  16  128.39   51.19
 -12  -4  16  237.18   51.89
 -10  -4  16   44.70   34.20
 -10  -4  16   70.69   27.40
  -8  -4  16  158.38   40.30
  -8  -4  16  114.19   46.70
  -6  -4  16  134.89   37.30
  -6  -4  16   91.09   39.40
  -4  -4  16  138.79   54.09
  -4  -4  16  137.59   31.90
 -13  -3  16  180.38   55.69
 -13  -3  16  296.77   59.09
 -11  -3  16  119.79   62.59
  -9  -3  16   78.79   34.60
  -7  -3  16  243.78   76.79
  -5  -3  16   17.60   26.30
  -5  -3  16   28.60   24.30
  -3  -3  16  145.39   48.60
  -3  -3  16  140.29   38.80
 -14  -2  16  306.67   62.19
 -14  -2  16  206.28   59.89
 -12  -2  16  235.48   64.59
 -12  -2  16  190.08   52.39
 -10  -2  16   38.50   24.10
 -10  -2  16   -8.20   18.90
  -8  -2  16  510.65   91.79
  -8  -2  16  519.95   67.09
  -6  -2  16   73.89   29.70
  -6  -2  16   46.90   35.80
  -4  -2  16   -8.80   14.50
  -4  -2  16   35.10   17.30
  -2  -2  16  327.07   55.99
  -2  -2  16  282.57   73.89
 -13  -1  16  281.87   63.89
 -13  -1  16  344.57   68.19
 -11  -1  16   40.60   26.20
 -11  -1  16   45.30   33.30
  -9  -1  16  165.08   50.69
  -9  -1  16  112.69   40.30
  -7  -1  16  552.34   91.69
  -7  -1  16  711.03   76.49
  -5  -1  16   33.80   26.60
  -5  -1  16    1.20   22.50
  -3  -1  16  536.95  100.79
  -3  -1  16  553.94   71.79
  -1  -1  16   76.59   34.50
 -14   0  16  169.28   53.19
 -14   0  16  100.79   46.00
 -12   0  16   12.70   30.60
 -12   0  16   14.40   30.90
 -10   0  16   20.70   24.90
 -10   0  16   60.29   32.40
  -8   0  16  537.15   92.99
  -8   0  16  599.44   74.39
  -6   0  16   72.29   31.50
  -6   0  16   59.09   37.10
  -4   0  16  106.49   43.30
  -4   0  16   45.50   33.10
  -2   0  16  295.57   62.99
 -15   1  16  -32.80   26.20
 -15   1  16   20.50   31.00
 -13   1  16  348.67   71.09
 -13   1  16  299.67   73.09
 -11   1  16  180.28   52.39
 -11   1  16  105.99   41.80
  -9   1  16  125.49   37.80
  -9   1  16   47.00   28.20
  -7   1  16  604.14   76.59
  -7   1  16  464.45   88.49
  -5   1  16    9.00   31.80
  -5   1  16  -15.30   22.20
  -1   1  16   65.59   34.60
 -14   2  16  298.47   69.89
 -14   2  16  254.57   66.79
 -12   2  16  227.38   58.19
 -12   2  16  192.18   57.29
 -10   2  16   -0.30   28.70
 -10   2  16  -45.50   20.00
  -8   2  16  506.15   89.49
  -8   2  16  670.43   84.99
  -6   2  16   74.79   31.90
  -6   2  16   -4.80   33.80
  -4   2  16   16.40   28.60
  -4   2  16  -11.90   27.80
  -2   2  16  324.27   66.99
 -13   3  16  175.28   56.29
 -13   3  16  268.37   64.99
 -11   3  16   20.80   37.00
 -11   3  16   68.39   37.20
  -9   3  16  109.89   45.50
  -9   3  16  147.19   46.20
  -7   3  16  280.57   62.29
  -7   3  16  256.87   66.69
  -5   3  16   66.09   37.70
  -5   3  16  -19.10   30.60
  -3   3  16  162.28   50.19
 -12   4  16  133.49   48.20
 -12   4  16  200.98   60.39
 -10   4  16   46.70   35.80
 -10   4  16   37.10   30.30
  -8   4  16  100.09   40.30
  -8   4  16  181.08   51.69
  -6   4  16   51.69   46.70
  -6   4  16   35.80   36.80
  -4   4  16   55.39   42.70
 -11   5  16  193.88   54.99
  -9   5  16   44.50   32.80
  -9   5  16   41.90   39.90
  -7   5  16  -16.10   34.70
  -7   5  16   20.50   40.30
  -5   5  16  141.99   49.60
  -5   5  16   79.99   45.60
  -8   6  16   23.20   31.40
 -10  -2  17    0.30   21.90
 -10  -2  17   27.00   47.70
  -8  -2  17   34.30   27.40
  -8  -2  17  132.39   55.89
 -11  -1  17   55.49   31.40
 -11  -1  17   27.10   30.50
  -9  -1  17  -20.80   28.70
  -9  -1  17  -33.10   19.30
  -7  -1  17    0.90   34.20
  -7  -1  17  -17.20   20.40
 -12   0  17   26.70   30.30
 -12   0  17  -14.60   30.50
 -10   0  17  -54.39   20.00
  -8   0  17    7.50   21.10
  -8   0  17   70.69   44.30
  -6   0  17   -1.20   36.30
  -6   0  17    4.30   23.00
 -11   1  17  147.19   58.79
 -11   1  17   -5.30   38.50
  -9   1  17  -28.60   30.50
  -9   1  17   75.79   33.10
  -7   1  17  -34.70   40.80
  -7   1  17  -48.70   26.50
 -10   2  17  139.79   54.59
  -8   2  17   60.49   36.10
  -8   2  17   92.69   53.79
   0   0   0    0.00    0.00

_computing_structure_solution     'SHELXT 2014/5 (Sheldrick, 2014)'
;
_shelx_hkl_checksum              67509
_shelx_fab_file
;
-21 1 4 -1.4749 0.3428
-21 1 5 2.2454 0.2745
-21 1 6 0.9124 -0.0918
-21 1 7 -2.6948 -0.3413
-21 1 8 -0.2268 -0.1887
-21 1 9 3.7370 0.3523
-21 1 10 0.1232 0.4106
-21 3 5 0.0603 -0.1761
-21 3 6 -1.1431 -0.3760
-21 3 7 1.7772 0.0913
-21 3 8 0.4628 0.4908
-21 3 9 -3.5458 0.0507
-20 0 2 -0.8783 -0.4152
-20 0 4 -0.3473 0.5475
-20 0 6 1.1384 -0.8293
-20 0 8 -0.8000 0.9120
-20 0 10 2.3462 -0.7432
-20 0 12 -3.5966 0.5479
-20 2 1 -0.3360 -0.3704
-20 2 2 0.8472 0.0750
-20 2 3 -0.5855 0.6242
-20 2 4 -0.9229 -0.0232
-20 2 5 2.7421 -0.8155
-20 2 6 1.3198 0.1151
-20 2 7 -3.0364 0.8864
-20 2 8 -1.4233 -0.0990
-20 2 9 1.9335 -0.7212
-20 2 10 -0.7138 0.0856
-20 2 11 -1.8361 0.4124
-20 2 12 2.4750 -0.1715
-20 4 2 -0.6030 0.3784
-20 4 3 -0.0236 -0.3797
-20 4 4 2.1711 -0.4179
-20 4 5 -1.4552 0.4255
-20 4 6 -3.8991 0.3382
-20 4 7 1.1594 -0.3317
-20 4 8 3.2199 -0.2528
-20 4 9 -0.1599 0.1279
-20 4 10 -0.4276 0.0544
-20 4 11 1.1362 -0.0095
-20 6 5 -0.2737 0.0181
-20 6 6 2.1843 -0.1562
-20 6 7 0.6685 -0.1005
-20 6 8 -1.0272 -0.0624
-19 1 1 -2.4536 -0.6756
-19 1 2 -1.8007 0.8508
-19 1 3 3.3929 0.3087
-19 1 4 2.3793 -0.8661
-19 1 5 -2.7313 0.0535
-19 1 6 -1.0808 0.7159
-19 1 7 1.5536 -0.0550
-19 1 8 -0.1678 -0.3553
-19 1 9 -2.6908 -0.0622
-19 1 10 0.1566 -0.0011
-19 1 11 2.5091 0.1024
-19 1 12 -0.3523 0.0804
-19 1 13 -0.2677 -0.1843
-19 3 1 0.6463 0.7402
-19 3 2 2.8516 -0.0917
-19 3 3 0.2984 -0.5364
-19 3 4 -3.7551 0.2189
-19 3 5 -0.4985 0.3087
-19 3 6 1.2704 -0.1591
-19 3 7 -0.8647 -0.1912
-19 3 8 0.5830 -0.0778
-19 3 9 3.0968 0.0280
-19 3 10 0.3129 0.1987
-19 3 11 -3.0206 0.0714
-19 3 12 -0.1549 -0.1202
-19 3 13 1.0874 0.0283
-19 5 1 -0.1917 -0.2302
-19 5 2 -1.2262 -0.1725
-19 5 3 -1.6734 0.0863
-19 5 4 1.5453 0.1647
-19 5 5 1.5501 0.0725
-19 5 6 0.0625 -0.2169
-19 5 7 1.2303 -0.1934
-19 5 8 -0.3683 0.2354
-19 5 9 -2.9751 0.3102
-19 5 10 -1.4725 -0.1162
-19 5 11 1.9135 -0.2339
-19 7 3 0.5813 0.1590
-19 7 4 -0.8279 -0.0068
-19 7 5 -0.7732 -0.3747
-19 7 6 0.0725 0.0196
-19 7 7 -1.2742 0.4086
-19 7 8 -0.5079 0.0420
-19 7 9 1.6083 -0.3383
-18 0 2 1.6675 0.1667
-18 0 4 1.2482 -0.1298
-18 0 6 -2.8345 0.5575
-18 0 8 0.9748 -0.8731
-18 0 10 -1.2453 0.8595
-18 0 12 2.2993 -0.7234
-18 0 14 -0.7380 0.5414
-18 2 1 1.1633 0.0640
-18 2 2 -1.4175 -0.2077
-18 2 3 0.6462 -0.1446
-18 2 4 0.3303 0.0221
-18 2 5 -4.0975 0.4388
-18 2 6 -0.2645 -0.1335
-18 2 7 4.1706 -0.7808
-18 2 8 1.5450 0.1690
-18 2 9 -1.8791 0.8216
-18 2 10 -0.2837 -0.1630
-18 2 11 1.2436 -0.6254
-18 2 12 -1.4845 0.2203
-18 2 13 -0.5334 0.5200
-18 2 14 0.8473 -0.1877
-18 4 1 -1.6496 -0.2548
-18 4 2 0.6109 -0.1629
-18 4 3 -0.0956 0.2268
-18 4 4 -2.1994 0.2525
-18 4 5 3.3263 -0.3572
-18 4 6 4.1550 -0.2933
-18 4 7 -2.5704 0.4594
-18 4 8 -3.7556 0.3278
-18 4 9 -0.1835 -0.3399
-18 4 10 0.8876 -0.1939
-18 4 11 -0.1927 0.2087
-18 4 12 1.1680 0.0264
-18 4 13 0.5763 -0.2481
-18 6 1 1.3954 -0.0764
-18 6 2 0.6779 0.3818
-18 6 3 -0.2603 -0.0084
-18 6 4 1.3551 -0.4013
-18 6 5 -1.3246 0.0487
-18 6 6 -3.4374 0.3391
-18 6 7 0.3511 0.0007
-18 6 8 1.5604 -0.2153
-18 6 9 0.8995 -0.0775
-18 6 10 1.4274 -0.0205
-18 6 11 0.6739 0.0479
-18 6 12 -1.9064 0.1150
-18 8 2 -1.5181 -0.2652
-18 8 3 -0.9550 -0.1859
-18 8 4 -0.0899 0.2479
-18 8 5 1.9571 0.1289
-18 8 6 1.8792 -0.0654
-18 8 7 -1.4677 -0.0949
-18 8 8 -0.2658 -0.0942
-18 8 9 1.6774 0.0218
-17 1 1 2.8988 0.6551
-17 1 2 2.4953 -0.8504
-17 1 3 -4.6586 -0.1721
-17 1 4 -3.2299 1.1385
-17 1 5 3.1901 -0.3900
-17 1 6 1.1960 -1.2225
-17 1 7 -0.0616 0.5005
-17 1 8 0.6168 0.9651
-17 1 9 1.0777 -0.3577
-17 1 10 -0.5131 -0.6181
-17 1 11 -1.7144 0.2063
-17 1 12 0.5007 0.4484
-17 1 13 0.3465 -0.0147
-17 1 14 -0.2452 -0.3339
-17 1 15 -0.7785 -0.1665
-17 3 1 -0.4879 -0.7065
-17 3 2 -4.4705 0.1755
-17 3 3 -0.2341 0.5449
-17 3 4 5.6871 -0.6042
-17 3 5 0.8396 -0.3603
-17 3 6 -1.3923 0.7637
-17 3 7 -0.2841 0.2758
-17 3 8 -1.7592 -0.5396
-17 3 9 -2.1688 -0.1423
-17 3 10 0.4619 0.3177
-17 3 11 2.7321 0.0552
-17 3 12 0.0336 -0.2518
-17 3 13 -1.3405 -0.1257
-17 3 14 -0.3026 0.1188
-17 5 1 -0.6617 0.3046
-17 5 2 2.7995 0.1234
-17 5 3 3.0407 -0.2797
-17 5 4 -3.2961 0.0374
-17 5 5 -2.6926 0.2736
-17 5 6 -0.2535 -0.0422
-17 5 7 -0.8358 -0.1718
-17 5 8 1.7015 -0.0528
-17 5 9 3.0569 -0.0244
-17 5 10 0.9272 0.0290
-17 5 11 -2.0109 0.0478
-17 5 12 -1.6535 0.0453
-17 5 13 0.4117 0.0455
-17 7 1 0.2097 -0.1663
-17 7 2 -1.8053 -0.0706
-17 7 3 -2.6520 0.0006
-17 7 4 1.5923 0.0660
-17 7 5 2.0598 0.1333
-17 7 6 0.3460 -0.0940
-17 7 7 1.7240 -0.2484
-17 7 8 -0.2020 0.0612
-17 7 9 -2.3290 0.3160
-17 7 10 -1.5951 -0.0005
-17 7 11 -0.2010 -0.1842
-17 7 12 1.1440 -0.0107
-17 9 2 1.8258 0.0419
-17 9 3 2.5148 0.1294
-17 9 4 -1.0057 0.1014
-17 9 5 -2.0159 -0.2662
-17 9 6 -0.1619 -0.1458
-17 9 7 -0.8318 0.2684
-17 9 8 -0.4196 0.1662
-17 9 9 0.6475 -0.2390
-16 0 2 -3.0459 0.2008
-16 0 4 -1.6352 -0.4823
-16 0 6 4.3487 0.1302
-16 0 8 -0.9992 0.2901
-16 0 10 0.1460 -0.4899
-16 0 12 -0.6857 0.5281
-16 0 14 -0.6642 -0.4421
-16 2 1 -2.3101 0.4105
-16 2 2 2.3372 0.3281
-16 2 3 -0.0591 -0.6044
-16 2 4 0.0777 -0.0358
-16 2 5 4.8926 0.3686
-16 2 6 -0.9621 0.0893
-16 2 7 -4.7628 0.0954
-16 2 8 -1.5106 -0.1369
-16 2 9 1.5141 -0.3524
-16 2 10 1.1462 0.1614
-16 2 11 -0.5011 0.3967
-16 2 12 0.2208 -0.2103
-16 2 13 -0.3291 -0.4458
-16 2 14 0.2634 0.1654
-16 2 15 0.5696 0.4780
-16 4 1 3.2951 0.1158
-16 4 2 -0.4305 -0.2209
-16 4 3 -0.5261 0.1139
-16 4 4 1.8758 0.1369
-16 4 5 -4.7510 0.0128
-16 4 6 -3.7848 0.0077
-16 4 7 3.5748 -0.2384
-16 4 8 3.7807 -0.1682
-16 4 9 0.7387 0.2538
-16 4 10 -1.1349 0.1577
-16 4 11 -0.9454 -0.2132
-16 4 12 -0.7829 -0.0832
-16 4 13 0.6430 0.2772
-16 4 14 0.8617 0.0939
-16 4 15 -0.2131 -0.2889
-16 6 1 -2.4128 -0.0372
-16 6 2 -1.7437 -0.1727
-16 6 3 0.2642 0.0494
-16 6 4 -1.5043 0.1952
-16 6 5 2.8870 -0.1017
-16 6 6 4.2279 -0.2918
-16 6 7 -1.2602 0.0757
-16 6 8 -1.6779 0.3094
-16 6 9 -1.4192 0.0227
-16 6 10 -1.9798 -0.1486
-16 6 11 0.2317 -0.0624
-16 6 12 2.4768 0.0715
-16 6 13 0.7533 0.0186
-16 6 14 -1.3670 -0.1071
-16 8 1 0.2085 -0.1550
-16 8 2 2.4539 0.3010
-16 8 3 1.5928 0.1600
-16 8 4 1.0580 -0.3121
-16 8 5 -2.9244 -0.1315
-16 8 6 -3.4883 0.2500
-16 8 7 1.7786 0.1372
-16 8 8 0.3232 -0.1262
-16 8 9 -1.5271 -0.0945
-16 8 10 2.4137 -0.0617
-16 8 11 2.9798 0.0865
-16 8 12 -1.4426 0.1271
-16 10 1 1.4245 0.2080
-16 10 2 -1.0003 -0.1671
-16 10 3 -2.7140 -0.2553
-16 10 4 -2.3425 0.0762
-16 10 5 2.5929 0.1085
-16 10 6 4.0300 0.0006
-16 10 7 -1.5979 0.0142
-16 10 8 -1.6456 -0.0131
-16 10 9 2.3821 -0.1392
-15 1 1 -1.7800 -0.3672
-15 1 2 -2.6939 0.3447
-15 1 3 5.3939 0.0343
-15 1 4 3.7839 -0.8001
-15 1 5 -3.4078 0.4678
-15 1 6 -1.1098 1.1211
-15 1 7 -1.6132 -0.6568
-15 1 8 -1.0160 -1.1312
-15 1 9 0.4840 0.6038
-15 1 10 0.7779 0.9887
-15 1 11 0.5370 -0.4393
-15 1 12 -0.6913 -0.8615
-15 1 13 0.0931 0.2036
-15 1 14 0.1440 0.7134
-15 1 15 1.2609 -0.0114
-15 1 16 0.3553 -0.4469
-15 3 1 -0.4031 0.2760
-15 3 2 5.1339 -0.0655
-15 3 3 0.1284 -0.2629
-15 3 4 -7.1753 0.6022
-15 3 5 -0.9839 0.2382
-15 3 6 1.2309 -0.9302
-15 3 7 1.4511 -0.2503
-15 3 8 2.7610 0.8747
-15 3 9 1.1167 0.1948
-15 3 10 -1.1263 -0.7212
-15 3 11 -1.9704 -0.1595
-15 3 12 0.3898 0.5936
-15 3 13 1.0662 0.2193
-15 3 14 0.6278 -0.4022
-15 3 15 -1.1186 -0.2823
-15 5 1 1.5491 -0.1617
-15 5 2 -3.7063 -0.0012
-15 5 3 -4.1321 0.2688
-15 5 4 4.9325 -0.1984
-15 5 5 3.5167 -0.4375
-15 5 6 0.5298 0.2312
-15 5 7 0.4123 0.4324
-15 5 8 -2.8718 -0.1271
-15 5 9 -2.8559 -0.2729
-15 5 10 -0.2789 0.0932
-15 5 11 1.8418 0.1984
-15 5 12 1.4136 -0.1090
-15 5 13 -0.2593 -0.1817
-15 5 14 -1.7964 0.0390
-15 5 15 -0.2600 0.1418
-15 7 1 -1.3117 0.2341
-15 7 2 2.3216 0.0873
-15 7 3 4.7076 -0.1773
-15 7 4 -2.3275 -0.0941
-15 7 5 -3.1813 0.1489
-15 7 6 -0.8485 0.1478
-15 7 7 -2.1845 -0.0091
-15 7 8 0.9406 -0.1541
-15 7 9 2.9125 -0.1371
-15 7 10 1.4781 0.1363
-15 7 11 0.1483 0.1036
-15 7 12 -1.3220 -0.0838
-15 7 13 -1.8200 -0.0503
-15 9 1 1.5070 -0.1270
-15 9 2 -1.5950 -0.1670
-15 9 3 -4.5652 -0.0607
-15 9 4 0.6066 0.0388
-15 9 5 2.6231 0.1503
-15 9 6 0.5545 0.0393
-15 9 7 1.9498 -0.2164
-15 9 8 0.6214 -0.1022
-15 9 9 -1.3658 0.2825
-15 9 10 -1.0934 0.0159
-15 9 11 -1.3905 -0.2513
-15 9 12 -0.6288 0.0493
-15 11 1 -1.5984 -0.0474
-15 11 2 0.3392 -0.0466
-15 11 3 3.4839 0.0784
-15 11 4 0.9772 0.2293
-15 11 5 -1.2178 0.0115
-15 11 6 -0.8687 -0.2392
-15 11 7 -1.5189 -0.0808
-15 11 8 -0.4338 0.2085
-14 0 2 4.8301 -0.4563
-14 0 4 2.0763 0.9024
-14 0 6 -5.6983 -0.8469
-14 0 8 0.6376 0.5587
-14 0 10 0.5768 -0.2350
-14 0 12 -0.4703 0.0188
-14 0 14 1.9331 0.0424
-14 0 16 0.0355 -0.0518
-14 2 1 3.5981 -0.7010
-14 2 2 -3.5261 -0.3108
-14 2 3 -0.9205 1.1169
-14 2 4 -0.6791 0.0396
-14 2 5 -5.2456 -1.1114
-14 2 6 2.3365 0.0062
-14 2 7 4.6102 0.8047
-14 2 8 1.5015 0.0053
-14 2 9 -0.8538 -0.4867
-14 2 10 -1.5621 -0.0671
-14 2 11 -0.0272 0.2302
-14 2 12 0.7061 0.1319
-14 2 13 1.0345 -0.0122
-14 2 14 -1.4528 -0.0919
-14 2 15 -0.6940 -0.1847
-14 2 16 -0.0418 -0.0447
-14 4 1 -5.1489 0.0926
-14 4 2 0.1705 0.4820
-14 4 3 1.6853 -0.4195
-14 4 4 -1.0959 -0.4893
-14 4 5 5.6791 0.3972
-14 4 6 2.7573 0.3439
-14 4 7 -3.7894 -0.2206
-14 4 8 -3.3395 -0.1479
-14 4 9 -1.4314 0.1136
-14 4 10 1.0831 0.0594
-14 4 11 1.7048 -0.0222
-14 4 12 0.3872 -0.0326
-14 4 13 -1.8852 -0.0937
-14 4 14 -0.0756 -0.0085
-14 4 15 0.7958 0.1632
-14 6 1 3.5106 0.0930
-14 6 2 3.1490 -0.0917
-14 6 3 -0.6412 -0.0743
-14 6 4 1.1471 0.1050
-14 6 5 -4.1600 0.1074
-14 6 6 -4.2459 0.0491
-14 6 7 1.6881 -0.0831
-14 6 8 1.3059 -0.1546
-14 6 9 2.0152 0.0043
-14 6 10 2.4285 0.1248
-14 6 11 -1.0725 0.0632
-14 6 12 -2.8353 -0.1198
-14 6 13 0.5873 -0.0533
-14 6 14 1.4139 0.1169
-14 6 15 0.1070 -0.0122
-14 8 1 0.0536 0.0244
-14 8 2 -3.6553 -0.2391
-14 8 3 -1.9910 -0.0497
-14 8 4 -1.7677 0.2624
-14 8 5 3.6434 0.0704
-14 8 6 4.5404 -0.2925
-14 8 7 -1.7241 -0.1027
-14 8 8 0.0337 0.2354
-14 8 9 1.0319 0.0824
-14 8 10 -3.4429 -0.0805
-14 8 11 -2.5009 -0.1633
-14 8 12 2.5230 -0.0120
-14 8 13 1.8623 0.2575
-14 10 1 -2.2866 -0.2027
-14 10 2 1.1442 0.1742
-14 10 3 2.8974 0.2510
-14 10 4 3.8493 -0.0860
-14 10 5 -2.0165 -0.1839
-14 10 6 -5.1939 0.0549
-14 10 7 0.9109 0.0768
-14 10 8 1.0115 -0.0863
-14 10 9 -2.4053 0.0853
-14 10 10 0.5953 0.0157
-14 10 11 3.5491 -0.0396
-14 12 2 1.0530 0.0423
-14 12 3 -0.8129 -0.0472
-14 12 4 -4.2088 -0.0625
-14 12 5 -0.8604 -0.1429
-14 12 6 3.6129 -0.0309
-14 12 7 0.7752 0.2231
-13 1 1 -0.0593 -0.0483
-13 1 2 2.6200 0.4592
-13 1 3 -6.6014 0.0208
-13 1 4 -4.0571 -0.0971
-13 1 5 3.3495 -0.1833
-13 1 6 0.6557 -0.2908
-13 1 7 3.5272 0.3513
-13 1 8 1.3520 0.5784
-13 1 9 -1.4723 -0.4535
-13 1 10 -0.8174 -0.7404
-13 1 11 0.4946 0.3923
-13 1 12 0.8459 0.7955
-13 1 13 -0.8945 -0.2283
-13 1 14 -0.0609 -0.7873
-13 1 15 -1.4204 0.1264
-13 1 16 -0.3658 0.5989
-13 3 1 1.4253 0.3395
-13 3 2 -5.2366 -0.2150
-13 3 3 0.7160 -0.1984
-13 3 4 8.1688 -0.1138
-13 3 5 0.8245 0.0350
-13 3 6 -0.4167 0.4227
-13 3 7 -2.5527 0.0823
-13 3 8 -3.4966 -0.5897
-13 3 9 -0.3090 -0.1136
-13 3 10 1.3802 0.6445
-13 3 11 1.0443 0.1453
-13 3 12 -1.0283 -0.5952
-13 3 13 -0.3013 -0.2212
-13 3 14 -0.6427 0.4996
-13 3 15 1.1333 0.2842
-13 3 16 1.2469 -0.3426
-13 5 1 -1.9776 -0.1327
-13 5 2 4.1395 -0.1179
-13 5 3 4.4103 -0.0127
-13 5 4 -6.2806 0.1935
-13 5 5 -3.6865 0.2561
-13 5 6 -1.2042 -0.1950
-13 5 7 -0.0935 -0.3581
-13 5 8 3.7044 0.1511
-13 5 9 2.4653 0.3322
-13 5 10 -0.2458 -0.1259
-13 5 11 -1.5356 -0.2853
-13 5 12 -0.4674 0.1137
-13 5 13 0.0304 0.2269
-13 5 14 1.6793 -0.0753
-13 5 15 0.2829 -0.2113
-13 7 1 1.7722 -0.2437
-13 7 2 -2.5211 -0.0206
-13 7 3 -6.1281 0.2425
-13 7 4 2.9302 0.0736
-13 7 5 3.6888 -0.2693
-13 7 6 1.5548 -0.1389
-13 7 7 2.6455 0.1692
-13 7 8 -1.6165 0.1712
-13 7 9 -3.2454 -0.0465
-13 7 10 -1.1517 -0.2152
-13 7 11 0.2756 0.0051
-13 7 12 0.8742 0.1493
-13 7 13 1.5625 0.0325
-13 7 14 -0.9853 -0.0100
-13 9 1 -2.2534 0.1328
-13 9 2 1.0797 0.2544
-13 9 3 6.1995 -0.0314
-13 9 4 -0.0913 -0.1717
-13 9 5 -2.7327 -0.0040
-13 9 6 -1.0440 0.0615
-13 9 7 -3.1751 0.0716
-13 9 8 -0.7189 0.0120
-13 9 9 2.1684 -0.1944
-13 9 10 1.4342 0.1070
-13 9 11 0.9789 0.2519
-13 9 12 0.4195 -0.1113
-13 9 13 -1.8452 -0.1558
-13 11 1 2.4472 0.0972
-13 11 2 0.8708 -0.0184
-13 11 3 -4.4878 -0.0658
-13 11 4 -2.0089 -0.1114
-13 11 5 0.6758 -0.0733
-13 11 6 0.6485 0.1871
-13 11 7 2.7783 0.1852
-13 11 8 1.4736 -0.2050
-13 11 9 -0.6203 -0.0288
-13 11 10 -0.5404 0.0543
-13 13 4 1.3590 0.0684
-12 0 2 -6.9581 0.4027
-12 0 4 -3.8647 -0.7756
-12 0 6 7.4380 1.0697
-12 0 8 0.1893 -1.1053
-12 0 10 -0.8065 0.8527
-12 0 12 0.7271 -0.5951
-12 0 14 -2.5242 0.4457
-12 0 16 -0.4774 -0.2551
-12 2 1 -5.2193 0.5277
-12 2 2 5.0335 0.1011
-12 2 3 1.6231 -0.9438
-12 2 4 2.3365 -0.0179
-12 2 5 5.8617 1.2058
-12 2 6 -4.1457 -0.0951
-12 2 7 -3.9054 -1.2744
-12 2 8 -1.6638 0.1416
-12 2 9 0.0031 1.1202
-12 2 10 1.4511 -0.0590
-12 2 11 0.1308 -0.8414
-12 2 12 -0.9024 -0.0266
-12 2 13 -1.3308 0.5833
-12 2 14 2.2017 0.0043
-12 2 15 0.5139 -0.2612
-12 2 16 -0.0187 0.0863
-12 4 1 7.4372 -0.2292
-12 4 2 -0.1127 -0.3731
-12 4 3 -2.6081 0.4450
-12 4 4 -0.2121 0.5181
-12 4 5 -6.8196 -0.5512
-12 4 6 -1.1878 -0.4882
-12 4 7 3.3194 0.5698
-12 4 8 2.6527 0.3848
-12 4 9 2.0926 -0.4761
-12 4 10 -0.7782 -0.2900
-12 4 11 -1.6740 0.3155
-12 4 12 -0.1738 0.2287
-12 4 13 2.6550 -0.1865
-12 4 14 -0.6883 -0.1796
-12 4 15 -1.2531 0.0588
-12 4 16 0.5584 0.0233
-12 6 1 -4.9121 -0.0400
-12 6 2 -4.4893 0.1986
-12 6 3 1.0121 0.0670
-12 6 4 -0.5438 -0.2596
-12 6 5 5.4003 -0.0682
-12 6 6 3.6067 0.1801
-12 6 7 -1.5895 0.0354
-12 6 8 -0.6480 -0.0935
-12 6 9 -2.4806 -0.0126
-12 6 10 -2.4822 0.0176
-12 6 11 1.3800 -0.0418
-12 6 12 2.8119 0.0377
-12 6 13 -1.8558 0.0482
-12 6 14 -1.4213 -0.0061
-12 6 15 1.0610 0.0365
-12 8 1 -0.0595 0.0989
-12 8 2 4.8749 0.1291
-12 8 3 2.1618 -0.0637
-12 8 4 2.2161 -0.1380
-12 8 5 -4.1578 -0.0040
-12 8 6 -4.8732 0.1857
-12 8 7 1.3228 0.0236
-12 8 8 -0.5844 -0.2007
-12 8 9 -0.3411 0.0040
-12 8 10 3.8728 0.1545
-12 8 11 1.8152 0.1466
-12 8 12 -3.3048 -0.0819
-12 8 13 -0.8424 -0.2520
-12 8 14 1.6552 0.0314
-12 10 1 2.8366 0.0807
-12 10 2 -1.4990 -0.1509
-12 10 3 -2.7242 -0.1299
-12 10 4 -4.9294 0.0377
-12 10 5 1.2070 0.1556
-12 10 6 5.6907 -0.0226
-12 10 7 -0.0229 -0.0723
-12 10 8 -0.1741 0.1363
-12 10 9 2.0290 -0.0720
-12 10 10 -1.6948 -0.1151
-12 10 11 -3.4672 -0.0431
-12 10 12 0.7356 -0.1223
-12 12 1 -1.8766 -0.1059
-12 12 2 -1.1104 -0.0382
-12 12 3 -0.1288 -0.0389
-12 12 4 4.8921 0.1110
-12 12 5 2.6365 0.1464
-12 12 6 -3.4415 -0.0531
-12 12 7 -1.7236 -0.2089
-12 12 8 -0.3198 -0.2398
-12 12 9 -1.2951 0.2339
-11 1 1 0.3922 0.3662
-11 1 2 -3.0438 -1.0348
-11 1 3 10.2469 0.0005
-11 1 4 4.3873 1.0169
-11 1 5 -3.3354 -0.2852
-11 1 6 0.1970 -0.8167
-11 1 7 -5.7038 0.2473
-11 1 8 -1.6547 0.4332
-11 1 9 1.6338 -0.0294
-11 1 10 0.6108 -0.0633
-11 1 11 -0.9306 -0.0590
-11 1 12 -0.8947 -0.1978
-11 1 13 1.6106 0.0487
-11 1 14 -0.0519 0.4366
-11 1 15 1.4067 -0.1045
-11 1 16 0.3680 -0.4589
-11 1 17 0.4591 0.1846
-11 3 1 -1.3601 -0.7407
-11 3 2 6.4030 0.4461
-11 3 3 -3.3217 0.5616
-11 3 4 -9.3002 -0.5438
-11 3 5 -0.2341 -0.3051
-11 3 6 -1.1683 0.4639
-11 3 7 3.5510 0.1479
-11 3 8 4.0012 -0.1776
-11 3 9 0.0127 -0.0759
-11 3 10 -1.1294 -0.0745
-11 3 11 -0.3452 0.0075
-11 3 12 1.6866 0.1822
-11 3 13 -0.6008 0.0907
-11 3 14 0.4517 -0.3006
-11 3 15 -0.8633 -0.1802
-11 3 16 -1.1560 0.3423
-11 5 1 1.7070 0.3560
-11 5 2 -5.3959 0.1706
-11 5 3 -3.6868 -0.3030
-11 5 4 7.7084 -0.0374
-11 5 5 3.1335 0.1448
-11 5 6 2.4357 -0.0318
-11 5 7 -0.0323 -0.0080
-11 5 8 -4.1501 -0.0082
-11 5 9 -2.0731 -0.0999
-11 5 10 0.4848 0.0307
-11 5 11 1.3356 0.1163
-11 5 12 -0.9618 -0.0355
-11 5 13 0.0652 -0.0931
-11 5 14 -0.9364 0.0686
-11 5 15 -0.3128 0.1723
-11 5 16 1.5549 -0.0501
-11 7 1 -1.6061 0.1962
-11 7 2 2.9798 -0.0663
-11 7 3 6.8484 -0.1684
-11 7 4 -3.4919 -0.0298
-11 7 5 -3.4287 0.1744
-11 7 6 -2.5317 0.0674
-11 7 7 -3.0941 -0.1501
-11 7 8 2.1293 -0.0960
-11 7 9 3.3310 0.1205
-11 7 10 0.7325 0.1925
-11 7 11 -1.1887 -0.0463
-11 7 12 0.0758 -0.1310
-11 7 13 -0.4865 -0.0343
-11 7 14 0.6298 -0.0183
-11 7 15 1.2811 0.0124
-11 9 1 2.3296 -0.1332
-11 9 2 -0.5255 -0.2464
-11 9 3 -7.1557 0.0753
-11 9 4 -0.4359 0.2161
-11 9 5 2.2442 -0.0899
-11 9 6 1.6464 -0.0845
-11 9 7 4.2594 0.0958
-11 9 8 0.6719 0.0389
-11 9 9 -2.9135 0.0260
-11 9 10 -1.6717 -0.1946
-11 9 11 0.2524 -0.1674
-11 9 12 -0.0927 0.1408
-11 9 13 0.8507 0.1174
-11 11 1 -2.6919 -0.0821
-11 11 2 -2.2341 0.0525
-11 11 3 4.9555 0.0439
-11 11 4 3.0875 -0.0055
-11 11 5 0.0979 0.1261
-11 11 6 -0.5808 -0.0884
-11 11 7 -3.8310 -0.3022
-11 11 8 -2.2956 0.1048
-11 11 9 1.2223 0.1082
-11 11 10 1.3942 0.0293
-11 11 11 0.4838 0.2106
-11 13 1 1.1894 -0.1615
-11 13 2 3.2404 0.0573
-11 13 3 -1.0936 0.2446
-11 13 4 -2.4799 0.0150
-11 13 5 -2.4437 -0.3975
-11 13 6 -1.2249 -0.1124
-11 13 7 2.7867 0.5646
-11 13 8 2.3167 0.1714
-10 0 2 9.8284 -0.0522
-10 0 4 8.0032 0.0862
-10 0 6 -10.0512 -0.5532
-10 0 8 -1.3657 0.9158
-10 0 10 0.6806 -0.9010
-10 0 12 -0.2464 0.7938
-10 0 14 2.3395 -0.7000
-10 0 16 1.3967 0.4561
-10 2 1 7.8939 0.0475
-10 2 2 -7.2295 0.2152
-10 2 3 -1.4570 0.0939
-10 2 4 -5.6843 -0.0196
-10 2 5 -7.4757 -0.4653
-10 2 6 6.5765 0.1165
-10 2 7 3.0741 0.8931
-10 2 8 2.0560 -0.2026
-10 2 9 0.8342 -1.0306
-10 2 10 -0.9797 0.1322
-10 2 11 0.1578 0.9529
-10 2 12 0.4503 -0.0464
-10 2 13 1.2441 -0.8511
-10 2 14 -2.2939 0.0528
-10 2 15 -0.0653 0.5548
-10 2 16 -0.3280 -0.1003
-10 2 17 -1.7084 -0.1310
-10 4 1 -11.0324 0.2089
-10 4 2 0.6098 -0.0794
-10 4 3 2.5178 -0.1352
-10 4 4 1.9560 -0.1569
-10 4 5 9.0106 0.2873
-10 4 6 -0.6024 0.2782
-10 4 7 -2.5972 -0.5090
-10 4 8 -2.0494 -0.3355
-10 4 9 -2.4921 0.5139
-10 4 10 0.4073 0.3239
-10 4 11 0.8285 -0.4079
-10 4 12 0.1739 -0.3229
-10 4 13 -2.7736 0.3509
-10 4 14 1.1300 0.3215
-10 4 15 1.3264 -0.2178
-10 4 16 -0.9507 -0.1539
-10 6 1 7.2022 -0.0820
-10 6 2 5.3990 -0.0670
-10 6 3 -0.8591 -0.0370
-10 6 4 0.1774 0.1422
-10 6 5 -7.0436 0.0149
-10 6 6 -2.7716 -0.1990
-10 6 7 1.1692 0.0158
-10 6 8 0.1112 0.2045
-10 6 9 2.6025 0.0262
-10 6 10 1.9208 -0.1005
-10 6 11 -0.9628 0.0034
-10 6 12 -2.3460 0.0535
-10 6 13 2.6173 -0.0111
-10 6 14 1.4114 -0.1229
-10 6 15 -1.9015 -0.0876
-10 8 1 -0.4804 -0.1468
-10 8 2 -5.8360 -0.0393
-10 8 3 -2.3061 0.1109
-10 8 4 -2.6952 0.0114
-10 8 5 4.6230 -0.0129
-10 8 6 4.7023 -0.0124
-10 8 7 -0.6990 0.0395
-10 8 8 0.9365 0.0876
-10 8 9 -0.3335 -0.0956
-10 8 10 -3.3081 -0.1648
-10 8 11 -1.1755 -0.0820
-10 8 12 3.4316 0.1244
-10 8 13 -0.0960 0.1643
-10 8 14 -2.5778 -0.0639
-10 10 1 -2.9797 0.0875
-10 10 2 1.9782 0.0963
-10 10 3 2.4217 -0.0517
-10 10 4 5.5109 0.0676
-10 10 5 -0.4986 -0.0352
-10 10 6 -5.5269 -0.0974
-10 10 7 -0.8352 -0.0250
-10 10 8 -0.4407 -0.1121
-10 10 9 -1.3325 0.0993
-10 10 10 2.0590 0.1756
-10 10 11 2.9464 0.0898
-10 10 12 -1.7088 0.0453
-10 10 13 -1.5875 -0.2255
-10 12 1 2.2511 -0.0812
-10 12 2 0.7604 -0.0167
-10 12 3 0.7669 0.2070
-10 12 4 -4.9215 -0.1276
-10 12 5 -3.8975 -0.2425
-10 12 6 2.8583 0.1309
-10 12 7 2.5036 0.2500
-10 12 8 0.9999 0.2049
-10 12 9 1.2287 -0.1815
-10 12 10 -0.4814 -0.3038
-10 12 11 -2.1837 0.0604
-10 14 1 -0.5474 0.2618
-10 14 2 -0.2088 0.2072
-10 14 3 -2.8833 -0.3158
-10 14 4 1.1318 -0.1859
-10 14 5 4.2937 0.3743
-10 14 6 1.1577 0.1946
-9 1 1 3.0306 -0.4272
-9 1 2 4.7964 0.9108
-9 1 3 -17.8775 -0.0094
-9 1 4 -5.1855 -1.2877
-9 1 5 3.8079 0.5854
-9 1 6 -1.2701 1.4405
-9 1 7 7.8780 -0.7181
-9 1 8 1.9143 -1.2257
-9 1 9 -1.0315 0.5084
-9 1 10 -0.2655 0.9011
-9 1 11 0.6963 -0.3345
-9 1 12 0.8366 -0.5720
-9 1 13 -1.8089 0.2099
-9 1 14 0.2380 0.1518
-9 1 15 -1.5196 -0.0214
-9 1 16 -0.3979 0.0816
-9 1 17 -0.9404 -0.1420
-9 3 1 -0.8876 0.6329
-9 3 2 -10.4473 -0.3776
-9 3 3 8.2904 -0.5754
-9 3 4 11.3772 0.8495
-9 3 5 -0.8123 0.3860
-9 3 6 3.2028 -1.0791
-9 3 7 -4.3493 -0.2900
-9 3 8 -4.2642 0.8683
-9 3 9 -0.2976 0.2527
-9 3 10 0.5367 -0.5879
-9 3 11 0.1136 -0.2105
-9 3 12 -2.1923 0.3780
-9 3 13 1.1771 0.1187
-9 3 14 -0.3033 -0.0694
-9 3 15 0.6133 -0.0060
-9 3 16 1.0016 -0.1577
-9 5 1 -0.8833 -0.3067
-9 5 2 9.0310 -0.1488
-9 5 3 2.2430 0.4061
-9 5 4 -9.7534 -0.1267
-9 5 5 -2.1126 -0.4374
-9 5 6 -4.0280 0.2478
-9 5 7 -0.0238 0.3682
-9 5 8 4.1620 -0.1573
-9 5 9 1.8534 -0.2244
-9 5 10 -0.4162 0.1031
-9 5 11 -1.4473 0.1842
-9 5 12 2.4183 -0.0578
-9 5 13 0.1694 -0.1501
-9 5 14 0.0489 -0.0527
-9 5 15 0.2063 -0.0288
-9 5 16 -1.1538 0.0914
-9 7 1 1.4138 -0.1288
-9 7 2 -4.4387 0.0926
-9 7 3 -7.3027 0.0380
-9 7 4 4.1691 0.0076
-9 7 5 2.6067 0.0129
-9 7 6 3.6695 0.0210
-9 7 7 3.4510 0.0339
-9 7 8 -2.3325 -0.0219
-9 7 9 -3.2480 -0.0914
-9 7 10 -0.4011 -0.0919
-9 7 11 2.5122 0.0132
-9 7 12 -1.0970 0.0292
-9 7 13 -1.1738 0.0507
-9 7 14 -0.2025 0.0996
-9 7 15 -0.4686 0.0233
-9 9 1 -2.0716 0.0961
-9 9 2 0.1963 0.1440
-9 9 3 7.5557 -0.0331
-9 9 4 0.8785 -0.1570
-9 9 5 -1.2747 0.0910
-9 9 6 -2.2578 0.0273
-9 9 7 -4.9609 -0.2105
-9 9 8 -0.6125 -0.0356
-9 9 9 3.4509 0.1307
-9 9 10 1.9156 0.2074
-9 9 11 -2.0404 0.0514
-9 9 12 -0.4624 -0.1103
-9 9 13 0.7820 -0.0240
-9 9 14 0.4935 -0.1017
-9 11 1 2.3073 0.0076
-9 11 2 3.4128 0.0109
-9 11 3 -4.8139 -0.0219
-9 11 4 -3.9587 0.0279
-9 11 5 -0.9352 -0.1494
-9 11 6 0.6570 0.0170
-9 11 7 4.3126 0.3763
-9 11 8 2.8062 0.0247
-9 11 9 -1.6896 -0.1707
-9 11 10 -2.3589 -0.1211
-9 11 11 0.4522 -0.1540
-9 11 12 0.4590 0.0513
-9 13 1 -0.4789 0.2836
-9 13 2 -4.7798 -0.0266
-9 13 3 0.2588 -0.2314
-9 13 4 3.6475 -0.0626
-9 13 5 3.2231 0.3437
-9 13 6 1.0152 0.1704
-9 13 7 -2.7959 -0.5289
-9 13 8 -2.7892 -0.2410
-9 13 9 -0.1066 0.2812
-8 0 2 -14.0527 -0.3415
-8 0 4 -14.1832 0.7523
-8 0 6 13.2321 -0.4141
-8 0 8 2.6648 -0.0674
-8 0 10 -0.4564 0.3010
-8 0 12 -0.3168 -0.4455
-8 0 14 -1.7741 0.5295
-8 0 16 -2.4465 -0.4070
-8 2 1 -12.4176 -0.6092
-8 2 2 10.5692 -0.4513
-8 2 3 0.3520 0.8846
-8 2 4 10.4198 0.0465
-8 2 5 10.1560 -0.6673
-8 2 6 -9.2504 -0.0580
-8 2 7 -2.4461 0.1438
-8 2 8 -2.6565 0.1422
-8 2 9 -1.4138 0.2081
-8 2 10 0.4530 -0.1137
-8 2 11 -0.6103 -0.4175
-8 2 12 0.1294 0.0600
-8 2 13 -1.0331 0.5832
-8 2 14 1.9436 -0.0622
-8 2 15 -0.4555 -0.4710
-8 2 16 0.9568 0.0782
-8 2 17 2.1724 0.1691
-8 4 1 16.8786 -0.0759
-8 4 2 -1.8636 0.5552
-8 4 3 -1.2107 -0.2966
-8 4 4 -3.8087 -0.3514
-8 4 5 -12.3521 0.2270
-8 4 6 2.1156 0.1602
-8 4 7 1.9903 0.0583
-8 4 8 1.8354 0.0088
-8 4 9 2.4376 -0.1628
-8 4 10 -0.2269 -0.0954
-8 4 11 0.4476 0.2007
-8 4 12 -0.1950 0.2003
-8 4 13 2.4618 -0.2718
-8 4 14 -1.2182 -0.2847
-8 4 15 -0.9929 0.1952
-8 4 16 0.9295 0.1792
-8 6 1 -10.9189 0.1697
-8 6 2 -5.7534 -0.1745
-8 6 3 -0.0939 0.0109
-8 6 4 -0.4132 0.1396
-8 6 5 9.1599 0.0200
-8 6 6 2.2431 0.0040
-8 6 7 -0.6408 -0.0302
-8 6 8 -0.0954 -0.0878
-8 6 9 -2.2922 -0.0492
-8 6 10 -0.7035 0.0238
-8 6 11 0.0665 0.0239
-8 6 12 1.4871 -0.0491
-8 6 13 -2.8281 -0.0219
-8 6 14 -1.3136 0.1575
-8 6 15 2.0910 0.1314
-8 6 16 -0.2116 -0.0959
-8 8 1 1.6368 0.1227
-8 8 2 6.3564 0.0064
-8 8 3 2.6696 -0.0876
-8 8 4 3.5032 0.0662
-8 8 5 -5.0968 -0.0207
-8 8 6 -4.3868 -0.1281
-8 8 7 -0.0333 -0.0535
-8 8 8 -0.7496 0.0155
-8 8 9 0.8479 0.1275
-8 8 10 1.7579 0.1330
-8 8 11 0.6508 0.0369
-8 8 12 -2.8613 -0.1051
-8 8 13 0.7909 -0.0678
-8 8 14 3.0384 0.0642
-8 8 15 -0.6012 -0.1110
-8 10 1 2.8738 -0.2043
-8 10 2 -2.3312 -0.0321
-8 10 3 -2.2509 0.2025
-8 10 4 -5.7599 -0.1832
-8 10 5 0.0937 -0.1111
-8 10 6 4.9037 0.2383
-8 10 7 1.5114 0.1547
-8 10 8 0.5289 0.0362
-8 10 9 0.4892 -0.1343
-8 10 10 -1.5062 -0.1613
-8 10 11 -2.1271 -0.0956
-8 10 12 2.1060 -0.0116
-8 10 13 1.3505 0.1741
-8 12 1 -2.7509 0.2629
-8 12 2 -0.3283 0.0717
-8 12 3 -0.7473 -0.3790
-8 12 4 4.4961 0.1174
-8 12 5 4.1979 0.3841
-8 12 6 -2.0983 -0.1656
-8 12 7 -2.8559 -0.3248
-8 12 8 -1.0887 -0.1541
-8 12 9 -0.8392 0.1310
-8 12 10 0.3808 0.2192
-8 12 11 2.1636 0.0303
-8 14 1 1.5972 -0.3924
-8 14 2 0.2414 -0.3519
-8 14 3 2.3765 0.3805
-8 14 4 -0.7882 0.2369
-8 14 5 -4.1892 -0.4275
-8 14 6 -1.7265 -0.1623
-8 14 7 1.4027 0.3001
-8 14 8 1.9653 0.3055
-7 1 1 -10.7450 0.2398
-7 1 2 -8.0752 -0.0791
-7 1 3 28.9735 -0.0737
-7 1 4 6.5296 0.6361
-7 1 5 -4.8182 -0.4614
-7 1 6 2.2580 -1.0844
-7 1 7 -9.5199 0.7003
-7 1 8 -2.0552 1.2001
-7 1 9 0.0196 -0.6223
-7 1 10 -0.0289 -1.1607
-7 1 11 -0.1896 0.4923
-7 1 12 -0.7498 0.9781
-7 1 13 1.3882 -0.3442
-7 1 14 -0.4782 -0.5975
-7 1 15 1.8984 0.1369
-7 1 16 0.4423 0.3113
-7 1 17 1.1912 0.0391
-7 3 1 5.4380 -0.0737
-7 3 2 17.8317 -0.0328
-7 3 3 -15.0326 0.2165
-7 3 4 -14.5162 -0.5051
-7 3 5 2.0589 -0.2063
-7 3 6 -5.0758 0.9235
-7 3 7 4.7943 0.2360
-7 3 8 4.1726 -0.9334
-7 3 9 0.9774 -0.2851
-7 3 10 0.0421 0.8282
-7 3 11 -0.2630 0.3216
-7 3 12 2.4965 -0.6636
-7 3 13 -1.1626 -0.2836
-7 3 14 0.3831 0.3319
-7 3 15 -0.6494 0.1899
-7 3 16 -0.8724 -0.0676
-7 5 1 -0.0866 -0.0086
-7 5 2 -15.5125 0.0921
-7 5 3 -0.6685 -0.1776
-7 5 4 12.4321 0.1522
-7 5 5 1.0798 0.3679
-7 5 6 5.5129 -0.2577
-7 5 7 0.1421 -0.4188
-7 5 8 -3.6781 0.1792
-7 5 9 -1.8377 0.3580
-7 5 10 0.2003 -0.1433
-7 5 11 1.8647 -0.3678
-7 5 12 -3.4618 0.0663
-7 5 13 -0.7490 0.3179
-7 5 14 0.4300 0.0835
-7 5 15 0.1360 -0.1197
-7 5 16 0.7860 -0.1274
-7 7 1 -1.8882 0.0747
-7 7 2 7.1992 -0.0334
-7 7 3 7.9566 0.0411
-7 7 4 -4.9303 -0.0292
-7 7 5 -1.6206 -0.1203
-7 7 6 -4.7042 -0.0698
-7 7 7 -3.5653 0.0364
-7 7 8 2.1037 0.1007
-7 7 9 3.0730 0.0442
-7 7 10 0.2482 -0.0113
-7 7 11 -3.9336 0.0265
-7 7 12 1.7339 0.0943
-7 7 13 2.8528 -0.0344
-7 7 14 0.1803 -0.1957
-7 7 15 -0.4474 -0.0684
-7 9 1 2.0816 -0.0183
-7 9 2 -0.2826 -0.0005
-7 9 3 -7.6671 -0.0729
-7 9 4 -1.1637 0.0409
-7 9 5 0.0808 -0.0149
-7 9 6 2.6663 0.0566
-7 9 7 5.1189 0.2220
-7 9 8 0.7563 0.0098
-7 9 9 -3.6922 -0.1897
-7 9 10 -2.2537 -0.1601
-7 9 11 3.8400 0.0317
-7 9 12 1.2402 0.0416
-7 9 13 -2.3105 -0.0816
-7 9 14 -1.4982 0.0964
-7 11 1 -1.6674 0.0817
-7 11 2 -4.0828 -0.1610
-7 11 3 4.2320 0.0095
-7 11 4 4.3052 0.0666
-7 11 5 1.6225 0.1302
-7 11 6 -0.6216 -0.0226
-7 11 7 -4.0010 -0.3524
-7 11 8 -3.1851 -0.1037
-7 11 9 1.7869 0.1575
-7 11 10 3.3545 0.1569
-7 11 11 -1.3789 0.0968
-7 11 12 -1.8454 -0.0346
-7 13 1 -0.4752 -0.4267
-7 13 2 5.5815 0.0534
-7 13 3 0.6118 0.2492
-7 13 4 -4.3620 0.0349
-7 13 5 -3.4470 -0.2824
-7 13 6 -0.4687 -0.1707
-7 13 7 2.0757 0.3960
-7 13 8 2.7738 0.2590
-7 13 9 0.4813 -0.1540
-7 13 10 -1.8053 -0.0764
-7 15 1 2.6326 0.4208
-7 15 2 -3.0922 0.3686
-7 15 3 -3.6692 -0.1456
-7 15 4 1.0735 -0.2773
-7 15 5 3.9870 0.1227
-6 0 2 19.6177 0.4530
-6 0 4 20.6400 -1.1491
-6 0 6 -15.7657 1.1636
-6 0 8 -3.8227 -0.8558
-6 0 10 0.3337 0.5398
-6 0 12 0.2441 -0.2235
-6 0 14 1.4067 -0.0311
-6 0 16 3.0969 0.1274
-6 2 1 18.7772 0.6912
-6 2 2 -14.9655 0.4518
-6 2 3 1.2281 -1.2715
-6 2 4 -15.2204 -0.0448
-6 2 5 -13.0557 1.3898
-6 2 6 11.1966 -0.0299
-6 2 7 2.0497 -1.1093
-6 2 8 3.3552 -0.0178
-6 2 9 1.5478 0.7828
-6 2 10 -0.1338 0.0402
-6 2 11 0.9374 -0.4146
-6 2 12 -0.2130 -0.0379
-6 2 13 0.9957 0.0646
-6 2 14 -1.6002 0.0446
-6 2 15 0.8104 0.0470
-6 2 16 -1.4991 -0.0365
-6 4 1 -24.8964 -0.0347
-6 4 2 3.7048 -0.6759
-6 4 3 -0.8509 0.5154
-6 4 4 5.2918 0.6234
-6 4 5 15.8534 -0.5996
-6 4 6 -2.8506 -0.5029
-6 4 7 -1.5455 0.4344
-6 4 8 -2.1311 0.3547
-6 4 9 -1.8690 -0.3091
-6 4 10 0.4161 -0.2413
-6 4 11 -1.5575 0.1428
-6 4 12 -0.0487 0.0777
-6 4 13 -2.1467 0.0211
-6 4 14 1.1686 0.0656
-6 4 15 0.4592 -0.0129
-6 4 16 -0.6424 -0.0709
-6 6 1 15.8903 -0.1398
-6 6 2 5.6518 0.2965
-6 6 3 1.7132 -0.0100
-6 6 4 1.2517 -0.3309
-6 6 5 -11.1866 -0.0236
-6 6 6 -2.2600 0.2116
-6 6 7 0.0692 0.0067
-6 6 8 0.7635 -0.1288
-6 6 9 1.6383 0.0596
-6 6 10 -0.9638 0.1349
-6 6 11 0.7474 -0.0070
-6 6 12 -0.3815 -0.0346
-6 6 13 2.7944 0.0108
-6 6 14 0.9980 -0.0756
-6 6 15 -1.7152 -0.1274
-6 8 1 -3.1431 -0.0812
-6 8 2 -6.3462 -0.0213
-6 8 3 -3.3656 0.0455
-6 8 4 -4.6741 -0.0849
-6 8 5 5.4111 0.0530
-6 8 6 4.1704 0.1797
-6 8 7 0.8318 0.0381
-6 8 8 -0.0711 -0.0634
-6 8 9 -1.1866 -0.0929
-6 8 10 0.3251 -0.0686
-6 8 11 -0.1011 -0.0377
-6 8 12 1.8780 0.0256
-6 8 13 -1.3615 0.0155
-6 8 14 -2.8572 -0.0297
-6 10 1 -2.7755 0.2062
-6 10 2 2.2604 -0.0086
-6 10 3 2.3167 -0.2461
-6 10 4 5.8952 0.2371
-6 10 5 0.0747 0.2031
-6 10 6 -4.0807 -0.3019
-6 10 7 -2.0221 -0.2418
-6 10 8 -0.0538 0.0345
-6 10 9 0.3298 0.1435
-6 10 10 0.3533 0.0813
-6 10 11 1.1775 0.0691
-6 10 12 -2.0376 0.0373
-6 10 13 -0.9278 -0.0805
-6 12 1 3.3929 -0.3385
-6 12 2 0.1889 -0.0735
-6 12 3 0.1428 0.4433
-6 12 4 -3.8948 -0.0945
-6 12 5 -3.6304 -0.4579
-6 12 6 1.3502 0.1330
-6 12 7 2.7826 0.3594
-6 12 8 0.5887 0.1123
-6 12 9 0.3306 -0.0831
-6 12 10 0.2489 -0.1015
-6 12 11 -1.8636 -0.0812
-6 14 1 -2.8331 0.4655
-6 14 2 -0.7611 0.3990
-6 14 3 -1.0450 -0.3986
-6 14 4 0.8336 -0.2652
-6 14 5 3.0660 0.4150
-6 14 6 1.6849 0.1734
-6 14 7 -1.2622 -0.2541
-6 14 8 -1.1949 -0.2006
-5 1 1 20.7982 0.0405
-5 1 2 12.0817 -0.9208
-5 1 3 -40.3949 0.2257
-5 1 4 -7.9462 0.5364
-5 1 5 5.7288 -0.0273
-5 1 6 -2.9028 -0.0551
-5 1 7 10.1364 -0.1843
-5 1 8 1.9994 -0.3249
-5 1 9 0.8408 0.2746
-5 1 10 0.0805 0.6182
-5 1 11 0.0824 -0.2852
-5 1 12 0.7426 -0.7132
-5 1 13 -0.6610 0.2347
-5 1 14 0.6845 0.6053
-5 1 15 -2.3404 -0.1390
-5 1 16 -0.4356 -0.4881
-5 3 1 -11.1210 -0.5409
-5 3 2 -26.8277 0.5302
-5 3 3 21.6260 0.2708
-5 3 4 17.6712 -0.2815
-5 3 5 -2.9472 -0.1185
-5 3 6 6.2486 -0.0754
-5 3 7 -4.7794 -0.0145
-5 3 8 -3.6376 0.2927
-5 3 9 -1.6422 0.1357
-5 3 10 -0.2023 -0.4418
-5 3 11 0.4096 -0.2499
-5 3 12 -2.6726 0.4381
-5 3 13 0.6689 0.2959
-5 3 14 -0.6696 -0.2791
-5 3 15 0.9556 -0.2783
-5 3 16 0.7335 0.1695
-5 5 1 0.7903 0.3535
-5 5 2 23.4290 -0.0447
-5 5 3 -0.4515 -0.2235
-5 5 4 -14.8629 -0.0184
-5 5 5 -0.4649 0.0167
-5 5 6 -6.4322 0.0446
-5 5 7 -0.1515 0.1159
-5 5 8 2.7326 -0.0255
-5 5 9 1.8776 -0.1846
-5 5 10 -0.1384 0.0444
-5 5 11 -2.3224 0.2764
-5 5 12 3.8818 0.0408
-5 5 13 1.4331 -0.2660
-5 5 14 -0.2552 -0.1741
-5 5 15 -0.6396 0.1619
-5 5 16 -0.6016 0.1705
-5 7 1 3.2722 -0.0369
-5 7 2 -10.7241 -0.0575
-5 7 3 -8.8511 -0.0326
-5 7 4 5.4196 0.0713
-5 7 5 0.8209 0.0819
-5 7 6 5.3602 0.0549
-5 7 7 3.2865 -0.0041
-5 7 8 -1.4757 -0.0889
-5 7 9 -2.8315 -0.0330
-5 7 10 -0.1677 0.0481
-5 7 11 4.9915 -0.0193
-5 7 12 -1.7973 -0.1598
-5 7 13 -3.9003 -0.0401
-5 7 14 -0.7285 0.2422
-5 7 15 1.1171 0.1279
-5 9 1 -2.7837 -0.0636
-5 9 2 0.8104 -0.1142
-5 9 3 7.6201 0.1746
-5 9 4 1.2861 0.0666
-5 9 5 1.0533 -0.0882
-5 9 6 -2.6832 -0.1104
-5 9 7 -4.7128 -0.1221
-5 9 8 -1.2090 0.0043
-5 9 9 3.6554 0.1151
-5 9 10 2.6053 0.0905
-5 9 11 -5.0710 -0.0386
-5 9 12 -2.0120 0.0224
-5 9 13 3.0284 0.1469
-5 9 14 2.5103 -0.0693
-5 11 1 1.3254 -0.1335
-5 11 2 4.0387 0.3024
-5 11 3 -3.5133 -0.0057
-5 11 4 -3.9209 -0.2119
-5 11 5 -1.9680 -0.0750
-5 11 6 0.1817 0.0991
-5 11 7 2.9386 0.2162
-5 11 8 3.6888 0.0896
-5 11 9 -1.4691 -0.0494
-5 11 10 -4.2336 -0.1088
-5 11 11 1.9196 -0.0712
-5 11 12 2.9138 -0.0118
-5 13 1 1.0428 0.4952
-5 13 2 -5.4048 -0.1004
-5 13 3 -1.0182 -0.2776
-5 13 4 4.2495 0.0405
-5 13 5 2.8218 0.2401
-5 13 6 0.0802 0.0925
-5 13 7 -0.5291 -0.2166
-5 13 8 -2.6254 -0.1812
-5 13 9 -1.2543 -0.0117
-5 13 10 2.4031 0.0126
-5 15 1 -3.1005 -0.4548
-5 15 3 4.0483 0.1523
-5 15 4 -1.5754 0.2286
-5 15 5 -3.7547 -0.0920
-5 15 6 -0.3364 -0.2368
-4 0 2 -25.1581 -0.1462
-4 0 4 -25.0819 0.7750
-4 0 6 16.2422 -1.1333
-4 0 8 4.5208 1.1850
-4 0 10 -0.3356 -1.0161
-4 0 12 0.7744 0.7453
-4 0 14 -1.5651 -0.4719
-4 0 16 -2.9733 0.2114
-4 2 1 -25.5438 -0.1673
-4 2 2 19.2938 -0.2122
-4 2 3 -2.6895 0.7344
-4 2 4 18.4249 0.0213
-4 2 5 14.8625 -1.1444
-4 2 6 -11.4067 0.0742
-4 2 7 -1.7049 1.2843
-4 2 8 -3.9005 -0.0712
-4 2 9 -1.1770 -1.2144
-4 2 10 0.0920 0.0149
-4 2 11 -0.9321 0.9445
-4 2 12 -0.5053 0.0278
-4 2 13 -1.2666 -0.6530
-4 2 14 1.5824 -0.0361
-4 2 15 -0.8609 0.4387
-4 2 16 1.6035 0.0019
-4 4 1 33.2535 0.0188
-4 4 2 -5.5417 0.3158
-4 4 3 2.9594 -0.3344
-4 4 4 -5.9927 -0.4389
-4 4 5 -17.9453 0.5261
-4 4 6 2.5575 0.4811
-4 4 7 1.0941 -0.5750
-4 4 8 2.7671 -0.4680
-4 4 9 0.8788 0.5207
-4 4 10 -0.9392 0.4253
-4 4 11 1.9972 -0.3326
-4 4 12 0.6906 -0.3136
-4 4 13 2.1410 0.1920
-4 4 14 -1.2149 0.2011
-4 4 15 0.0025 -0.1855
-4 4 16 0.3673 -0.1022
-4 6 1 -20.8623 0.0019
-4 6 2 -5.2429 -0.1740
-4 6 3 -3.5912 0.0341
-4 6 4 -2.3424 0.2538
-4 6 5 12.2015 0.0031
-4 6 6 2.7011 -0.2401
-4 6 7 0.5653 0.0279
-4 6 8 -1.9361 0.2293
-4 6 9 -0.8402 -0.0385
-4 6 10 2.6507 -0.2011
-4 6 11 -0.9431 -0.0559
-4 6 12 -0.7358 0.0861
-4 6 13 -2.8623 0.0519
-4 6 14 -0.4032 -0.0418
-4 6 15 1.1291 0.0610
-4 8 1 4.4550 0.0679
-4 8 2 5.7442 0.0519
-4 8 3 4.2878 -0.0353
-4 8 4 5.9218 0.0560
-4 8 5 -5.2508 -0.0333
-4 8 6 -4.0827 -0.1386
-4 8 7 -1.6788 -0.0362
-4 8 8 1.3256 0.0584
-4 8 9 1.4139 0.0376
-4 8 10 -2.2321 -0.0180
-4 8 11 -0.6513 0.0548
-4 8 12 -0.9170 0.0898
-4 8 13 2.0000 -0.0063
-4 8 14 2.1183 -0.0321
-4 10 1 2.8255 -0.1017
-4 10 2 -1.5917 0.0050
-4 10 3 -2.4839 0.1626
-4 10 4 -6.0108 -0.1774
-4 10 5 -0.2989 -0.1916
-4 10 6 3.2714 0.2227
-4 10 7 2.5156 0.2398
-4 10 8 -0.7634 -0.0458
-4 10 9 -1.0126 -0.1127
-4 10 10 0.7793 0.0131
-4 10 11 -0.2472 -0.0267
-4 10 12 1.8345 -0.0879
-4 10 13 0.2529 -0.0203
-4 12 1 -4.0093 0.2736
-4 12 2 -0.4804 0.0067
-4 12 3 0.5869 -0.3347
-4 12 4 3.2703 0.0661
-4 12 5 2.7752 0.3700
-4 12 6 -0.6698 -0.0332
-4 12 7 -2.5680 -0.2894
-4 12 8 0.1914 -0.0988
-4 12 9 0.1110 0.0266
-4 12 10 -0.9955 -0.0061
-4 12 11 1.4821 0.0940
-4 14 1 3.8886 -0.4653
-4 14 2 1.5824 -0.2897
-4 14 3 -0.4729 0.3413
-4 14 4 -1.0628 0.2091
-4 14 5 -1.5594 -0.2896
-4 14 6 -1.3116 -0.1887
-4 14 7 0.9555 0.1265
-4 14 8 0.1217 0.1244
-3 1 1 -29.6356 -0.2326
-3 1 2 -15.3309 1.3633
-3 1 3 47.6569 -0.3183
-3 1 4 8.6204 -1.4012
-3 1 5 -5.5381 0.5274
-3 1 6 3.1165 1.1860
-3 1 7 -9.5829 -0.4621
-3 1 8 -1.7578 -0.7981
-3 1 9 -0.9610 0.2783
-3 1 10 0.2253 0.3650
-3 1 11 -0.9111 -0.1384
-3 1 12 -0.8792 -0.0550
-3 1 13 0.1342 0.0556
-3 1 14 -0.7526 -0.1885
-3 1 15 2.4201 0.0171
-3 1 16 0.3132 0.3724
-3 3 1 15.9946 0.7646
-3 3 2 34.1662 -0.7311
-3 3 3 -25.5975 -0.5454
-3 3 4 -19.0935 0.9221
-3 3 5 2.8874 0.3606
-3 3 6 -6.5185 -0.8389
-3 3 7 4.3312 -0.2190
-3 3 8 2.7663 0.5763
-3 3 9 1.8259 0.1001
-3 3 10 -0.3340 -0.2854
-3 3 11 -0.1265 0.0294
-3 3 12 2.8225 0.1471
-3 3 13 -0.0909 -0.1442
-3 3 14 0.9565 -0.0530
-3 3 15 -1.2248 0.2334
-3 3 16 -0.4697 -0.0938
-3 5 1 -1.0042 -0.4452
-3 5 2 -29.9827 0.0206
-3 5 3 0.7925 0.4766
-3 5 4 15.6572 -0.1526
-3 5 5 0.4765 -0.3990
-3 5 6 6.5646 0.2145
-3 5 7 -0.0670 0.2813
-3 5 8 -1.5634 -0.1702
-3 5 9 -1.7467 -0.1405
-3 5 10 0.5244 0.1055
-3 5 11 2.4502 0.0181
-3 5 12 -3.7388 -0.1830
-3 5 13 -1.8458 0.0194
-3 5 14 -0.3662 0.2662
-3 5 15 1.0580 -0.0720
-3 7 1 -5.1931 0.0007
-3 7 2 13.7845 0.0959
-3 7 3 9.5582 -0.0139
-3 7 4 -5.1203 -0.0858
-3 7 5 -0.3879 0.0219
-3 7 6 -5.4906 -0.0013
-3 7 7 -2.5616 -0.0587
-3 7 8 0.6934 0.0063
-3 7 9 2.5094 0.0273
-3 7 10 -0.0817 -0.0097
-3 7 11 -5.2705 -0.0120
-3 7 12 1.4382 0.1292
-3 7 13 3.8999 0.1304
-3 7 14 1.5525 -0.1993
-3 7 15 -1.3280 -0.1759
-3 9 1 4.1396 0.0965
-3 9 2 -1.5804 0.1495
-3 9 3 -7.3317 -0.2017
-3 9 4 -1.3516 -0.1208
-3 9 5 -1.8793 0.1641
-3 9 6 2.3014 0.1132
-3 9 7 3.8663 -0.0462
-3 9 8 1.8299 -0.0023
-3 9 9 -3.4403 0.0544
-3 9 10 -2.7176 -0.0213
-3 9 11 5.3603 -0.0289
-3 9 12 2.4084 -0.0589
-3 9 13 -2.6576 -0.1370
-3 11 1 -1.6525 0.1219
-3 11 2 -3.3228 -0.3178
-3 11 3 2.9201 -0.0021
-3 11 4 2.9154 0.2996
-3 11 5 1.8828 0.0101
-3 11 6 0.6995 -0.1902
-3 11 7 -1.4496 -0.0139
-3 11 8 -4.3749 -0.0038
-3 11 9 0.9200 -0.1080
-3 11 10 4.7482 0.0035
-3 11 11 -1.9308 0.0741
-3 11 12 -3.2275 0.0710
-3 13 1 -0.7448 -0.4051
-3 13 2 4.4169 0.0892
-3 13 3 0.6697 0.2684
-3 13 4 -3.3456 -0.0874
-3 13 5 -1.3904 -0.2124
-3 13 6 -0.1754 0.0270
-3 13 7 -1.5525 0.0443
-3 13 8 2.6664 0.0332
-3 13 9 2.2576 0.1571
-3 15 1 2.4675 0.3441
-3 15 2 -2.5515 0.2860
-3 15 3 -3.1649 -0.1262
-3 15 4 1.7616 -0.2024
-3 15 5 2.3571 0.0913
-3 15 6 -0.7087 0.1211
-2 0 2 28.1993 -0.3841
-2 0 4 26.0217 0.1555
-2 0 6 -14.1085 0.3122
-2 0 8 -4.3620 -0.6811
-2 0 10 0.3162 0.7861
-2 0 12 -2.4330 -0.7610
-2 0 14 2.0980 0.6664
-2 0 16 2.1075 -0.4116
-2 2 1 30.2213 -0.6022
-2 2 2 -21.6340 -0.1138
-2 2 3 3.7397 0.3724
-2 2 4 -18.9893 0.0016
-2 2 5 -14.6346 0.0753
-2 2 6 9.5885 -0.0404
-2 2 7 1.3092 -0.5270
-2 2 8 3.8967 0.0675
-2 2 9 0.3807 0.7657
-2 2 10 -0.1786 -0.0088
-2 2 11 0.5545 -0.7913
-2 2 12 1.7941 -0.0540
-2 2 13 1.7428 0.7949
-2 2 14 -1.8323 0.0540
-2 2 15 0.6328 -0.6765
-2 2 16 -1.1903 0.0106
-2 4 1 -38.8368 0.0985
-2 4 2 6.5750 0.2755
-2 4 3 -4.6615 -0.1173
-2 4 4 5.7772 -0.0707
-2 4 5 17.4935 -0.0504
-2 4 6 -1.4157 -0.1048
-2 4 7 -0.5819 0.2564
-2 4 8 -3.3284 0.2333
-2 4 9 0.3435 -0.3058
-2 4 10 1.5296 -0.3023
-2 4 11 -1.6003 0.2088
-2 4 12 -1.5482 0.3343
-2 4 13 -2.4283 -0.2036
-2 4 14 1.3745 -0.3472
-2 4 15 -0.2329 0.2557
-2 6 1 23.8786 0.1453
-2 6 2 4.6001 -0.0982
-2 6 3 5.3046 -0.0636
-2 6 4 3.2083 0.0300
-2 6 5 -11.5416 0.0266
-2 6 6 -3.2253 0.0556
-2 6 7 -1.1779 -0.0506
-2 6 8 3.1779 -0.1216
-2 6 9 0.0862 0.0010
-2 6 10 -3.8411 0.0862
-2 6 11 0.3449 0.1175
-2 6 12 1.5779 -0.0253
-2 6 13 3.0999 -0.1252
-2 6 14 -0.3473 0.0959
-2 6 15 -0.6611 0.0387
-2 8 1 -4.9801 -0.0792
-2 8 2 -4.5387 -0.0752
-2 8 3 -5.1648 0.0589
-2 8 4 -6.7986 0.0111
-2 8 5 4.3949 -0.0363
-2 8 6 4.0177 0.0298
-2 8 7 2.4816 0.0606
-2 8 8 -2.6206 -0.0133
-2 8 9 -1.5757 -0.0070
-2 8 10 3.3180 0.0862
-2 8 11 1.6040 -0.0443
-2 8 12 0.3227 -0.1826
-2 8 13 -2.6990 0.0052
-2 8 14 -1.1085 0.0933
-2 10 1 -2.9672 -0.0361
-2 10 2 0.4118 0.0350
-2 10 3 2.4885 0.0005
-2 10 4 6.0156 0.0133
-2 10 5 0.8724 0.0861
-2 10 6 -2.6010 -0.0191
-2 10 7 -3.1185 -0.1503
-2 10 8 1.5725 -0.0144
-2 10 9 1.4967 0.0450
-2 10 10 -1.3265 -0.0622
-2 10 11 -0.5294 -0.0070
-2 10 12 -1.7560 0.1072
-2 10 13 0.5860 0.0917
-2 12 1 4.3376 -0.1274
-2 12 2 1.0012 0.0948
-2 12 3 -0.9129 0.0908
-2 12 4 -2.5945 -0.0282
-2 12 5 -2.3168 -0.1283
-2 12 6 0.0151 -0.1056
-2 12 7 2.5674 0.1224
-2 12 8 -0.8213 0.1131
-2 12 9 -0.3930 0.0368
-2 12 10 1.4018 0.0686
-2 12 11 -1.1546 -0.0882
-2 14 1 -4.4896 0.4163
-2 14 2 -2.2078 0.0677
-2 14 3 1.5153 -0.2179
-2 14 4 1.0263 -0.0700
-2 14 5 0.4419 0.0644
-2 14 6 1.1057 0.1825
-2 14 7 -0.7697 0.0531
-2 14 8 0.7011 -0.0874
-2 16 1 2.1797 -0.2467
-2 16 2 3.3653 -0.3324
-2 16 3 -0.7352 0.0877
-1 1 2 16.4734 -0.8873
-1 1 3 -47.4133 0.2213
-1 1 4 -7.9347 1.3163
-1 1 5 3.6910 -0.6553
-1 1 6 -2.9634 -1.4996
-1 1 7 8.1193 0.7680
-1 1 8 1.4537 1.3734
-1 1 9 -0.0061 -0.6221
-1 1 10 -0.8699 -1.1056
-1 1 11 2.6939 0.4658
-1 1 12 1.1320 0.8052
-1 1 13 -0.1494 -0.3288
-1 1 14 0.6313 -0.3473
-1 1 15 -1.8250 0.1439
-1 1 16 -0.0781 -0.0860
-1 3 1 -18.3888 -0.4414
-1 3 2 -36.8443 0.4328
-1 3 3 25.2502 0.4254
-1 3 4 17.5049 -0.9049
-1 3 5 -1.6987 -0.3489
-1 3 6 5.9934 1.1285
-1 3 7 -3.5872 0.2940
-1 3 8 -1.8846 -1.0127
-1 3 9 -1.2550 -0.2602
-1 3 10 1.5700 0.8031
-1 3 11 -0.7318 0.2012
-1 3 12 -2.9719 -0.6678
-1 3 13 -0.1905 -0.0749
-1 3 14 -1.0092 0.4127
-1 3 15 1.1022 -0.0990
-1 5 1 0.7361 0.1947
-1 5 2 32.5290 -0.0053
-1 5 3 -0.3694 -0.3666
-1 5 4 -13.8939 0.2062
-1 5 5 -1.0340 0.4584
-1 5 6 -5.9325 -0.3060
-1 5 7 0.4990 -0.4327
-1 5 8 0.5629 0.2358
-1 5 9 1.3150 0.3279
-1 5 10 -1.4456 -0.1680
-1 5 11 -2.0365 -0.2759
-1 5 12 3.2378 0.2343
-1 5 13 1.7295 0.2418
-1 5 14 0.9556 -0.2733
-1 5 15 -1.1309 -0.0682
-1 7 1 6.9485 0.0328
-1 7 2 -15.1069 -0.0455
-1 7 3 -9.5637 0.0309
-1 7 4 3.7461 0.0457
-1 7 5 0.3736 -0.0672
-1 7 6 5.1107 -0.0397
-1 7 7 1.4852 0.0485
-1 7 8 -0.1137 0.0700
-1 7 9 -2.0988 0.0314
-1 7 10 0.6674 -0.0463
-1 7 11 4.6148 -0.0003
-1 7 12 -0.9679 -0.0350
-1 7 13 -2.8922 -0.1542
-1 7 14 -2.1127 0.0857
-1 9 1 -5.6912 -0.0533
-1 9 2 2.2061 -0.0938
-1 9 3 6.6734 0.1287
-1 9 4 1.5548 0.1088
-1 9 5 2.1975 -0.1774
-1 9 6 -1.7448 -0.0755
-1 9 7 -2.7920 0.1974
-1 9 8 -2.2755 0.0006
-1 9 9 3.1487 -0.2167
-1 9 10 2.3405 -0.0459
-1 9 11 -4.6663 0.1204
-1 9 12 -2.1672 0.0777
-1 9 13 1.4703 0.0598
-1 11 1 2.5783 -0.0603
-1 11 2 2.2742 0.1596
-1 11 3 -2.5414 0.0257
-1 11 4 -1.7624 -0.2586
-1 11 5 -1.4323 0.0360
-1 11 6 -1.6757 0.2273
-1 11 7 0.0221 -0.1695
-1 11 8 4.9819 -0.0829
-1 11 9 -0.4292 0.2276
-1 11 10 -4.6310 0.0939
-1 11 11 1.5135 -0.0713
-1 13 1 -0.3911 0.1580
-1 13 2 -3.1025 0.0284
-1 13 3 0.2754 -0.1959
-1 13 4 2.1195 0.0488
-1 13 5 -0.3704 0.1823
-1 13 6 0.6731 -0.1243
-1 13 7 3.5076 0.0813
-1 13 8 -2.9200 0.1082
-1 15 1 -0.9059 -0.0718
-1 15 2 2.1031 -0.2248
-1 15 3 1.4205 0.0211
-1 15 4 -1.7512 0.2153
-1 15 5 -0.3276 -0.0917
-1 15 6 1.2538 -0.0343
0 0 2 -26.5343 0.7290
0 0 4 -23.5267 -1.0057
0 0 6 10.2037 0.7259
0 0 8 2.9976 -0.2774
0 0 10 -0.0958 -0.0295
0 0 12 3.9968 0.2834
0 0 14 -2.5178 -0.4701
0 2 1 -30.5526 1.0183
0 2 2 20.3320 0.3283
0 2 3 -4.4569 -1.2429
0 2 4 17.0127 -0.0099
0 2 5 12.3943 1.0517
0 2 6 -6.5026 -0.0375
0 2 7 -1.0208 -0.6031
0 2 8 -2.9589 -0.0004
0 2 9 0.6560 0.2226
0 2 10 0.1564 -0.0356
0 2 11 0.0680 0.0888
0 2 12 -3.0228 0.0961
0 2 13 -2.1670 -0.4454
0 2 14 1.9838 -0.0826
0 2 15 -0.2671 0.5539
0 4 0 17.3956 0.7157
0 4 1 38.9047 -0.1807
0 4 2 -6.2075 -0.6563
0 4 3 5.8788 0.4832
0 4 4 -4.8515 0.5169
0 4 5 -14.5428 -0.4590
0 4 6 -0.0128 -0.3365
0 4 7 0.2663 0.2502
0 4 8 3.3637 0.1714
0 4 9 -1.5774 -0.1429
0 4 10 -1.8415 -0.0431
0 4 11 0.5922 0.1133
0 4 12 2.2001 -0.1336
0 4 13 2.7023 0.0347
0 4 14 -1.4203 0.3003
0 4 15 0.2456 -0.1694
0 6 0 10.2415 -0.1642
0 6 1 -23.3414 -0.1930
0 6 2 -3.7750 0.2854
0 6 3 -6.5501 0.0745
0 6 4 -3.4934 -0.2718
0 6 5 9.2822 -0.0508
0 6 6 3.5048 0.1604
0 6 7 1.4980 0.0577
0 6 8 -4.0169 -0.0722
0 6 9 0.5175 0.0100
0 6 10 4.1574 0.1107
0 6 11 0.7665 -0.1103
0 6 12 -1.9062 -0.1005
0 6 13 -3.2396 0.1451
0 6 14 0.9626 -0.0646
0 8 0 -13.3829 -0.0978
0 8 1 4.3726 0.0794
0 8 2 2.9069 0.0850
0 8 3 5.7068 -0.0773
0 8 4 6.9215 -0.1020
0 8 5 -2.9361 0.0988
0 8 6 -3.8639 0.1072
0 8 7 -3.0360 -0.0746
0 8 8 3.5449 -0.0697
0 8 9 1.6526 -0.0010
0 8 10 -3.2847 -0.0709
0 8 11 -2.5093 0.0013
0 8 12 -0.1859 0.1796
0 8 13 3.1771 0.0092
0 10 0 5.8303 -0.0042
0 10 1 3.0629 0.1174
0 10 2 0.9114 -0.0802
0 10 3 -2.1735 -0.1513
0 10 4 -5.7115 0.1797
0 10 5 -1.8288 0.0477
0 10 6 2.1060 -0.2053
0 10 7 3.7781 0.0174
0 10 8 -2.0508 0.1026
0 10 9 -1.7336 0.0477
0 10 10 1.0696 0.0409
0 10 11 1.0292 0.0032
0 10 12 1.8055 -0.0641
0 12 0 -1.1995 0.2201
0 12 1 -4.2178 0.0074
0 12 2 -1.3720 -0.1719
0 12 3 0.6129 0.1641
0 12 4 1.7817 -0.0252
0 12 5 2.5787 -0.1475
0 12 6 0.6420 0.2338
0 12 7 -2.9103 0.0540
0 12 8 0.9884 -0.1321
0 14 0 -1.9065 -0.0674
0 14 1 4.5650 -0.3656
0 14 2 2.1896 0.1509
0 14 3 -1.7635 0.0777
0 14 4 -0.4236 -0.0827
0 14 5 -0.1570 0.1772
0 14 6 -1.3876 -0.1648
0 14 7 0.8583 -0.2065
0 14 8 -0.8901 0.0949
0 16 0 3.8410 -0.3308
0 16 1 -2.2261 0.3295
0 16 2 -3.4847 0.1518
1 1 1 -33.0769 -0.1407
1 1 2 -15.0671 -0.2040
1 1 3 39.5046 0.0707
1 1 4 5.9425 -0.3233
1 1 5 -0.7250 0.2971
1 1 6 2.5488 0.7832
1 1 7 -6.1981 -0.5192
1 1 8 -1.2476 -1.0132
1 1 9 1.9256 0.5061
1 1 10 1.6884 1.1154
1 1 11 -4.8339 -0.4650
1 1 12 -1.3928 -1.0567
1 1 13 0.6544 0.4089
1 1 14 -0.3564 0.6453
1 1 15 0.6354 -0.2370
1 3 0 -0.8257 -0.2943
1 3 1 17.7719 -0.1765
1 3 2 33.8512 0.1973
1 3 3 -20.6841 -0.0214
1 3 4 -13.1111 0.2103
1 3 5 -0.1228 0.0983
1 3 6 -4.8745 -0.5854
1 3 7 2.6949 -0.1542
1 3 8 1.3564 0.7017
1 3 9 0.0330 0.2353
1 3 10 -3.1789 -0.7402
1 3 11 1.8759 -0.2989
1 3 12 3.0359 0.7655
1 3 13 0.0758 0.2260
1 3 14 0.7281 -0.5403
1 3 15 -0.4812 -0.0340
1 5 0 1.1580 -0.0299
1 5 1 -0.1581 0.2080
1 5 2 -30.1059 -0.0158
1 5 3 -0.5423 -0.0300
1 5 4 9.9301 -0.0927
1 5 5 1.8351 -0.1453
1 5 6 4.6613 0.1687
1 5 7 -0.9922 0.2117
1 5 8 -0.0742 -0.1251
1 5 9 -0.6559 -0.2111
1 5 10 2.6628 0.0909
1 5 11 1.2021 0.2963
1 5 12 -2.5617 -0.1392
1 5 13 -1.1445 -0.3310
1 5 14 -1.1074 0.1605
1 7 0 -1.0197 0.0889
1 7 1 -7.9522 -0.0387
1 7 2 14.0997 -0.0480
1 7 3 8.7158 -0.0059
1 7 4 -1.5663 0.0247
1 7 5 -0.7862 0.0204
1 7 6 -4.3316 0.0342
1 7 7 -0.2750 0.0380
1 7 8 0.0015 -0.0651
1 7 9 1.6289 -0.1318
1 7 10 -1.4967 0.0447
1 7 11 -3.2302 0.0797
1 7 12 0.5987 -0.0468
1 7 13 1.3657 0.0702
1 9 0 0.6120 0.0329
1 9 1 6.8428 -0.0396
1 9 2 -2.2862 -0.0229
1 9 3 -5.6859 0.0055
1 9 4 -2.0588 -0.0404
1 9 5 -1.8864 0.1235
1 9 6 1.3468 0.0090
1 9 7 1.7151 -0.2394
1 9 8 2.2090 -0.0018
1 9 9 -2.8144 0.2574
1 9 10 -1.4464 0.1060
1 9 11 3.2574 -0.1621
1 9 12 1.3566 -0.0972
1 11 0 -0.4578 -0.1278
1 11 1 -3.6122 -0.0134
1 11 2 -1.3994 0.1002
1 11 3 2.2828 -0.0588
1 11 4 1.0776 0.1096
1 11 5 0.8213 -0.0544
1 11 6 2.1994 -0.1757
1 11 7 0.8984 0.2617
1 11 8 -5.0800 0.0979
1 11 9 0.1983 -0.2396
1 11 10 3.7694 -0.1208
1 11 11 -0.8848 0.0314
1 13 0 0.4597 0.0782
1 13 1 1.8000 0.1429
1 13 2 1.9993 -0.2159
1 13 3 -1.2655 0.0870
1 13 4 -1.1904 0.0552
1 13 5 1.7377 -0.1446
1 13 6 -1.1740 0.1635
1 13 7 -4.5953 -0.1403
1 15 0 -0.0985 0.0806
1 15 1 -0.9138 -0.2692
1 15 2 -1.8590 0.1876
1 15 3 0.3310 0.1338
1 15 4 1.6879 -0.2517
1 15 5 -1.4053 0.0863
2 0 2 19.8733 -0.5709
2 0 4 18.9128 1.1750
2 0 6 -6.2955 -1.2453
2 0 8 -0.4246 0.9891
2 0 10 -0.3663 -0.7061
2 0 12 -4.7464 0.3354
2 0 14 2.3888 0.0663
2 2 0 50.8046 0.6196
2 2 1 25.9671 -0.7080
2 2 2 -15.2226 -0.3322
2 2 3 4.9818 1.2256
2 2 4 -13.4971 0.0124
2 2 5 -9.0593 -1.4256
2 2 6 3.5584 0.0853
2 2 7 1.1428 1.2774
2 2 8 1.0048 -0.0479
2 2 9 -1.6831 -1.0210
2 2 10 0.1010 0.0583
2 2 11 -0.7102 0.6338
2 2 12 3.5622 -0.1111
2 2 13 2.2961 -0.0908
2 2 14 -1.6825 0.0910
2 4 0 -15.8125 -0.4367
2 4 1 -32.8759 0.1023
2 4 2 4.4211 0.5391
2 4 3 -6.6137 -0.4632
2 4 4 3.6241 -0.5603
2 4 5 10.2493 0.6059
2 4 6 1.0578 0.5024
2 4 7 -0.5455 -0.5266
2 4 8 -2.6514 -0.4341
2 4 9 2.5976 0.4408
2 4 10 1.6804 0.3535
2 4 11 0.5610 -0.3453
2 4 12 -2.2694 -0.1254
2 4 13 -2.6122 0.1383
2 4 14 1.0916 -0.1310
2 6 0 -9.7932 0.1104
2 6 1 19.0825 0.1082
2 6 2 2.9326 -0.2214
2 6 3 7.0979 -0.0544
2 6 4 3.0851 0.2596
2 6 5 -6.2145 0.0536
2 6 6 -3.3779 -0.1913
2 6 7 -1.2237 -0.0523
2 6 8 4.1623 0.1341
2 6 9 -0.9219 0.0333
2 6 10 -3.5548 -0.1857
2 6 11 -1.8524 0.0055
2 6 12 1.6627 0.1516
2 6 13 2.9234 -0.0779
2 8 0 12.6989 0.0189
2 8 1 -2.7367 -0.0496
2 8 2 -1.3149 -0.0782
2 8 3 -5.7392 0.0597
2 8 4 -6.1281 0.1749
2 8 5 1.2995 -0.0953
2 8 6 3.5648 -0.2134
2 8 7 3.1122 0.0249
2 8 8 -3.8223 0.1787
2 8 9 -1.6006 0.0300
2 8 10 2.2919 -0.0618
2 8 11 3.0271 0.0308
2 8 12 0.3431 -0.0470
2 8 13 -3.0880 -0.0208
2 10 0 -5.6543 0.0103
2 10 1 -3.0714 -0.0916
2 10 2 -1.8686 0.1000
2 10 3 1.6521 0.2010
2 10 4 4.9452 -0.2996
2 10 5 2.8442 -0.1226
2 10 6 -1.7484 0.3184
2 10 7 -4.2347 0.0948
2 10 8 2.0149 -0.1440
2 10 9 1.6858 -0.1462
2 10 10 -0.2032 0.0222
2 10 11 -1.1794 0.0521
2 12 0 1.3621 -0.1531
2 12 1 3.7319 0.0148
2 12 2 1.3313 0.1807
2 12 3 0.0742 -0.3016
2 12 4 -0.8628 0.0894
2 12 5 -3.3075 0.3033
2 12 6 -1.2317 -0.3005
2 12 7 3.3610 -0.1309
2 14 0 1.5160 0.0131
2 14 1 -4.2141 0.3446
2 14 2 -1.4775 -0.2651
2 14 3 1.3493 0.0234
2 14 4 -0.6070 0.1685
2 14 5 0.5942 -0.3302
2 14 6 2.0388 0.1609
2 14 7 -1.1060 0.2558
2 16 0 -3.3496 0.3612
2 16 1 2.2560 -0.3744
3 1 0 -0.9091 -1.1277
3 1 1 27.8779 0.0098
3 1 2 11.7727 1.1539
3 1 3 -27.1192 -0.4026
3 1 4 -3.3936 -0.8769
3 1 5 -1.8814 0.2978
3 1 6 -1.9408 0.4269
3 1 7 4.2072 -0.0854
3 1 8 1.2210 0.0169
3 1 9 -4.1554 -0.0286
3 1 10 -2.4136 -0.4526
3 1 11 6.4035 0.1575
3 1 12 1.5313 0.7148
3 1 13 -1.2677 -0.2721
3 1 14 0.0300 -0.5608
3 3 0 2.5486 0.3873
3 3 1 -14.8803 0.6307
3 3 2 -26.6267 -0.7257
3 3 3 13.7971 -0.3579
3 3 4 7.6219 0.6621
3 3 5 1.5909 0.2056
3 3 6 3.3112 -0.3589
3 3 7 -1.7402 -0.1012
3 3 8 -1.3392 0.0858
3 3 9 1.3866 -0.0498
3 3 10 4.5981 0.1905
3 3 11 -2.7371 0.2180
3 3 12 -2.8812 -0.4216
3 3 13 0.2220 -0.2313
3 3 14 -0.2069 0.3723
3 5 0 -3.3805 0.1711
3 5 1 -0.4817 -0.4460
3 5 2 23.8993 0.0369
3 5 3 1.5388 0.4051
3 5 4 -5.3540 -0.0908
3 5 5 -2.4924 -0.2789
3 5 6 -2.8920 0.0559
3 5 7 1.3377 0.1885
3 5 8 0.1846 -0.0355
3 5 9 -0.0043 -0.1088
3 5 10 -3.6864 0.0380
3 5 11 -0.3327 -0.0864
3 5 12 1.8029 -0.0303
3 5 13 0.4407 0.2066
3 7 0 2.8121 -0.1045
3 7 1 7.9896 -0.0005
3 7 2 -11.1738 0.0971
3 7 3 -7.3387 -0.0150
3 7 4 -0.6280 -0.0666
3 7 5 1.5776 0.0317
3 7 6 3.2857 0.0078
3 7 7 -0.8043 -0.0827
3 7 8 -0.3732 -0.0343
3 7 9 -1.1541 0.1703
3 7 10 2.2280 0.0433
3 7 11 1.5983 -0.1583
3 7 12 -0.3313 0.0567
3 7 13 -0.0029 0.0690
3 9 0 -1.5826 -0.1772
3 9 1 -7.1621 0.1131
3 9 2 1.6422 0.1404
3 9 3 4.6161 -0.1163
3 9 4 2.8373 -0.0619
3 9 5 0.9840 -0.0297
3 9 6 -1.3302 0.0871
3 9 7 -0.8177 0.1290
3 9 8 -1.5276 -0.0191
3 9 9 2.4003 -0.1219
3 9 10 0.3064 -0.1328
3 9 11 -1.5880 0.1038
3 11 0 1.1843 0.3356
3 11 1 4.1417 0.0630
3 11 2 1.0948 -0.3077
3 11 3 -1.9720 0.0747
3 11 4 -1.2330 0.0484
3 11 5 -0.3068 0.0638
3 11 6 -1.8998 0.0581
3 11 7 -1.0996 -0.2468
3 11 8 4.3875 -0.0175
3 11 9 -0.2241 0.1421
3 13 0 -1.2691 -0.2199
3 13 1 -2.7259 -0.3554
3 13 2 -1.4196 0.3652
3 13 3 1.7002 -0.0023
3 13 4 0.9267 -0.1358
3 13 5 -2.1388 0.1102
3 13 6 1.2895 -0.1617
3 13 7 4.4085 0.1335
3 15 0 0.3388 -0.1654
3 15 1 2.2082 0.5278
3 15 2 1.7773 -0.1726
3 15 3 -1.3066 -0.2477
3 15 4 -1.6052 0.2701
4 0 0 51.6018 0.2903
4 0 2 -10.4596 -0.0544
4 0 4 -13.7608 -0.5458
4 0 6 3.9372 0.8974
4 0 8 -2.7656 -0.9680
4 0 10 0.8904 0.9357
4 0 12 4.3862 -0.6932
4 0 14 -1.6535 0.2621
4 2 0 -39.1225 -0.0688
4 2 1 -18.1018 -0.1679
4 2 2 8.0563 0.1819
4 2 3 -5.1969 -0.3237
4 2 4 9.6213 -0.0294
4 2 5 5.8160 0.8035
4 2 6 -1.9358 -0.0520
4 2 7 -1.7980 -1.0356
4 2 8 1.5282 0.0196
4 2 9 2.4264 1.0828
4 2 10 -0.4902 -0.0242
4 2 11 1.1516 -0.8799
4 2 12 -3.1694 0.0788
4 2 13 -2.0382 0.4251
4 2 14 0.8929 -0.0655
4 4 0 11.7043 -0.1697
4 4 1 22.9240 0.1293
4 4 2 -1.8700 -0.0150
4 4 3 6.6433 0.0597
4 4 4 -2.4673 0.1765
4 4 5 -6.1164 -0.2878
4 4 6 -1.2864 -0.2715
4 4 7 1.5521 0.3584
4 4 8 1.3503 0.3584
4 4 9 -3.1783 -0.3433
4 4 10 -1.1424 -0.4044
4 4 11 -1.4036 0.2813
4 4 12 1.7011 0.2480
4 4 13 2.0245 -0.1503
4 6 0 8.6964 0.0445
4 6 1 -12.6452 0.0428
4 6 2 -2.3606 -0.0423
4 6 3 -6.7255 0.0071
4 6 4 -2.1054 -0.0097
4 6 5 3.3630 -0.0178
4 6 6 2.8559 -0.0090
4 6 7 0.2967 0.0252
4 6 8 -3.6022 0.0376
4 6 9 1.0769 -0.1052
4 6 10 2.3601 0.0248
4 6 11 2.4512 0.1489
4 6 12 -1.0376 -0.0333
4 6 13 -2.0369 -0.0451
4 8 0 -11.0046 0.0776
4 8 1 0.6209 0.0150
4 8 2 0.3806 0.0426
4 8 3 5.2460 -0.0216
4 8 4 4.5285 -0.1633
4 8 5 -0.0279 0.0207
4 8 6 -3.0979 0.2179
4 8 7 -2.6098 0.1000
4 8 8 3.3897 -0.2645
4 8 9 1.4242 -0.1131
4 8 10 -0.8523 0.2609
4 8 11 -2.9680 -0.0040
4 8 12 -0.5160 -0.1637
4 10 0 5.2065 -0.0114
4 10 1 3.0944 -0.0213
4 10 2 2.0627 -0.0882
4 10 3 -1.2409 -0.1136
4 10 4 -3.7365 0.2814
4 10 5 -3.4062 0.0808
4 10 6 1.4411 -0.2435
4 10 7 4.1694 -0.1342
4 10 8 -1.4693 0.0855
4 10 9 -1.3685 0.2215
4 10 10 -0.8194 -0.0667
4 12 0 -1.7014 0.0531
4 12 1 -3.1547 0.0425
4 12 2 -0.9262 -0.1188
4 12 3 -0.6366 0.2749
4 12 4 0.0414 -0.1452
4 12 5 3.8657 -0.2599
4 12 6 1.6081 0.2788
4 12 7 -3.4690 0.0618
4 14 0 -0.5858 0.0829
4 14 1 3.5894 -0.3419
4 14 2 0.4734 0.2577
4 14 3 -0.6736 -0.0626
4 14 4 1.5486 -0.1610
4 14 5 -1.2354 0.3394
4 14 6 -2.5934 -0.1739
5 1 0 1.5888 0.9019
5 1 1 -20.9758 0.0603
5 1 2 -7.8784 -1.3158
5 1 3 14.9331 0.5570
5 1 4 1.2695 1.4534
5 1 5 2.6653 -0.7052
5 1 6 1.1988 -1.2693
5 1 7 -2.3853 0.6030
5 1 8 -1.3193 0.8888
5 1 9 5.8220 -0.4598
5 1 10 2.7749 -0.3658
5 1 11 -6.6616 0.2182
5 1 12 -1.4643 -0.0980
5 1 13 1.5733 0.0472
5 3 0 -4.2252 -0.1817
5 3 1 11.1051 -0.6127
5 3 2 18.0261 0.7808
5 3 3 -7.2357 0.4494
5 3 4 -3.1992 -1.0822
5 3 5 -1.8168 -0.3524
5 3 6 -1.4724 0.9910
5 3 7 0.7784 0.2948
5 3 8 1.6811 -0.7370
5 3 9 -2.4467 -0.1618
5 3 10 -5.2629 0.3958
5 3 11 2.8439 -0.0351
5 3 12 2.4345 -0.0592
5 3 13 -0.3917 0.1191
5 5 0 5.1765 -0.1879
5 5 1 0.9326 0.3402
5 5 2 -16.3942 -0.0394
5 5 3 -2.2121 -0.4750
5 5 4 2.0322 0.1876
5 5 5 2.6733 0.4667
5 5 6 0.8470 -0.1552
5 5 7 -1.3847 -0.4278
5 5 8 -0.6849 0.0675
5 5 9 0.4524 0.3574
5 5 10 4.0362 -0.0734
5 5 11 -0.1909 -0.1585
5 5 12 -1.0163 0.1347
5 7 0 -3.9112 0.0076
5 7 1 -7.1734 0.0565
5 7 2 7.4656 -0.0514
5 7 3 5.9379 -0.0085
5 7 4 1.9459 0.0359
5 7 5 -2.5422 0.0197
5 7 6 -2.1109 -0.0439
5 7 7 1.5241 -0.0367
5 7 8 1.0012 0.1681
5 7 9 0.7166 -0.0449
5 7 10 -2.4950 -0.1735
5 7 11 -0.2403 0.1339
5 7 12 0.0590 0.0034
5 9 0 1.9286 0.2282
5 9 1 6.5375 -0.1002
5 9 2 -0.4648 -0.1925
5 9 3 -3.7396 0.1247
5 9 4 -3.6081 0.1644
5 9 5 0.2381 -0.0542
5 9 6 1.6476 -0.2086
5 9 7 0.2153 0.0886
5 9 8 0.4444 0.0869
5 9 9 -1.8617 -0.1368
5 9 10 0.6549 0.0971
5 11 0 -1.4479 -0.3667
5 11 1 -3.8105 -0.0754
5 11 2 -1.4003 0.3304
5 11 3 1.4976 -0.0439
5 11 4 2.0781 -0.1108
5 11 5 0.0791 -0.0929
5 11 6 0.8723 0.0620
5 11 7 0.6819 0.1686
5 13 0 1.7716 0.2666
5 13 1 2.7058 0.3931
5 13 2 1.3268 -0.3754
5 13 3 -1.3219 -0.0165
5 13 4 -1.2225 0.1088
5 13 5 1.4950 -0.0905
5 15 0 -0.6324 0.1971
5 15 1 -2.5270 -0.5982
5 15 2 -1.6714 0.1542
5 15 3 1.2501 0.2469
6 0 0 -32.9838 -0.4615
6 0 2 1.9887 0.7549
6 0 4 9.0838 -0.4323
6 0 6 -3.5107 0.0384
6 0 8 5.4827 0.2884
6 0 10 -1.1720 -0.5873
6 0 12 -3.1627 0.6329
6 2 0 24.9178 -0.3780
6 2 1 9.9358 1.0195
6 2 2 -1.6609 -0.0222
6 2 3 4.7573 -0.8130
6 2 4 -6.1314 0.0673
6 2 5 -3.4422 0.3303
6 2 6 1.8829 -0.0472
6 2 7 2.7024 0.1088
6 2 8 -3.7738 0.0672
6 2 9 -2.6528 -0.4422
6 2 10 0.7471 -0.0403
6 2 11 -1.2650 0.5582
6 2 12 2.0996 -0.0235
6 2 13 1.4831 -0.3874
6 4 0 -6.6611 0.6593
6 4 1 -12.8279 -0.3639
6 4 2 -0.4061 -0.5253
6 4 3 -5.6041 0.4226
6 4 4 1.5438 0.3363
6 4 5 3.1497 -0.2324
6 4 6 0.7075 -0.1738
6 4 7 -2.8954 0.0992
6 4 8 0.0817 -0.0110
6 4 9 3.1414 -0.0542
6 4 10 0.5433 0.1779
6 4 11 1.6934 0.0235
6 4 12 -0.8111 -0.1634
6 6 0 -7.4740 -0.1695
6 6 1 6.4860 -0.1531
6 6 2 2.2650 0.2809
6 6 3 5.3074 0.0527
6 6 4 0.8444 -0.2494
6 6 5 -1.4241 -0.0630
6 6 6 -2.0469 0.2712
6 6 7 0.9581 0.0408
6 6 8 2.5555 -0.3246
6 6 9 -0.9322 0.1376
6 6 10 -1.1052 0.2775
6 6 11 -2.4120 -0.2527
6 6 12 0.3862 -0.1994
6 8 0 9.0886 -0.1329
6 8 1 1.2134 -0.0192
6 8 2 -0.4946 0.0318
6 8 3 -4.3283 0.0111
6 8 4 -2.4814 0.0234
6 8 5 -0.5227 0.0703
6 8 6 2.4486 -0.0799
6 8 7 1.6576 -0.2474
6 8 8 -2.4023 0.2576
6 8 9 -1.1936 0.2290
6 8 10 -0.4220 -0.4033
6 8 11 2.4220 -0.0818
6 10 0 -4.6571 -0.0129
6 10 1 -3.2340 0.1472
6 10 2 -1.4411 0.0652
6 10 3 1.1978 -0.0709
6 10 4 2.3081 -0.1390
6 10 5 3.1509 0.0643
6 10 6 -1.0939 0.0143
6 10 7 -3.4334 0.0903
6 10 8 0.5983 0.0611
6 10 9 0.8857 -0.2426
6 12 0 1.8915 0.0222
6 12 1 2.7407 -0.0939
6 12 2 0.4549 0.0214
6 12 3 0.6777 -0.1425
6 12 4 0.4284 0.1692
6 12 5 -3.6924 0.0693
6 12 6 -1.6581 -0.1803
6 14 0 -0.3350 -0.1324
6 14 1 -2.8035 0.3141
6 14 2 0.2555 -0.1894
6 14 3 0.1111 0.0606
6 14 4 -1.8799 0.1028
7 1 0 -2.0607 -0.0640
7 1 1 14.4837 -0.0625
7 1 2 4.5428 0.6243
7 1 3 -6.5241 -0.4146
7 1 4 -0.1723 -1.0556
7 1 5 -1.2459 0.6453
7 1 6 -0.4533 1.2072
7 1 7 0.9093 -0.6926
7 1 8 1.3967 -1.1184
7 1 9 -6.2697 0.6415
7 1 10 -2.6187 0.7925
7 1 11 5.4841 -0.4097
7 1 12 1.1952 -0.3498
7 3 0 5.2612 -0.1966
7 3 1 -7.6425 0.1857
7 3 2 -10.6384 -0.3359
7 3 3 2.9810 -0.2280
7 3 4 1.1067 0.7716
7 3 5 0.6039 0.2625
7 3 6 -0.2963 -0.8809
7 3 7 0.0861 -0.3037
7 3 8 -2.0389 0.8026
7 3 9 2.7999 0.2586
7 3 10 4.8809 -0.6002
7 3 11 -2.1495 -0.1175
7 3 12 -1.7552 0.3227
7 5 0 -5.9919 0.0833
7 5 1 -1.0208 0.0042
7 5 2 9.9099 0.0159
7 5 3 2.2646 0.2094
7 5 4 -0.9421 -0.1180
7 5 5 -2.2089 -0.2750
7 5 6 1.0692 0.0366
7 5 7 1.1180 0.3122
7 5 8 1.2203 0.0869
7 5 9 -0.6346 -0.3310
7 5 10 -3.5300 -0.0445
7 5 11 0.2538 0.2344
7 7 0 4.0349 0.1290
7 7 1 5.7644 -0.0599
7 7 2 -4.1853 -0.0569
7 7 3 -4.7942 0.0561
7 7 4 -1.9303 0.0562
7 7 5 3.2797 -0.1814
7 7 6 0.9756 0.0366
7 7 7 -1.7588 0.3033
7 7 8 -1.5644 -0.2477
7 7 9 -0.3247 -0.2229
7 7 10 2.1722 0.2610
7 7 11 -0.5278 0.0230
7 9 0 -1.5926 -0.1435
7 9 1 -5.1730 -0.0148
7 9 2 -0.7605 0.1413
7 9 3 3.1423 -0.0101
7 9 4 3.9511 -0.2279
7 9 5 -1.3223 0.0809
7 9 6 -2.0077 0.3229
7 9 7 0.0562 -0.2954
7 9 8 0.6288 -0.1863
7 9 9 1.2179 0.3785
7 11 0 1.2119 0.2210
7 11 1 2.7272 0.0617
7 11 2 1.9750 -0.1530
7 11 3 -0.8868 -0.0395
7 11 4 -3.0037 0.0464
7 11 5 -0.1727 0.1521
7 11 6 0.3552 -0.1251
7 11 7 0.0131 -0.0918
7 13 0 -1.8402 -0.2168
7 13 1 -1.8444 -0.2802
7 13 2 -1.4309 0.2324
7 13 3 0.3713 -0.0160
7 13 4 1.6113 0.0279
7 13 5 -0.2673 0.0794
7 15 0 0.8423 -0.1872
7 15 1 1.9658 0.4905
8 0 0 17.3312 0.5272
8 0 2 2.5378 -1.0536
8 0 4 -5.1891 1.0846
8 0 6 4.1553 -0.8982
8 0 8 -6.6523 0.5223
8 0 10 1.0052 0.0013
8 0 12 1.6576 -0.3122
8 2 0 -12.9625 0.4294
8 2 1 -4.0959 -1.2649
8 2 2 -1.6804 -0.0386
8 2 3 -3.4704 1.3912
8 2 4 3.2442 -0.1060
8 2 5 2.0451 -1.1702
8 2 6 -2.6919 0.1433
8 2 7 -3.2785 0.8119
8 2 8 4.8692 -0.1369
8 2 9 2.2711 -0.3711
8 2 10 -0.6617 0.0721
8 2 11 1.0562 -0.0006
8 4 0 2.4189 -0.7055
8 4 1 5.8178 0.4226
8 4 2 1.5116 0.7034
8 4 3 3.4363 -0.6233
8 4 4 -0.8044 -0.6052
8 4 5 -1.5131 0.5575
8 4 6 0.2866 0.5078
8 4 7 3.8331 -0.4749
8 4 8 -1.1523 -0.3485
8 4 9 -2.4660 0.4148
8 4 10 -0.1870 0.1408
8 4 11 -1.4576 -0.3103
8 6 0 6.4704 0.1694
8 6 1 -2.5941 0.1608
8 6 2 -2.5220 -0.2926
8 6 3 -3.0286 -0.1072
8 6 4 0.3151 0.2844
8 6 5 0.5090 0.1678
8 6 6 1.0965 -0.3675
8 6 7 -1.9875 -0.1439
8 6 8 -1.3435 0.4925
8 6 9 0.5158 -0.0781
8 6 10 0.2468 -0.4902
8 8 0 -7.5655 0.1081
8 8 1 -2.1404 0.0739
8 8 2 1.4728 -0.1301
8 8 3 3.1381 -0.0562
8 8 4 0.5089 0.2080
8 8 5 0.3699 -0.1129
8 8 6 -1.6388 -0.1581
8 8 7 -0.5711 0.3356
8 8 8 1.1798 -0.1292
8 8 9 0.9841 -0.3106
8 10 0 4.1213 0.0735
8 10 1 3.4095 -0.2079
8 10 2 0.3528 -0.0575
8 10 3 -1.4831 0.2560
8 10 4 -0.9980 -0.0437
8 10 5 -2.1299 -0.2279
8 10 6 0.6702 0.2414
8 10 7 2.1906 -0.0045
8 10 8 0.2924 -0.2177
8 12 0 -1.6880 -0.0451
8 12 1 -2.5227 0.0660
8 12 2 -0.2230 0.0660
8 12 3 -0.2033 0.0129
8 12 4 -0.4385 -0.1487
8 12 5 2.6923 0.1267
8 12 6 1.4029 0.0483
8 14 0 0.7746 0.0915
8 14 1 1.9228 -0.2276
8 14 2 -0.3771 0.1323
9 1 0 1.9869 -0.7704
9 1 1 -9.2907 0.0390
9 1 2 -2.2857 0.3926
9 1 3 2.7811 0.0473
9 1 4 0.0199 0.0272
9 1 5 -1.3563 -0.1794
9 1 6 -0.0848 -0.3854
9 1 7 0.0316 0.3554
9 1 8 -1.3237 0.6381
9 1 9 5.4013 -0.4628
9 1 10 1.9889 -0.6518
9 1 11 -3.4289 0.3413
9 3 0 -4.9739 0.4772
9 3 1 4.9981 0.2960
9 3 2 5.6396 -0.2824
9 3 3 -1.4759 -0.1010
9 3 4 -1.0641 0.0118
9 3 5 1.3969 -0.0293
9 3 6 1.4864 0.1860
9 3 7 -0.6830 0.1404
9 3 8 2.1110 -0.3313
9 3 9 -2.4738 -0.1935
9 3 10 -3.5921 0.3607
9 3 11 1.0666 0.1518
9 5 0 5.3862 0.0647
9 5 1 0.7351 -0.2937
9 5 2 -5.5481 0.0184
9 5 3 -1.6240 0.1614
9 5 4 1.6549 -0.0589
9 5 5 1.1641 -0.1299
9 5 6 -2.3375 0.1922
9 5 7 -0.6562 0.0504
9 5 8 -1.5034 -0.3021
9 5 9 0.6630 0.0667
9 5 10 2.3996 0.2264
9 7 0 -3.1934 -0.1901
9 7 1 -4.0657 -0.0415
9 7 2 2.0329 0.1402
9 7 3 3.8187 -0.0637
9 7 4 0.8238 -0.1486
9 7 5 -3.3565 0.3370
9 7 6 -0.0711 0.0148
9 7 7 1.5289 -0.5431
9 7 8 1.8239 0.2218
9 7 9 -0.0311 0.4693
9 9 0 0.8070 -0.0458
9 9 1 3.4824 0.1805
9 9 2 1.5299 -0.0062
9 9 3 -2.6747 -0.1686
9 9 4 -3.5660 0.2263
9 9 5 1.8350 -0.0380
9 9 6 2.0744 -0.3751
9 9 7 -0.0548 0.3734
9 9 8 -1.3094 0.2566
9 11 0 -0.6458 -0.0005
9 11 1 -1.3774 -0.0448
9 11 2 -2.3345 -0.1084
9 11 3 0.2794 0.1454
9 11 4 3.3341 0.0769
9 11 5 0.4569 -0.2164
9 11 6 -1.1671 0.1175
9 13 0 1.4637 0.1219
9 13 1 0.6962 0.1243
9 13 2 1.4167 -0.0232
9 13 3 0.6019 0.0410
10 0 0 -7.9725 -0.3881
10 0 2 -2.5205 0.7302
10 0 4 2.0921 -1.0043
10 0 6 -4.5564 1.1454
10 0 8 5.8588 -0.9222
10 0 10 -0.4678 0.3848
10 2 0 5.8384 -0.1286
10 2 1 1.5063 0.7511
10 2 2 1.5156 0.0023
10 2 3 1.6443 -1.0617
10 2 4 -0.9574 0.1138
10 2 5 -1.2888 1.2093
10 2 6 3.3130 -0.1707
10 2 7 3.0518 -1.1370
10 2 8 -4.4705 0.1254
10 2 9 -1.4169 0.7906
10 2 10 0.2700 -0.0310
10 4 0 -0.0522 0.3323
10 4 1 -2.9071 -0.2425
10 4 2 -1.1588 -0.4352
10 4 3 -0.7287 0.4107
10 4 4 0.1310 0.4730
10 4 5 0.7869 -0.4833
10 4 6 -1.1795 -0.5228
10 4 7 -3.7741 0.5022
10 4 8 1.6049 0.4834
10 4 9 1.3799 -0.4581
10 4 10 0.1521 -0.3255
10 6 0 -5.5894 -0.0660
10 6 1 1.4633 -0.0907
10 6 2 2.6628 0.0713
10 6 3 0.4900 0.1395
10 6 4 -1.0057 -0.0672
10 6 5 -0.2879 -0.2455
10 6 6 -0.1755 0.2210
10 6 7 2.3576 0.2432
10 6 8 0.2672 -0.4017
10 6 9 -0.0003 -0.0563
10 8 0 6.4713 -0.0115
10 8 1 1.9591 -0.1361
10 8 2 -2.5746 0.2072
10 8 3 -1.8471 0.1276
10 8 4 0.8690 -0.4094
10 8 5 0.1460 0.0898
10 8 6 0.7777 0.3675
10 8 7 -0.3068 -0.3182
10 8 8 -0.1038 -0.0607
10 10 0 -3.5755 -0.1513
10 10 1 -3.3431 0.1738
10 10 2 0.6347 0.0713
10 10 3 1.7634 -0.3449
10 10 4 0.1000 0.1692
10 10 5 0.8015 0.3023
10 10 6 -0.2178 -0.3816
10 12 0 1.1152 0.0338
10 12 1 2.3013 0.0356
10 12 2 0.3204 -0.1151
10 12 3 -0.4120 0.0413
10 12 4 0.1255 0.0913
10 14 0 -0.6377 -0.0004
11 1 0 -1.2721 1.0252
11 1 1 5.2973 -0.0268
11 1 2 0.9932 -1.0456
11 1 3 -2.1801 0.3302
11 1 4 -0.2430 0.9117
11 1 5 3.4315 -0.3614
11 1 6 0.2373 -0.5557
11 1 7 -0.3178 0.1087
11 1 8 1.0666 0.0904
11 1 9 -3.6849 0.1319
11 3 0 3.2562 -0.4531
11 3 1 -3.0713 -0.4819
11 3 2 -2.7842 0.6610
11 3 3 1.7644 0.2867
11 3 4 1.7260 -0.7120
11 3 5 -3.1028 -0.1739
11 3 6 -1.7039 0.5298
11 3 7 0.8743 0.0742
11 3 8 -1.8001 -0.2302
11 3 9 1.7861 0.0331
11 5 0 -3.5013 -0.1665
11 5 1 -0.2629 0.2981
11 5 2 3.1213 -0.0412
11 5 3 0.5108 -0.3542
11 5 4 -2.8166 0.2043
11 5 5 0.1578 0.4301
11 5 6 2.6010 -0.3244
11 5 7 0.1831 -0.3601
11 5 8 1.4336 0.3787
11 5 9 -0.6895 0.2063
11 7 0 1.7431 0.1210
11 7 1 2.4225 0.2193
11 7 2 -1.0194 -0.1317
11 7 3 -2.7691 -0.0034
11 7 4 0.6168 0.1771
11 7 5 2.6027 -0.3515
11 7 6 -0.4617 -0.0746
11 7 7 -1.0067 0.5622
11 7 8 -1.7098 -0.1115
11 9 0 0.0831 0.2418
11 9 1 -1.9405 -0.3088
11 9 2 -1.6146 -0.1366
11 9 3 2.1176 0.3035
11 9 4 2.4975 -0.1684
11 9 5 -1.6252 -0.0368
11 9 6 -1.6980 0.3281
11 11 0 -0.0132 -0.1658
11 11 1 0.3162 0.0433
11 11 2 2.1754 0.2858
11 11 3 0.1677 -0.2228
11 11 4 -2.7776 -0.1432
11 13 0 -0.7710 -0.0409
11 13 1 0.1320 -0.0313
12 0 0 4.4391 0.0535
12 0 2 -0.1763 0.0275
12 0 4 0.0882 0.3151
12 0 6 3.9179 -0.7338
12 0 8 -3.6436 0.7482
12 2 0 -3.2324 -0.2320
12 2 1 -1.2618 0.1646
12 2 2 0.7206 0.0495
12 2 3 -0.0166 0.1317
12 2 4 -0.6492 -0.0771
12 2 5 0.8052 -0.5700
12 2 6 -3.0944 0.1177
12 2 7 -2.0133 0.7928
12 2 8 2.9738 -0.0353
12 2 9 0.4346 -0.6392
12 4 0 -0.3994 0.1454
12 4 1 2.8025 -0.0711
12 4 2 -0.2112 -0.0389
12 4 3 -1.4652 0.0283
12 4 4 0.5070 -0.0925
12 4 5 -0.4681 0.1410
12 4 6 1.6135 0.2702
12 4 7 2.7091 -0.2221
12 4 8 -1.5126 -0.3537
12 6 0 4.4665 -0.0315
12 6 1 -2.0862 0.0204
12 6 2 -2.1911 0.1953
12 6 3 1.4940 -0.1371
12 6 4 1.0299 -0.2040
12 6 5 0.3296 0.2427
12 6 6 -0.5297 0.0290
12 6 7 -2.0230 -0.2767
12 8 0 -5.3843 -0.1050
12 8 1 -0.9680 0.1425
12 8 2 2.9604 -0.2159
12 8 3 0.6479 -0.1575
12 8 4 -1.3576 0.4494
12 8 5 -0.5975 -0.0427
12 8 6 -0.0551 -0.4096
12 10 0 2.9126 0.2045
12 10 1 2.7725 -0.0814
12 10 2 -1.0621 -0.0848
12 10 3 -1.6760 0.3000
12 10 4 0.2789 -0.1898
12 12 0 -0.4381 -0.0309
12 12 1 -1.8387 -0.1291
12 12 2 -0.5888 0.1244
13 1 0 0.2211 -0.5776
13 1 1 -2.1992 0.0289
13 1 2 -0.2848 0.9923
13 1 3 2.4079 -0.5124
13 1 4 0.2821 -1.2200
13 1 5 -3.7780 0.6382
13 1 6 -0.0086 1.0097
13 1 7 0.0639 -0.3662
13 1 8 -0.6892 -0.5312
13 3 0 -0.8631 0.1419
13 3 1 1.5826 0.2853
13 3 2 1.2121 -0.6113
13 3 3 -2.3943 -0.2282
13 3 4 -1.8154 0.9134
13 3 5 3.6887 0.2326
13 3 6 1.0019 -0.7725
13 3 7 -0.6855 -0.2113
13 3 8 1.2086 0.4451
13 5 0 1.1728 0.1761
13 5 1 -0.0964 -0.0364
13 5 2 -1.8314 0.0482
13 5 3 0.6232 0.2647
13 5 4 3.1907 -0.2206
13 5 5 -1.3075 -0.4237
13 5 6 -1.9451 0.2368
13 5 7 0.1422 0.3875
13 7 0 -0.2699 0.0237
13 7 1 -1.1940 -0.3636
13 7 2 0.7039 0.0397
13 7 3 1.5831 0.0994
13 7 4 -1.6083 -0.1230
13 7 5 -1.3035 0.1991
13 7 6 0.6161 0.1001
13 9 0 -0.7968 -0.3348
13 9 1 0.9132 0.3317
13 9 2 1.1654 0.1971
13 9 3 -1.4009 -0.3049
13 9 4 -1.1499 0.0980
13 11 0 0.5753 0.2081
13 11 1 0.1453 -0.0615
13 11 2 -1.5484 -0.2758
14 0 0 -3.9321 0.3404
14 0 2 2.7573 -0.7706
14 0 4 -1.1530 0.4765
14 0 6 -2.3883 0.0623
14 2 0 3.0037 0.3727
14 2 1 1.6556 -0.9108
14 2 2 -2.8546 -0.0463
14 2 3 -0.7351 0.7304
14 2 4 1.4225 0.0175
14 2 5 -0.4339 -0.1822
14 2 6 2.1073 -0.0308
14 2 7 0.6449 -0.1818
14 4 0 -0.2801 -0.3963
14 4 1 -3.2700 0.3253
14 4 2 1.7180 0.3747
14 4 3 2.2895 -0.3577
14 4 4 -1.0059 -0.2309
14 4 5 0.2806 0.1503
14 4 6 -1.5254 0.0196
14 6 0 -2.9041 0.0327
14 6 1 2.8731 -0.0095
14 6 2 1.0096 -0.2925
14 6 3 -2.3325 0.0975
14 6 4 -0.4926 0.2860
14 6 5 -0.3546 -0.1441
14 8 0 3.9245 0.1761
14 8 1 -0.2174 -0.0676
14 8 2 -2.2798 0.1473
14 8 3 0.2560 0.0999
14 8 4 1.0509 -0.2894
14 10 0 -2.0831 -0.1989
14 10 1 -1.7179 0.0046
14 10 2 0.8380 0.0663
15 1 0 0.6357 -0.2019
15 1 1 -0.0028 -0.0280
15 1 2 -0.1251 -0.4248
15 1 3 -1.9864 0.4382
15 1 4 0.0256 0.8776
15 1 5 2.4592 -0.5405
15 1 6 -0.3751 -0.8257
15 3 0 -1.0177 0.2316
15 3 1 -0.4194 0.0938
15 3 2 -0.2628 0.2745
15 3 3 2.3769 0.0247
15 3 4 0.9878 -0.6133
15 3 5 -3.0535 -0.1608
15 3 6 0.0619 0.4774
15 5 0 0.5253 -0.1045
15 5 1 0.1205 -0.2577
15 5 2 1.0130 -0.0577
15 5 3 -1.3077 -0.0249
15 5 4 -2.4431 0.1231
15 5 5 1.8784 0.1677
15 7 0 -0.6833 -0.1293
15 7 1 0.6088 0.3604
15 7 2 -0.5951 0.0638
15 7 4 1.7798 0.0236
15 9 0 1.1870 0.2748
15 9 1 -0.5100 -0.2446
15 9 2 -0.5588 -0.1327
16 0 0 3.7010 -0.6114
16 0 2 -3.4007 1.1069
16 0 4 1.1429 -0.8854
16 2 0 -2.9855 -0.2346
16 2 1 -1.4729 1.1157
16 2 2 3.4247 -0.0082
16 2 3 0.4930 -1.0173
16 2 4 -1.3717 0.0243
16 2 5 0.1799 0.5312
16 4 0 1.0751 0.3193
16 4 1 2.7973 -0.3834
16 4 2 -2.5526 -0.3920
16 4 3 -1.6910 0.3634
16 4 4 1.2144 0.2936
16 6 0 1.1539 0.0536
16 6 1 -2.7571 0.0542
16 6 2 0.4207 0.1571
16 6 3 2.0118 -0.0335
16 8 0 -2.1631 -0.1638
16 8 1 1.0003 -0.0476
16 8 2 0.9233 -0.0453
17 1 0 -0.9162 0.7783
17 1 1 1.1179 0.0173
17 1 2 0.3218 -0.1660
17 1 3 0.8346 -0.2093
17 1 4 -0.4396 -0.2863
17 3 0 1.5920 -0.4146
17 3 1 -0.3388 -0.3658
17 3 2 -0.2720 0.0420
17 3 3 -1.5950 0.1394
17 5 0 -0.9846 -0.0027
17 5 1 0.1726 0.3475
17 5 2 -0.4221 0.0886
17 7 0 0.8907 0.1203
17 7 1 -0.5950 -0.1881
18 0 0 -2.5917 0.6500
18 0 2 2.1506 -0.9459
18 2 0 2.2097 -0.0206
18 2 1 0.6025 -0.8148
18 2 2 -2.4008 0.0534
18 4 0 -1.3183 -0.0695
18 4 1 -1.3459 0.2532
18 4 2 2.3946 0.1727
18 6 0 0.2243 -0.1375
19 1 0 0.6427 -0.8530
19 1 1 -1.1865 -0.0095
19 3 0 -0.9835 0.3162
0 0 0 0.0 0.0
;
_shelx_fab_checksum              15590
_olex2_submission_special_instructions 'No special instructions were received'
loop_
_space_group_symop_operation_xyz
'x, y, z'
'-x, y, -z+1/2'
'x+1/2, y+1/2, z'
'-x+1/2, y+1/2, -z+1/2'
'-x, -y, -z'
'x, -y, z-1/2'
'-x+1/2, -y+1/2, -z'
'x+1/2, -y+1/2, z-1/2'
loop_
_atom_site_label
_atom_site_type_symbol
_atom_site_fract_x
_atom_site_fract_y
_atom_site_fract_z
_atom_site_U_iso_or_equiv
_atom_site_adp_type
_atom_site_occupancy
_atom_site_site_symmetry_order
_atom_site_calc_flag
_atom_site_refinement_flags_posn
_atom_site_refinement_flags_adp
_atom_site_refinement_flags_occupancy
_atom_site_disorder_assembly
_atom_site_disorder_group
C1 C 0.6706(4) 0.5758(4) 0.5731(5) 0.0246(14) Uani 1 1 d . . . . .
C2 C 0.5905(3) 0.5915(4) 0.4865(4) 0.0209(13) Uani 1 1 d . . . . .
C3 C 0.5561(3) 0.6830(4) 0.4695(4) 0.0205(13) Uani 1 1 d . . . . .
H3 H 0.582622 0.734500 0.511938 0.025 Uiso 1 1 calc R . . . .
C4 C 0.4824(3) 0.6995(4) 0.3900(4) 0.0182(13) Uani 1 1 d . . . . .
C5 C 0.4429(3) 0.6222(4) 0.3273(4) 0.0209(13) Uani 1 1 d . . . . .
H5 H 0.393096 0.631906 0.274073 0.025 Uiso 1 1 calc R . . . .
C6 C 0.4783(3) 0.5308(4) 0.3448(4) 0.0201(13) Uani 1 1 d . . . . .
C7 C 0.5515(3) 0.5134(4) 0.4228(4) 0.0205(13) Uani 1 1 d . . . . .
H7 H 0.574493 0.451306 0.433161 0.025 Uiso 1 1 calc R . . . .
C8 C 0.4486(4) 0.8007(4) 0.3686(4) 0.0198(13) Uani 1 1 d . . . . .
C9 C 0.4692(3) 0.3731(4) 0.2680(4) 0.0202(13) Uani 1 1 d . . . . .
C10 C 0.4390(3) 0.2851(4) 0.2848(4) 0.0189(13) Uani 1 1 d . . . . .
H10 H 0.397991 0.284965 0.307492 0.023 Uiso 1 1 calc R . . . .
C11 C 0.4698(3) 0.1965(4) 0.2677(4) 0.0169(12) Uani 1 1 d . . . . .
C12 C 0.4290(3) 0.1048(4) 0.2810(4) 0.0186(13) Uani 1 1 d . . . . .
Cd1 Cd 0.500000 1.000000 0.500000 0.0245(2) Uani 1 2 d S T P . .
Cd2 Cd 0.31942(3) -0.06096(3) 0.22550(3) 0.02238(16) Uani 1 1 d . . . . .
O0AA O 0.7010(2) 0.6459(3) 0.6339(3) 0.0266(10) Uani 1 1 d . . . . .
O2 O 0.7068(3) 0.4964(3) 0.5829(3) 0.0393(12) Uani 1 1 d . . . . .
O3 O 0.4965(2) 0.8714(3) 0.3978(3) 0.0262(10) Uani 1 1 d . . . . .
O4 O 0.3737(3) 0.8091(3) 0.3217(3) 0.0309(10) Uani 1 1 d . . . . .
O5 O 0.4335(2) 0.4584(3) 0.2790(3) 0.0248(10) Uani 1 1 d . . . . .
O6 O 0.4032(3) 0.0462(3) 0.2068(3) 0.0317(11) Uani 1 1 d . . . . .
O7 O 0.4191(3) 0.0905(3) 0.3600(3) 0.0306(10) Uani 1 1 d . . . . .
O8 O 0.2560(3) -0.0160(4) 0.3295(4) 0.0534(14) Uani 1 1 d . . . . .
H8A H 0.204345 -0.046052 0.312522 0.080 Uiso 1 1 d GR . . . .
H8B H 0.240505 0.051516 0.324114 0.080 Uiso 1 1 d GR . . . .
O9 O 0.3530(3) -0.1517(3) 0.1046(3) 0.0378(11) Uani 1 1 d . . . . .
H9A H 0.348656 -0.216756 0.110801 0.057 Uiso 1 1 d GR . . . .
H9B H 0.405287 -0.144897 0.116757 0.057 Uiso 1 1 d GR . . . .
O10 O 0.6070(3) 1.0628(3) 0.4826(3) 0.0487(14) Uani 1 1 d . . . . .
H10A H 0.598803 1.071937 0.415545 0.073 Uiso 1 1 d GR . . . .
H10B H 0.656011 1.055201 0.542990 0.073 Uiso 1 1 d GR . . . .
O12 O 0.7578(3) 0.8308(4) 0.6034(4) 0.0478(13) Uani 1 1 d . . . . .
H12A H 0.729960 0.847550 0.542660 0.072 Uiso 1 1 d G . . . .
H12B H 0.727033 0.793045 0.618383 0.072 Uiso 1 1 d G . . . .
O1 O 0.2053(10) -0.1463(11) 0.4238(12) 0.060(4) Uiso 0.3333 1 d . . . . .
loop_
_atom_site_aniso_label
_atom_site_aniso_U_11
_atom_site_aniso_U_22
_atom_site_aniso_U_33
_atom_site_aniso_U_23
_atom_site_aniso_U_13
_atom_site_aniso_U_12
C1 0.015(3) 0.028(4) 0.032(4) 0.003(3) 0.010(3) -0.001(3)
C2 0.017(3) 0.024(3) 0.021(3) 0.002(3) 0.007(3) 0.000(3)
C3 0.019(3) 0.018(3) 0.024(3) -0.002(2) 0.008(3) -0.003(3)
C4 0.016(3) 0.017(3) 0.023(3) 0.000(2) 0.010(3) 0.000(2)
C5 0.020(3) 0.018(3) 0.020(3) 0.002(3) 0.002(3) 0.005(3)
C6 0.021(3) 0.013(3) 0.026(3) -0.007(3) 0.008(3) -0.004(3)
C7 0.021(3) 0.016(3) 0.025(3) 0.001(3) 0.010(3) -0.003(3)
C8 0.024(4) 0.019(3) 0.018(3) -0.002(3) 0.011(3) 0.001(3)
C9 0.018(3) 0.014(3) 0.026(3) -0.005(3) 0.006(3) 0.005(3)
C10 0.019(3) 0.017(3) 0.021(3) 0.001(2) 0.008(3) 0.001(3)
C11 0.019(3) 0.014(3) 0.015(3) 0.002(2) 0.004(2) 0.000(2)
C12 0.017(3) 0.015(3) 0.022(3) 0.001(3) 0.006(3) 0.005(2)
Cd1 0.0333(4) 0.0180(4) 0.0211(3) -0.0023(3) 0.0098(3) -0.0010(3)
Cd2 0.0177(3) 0.0187(3) 0.0259(3) 0.00154(18) 0.0039(2) -0.00180(18)
O0AA 0.020(2) 0.027(2) 0.028(2) -0.0019(19) 0.0037(19) -0.0018(19)
O2 0.028(3) 0.023(3) 0.048(3) -0.001(2) -0.003(2) 0.014(2)
O3 0.030(2) 0.015(2) 0.033(2) -0.0065(18) 0.012(2) -0.002(2)
O4 0.026(3) 0.020(2) 0.042(3) 0.0057(19) 0.008(2) 0.0074(19)
O5 0.020(2) 0.014(2) 0.036(2) -0.0053(18) 0.0062(19) 0.0025(17)
O6 0.038(3) 0.022(2) 0.034(3) -0.005(2) 0.015(2) -0.013(2)
O7 0.043(3) 0.027(2) 0.028(2) 0.0070(19) 0.021(2) 0.003(2)
O8 0.041(3) 0.050(3) 0.076(4) -0.024(3) 0.030(3) -0.002(3)
O9 0.038(3) 0.034(3) 0.051(3) -0.013(2) 0.028(2) -0.008(2)
O10 0.045(3) 0.073(4) 0.028(3) -0.003(3) 0.015(2) -0.013(3)
O12 0.055(3) 0.036(3) 0.053(3) 0.004(2) 0.022(3) -0.003(3)
loop_
_atom_type_symbol
_atom_type_description
_atom_type_scat_dispersion_real
_atom_type_scat_dispersion_imag
_atom_type_scat_source
C C 0.0033 0.0016 'International Tables Vol C Tables 4.2.6.8 and 6.1.1.4'
H H 0.0000 0.0000 'International Tables Vol C Tables 4.2.6.8 and 6.1.1.4'
Cd Cd -0.8075 1.2024 'International Tables Vol C Tables 4.2.6.8 and 6.1.1.4'
O O 0.0106 0.0060 'International Tables Vol C Tables 4.2.6.8 and 6.1.1.4'
loop_
_geom_angle_atom_site_label_1
_geom_angle_atom_site_label_2
_geom_angle_atom_site_label_3
_geom_angle
_geom_angle_site_symmetry_1
_geom_angle_site_symmetry_3
_geom_angle_publ_flag
C2 C1 Cd2 175.5(4) . 8_556 ?
O0AA C1 C2 118.4(5) . . ?
O0AA C1 Cd2 58.7(3) . 8_556 ?
O2 C1 C2 120.5(5) . . ?
O2 C1 Cd2 62.4(3) . 8_556 ?
O2 C1 O0AA 121.1(5) . . ?
C3 C2 C1 119.7(5) . . ?
C3 C2 C7 120.1(5) . . ?
C7 C2 C1 120.1(5) . . ?
C2 C3 H3 119.6 . . ?
C2 C3 C4 120.9(5) . . ?
C4 C3 H3 119.6 . . ?
C3 C4 C5 119.3(5) . . ?
C3 C4 C8 120.1(5) . . ?
C5 C4 C8 120.5(5) . . ?
C4 C5 H5 120.4 . . ?
C6 C5 C4 119.3(5) . . ?
C6 C5 H5 120.4 . . ?
C5 C6 O5 114.8(5) . . ?
C7 C6 C5 122.1(5) . . ?
C7 C6 O5 123.0(5) . . ?
C2 C7 H7 120.9 . . ?
C6 C7 C2 118.3(5) . . ?
C6 C7 H7 120.9 . . ?
O3 C8 C4 118.1(5) . . ?
O3 C8 O4 124.4(5) . . ?
O4 C8 C4 117.5(5) . . ?
C10 C9 C9 119.7(3) . 2_655 ?
O5 C9 C9 121.7(3) . 2_655 ?
O5 C9 C10 118.4(5) . . ?
C9 C10 H10 119.8 . . ?
C9 C10 C11 120.4(5) . . ?
C11 C10 H10 119.8 . . ?
C10 C11 C12 116.4(5) . . ?
C11 C11 C10 119.9(3) 2_655 . ?
C11 C11 C12 123.5(3) 2_655 . ?
O6 C12 C11 116.6(5) . . ?
O7 C12 C11 120.7(5) . . ?
O7 C12 O6 122.7(5) . . ?
O3 Cd1 O3 180.0 5_676 . ?
O3 Cd1 O7 90.07(14) 5_676 5_666 ?
O3 Cd1 O7 89.93(14) . 5_666 ?
O3 Cd1 O7 89.93(14) 5_676 1_565 ?
O3 Cd1 O7 90.07(14) . 1_565 ?
O7 Cd1 O7 180.0 1_565 5_666 ?
O10 Cd1 O3 88.95(16) . 5_676 ?
O10 Cd1 O3 91.06(16) . . ?
O10 Cd1 O3 88.94(16) 5_676 . ?
O10 Cd1 O3 91.05(16) 5_676 5_676 ?
O10 Cd1 O7 91.81(16) . 5_666 ?
O10 Cd1 O7 88.19(16) 5_676 5_666 ?
O10 Cd1 O7 91.81(16) 5_676 1_565 ?
O10 Cd1 O7 88.19(16) . 1_565 ?
O10 Cd1 O10 180.0 . 5_676 ?
O0AA Cd2 C1 27.71(16) 8_455 8_455 ?
O0AA Cd2 O2 55.00(14) 8_455 8_455 ?
O0AA Cd2 O9 77.20(15) 8_455 . ?
O2 Cd2 C1 27.30(15) 8_455 8_455 ?
O2 Cd2 O9 86.69(16) 8_455 . ?
O4 Cd2 C1 119.46(17) 1_545 8_455 ?
O4 Cd2 O0AA 91.85(15) 1_545 8_455 ?
O4 Cd2 O2 146.71(15) 1_545 8_455 ?
O4 Cd2 O8 90.81(18) 1_545 . ?
O4 Cd2 O9 82.40(15) 1_545 . ?
O6 Cd2 C1 117.30(17) . 8_455 ?
O6 Cd2 O0AA 141.71(15) . 8_455 ?
O6 Cd2 O2 92.33(16) . 8_455 ?
O6 Cd2 O4 116.93(16) . 1_545 ?
O6 Cd2 O8 117.01(17) . . ?
O6 Cd2 O9 81.99(15) . . ?
O8 Cd2 C1 87.42(18) . 8_455 ?
O8 Cd2 O0AA 85.07(16) . 8_455 ?
O8 Cd2 O2 89.29(18) . 8_455 ?
O8 Cd2 O9 160.74(16) . . ?
O9 Cd2 C1 80.41(16) . 8_455 ?
C1 O0AA Cd2 93.5(3) . 8_556 ?
C1 O2 Cd2 90.3(4) . 8_556 ?
C8 O3 Cd1 130.2(4) . . ?
C8 O4 Cd2 121.3(4) . 1_565 ?
C9 O5 C6 120.8(4) . . ?
C12 O6 Cd2 110.5(4) . . ?
C12 O7 Cd1 127.7(4) . 1_545 ?
Cd2 O8 H8A 114.4 . . ?
Cd2 O8 H8B 114.1 . . ?
H8A O8 H8B 99.5 . . ?
Cd2 O9 H9A 112.0 . . ?
Cd2 O9 H9B 111.3 . . ?
H9A O9 H9B 102.2 . . ?
Cd1 O10 H10A 113.1 . . ?
Cd1 O10 H10B 112.4 . . ?
H10A O10 H10B 131.1 . . ?
H12A O12 H12B 104.5 . . ?
loop_
_geom_bond_atom_site_label_1
_geom_bond_atom_site_label_2
_geom_bond_distance
_geom_bond_site_symmetry_2
_geom_bond_publ_flag
C1 C2 1.503(8) . ?
C1 Cd2 2.718(6) 8_556 ?
C1 O0AA 1.266(7) . ?
C1 O2 1.247(7) . ?
C2 C3 1.374(8) . ?
C2 C7 1.401(8) . ?
C3 H3 0.9300 . ?
C3 C4 1.386(8) . ?
C4 C5 1.388(8) . ?
C4 C8 1.493(8) . ?
C5 H5 0.9300 . ?
C5 C6 1.380(8) . ?
C6 C7 1.373(8) . ?
C6 O5 1.386(7) . ?
C7 H7 0.9300 . ?
C8 O3 1.253(7) . ?
C8 O4 1.256(7) . ?
C9 C9 1.413(11) 2_655 ?
C9 C10 1.384(8) . ?
C9 O5 1.373(6) . ?
C10 H10 0.9300 . ?
C10 C11 1.397(7) . ?
C11 C11 1.390(11) 2_655 ?
C11 C12 1.506(8) . ?
C12 O6 1.268(7) . ?
C12 O7 1.245(7) . ?
Cd1 O3 2.282(4) 5_676 ?
Cd1 O3 2.282(4) . ?
Cd1 O7 2.321(4) 1_565 ?
Cd1 O7 2.321(4) 5_666 ?
Cd1 O10 2.232(5) . ?
Cd1 O10 2.232(5) 5_676 ?
Cd2 O0AA 2.328(4) 8_455 ?
Cd2 O2 2.410(4) 8_455 ?
Cd2 O4 2.225(4) 1_545 ?
Cd2 O6 2.207(4) . ?
Cd2 O8 2.322(5) . ?
Cd2 O9 2.419(4) . ?
O8 H8A 0.9608 . ?
O8 H8B 0.9586 . ?
O9 H9A 0.9000 . ?
O9 H9B 0.8987 . ?
O10 H10A 0.9310 . ?
O10 H10B 0.9680 . ?
O12 H12A 0.8499 . ?
O12 H12B 0.8511 . ?
loop_
_geom_torsion_atom_site_label_1
_geom_torsion_atom_site_label_2
_geom_torsion_atom_site_label_3
_geom_torsion_atom_site_label_4
_geom_torsion
_geom_torsion_site_symmetry_1
_geom_torsion_site_symmetry_2
_geom_torsion_site_symmetry_3
_geom_torsion_site_symmetry_4
_geom_torsion_publ_flag
C1 C2 C3 C4 179.8(5) . . . . ?
C1 C2 C7 C6 179.8(5) . . . . ?
C2 C1 O0AA Cd2 -176.0(5) . . . 8_556 ?
C2 C1 O2 Cd2 176.0(5) . . . 8_556 ?
C2 C3 C4 C5 0.4(8) . . . . ?
C2 C3 C4 C8 -175.9(5) . . . . ?
C3 C2 C7 C6 -0.7(8) . . . . ?
C3 C4 C5 C6 -0.7(8) . . . . ?
C3 C4 C8 O3 24.1(8) . . . . ?
C3 C4 C8 O4 -156.4(5) . . . . ?
C4 C5 C6 C7 0.3(9) . . . . ?
C4 C5 C6 O5 179.1(5) . . . . ?
C4 C8 O3 Cd1 -123.6(5) . . . . ?
C4 C8 O4 Cd2 -151.9(4) . . . 1_565 ?
C5 C4 C8 O3 -152.1(5) . . . . ?
C5 C4 C8 O4 27.4(8) . . . . ?
C5 C6 C7 C2 0.4(9) . . . . ?
C5 C6 O5 C9 161.1(5) . . . . ?
C7 C2 C3 C4 0.4(9) . . . . ?
C7 C6 O5 C9 -20.1(8) . . . . ?
C8 C4 C5 C6 175.6(5) . . . . ?
C9 C9 C10 C11 1.0(10) 2_655 . . . ?
C9 C9 O5 C6 -61.8(9) 2_655 . . . ?
C9 C10 C11 C11 -1.0(9) . . . 2_655 ?
C9 C10 C11 C12 -175.8(5) . . . . ?
C10 C9 O5 C6 123.7(6) . . . . ?
C10 C11 C12 O6 125.2(6) . . . . ?
C10 C11 C12 O7 -52.3(7) . . . . ?
C11 C11 C12 O6 -49.4(9) 2_655 . . . ?
C11 C11 C12 O7 133.1(7) 2_655 . . . ?
C11 C12 O6 Cd2 -165.2(4) . . . . ?
C11 C12 O7 Cd1 -96.1(5) . . . 1_545 ?
O0AA C1 C2 C3 6.3(8) . . . . ?
O0AA C1 C2 C7 -174.3(5) . . . . ?
O0AA C1 O2 Cd2 -2.2(6) . . . 8_556 ?
O2 C1 C2 C3 -172.0(6) . . . . ?
O2 C1 C2 C7 7.4(9) . . . . ?
O2 C1 O0AA Cd2 2.3(6) . . . 8_556 ?
O3 C8 O4 Cd2 27.5(8) . . . 1_565 ?
O4 C8 O3 Cd1 56.9(8) . . . . ?
O5 C6 C7 C2 -178.3(5) . . . . ?
O5 C9 C10 C11 175.6(5) . . . . ?
O6 C12 O7 Cd1 86.6(7) . . . 1_545 ?
O7 C12 O6 Cd2 12.2(7) . . . . ?
