#------------------------------------------------------------------------------
#$Date: 2021-12-01 02:02:49 +0200 (Wed, 01 Dec 2021) $
#$Revision: 270952 $
#$URL: file:///home/coder/svn-repositories/cod/cif/7/70/89/7708980.cif $
#------------------------------------------------------------------------------
#
# This file is available in the Crystallography Open Database (COD),
# http://www.crystallography.net/
#
# All data on this site have been placed in the public domain by the
# contributors.
#
data_7708980
loop_
_publ_author_name
'Wang, Kang'
'Duan, Yuhan'
'Chen, Jiajing'
'Wang, Haiying'
'Liu, Hui-Yan'
_publ_section_title
;
 Dye encapsulated zinc-based metal-organic framework as a dual-emission
 sensor for highly sensitive detection of antibiotics
;
_journal_name_full               'Dalton Transactions'
_journal_paper_doi               10.1039/D1DT03950D
_journal_year                    2021
_chemical_formula_moiety         'C26 H28 N4 O12 Zn2, 2[C3H7NO]'
_chemical_formula_sum            'C32 H42 N6 O14 Zn2'
_chemical_formula_weight         865.45
_space_group_crystal_system      monoclinic
_space_group_IT_number           4
_space_group_name_Hall           'P 2yb'
_space_group_name_H-M_alt        'P 1 21 1'
_atom_sites_solution_hydrogens   mixed
_audit_creation_date             2021-11-04
_audit_creation_method
;


Olex2 1.5-dev
(compiled 2021.10.14 svn.r9718050b for OlexSys, GUI svn.r6396)
;
_audit_update_record
;
2021-11-29 deposited with the CCDC.	2021-11-30 downloaded from the CCDC.
;
_cell_angle_alpha                90
_cell_angle_beta                 107.198(3)
_cell_angle_gamma                90
_cell_formula_units_Z            2
_cell_length_a                   10.123(2)
_cell_length_b                   16.278(4)
_cell_length_c                   13.191(3)
_cell_measurement_reflns_used    4747
_cell_measurement_temperature    150(2)
_cell_measurement_theta_max      24.07
_cell_measurement_theta_min      2.45
_cell_volume                     2076.5(8)
_computing_cell_refinement       'Bruker SAINT'
_computing_data_collection       'Bruker APEX2'
_computing_data_reduction        'Bruker SAINT'
_computing_molecular_graphics    'Olex2 1.5-dev (Dolomanov et al., 2009)'
_computing_publication_material  'Olex2 1.5-dev (Dolomanov et al., 2009)'
_computing_structure_refinement  'SHELXL 2018/3 (Sheldrick, 2015)'
_computing_structure_solution    'SHELXS-97 (Sheldrick 2008)'
_diffrn_ambient_temperature      150.15
_diffrn_measured_fraction_theta_full 0.996
_diffrn_measured_fraction_theta_max 0.996
_diffrn_measurement_device_type  'Bruker APEX-II CCD'
_diffrn_measurement_method       '\f and \w scans'
_diffrn_radiation_type           MoK\a
_diffrn_radiation_wavelength     0.71073
_diffrn_reflns_av_R_equivalents  0.0253
_diffrn_reflns_av_unetI/netI     0.0489
_diffrn_reflns_Laue_measured_fraction_full 0.996
_diffrn_reflns_Laue_measured_fraction_max 0.996
_diffrn_reflns_limit_h_max       12
_diffrn_reflns_limit_h_min       -10
_diffrn_reflns_limit_k_max       18
_diffrn_reflns_limit_k_min       -19
_diffrn_reflns_limit_l_max       15
_diffrn_reflns_limit_l_min       -15
_diffrn_reflns_number            10830
_diffrn_reflns_point_group_measured_fraction_full 0.864
_diffrn_reflns_point_group_measured_fraction_max 0.861
_diffrn_reflns_theta_full        25.242
_diffrn_reflns_theta_max         25.497
_diffrn_reflns_theta_min         2.244
_exptl_absorpt_coefficient_mu    1.222
_exptl_absorpt_correction_T_max  0.766
_exptl_absorpt_correction_T_min  0.711
_exptl_absorpt_correction_type   multi-scan
_exptl_absorpt_process_details   'SADABS; Bruker, 2008'
_exptl_crystal_colour            yellow
_exptl_crystal_colour_primary    yellow
_exptl_crystal_density_diffrn    1.384
_exptl_crystal_description       block
_exptl_crystal_F_000             896
_exptl_crystal_size_max          0.3
_exptl_crystal_size_mid          0.28
_exptl_crystal_size_min          0.23
_refine_diff_density_max         1.308
_refine_diff_density_min         -0.573
_refine_diff_density_rms         0.136
_refine_ls_abs_structure_details
;
 Refined as an inversion twin.
;
_refine_ls_abs_structure_Flack   0.41(3)
_refine_ls_extinction_method     none
_refine_ls_goodness_of_fit_ref   1.029
_refine_ls_hydrogen_treatment    constr
_refine_ls_matrix_type           full
_refine_ls_number_parameters     486
_refine_ls_number_reflns         6646
_refine_ls_number_restraints     372
_refine_ls_restrained_S_all      1.007
_refine_ls_R_factor_all          0.0848
_refine_ls_R_factor_gt           0.0774
_refine_ls_shift/su_max          0.002
_refine_ls_shift/su_mean         0.000
_refine_ls_structure_factor_coef Fsqd
_refine_ls_weighting_details
'w=1/[\s^2^(Fo^2^)+(0.1797P)^2^] where P=(Fo^2^+2Fc^2^)/3'
_refine_ls_weighting_scheme      calc
_refine_ls_wR_factor_gt          0.2123
_refine_ls_wR_factor_ref         0.2202
_reflns_Friedel_coverage         0.665
_reflns_Friedel_fraction_full    0.721
_reflns_Friedel_fraction_max     0.715
_reflns_number_gt                5797
_reflns_number_total             6646
_reflns_threshold_expression     'I > 2\s(I)'
_cod_data_source_file            d1dt03950d2.cif
_cod_data_source_block           compound_1
_cod_original_cell_volume        2076.4(8)
_cod_database_code               7708980
_shelx_shelxl_version_number     2018/3
_shelx_space_group_comment
;
The symmetry employed for this shelxl refinement is uniquely defined
by the following loop, which should always be used as a source of
symmetry information in preference to the above space-group names.
They are only intended as comments.
;
_shelx_estimated_absorpt_t_max   0.766
_shelx_estimated_absorpt_t_min   0.711
_olex2_refinement_description
;
1. Twinned data refinement
 Scales: 0.59(3)
 0.41(3)
2. Fixed Uiso
 At 1.2 times of:
  All C(H) groups, All N(H) groups
 At 1.5 times of:
  All C(H,H,H) groups
3. Restrained distances
 N2-C1C
 1.46 with sigma of 0.02
 C1A-O13
 1.22 with sigma of 0.02
 C1A-N2
 1.36 with sigma of 0.02
 N2-C1B
 1.45 with sigma of 0.02
 C1A-C1B
 2.46 with sigma of 0.04
 C1A-C1C
 2.45 with sigma of 0.04
 N4-C18 \\sim N4-C19 \\sim N4-C31
 with sigma of 0.001
 C18-C19 \\sim C19-C31
 with sigma of 0.001
 C19-C31 \\sim C31-C18
 with sigma of 0.001
 C25A-C23A \\sim C23A-C24A
 with sigma of 0.001
 C25-C24 \\sim C25A-C24A
 with sigma of 0.04
 N6-C23 \\sim N6A-C23A
 with sigma of 0.04
 N6-C24 \\sim N6A-C24A
 with sigma of 0.02
 C25-C23 \\sim C25A-C23A
 with sigma of 0.04
 C25-N6 \\sim C25A-N6A
 with sigma of 0.02
 C23A-C24A \\sim C24A-C25A
 with sigma of 0.001
 C23-C24 \\sim C23A-C24A
 with sigma of 0.04
 N6A-C23A \\sim N6A-C25A \\sim N6A-C24A
 with sigma of 0.001
 C24A-C25A \\sim C25A-C23A
 with sigma of 0.001
 O10-C23 \\sim O10-C23A
 with sigma of 0.02
 O10-N6 \\sim O10-N6A
 with sigma of 0.04
 N2-C1B \\sim N2-C1C
 with sigma of 0.02
 Zn1-O13 \\sim Zn1-O13A
 with sigma of 0.02
 N2-C1B \\sim N2A-C1E
 with sigma of 0.02
 C1A-N2 \\sim C20-N2A
 with sigma of 0.02
 N2-C1C \\sim N2A-C1D
 with sigma of 0.02
 O13-N2 \\sim O13A-N2A
 with sigma of 0.04
 C1B-C1C \\sim C1E-C1D
 with sigma of 0.04
 C1A-O13 \\sim C20-O13A
 with sigma of 0.02
 Zn1-C1A \\sim Zn1-C20
 with sigma of 0.04
 C1A-C1B \\sim C20-C1E
 with sigma of 0.04
 C1A-C1C \\sim C20-C1D
 with sigma of 0.04
 C1D-C1E \\sim C1E-C20
 with sigma of 0.001
 C1B-C1C \\sim C1C-C1A
 with sigma of 0.001
 O10-C23A \\sim O10-C23
 with sigma of 0.001
4. Restrained planarity
 O12, C18, N4, C31, C19
 with sigma of 0.0001
 O10, C23A, N6A, C24A, C25A
 with sigma of 0.0001
 C25, C24, N6, C23, O10
 with sigma of 0.0001
 C1A, O13, N2, C1B, C1C
 with sigma of 0.1
 C1A, N2, C1B, C1C, O13
 with sigma of 0.001
5. Uiso/Uaniso restraints and constraints
C1A \\sim O13 \\sim N2 \\sim C1B \\sim C1C: within 2A with sigma of 0.04 and
sigma for terminal atoms of 0.08 within 2A
O10 \\sim O12 \\sim N4 \\sim C18 \\sim C19 \\sim C31 \\sim C25 \\sim N6 \\sim
C23 \\sim C24 \\sim C25A \\sim N6A \\sim C23A \\sim C24A \\sim C1A \\sim O13
\\sim N2 \\sim C1B \\sim O13A \\sim C20 \\sim N2A \\sim C1D \\sim C1E \\sim
C1C: within 2A with sigma of 0.01 and sigma for terminal atoms of 0.02 within 2A
6. Rigid body (RIGU) restrains
 O12, N4, C18, C19, C31
 with sigma for 1-2 distances of 0.001 and sigma for 1-3 distances of 0.001
 C25, C24, N6, C23, O10
 with sigma for 1-2 distances of 0.001 and sigma for 1-3 distances of 0.001
 C24A, N6A, C25A, C23A, O10
 with sigma for 1-2 distances of 0.001 and sigma for 1-3 distances of 0.001
 C1A, O13, N2, C1B, C1C
 with sigma for 1-2 distances of 0.004 and sigma for 1-3 distances of 0.004
7. Others
 Sof(C25A)=Sof(H25D)=Sof(H25E)=Sof(H25F)=Sof(N6A)=Sof(C23A)=Sof(H23A)=
 Sof(C24A)=Sof(H24D)=Sof(H24E)=Sof(H24F)=1-FVAR(1)
 Sof(C25)=Sof(H25A)=Sof(H25B)=Sof(H25C)=Sof(N6)=Sof(C23)=Sof(H23)=Sof(C24)=
 Sof(H24A)=Sof(H24B)=Sof(H24C)=FVAR(1)
 Sof(O13A)=Sof(C20)=Sof(H20)=Sof(N2A)=Sof(C1D)=Sof(H1DA)=Sof(H1DB)=Sof(H1DC)=
 Sof(C1E)=Sof(H1EA)=Sof(H1EB)=Sof(H1EC)=1-FVAR(2)
 Sof(C1A)=Sof(H1A)=Sof(O13)=Sof(N2)=Sof(C1B)=Sof(H1BA)=Sof(H1BB)=Sof(H1BC)=
 Sof(C1C)=Sof(H1CA)=Sof(H1CB)=Sof(H1CC)=FVAR(2)
8.a Riding coordinates:
 C25(H25A,H25B,H25C), C25A(H25D,H25E,H25F), C1B(H1BA,H1BB,H1BC), C1C(H1CA,H1CB,
 H1CC), C1E(H1EA,H1EB,H1EC)
8.b Aromatic/amide H refined with riding coordinates:
 C3(H3), C5(H5), C7(H7), C11(H11), C13(H13), C15(H15), N1(H1), C18(H18),
 C23(H23), C23A(H23A), C1A(H1A), C20(H20)
8.c Idealised Me refined as rotating group:
 C19(H19A,H19B,H19C), C31(H31A,H31B,H31C), C24(H24A,H24B,H24C), C24A(H24D,H24E,
 H24F), C1D(H1DA,H1DB,H1DC)
;
_smtbx_masks_special_details
;
A solvent mask was calculated and 137 electrons were 
found in a volume of 730\%A^3^ in 1 void per unit cell. 
This is consistent with the presence of 2[C3H7NO] per Formula Unit 
which account for 160 electrons per unit cell.
;
_smtbx_masks_void_probe_radius   1.2
_smtbx_masks_void_truncation_radius 1.2
_shelx_res_file
;
TITL 1 in P2(1)
    compound_1.res
    created by SHELXL-2018/3 at 08:49:22 on 04-Nov-2021
CELL 0.71073 10.1225 16.2784 13.1907 90 107.198 90
ZERR 2 0.0022 0.0036 0.0029 0 0.0028 0
LATT -1
SYMM -X,0.5+Y,-Z
SFAC C H N O Zn
UNIT 64 84 12 28 4
EQIV $1 1+X,+Y,1+Z
SADI 0.001 N4 C18 N4 C19 N4 C31
FLAT 0.0001 O12 C18 N4 C31 C19
SADI 0.001 C18 C19 C19 C31
SADI 0.001 C19 C31 C31 C18
SADI 0.001 C25A C23A C23A C24A
SADI 0.04 C25 C24 C25A C24A
SADI 0.04 N6 C23 N6A C23A
SADI N6 C24 N6A C24A
SADI 0.04 C25 C23 C25A C23A
SADI C25 N6 C25A N6A
SADI 0.001 C23A C24A C24A C25A
SADI 0.04 C23 C24 C23A C24A
SADI 0.001 N6A C23A N6A C25A N6A C24A
SADI 0.001 C24A C25A C25A C23A
SADI O10 C23 O10 C23A
FLAT 0.0001 O10 C23A N6A C24A C25A
SADI 0.04 O10 N6 O10 N6A
FLAT 0.0001 C25 C24 N6 C23 O10
RIGU 0.001 0.001 O12 N4 C18 C19 C31
RIGU 0.001 0.001 C25 C24 N6 C23 O10
RIGU 0.001 0.001 C24A N6A C25A C23A O10
FLAT C1A O13 N2 C1B C1C
DFIX 1.46 N2 C1C
DFIX 1.22 C1A O13
RIGU C1A O13 N2 C1B C1C
DFIX 1.36 C1A N2
SIMU C1A O13 N2 C1B C1C
DANG 2.46 C1A C1B
DANG 2.45 C1A C1C
DFIX 1.45 N2 C1B
SADI N2 C1B N2 C1C
SADI Zn1 O13 Zn1 O13A
SADI N2 C1B N2A C1E
SADI C1A N2 C20 N2A
SADI N2 C1C N2A C1D
SADI 0.04 O13 N2 O13A N2A
SADI 0.04 C1B C1C C1E C1D
SADI C1A O13 C20 O13A
SADI 0.04 Zn1 C1A Zn1 C20
SADI 0.04 C1A C1B C20 C1E
SADI 0.04 C1A C1C C20 C1D
SIMU 0.01 0.02 2 O10 O12 N4 C18 C19 C31 C25 N6 C23 C24 C25A N6A C23A C24A =
 C1A O13 N2 C1B O13A C20 N2A C1D C1E C1C
SADI 0.001 C1D C1E C1E C20
SADI 0.001 C1B C1C C1C C1A
FLAT 0.001 C1A N2 C1B C1C O13
SADI 0.001 O10 C23A O10 C23

L.S. 4
PLAN  100
SIZE 0.3 0.28 0.23
TEMP -123
CONN 6 $Zn
CONN 7 Zn1
FREE Zn2 C16_$1
BOND
ABIN
fmap 2
ACTA
TWIN -1 0 0 0 -1 0 0 0 -1 2
OMIT -3 51
REM <olex2.extras>
REM <selected_cif_records
REM  <bonds
REM   <row "$M">
REM  >
REM  <angles
REM   <row "$* $M $*">
REM  >
REM >
REM <HklSrc "%.\\compound_1.hkl">
REM </olex2.extras>

WGHT    0.179700
BASF   0.41459
FVAR       0.16320   0.54361   0.35038
ZN1   5    0.717076    0.573377    0.501699    11.00000    0.04284    0.05107 =
         0.04973    0.01324    0.00952    0.00428
ZN2   5    1.015282    0.487666    0.691450    11.00000    0.03575    0.05019 =
         0.03062    0.00951    0.00577    0.00512
C1    1    0.901388    0.432224    0.473158    11.00000    0.03533    0.05981 =
         0.05783    0.01270    0.01705   -0.01162
C2    1    0.903210    0.368641    0.396445    11.00000    0.03901    0.06027 =
         0.04534    0.00094    0.01662   -0.01473
C3    1    0.818821    0.381377    0.283125    11.00000    0.04411    0.06483 =
         0.05106    0.01958    0.00239   -0.01787
AFIX  43
H3    2    0.758201    0.427009    0.262980    11.00000   -1.20000
AFIX   0
C4    1    0.831700    0.326960    0.212315    11.00000    0.05213    0.07896 =
         0.06024    0.00616    0.01155   -0.01449
C5    1    0.889172    0.261458    0.227385    11.00000    0.06530    0.06427 =
         0.03488    0.01031   -0.00213   -0.00389
AFIX  43
H5    2    0.884579    0.224583    0.170623    11.00000   -1.20000
AFIX   0
C6    1    0.965476    0.241255    0.335472    11.00000    0.05339    0.04304 =
         0.04867    0.01025    0.00940    0.00163
C7    1    0.971060    0.295495    0.412781    11.00000    0.03547    0.05361 =
         0.03067    0.00989    0.00805   -0.01092
AFIX  43
H7    2    1.025330    0.282205    0.482846    11.00000   -1.20000
AFIX   0
C8    1    1.033951    0.155749    0.356095    11.00000    0.04794    0.05991 =
         0.04770   -0.00274    0.01655   -0.00012
C9    1    0.633917    0.389046    0.061634    11.00000    0.07586    0.08122 =
         0.06171    0.05046    0.01151    0.01145
C10   1    0.607028    0.413994   -0.053173    11.00000    0.03681    0.06881 =
         0.04041    0.02325   -0.00797   -0.00203
C11   1    0.475387    0.432324   -0.097015    11.00000    0.04231    0.06688 =
         0.05226    0.00381    0.02562   -0.00742
AFIX  43
H11   2    0.411251    0.426175   -0.057542    11.00000   -1.20000
AFIX   0
C12   1    0.431178    0.460398   -0.200158    11.00000    0.02690    0.04813 =
         0.03750    0.00506    0.00128    0.00190
C13   1    0.524343    0.474395   -0.258351    11.00000    0.02432    0.04482 =
         0.02750    0.01353   -0.00007    0.00103
AFIX  43
H13   2    0.494077    0.494751   -0.328964    11.00000   -1.20000
AFIX   0
C14   1    0.654507    0.458345   -0.211667    11.00000    0.03320    0.08066 =
         0.03277    0.01333    0.00296    0.01458
C15   1    0.700361    0.427136   -0.104389    11.00000    0.02678    0.05584 =
         0.04363    0.02053   -0.01264   -0.00213
AFIX  43
H15   2    0.795497    0.416181   -0.070969    11.00000   -1.20000
AFIX   0
C16   1    0.279416    0.479374   -0.258231    11.00000    0.03062    0.06696 =
         0.06204    0.01160    0.01839    0.00959
C17   1    0.765166    0.468442   -0.272759    11.00000    0.02972    0.06821 =
         0.05827    0.01619    0.01786    0.01208
N1    3    0.759636    0.344773    0.092822    11.00000    0.09838    0.09958 =
         0.05446    0.03065    0.01095    0.02848
AFIX  43
H1    2    0.797204    0.327255    0.044559    11.00000   -1.20000
AFIX   0
O1    4    0.843922    0.497172    0.451411    11.00000    0.16340    0.07586 =
         0.09650    0.02814    0.08154    0.07024
O2    4    0.975563    0.417012    0.570717    11.00000    0.03258    0.07744 =
         0.07475   -0.01506    0.02694   -0.00413
O3    4    1.139059    0.152848    0.444594    11.00000    0.07351    0.05346 =
         0.06346   -0.01110   -0.02211    0.01541
O4    4    0.994040    0.103469    0.293513    11.00000    0.05031    0.05819 =
         0.03352    0.00726   -0.01145   -0.00056
O5    4    0.189760    0.453175   -0.208461    11.00000    0.01391    0.07828 =
         0.05315    0.01923    0.00691    0.01417
O6    4    0.242111    0.510865   -0.340191    11.00000    0.02833    0.08085 =
         0.04089    0.01140   -0.00574    0.00718
O7    4    0.725031    0.502536   -0.365010    11.00000    0.05683    0.07327 =
         0.03510    0.01761    0.01227    0.00269
O8    4    0.882906    0.451811   -0.230034    11.00000    0.03158    0.08637 =
         0.05073    0.03068    0.02033    0.00257
O9    4    0.575428    0.421758    0.123976    11.00000    0.07362    0.15622 =
         0.06754    0.04177    0.02452    0.04145
O10   4    0.574711    0.635819    0.539838    11.00000    0.08204    0.09212 =
         0.11732    0.01946    0.04053    0.01511
O12   4    0.671819    0.643799    0.362212    11.00000    0.12253    0.07891 =
         0.08507    0.02560    0.01169    0.01437
N4    3    0.550811    0.647299    0.180560    11.00000    0.14961    0.09119 =
         0.08840    0.01874    0.00778    0.02631
C18   1    0.620501    0.602098    0.270438    11.00000    0.13717    0.07923 =
         0.08984    0.02027    0.01402    0.01738
AFIX  43
H18   2    0.631388    0.544286    0.267160    11.00000   -1.20000
AFIX   0
C19   1    0.495479    0.607564    0.083393    11.00000    0.16055    0.09703 =
         0.09104    0.01485    0.01116    0.02487
AFIX 137
H19A  2    0.558527    0.613857    0.040052    11.00000   -1.50000
H19B  2    0.405666    0.631896    0.046188    11.00000   -1.50000
H19C  2    0.483414    0.549055    0.095753    11.00000   -1.50000
AFIX   0
C31   1    0.536440    0.732231    0.187831    11.00000    0.14209    0.09049 =
         0.08247    0.02237    0.00044    0.02928
AFIX 137
H31A  2    0.576589    0.749626    0.261691    11.00000   -1.50000
H31B  2    0.438114    0.746759    0.163925    11.00000   -1.50000
H31C  2    0.584533    0.759912    0.142977    11.00000   -1.50000
AFIX   0
PART 1
C25   1    0.351740    0.701390    0.621346    21.00000    0.08569    0.07789 =
         0.11057    0.00947    0.04374    0.00582
AFIX   3
H25A  2    0.351090    0.722340    0.551556    21.00000   -1.50000
H25B  2    0.293110    0.652400    0.612296    21.00000   -1.50000
H25C  2    0.316220    0.743690    0.659276    21.00000   -1.50000
AFIX   0
N6    3    0.493731    0.680200    0.683410    21.00000    0.08668    0.09612 =
         0.11611    0.00721    0.03966    0.00542
C23   1    0.585179    0.651311    0.638917    21.00000    0.08140    0.09063 =
         0.11674    0.01821    0.03954    0.00755
AFIX  43
H23   2    0.673469    0.639887    0.687216    21.00000   -1.20000
AFIX   0
C24   1    0.513239    0.695311    0.791808    21.00000    0.08445    0.10035 =
         0.11610    0.00101    0.03640   -0.00837
AFIX 137
H24A  2    0.474179    0.749035    0.800383    21.00000   -1.50000
H24B  2    0.612361    0.694957    0.829772    21.00000   -1.50000
H24C  2    0.466776    0.652473    0.820823    21.00000   -1.50000
AFIX   0
PART 2
C25A  1    0.431842    0.735918    0.632814   -21.00000    0.10414    0.08626 =
         0.11151    0.01200    0.04099    0.01598
AFIX   3
H25D  2    0.371662    0.697688    0.655884   -21.00000   -1.50000
H25E  2    0.528752    0.721007    0.666474   -21.00000   -1.50000
H25F  2    0.415472    0.791947    0.653474   -21.00000   -1.50000
AFIX   0
N6A   3    0.403737    0.733612    0.521817   -21.00000    0.09354    0.08337 =
         0.11261    0.01734    0.04690    0.01726
C23A  1    0.479732    0.680900    0.475489   -21.00000    0.09315    0.09666 =
         0.11420    0.01680    0.04325    0.02635
AFIX  43
H23A  2    0.462642    0.678268    0.400764   -21.00000   -1.20000
AFIX   0
C24A  1    0.299644    0.784017    0.457162   -21.00000    0.09368    0.09215 =
         0.11130    0.02563    0.05875    0.02444
AFIX 137
H24D  2    0.218373    0.750535    0.422510   -21.00000   -1.50000
H24E  2    0.333975    0.810367    0.403074   -21.00000   -1.50000
H24F  2    0.274076    0.826259    0.500867   -21.00000   -1.50000
AFIX   0
PART 1
C1A   1    0.469421    0.448783    0.405426    31.00000    0.09742    0.10953 =
         0.12328    0.00361    0.03379   -0.00341
AFIX  43
H1A   2    0.416167    0.496283    0.408401    31.00000   -1.20000
AFIX   0
O13   4    0.576411    0.481435    0.401388    31.00000    0.09638    0.10931 =
         0.11809    0.00601    0.02940   -0.00466
N2    3    0.377684    0.390500    0.408430    31.00000    0.09440    0.10714 =
         0.12686   -0.00171    0.03786    0.00021
C1B   1    0.238899    0.405651    0.414547    31.00000    0.09217    0.10777 =
         0.12041    0.00071    0.04094   -0.00144
AFIX   3
H1BA  2    0.204989    0.357531    0.443967    31.00000   -1.50000
H1BB  2    0.179069    0.415941    0.342337    31.00000   -1.50000
H1BC  2    0.237899    0.453681    0.459067    31.00000   -1.50000
AFIX   0
C1C   1    0.411078    0.303780    0.405695    31.00000    0.09507    0.10621 =
         0.14481   -0.00479    0.04663   -0.00416
AFIX   3
H1CA  2    0.362908    0.278950    0.337035    31.00000   -1.50000
H1CB  2    0.511218    0.298310    0.418955    31.00000   -1.50000
H1CC  2    0.383498    0.275770    0.461985    31.00000   -1.50000
AFIX   0
PART 2
O13A  4    0.559216    0.480288    0.429361   -31.00000    0.09010    0.11170 =
         0.10930    0.00150    0.03227   -0.00708
C20   1    0.494691    0.419760    0.448217   -31.00000    0.09994    0.10921 =
         0.12154    0.00261    0.03082   -0.00041
AFIX  43
H20   2    0.551211    0.372026    0.460734   -31.00000   -1.20000
AFIX   0
N2A   3    0.367184    0.402608    0.455952   -31.00000    0.09725    0.10550 =
         0.12546   -0.00154    0.04085    0.00172
C1D   1    0.249107    0.459731    0.431977   -31.00000    0.09917    0.11266 =
         0.11997   -0.00793    0.03718    0.00587
AFIX 137
H1DA  2    0.281807    0.515782    0.426735   -31.00000   -1.50000
H1DB  2    0.204982    0.457171    0.488773   -31.00000   -1.50000
H1DC  2    0.181974    0.444244    0.364472   -31.00000   -1.50000
AFIX   0
C1E   1    0.341019    0.326555    0.504444   -31.00000    0.09782    0.10393 =
         0.13133    0.00069    0.05169    0.00118
AFIX   3
H1EA  2    0.404459    0.284025    0.494304   -31.00000   -1.50000
H1EB  2    0.245369    0.308965    0.471214   -31.00000   -1.50000
H1EC  2    0.355979    0.335275    0.580524   -31.00000   -1.50000
AFIX   0
HKLF 4




REM  1 in P2(1)
REM wR2 = 0.2202, GooF = S = 1.029, Restrained GooF = 1.007 for all data
REM R1 = 0.0774 for 5797 Fo > 4sig(Fo) and 0.0848 for all 6646 data
REM 486 parameters refined using 372 restraints

END

WGHT      0.1797      0.0000

REM Highest difference peak  1.308,  deepest hole -0.573,  1-sigma level  0.136
Q1    1   0.7887  0.6004  0.5252  11.00000  0.05    1.31
Q2    1   0.7749  0.5491  0.4937  11.00000  0.05    1.28
Q3    1   1.0920  0.4859  0.6959  11.00000  0.05    1.20
Q4    1   1.0233  0.5319  0.7005  11.00000  0.05    0.98
Q5    1   0.4669  0.5191  0.2911  11.00000  0.05    0.64
Q6    1   0.6236  0.5750  0.4988  11.00000  0.05    0.64
Q7    1   0.2620  0.6594  0.5089  11.00000  0.05    0.58
Q8    1   0.5135  0.5239  0.4419  11.00000  0.05    0.56
Q9    1   0.2987  0.4906 -0.3196  11.00000  0.05    0.53
Q10   1   0.3372  0.6920  0.4381  11.00000  0.05    0.48
Q11   1   0.4824  0.4566  0.3236  11.00000  0.05    0.48
Q12   1   0.2746  0.5423  0.4607  11.00000  0.05    0.47
Q13   1   0.2817  0.7111  0.4976  11.00000  0.05    0.45
Q14   1   0.2222  0.5206 -0.2463  11.00000  0.05    0.45
Q15   1   0.4206  0.8215  0.4281  11.00000  0.05    0.44
Q16   1   0.8358  0.4759 -0.2601  11.00000  0.05    0.44
Q17   1   0.7338  0.6913  0.4351  11.00000  0.05    0.43
Q18   1   0.3443  0.6580  0.8333  11.00000  0.05    0.43
Q19   1   0.8375  0.4627  0.3589  11.00000  0.05    0.43
Q20   1   0.3229  0.7391  0.3578  11.00000  0.05    0.42
Q21   1   1.0445  0.3741  0.6087  11.00000  0.05    0.42
Q22   1   0.2590  0.7489  0.3784  11.00000  0.05    0.42
Q23   1   0.3429  0.4948 -0.2450  11.00000  0.05    0.42
Q24   1   0.6215  0.4289  0.1951  11.00000  0.05    0.41
Q25   1   0.7621  0.6058  0.3465  11.00000  0.05    0.41
Q26   1   0.3358  0.3904  0.6161  11.00000  0.05    0.40
Q27   1   0.3656  0.4123  0.3715  11.00000  0.05    0.40
Q28   1   0.7719  0.4711  0.3299  11.00000  0.05    0.39
Q29   1   0.1624  0.6695  0.6148  11.00000  0.05    0.39
Q30   1   0.5315  0.4461  0.4554  11.00000  0.05    0.39
Q31   1   0.4281  0.3616  0.3152  11.00000  0.05    0.38
Q32   1   0.6937  0.3721 -0.0631  11.00000  0.05    0.38
Q33   1   0.4583  0.4234 -0.1748  11.00000  0.05    0.38
Q34   1   0.2518  0.4603 -0.2226  11.00000  0.05    0.38
Q35   1   0.5947  0.3971  0.0058  11.00000  0.05    0.37
Q36   1   0.5710  0.4016 -0.2555  11.00000  0.05    0.37
Q37   1   0.5483  0.6864  0.9018  11.00000  0.05    0.37
Q38   1   0.9889  0.1442  0.3020  11.00000  0.05    0.37
Q39   1   0.2784  0.4003  0.4313  11.00000  0.05    0.36
Q40   1   0.4865  0.4889 -0.2160  11.00000  0.05    0.35
Q41   1   0.5081  0.5031 -0.0953  11.00000  0.05    0.35
Q42   1   0.7602  0.5408  0.3631  11.00000  0.05    0.35
Q43   1   0.4963  0.6060  0.1988  11.00000  0.05    0.35
Q44   1   0.1607  0.7303  0.6242  11.00000  0.05    0.34
Q45   1   0.3527  0.7537  0.0935  11.00000  0.05    0.34
Q46   1   0.3926  0.7946  0.8202  11.00000  0.05    0.34
Q47   1   0.3826  0.5783  0.8525  11.00000  0.05    0.34
Q48   1   0.5163  0.6728  0.9357  11.00000  0.05    0.33
Q49   1   0.6191  0.6724  0.8961  11.00000  0.05    0.33
Q50   1   0.5620  0.6488  0.5527  11.00000  0.05    0.33
Q51   1   0.9937  0.1178  0.2629  11.00000  0.05    0.33
Q52   1   0.6876  0.3476  0.0139  11.00000  0.05    0.33
Q53   1   0.2169  0.4675 -0.2998  11.00000  0.05    0.33
Q54   1   0.6778  0.6690  0.6006  11.00000  0.05    0.33
Q55   1   0.3082  0.4798  0.3611  11.00000  0.05    0.33
Q56   1   0.9899  0.4839 -0.1584  11.00000  0.05    0.32
Q57   1   1.0774  0.1034  0.3174  11.00000  0.05    0.32
Q58   1   0.2310  0.5019 -0.3769  11.00000  0.05    0.32
Q59   1   0.5302  0.5972  0.5041  11.00000  0.05    0.32
Q60   1   0.8491  0.3162  0.0791  11.00000  0.05    0.32
Q61   1   0.9000  0.2525  0.3455  11.00000  0.05    0.32
Q62   1   0.8788  0.2464  0.3608  11.00000  0.05    0.32
Q63   1   0.7551  0.6977  0.3406  11.00000  0.05    0.32
Q64   1   0.5240  0.7081  0.5014  11.00000  0.05    0.31
Q65   1   0.6084  0.4819 -0.2460  11.00000  0.05    0.31
Q66   1   0.1992  0.4901 -0.1417  11.00000  0.05    0.31
Q67   1   0.2955  0.3973  0.2809  11.00000  0.05    0.31
Q68   1   0.4590  0.5759  0.2261  11.00000  0.05    0.31
Q69   1   0.4478  0.6437 -0.0507  11.00000  0.05    0.30
Q70   1   0.6161  0.6716  0.1768  11.00000  0.05    0.30
Q71   1   0.4647  0.6996  0.9186  11.00000  0.05    0.30
Q72   1   0.5532  0.4396 -0.0757  11.00000  0.05    0.30
Q73   1   0.3328  0.3440  0.4070  11.00000  0.05    0.30
Q74   1   0.7120  0.5185 -0.2157  11.00000  0.05    0.30
Q75   1   0.5083  0.6302  0.7397  11.00000  0.05    0.30
Q76   1   0.1896  0.4121 -0.3634  11.00000  0.05    0.30
Q77   1   0.8126  0.4209  0.4644  11.00000  0.05    0.30
Q78   1   0.4638  0.4818 -0.0203  11.00000  0.05    0.30
Q79   1   0.6159  0.5539  0.3353  11.00000  0.05    0.29
Q80   1   0.9414  0.4841  0.5210  11.00000  0.05    0.29
Q81   1   0.5757  0.4129 -0.3594  11.00000  0.05    0.29
Q82   1   0.4978  0.3999  0.0443  11.00000  0.05    0.29
Q83   1   0.7629  0.4251  0.4938  11.00000  0.05    0.29
Q84   1   0.5902  0.3380  0.0568  11.00000  0.05    0.29
Q85   1   0.6593  0.4099  0.0606  11.00000  0.05    0.29
Q86   1   0.3823  0.6973  0.8167  11.00000  0.05    0.29
Q87   1   0.6941  0.7443  0.2184  11.00000  0.05    0.29
Q88   1   0.6338  0.8458  0.1652  11.00000  0.05    0.29
Q89   1   0.2330  0.6869  0.5793  11.00000  0.05    0.28
Q90   1   0.3483  0.6212  0.8022  11.00000  0.05    0.28
Q91   1   0.4562  0.4577 -0.2520  11.00000  0.05    0.28
Q92   1   0.6678  0.8280  0.2332  11.00000  0.05    0.28
Q93   1   0.7492  0.4915 -0.3194  11.00000  0.05    0.28
Q94   1   1.1573  0.4028  0.6251  11.00000  0.05    0.28
Q95   1   1.0945  0.1729  0.3464  11.00000  0.05    0.27
Q96   1   0.2368  0.7001  0.6417  11.00000  0.05    0.27
Q97   1   0.2659  0.2905  0.4989  11.00000  0.05    0.27
Q98   1   0.7156  0.4007  0.0582  11.00000  0.05    0.27
Q99   1   0.5141  0.3718 -0.0964  11.00000  0.05    0.27
Q100  1   0.5810  0.3949  0.5800  11.00000  0.05    0.27
;
_shelx_res_checksum              73728
_shelx_hkl_file
;
   2   0   0   19.14    0.68
   2   0   0   19.76    0.65
  -2   0   0   19.45    0.68
   3   0   0  150.63    4.75
   3   0   0  145.98    4.79
   4   0   0  299.33    9.56
   4   0   0  298.90    9.61
   5   0   0    5.49    0.32
   5   0   0    5.78    0.41
   6   0   0   10.36    0.63
   7   0   0   63.53    2.23
   8   0   0   11.35    0.76
   9   0   0    0.18    0.54
  10   0   0    8.66    0.89
  11   0   0    5.59    0.86
  12   0   0    1.08    0.87
   0   1   0    0.02    0.01
   1   1   0  180.33    5.77
  -2  -1   0   84.65    2.80
   2  -1   0   86.44    2.78
   2  -1   0   86.17    2.80
   2   1   0   87.99    2.79
  -3  -1   0   50.46    1.69
   3  -1   0   51.71    1.68
   3  -1   0   48.61    1.66
   3   1   0   51.02    1.68
   4  -1   0   19.66    0.74
   4  -1   0   21.57    0.79
  -4  -1   0   21.58    0.81
   4   1   0   20.62    0.79
   5  -1   0    7.64    0.39
  -5  -1   0    7.62    0.51
   5  -1   0    7.60    0.47
   5   1   0    7.89    0.46
   6  -1   0   78.47    2.63
   6  -1   0   80.44    2.69
   6   1   0   80.13    2.69
   7  -1   0   15.58    0.82
   7   1   0   15.36    0.80
   8  -1   0    5.23    0.57
   8   1   0    5.24    0.56
   9  -1   0    7.67    0.72
   9   1   0    7.53    0.72
  10  -1   0    6.80    0.80
  10   1   0    7.48    0.82
  11  -1   0    0.87    0.75
  11   1   0    1.38    0.78
  12  -1   0    2.01    0.87
  12   1   0    1.22    0.87
   0   2   0  619.15   19.79
  -1  -2   0   13.94    0.54
   1   2   0   18.48    0.55
  -2  -2   0   15.18    0.57
   2  -2   0   15.88    0.57
  -3  -2   0   52.59    1.79
   3  -2   0   54.12    1.78
   3  -2   0   53.41    1.79
   3   2   0   55.43    1.79
   4  -2   0  247.02    7.95
   4  -2   0  248.92    7.97
  -4  -2   0  246.32    7.98
   4   2   0  248.28    7.97
  -5  -2   0   17.33    0.74
   5  -2   0   16.38    0.65
   5  -2   0   15.86    0.71
   5   2   0   15.98    0.70
   6  -2   0    8.99    0.48
  -6  -2   0    9.35    0.65
   6  -2   0    9.55    0.60
   6   2   0    6.87    0.57
   7  -2   0   44.95    1.67
   7  -2   0   47.26    1.60
   7   2   0   43.77    1.65
   8  -2   0    8.51    0.75
   8   2   0    9.42    0.74
   9  -2   0    5.51    0.66
   9   2   0    5.15    0.67
  10  -2   0    6.75    0.79
  10   2   0    5.41    0.80
  11  -2   0    4.59    0.84
  11   2   0    5.19    0.85
  12  -2   0    2.19    0.87
  12   2   0    3.24    0.93
   0   3   0    0.28    0.06
   1  -3   0  135.39    4.55
   1   3   0  148.37    4.55
   2  -3   0   52.49    1.70
  -2  -3   0   50.15    1.70
   2   3   0   51.56    1.69
   3  -3   0   51.63    1.70
  -3  -3   0   50.05    1.70
   3  -3   0   51.47    1.69
   3   3   0   49.61    1.69
  -5  -3   0   42.24    1.53
   5  -3   0   42.55    1.49
   5  -3   0   43.14    1.52
   5   3   0   44.59    1.52
   6  -3   0   36.98    1.32
  -6  -3   0   38.55    1.40
   6  -3   0   36.76    1.36
   6   3   0   35.04    1.36
  -7  -3   0   17.41    0.91
   7  -3   0   16.17    0.85
   7  -3   0   16.91    0.77
   7   3   0   15.24    0.83
   8  -3   0   20.84    1.03
   8   3   0   20.56    1.02
   9  -3   0    4.91    0.66
   9   3   0    3.76    0.67
  10  -3   0    9.16    0.93
  10   3   0    8.15    0.87
  11  -3   0    2.97    0.80
  11   3   0    3.74    0.86
  12  -3   0    3.88    0.91
  12   3   0    3.55    0.93
   0   4   0  466.75   14.94
   1  -4   0  164.66    5.42
   1   4   0  173.60    5.42
   2  -4   0  186.67    5.92
  -2  -4   0  181.62    5.93
   2   4   0  184.60    5.92
   3  -4   0   25.26    0.93
  -3  -4   0   25.01    0.93
   3   4   0   28.17    0.93
   4  -4   0  105.23    3.46
   4  -4   0  102.87    3.45
  -4  -4   0  106.10    3.47
   4   4   0  107.68    3.46
   5  -4   0   24.04    0.93
  -5  -4   0   25.23    0.98
   5  -4   0   24.08    0.96
   5   4   0   23.72    0.96
  -6  -4   0   15.42    0.79
   6  -4   0   14.35    0.74
   6  -4   0   14.80    0.69
   6   4   0   12.53    0.71
   7  -4   0    9.76    0.70
  -7  -4   0   11.24    0.78
   7  -4   0   10.68    0.65
   7   4   0    9.27    0.67
   8  -4   0   10.67    0.79
  -8  -4   0   10.55    0.89
   8   4   0    9.07    0.81
   9  -4   0   12.25    0.91
   9   4   0   11.80    0.91
  10  -4   0    1.62    0.65
  10   4   0    0.72    0.71
  11  -4   0    1.72    0.75
  11   4   0    1.19    0.80
  12  -4   0    3.95    0.91
  12   4   0    2.87    0.94
   0   5   0    0.27    0.10
   1  -5   0   79.02    2.66
   1   5   0   85.31    2.66
  -2  -5   0    7.93    0.37
   2  -5   0    8.65    0.38
   2   5   0    7.75    0.35
   3  -5   0  123.55    4.09
  -3  -5   0  124.67    4.10
   3   5   0  129.56    4.09
  -4  -5   0   39.67    1.44
   4  -5   0   40.46    1.44
   4  -5   0   40.45    1.43
   4   5   0   43.47    1.43
   5  -5   0   44.24    1.59
  -5  -5   0   45.54    1.60
   5  -5   0   43.85    1.57
   5   5   0   45.05    1.59
   6  -5   0    5.92    0.60
  -6  -5   0    6.63    0.62
   6  -5   0    6.31    0.52
   6   5   0    6.29    0.57
  -7  -5   0    3.93    0.49
   7  -5   0    5.54    0.50
   7  -5   0    4.22    0.50
   7   5   0    4.24    0.51
  -8  -5   0   17.15    1.03
   8  -5   0   14.52    0.87
   8  -5   0   15.22    0.91
   8   5   0   14.39    0.93
   9  -5   0    1.81    0.59
  -9  -5   0    1.69    0.59
   9   5   0    1.83    0.64
  10  -5   0    6.56    0.79
  10   5   0    6.55    0.85
  11  -5   0    3.70    0.81
  11   5   0    4.04    0.86
  12  -5   0    5.45    0.94
  12   5   0    4.99    1.01
   0   6   0  232.80    7.46
   1  -6   0   27.92    0.94
   1   6   0   27.37    0.94
  -2  -6   0  110.36    3.52
   2  -6   0  107.81    3.50
   2   6   0  104.75    3.49
   3  -6   0    5.74    0.39
  -3  -6   0    5.55    0.36
   3   6   0    5.54    0.35
  -4  -6   0   21.97    0.84
   4  -6   0   20.05    0.84
   4  -6   0   21.38    0.85
   4   6   0   20.55    0.82
   5  -6   0   52.34    1.79
  -5  -6   0   51.68    1.80
   5  -6   0   49.42    1.79
   5   6   0   50.40    1.79
   6  -6   0   16.08    0.81
  -6  -6   0   15.80    0.82
   6  -6   0   15.81    0.78
   6   6   0   13.94    0.78
  -7  -6   0    1.83    0.43
   7  -6   0    1.36    0.44
   7  -6   0    1.88    0.43
   7   6   0    1.24    0.47
   8  -6   0    5.92    0.62
  -8  -6   0    5.12    0.60
   8  -6   0    5.77    0.58
   8   6   0    4.43    0.65
   9  -6   0   15.57    1.00
  -9  -6   0   15.66    1.11
   9   6   0   14.87    1.06
 -10  -6   0    1.16    0.66
  10  -6   0    2.07    0.69
  10   6   0    1.92    0.73
  11  -6   0    2.82    0.77
  11   6   0    0.59    0.83
  12  -6   0    6.11    0.95
  12   6   0    5.53    1.48
   0   7   0   -0.01    0.12
   1  -7   0   22.47    0.80
   1   7   0   22.85    0.80
  -2  -7   0   17.07    0.68
   2  -7   0   17.33    0.66
   2   7   0   17.04    0.65
  -3  -7   0   22.10    0.85
   3  -7   0   22.39    0.85
   3   7   0   22.01    0.82
   4  -7   0   78.28    2.63
   4  -7   0   77.12    2.61
  -4  -7   0   78.77    2.62
   4   7   0   77.43    2.60
  -5  -7   0   34.08    1.29
   5  -7   0   33.57    1.30
   5  -7   0   34.84    1.29
   5   7   0   33.50    1.27
   6  -7   0    3.12    0.46
   6  -7   0    3.28    0.46
  -6  -7   0    3.42    0.43
   6   7   0    3.50    0.46
   7  -7   0    5.55    0.58
  -7  -7   0    5.39    0.55
   7  -7   0    6.62    0.58
   7   7   0    5.83    0.61
  -8  -7   0   27.60    1.30
   8  -7   0   27.52    1.24
   8  -7   0   24.33    1.19
   8   7   0   26.12    1.26
  -9  -7   0    1.88    0.60
   9  -7   0    2.87    0.64
   9   7   0    1.83    0.69
  10  -7   0    2.76    0.72
 -10  -7   0    0.98    0.67
  10   7   0    1.08    0.76
  11  -7   0    8.76    0.93
  11   7   0    7.17    0.98
   1  -8   0   63.51    2.13
   1   8   0   65.51    2.13
   2  -8   0   63.33    2.13
   2   8   0   64.60    2.12
  -3  -8   0    9.80    0.51
   3  -8   0    9.70    0.50
   3  -8   0    8.32    0.55
   3   8   0    8.84    0.46
   4  -8   0   39.44    1.41
  -4  -8   0   39.96    1.43
   4  -8   0   39.43    1.44
   4   8   0   37.74    1.39
   5  -8   0   28.70    1.19
   5  -8   0   28.79    1.17
  -5  -8   0   29.39    1.17
   5   8   0   30.03    1.14
  -6  -8   0    6.24    0.64
   6  -8   0    5.21    0.53
   6  -8   0    5.23    0.55
   6   8   0    5.83    0.60
   7  -8   0    4.86    0.56
  -7  -8   0    4.56    0.54
   7  -8   0    4.64    0.56
   7   8   0    4.57    0.59
   8  -8   0    6.43    0.68
  -8  -8   0    7.77    0.86
   8  -8   0    6.87    0.68
   8   8   0    6.08    0.73
  -9  -8   0    9.68    1.05
   9  -8   0   10.88    0.91
   9  -8   0    8.84    0.94
   9   8   0    8.76    0.87
 -10  -8   0    3.37    0.74
  10  -8   0    3.09    0.72
  10   8   0    2.94    0.81
  11  -8   0    4.89    0.85
 -11  -8   0    2.47    0.80
  11   8   0    3.20    0.90
   1  -9   0   25.35    0.90
   1   9   0   24.77    0.90
   2  -9   0    0.93    0.23
   2   9   0    0.88    0.21
   3  -9   0   30.73    1.22
  -3  -9   0   32.03    1.19
   3  -9   0   31.86    1.17
   3   9   0   32.55    1.15
   4  -9   0   27.84    1.14
  -4  -9   0   28.86    1.11
   4  -9   0   28.25    1.10
  -4  -9   0   28.16    0.99
   4   9   0   27.13    1.06
   5  -9   0    8.35    0.67
  -5  -9   0    8.23    0.65
   5  -9   0    9.06    0.67
   5   9   0    9.81    0.62
  -6  -9   0   11.10    0.80
   6  -9   0   12.00    0.78
   6  -9   0   10.94    0.79
   6   9   0   12.31    0.73
   7  -9   0    7.50    0.74
  -7  -9   0    6.10    0.59
   7  -9   0    6.47    0.67
   7   9   0    7.06    0.68
   8  -9   0   13.74    0.95
   8  -9   0   13.44    1.00
  -8  -9   0   13.09    1.00
   8   9   0   12.43    1.01
   9  -9   0    2.18    0.64
   9  -9   0    1.41    0.67
  -9  -9   0    1.88    0.62
   9   9   0    2.38    0.71
 -10  -9   0    4.49    0.77
  10  -9   0    5.93    0.80
  10   9   0    4.83    0.88
 -11  -9   0    1.01    0.78
  11  -9   0    2.95    0.83
  11   9   0    2.52    0.91
   0 -10   0   72.20    2.39
   1 -10   0   27.54    1.01
   1  10   0   28.72    1.02
   2 -10   0   20.66    0.81
   2  10   0   20.70    0.80
   3 -10   0   29.26    1.08
  -3 -10   0   28.42    1.10
   3 -10   0   26.17    1.12
  -3 -10   0   27.65    1.01
   3  10   0   28.11    1.04
  -4 -10   0   45.63    1.60
   4 -10   0   42.03    1.57
   4 -10   0   40.65    1.60
   4  10   0   44.42    1.55
   5 -10   0   12.36    0.80
  -5 -10   0   12.58    0.76
   5 -10   0   11.40    0.77
   5  10   0   13.17    0.70
  -6 -10   0    7.24    0.72
   6 -10   0    7.63    0.68
   6 -10   0    7.78    0.70
   6  10   0    7.63    0.66
   7 -10   0   13.96    0.96
   7 -10   0   15.08    0.95
  -7 -10   0   15.21    0.98
   7  10   0   14.18    0.90
   8 -10   0    4.30    0.64
   8 -10   0    4.75    0.72
  -8 -10   0    2.94    0.58
   8  10   0    4.12    0.70
   9 -10   0   -0.97    0.66
   9 -10   0    1.57    0.63
  -9 -10   0    0.22    0.60
   9  10   0    0.06    0.70
  10 -10   0    4.61    0.78
 -10 -10   0    1.95    0.73
  10  10   0    2.01    0.83
  11 -10   0    4.58    0.87
 -11 -10   0    2.53    0.84
  11  10   0    3.17    0.94
   0 -11   0    0.56    0.22
   1 -11   0   19.32    0.78
   1  11   0   20.24    0.78
   2 -11   0    6.30    0.45
   2 -11   0    5.39    0.56
  -2 -11   0    6.29    0.45
   2  11   0    6.01    0.43
  -3 -11   0   14.20    0.65
   3 -11   0   13.93    0.80
   3 -11   0   15.08    0.72
  -3 -11   0   14.95    0.76
   3  11   0   15.83    0.69
   4 -11   0    4.93    0.48
  -4 -11   0    4.77    0.46
   4 -11   0    4.57    0.53
   4  11   0    4.75    0.44
  -5 -11   0   -0.06    0.36
   5 -11   0    0.85    0.47
   5 -11   0    0.32    0.43
   5  11   0    0.05    0.36
   6 -11   0    7.29    0.74
  -6 -11   0    6.22    0.60
   6 -11   0    7.56    0.72
   6  11   0    6.68    0.69
  -7 -11   0    0.50    0.48
   7 -11   0    0.80    0.59
   7 -11   0    1.03    0.53
   7  11   0    0.42    0.53
   8 -11   0    1.85    0.69
   8 -11   0    2.82    0.63
  -8 -11   0    2.31    0.59
   8  11   0    2.83    0.67
  -9 -11   0   -0.02    0.62
   9 -11   0    2.64    0.67
   9 -11   0    0.42    0.75
   9  11   0    2.46    0.74
  10 -11   0    4.36    0.79
 -10 -11   0    2.12    0.75
  10  11   0    4.57    0.87
   0 -12   0   83.59    2.83
   0 -12   0   82.82    2.77
   1 -12   0    7.12    0.49
  -1 -12   0    8.67    0.58
   1 -12   0    7.55    0.62
   1  12   0    9.45    0.51
  -2 -12   0    0.92    0.32
   2 -12   0    1.11    0.30
   2 -12   0    0.94    0.40
   2  12   0    1.18    0.30
  -3 -12   0   23.32    1.03
   3 -12   0   24.25    1.09
   3 -12   0   24.75    0.99
  -3 -12   0   22.50    0.93
   3  12   0   23.05    0.95
   4 -12   0   18.82    0.99
  -4 -12   0   18.42    0.93
   4 -12   0   18.78    0.92
   4  12   0   18.36    0.86
  -5 -12   0    2.18    0.44
   5 -12   0    2.60    0.48
   5 -12   0    3.93    0.58
   5  12   0    2.63    0.45
   6 -12   0    2.90    0.65
  -6 -12   0    2.49    0.53
   6 -12   0    2.87    0.53
   6  12   0    2.19    0.50
   7 -12   0   19.81    1.18
   7 -12   0   19.47    1.10
  -7 -12   0   18.61    1.15
   7  12   0   19.44    1.08
  -8 -12   0   -0.19    0.55
   8 -12   0    0.10    0.72
   8 -12   0    1.45    0.60
   8  12   0    0.95    0.66
   9 -12   0    1.03    0.81
  -9 -12   0    0.96    0.65
   9  12   0    1.82    0.75
 -10 -12   0   -0.07    1.01
  10 -12   0    1.01    1.38
  10  12   0    0.99    0.82
   0 -13   0    0.29    0.24
   0 -13   0   -0.41    0.36
   1 -13   0   15.86    0.73
  -1 -13   0   16.25    0.82
   1 -13   0   15.49    0.87
   1  13   0   17.58    0.75
   2 -13   0    3.99    0.40
  -2 -13   0    3.12    0.41
   2 -13   0    3.76    0.52
   2  13   0    3.63    0.40
  -3 -13   0    5.66    0.52
  -3 -13   0    5.52    0.53
   3 -13   0    5.98    0.63
   3 -13   0    5.88    0.58
   3  13   0    6.45    0.51
   4 -13   0    3.05    0.47
   4 -13   0    2.51    0.57
  -4 -13   0    2.16    0.43
   4  13   0    2.76    0.44
   5 -13   0    1.43    0.48
  -5 -13   0    0.76    0.44
   5 -13   0    1.39    0.58
   5  13   0    0.58    0.43
   6 -13   0   11.79    1.00
  -6 -13   0   10.54    0.92
   6  13   0   11.90    0.85
  -7 -13   0    0.40    0.54
   7 -13   0    0.48    0.68
   7  13   0    0.43    0.58
  -8 -13   0    2.68    0.65
   8 -13   0    4.14    0.84
   8  13   0    2.81    0.72
   9 -13   0    3.07    0.89
  -9 -13   0    2.35    0.71
   9  13   0    3.45    0.83
   0 -14   0   14.27    0.82
   0 -14   0   13.86    0.67
  -1 -14   0    1.23    0.41
   1 -14   0    1.63    0.46
   1 -14   0    1.54    0.38
   2 -14   0    7.96    0.78
  -2 -14   0    7.42    0.60
   2  14   0    7.74    0.63
   3 -14   0   11.46    0.88
  -3 -14   0   11.46    0.81
   3  14   0   11.08    0.68
   4 -14   0   11.76    0.93
  -4 -14   0   10.61    0.83
   4  14   0   11.09    0.72
   5 -14   0    9.12    0.85
  -5 -14   0    6.88    0.66
   5  14   0    7.05    0.64
   6 -14   0    3.10    0.75
  -6 -14   0    1.78    0.57
   6  14   0    1.84    0.57
  -7 -14   0    5.19    0.71
   7 -14   0    6.85    0.90
   7  14   0    5.66    0.74
   8 -14   0    1.50    0.84
  -8 -14   0    1.25    0.63
   8  14   0    1.64    0.74
   9 -14   0    0.97    0.89
   9  14   0    1.39    0.82
   0 -15   0   -0.05    0.45
  -1 -15   0    7.34    0.64
   1 -15   0    8.83    0.74
   2 -15   0    1.28    0.56
  -2 -15   0    1.34    0.42
   3 -15   0    2.20    0.61
  -3 -15   0    1.91    0.46
   4 -15   0    6.84    0.82
  -4 -15   0    5.55    0.63
   5 -15   0   -0.06    0.68
  -5 -15   0   -0.22    0.49
  -6 -15   0    4.31    0.68
   6 -15   0    5.43    0.87
   7 -15   0    0.05    0.78
  -7 -15   0   -0.22    0.60
   8 -15   0    1.96    0.90
  -8 -15   0    1.48    1.13
   0 -16   0    4.80    0.63
  -1 -16   0    9.68    0.80
   1 -16   0   11.51    0.94
  -2 -16   0   19.61    1.03
   2 -16   0   22.49    1.19
   3 -16   0    4.51    0.74
  -3 -16   0    3.82    0.57
   4 -16   0    3.34    0.78
  -4 -16   0    3.26    0.58
   5 -16   0   10.91    1.12
  -5 -16   0   12.55    1.03
   6 -16   0    1.06    0.79
  -6 -16   0    0.45    0.60
  -7 -16   0    0.63    0.69
   7 -16   0   -0.50    0.84
   8 -16   0    2.22    0.96
   0 -17   0   -0.41    0.54
  -1 -17   0    0.77    0.55
   1 -17   0    1.02    0.63
   2 -17   0    1.18    0.67
   3 -17   0    3.63    0.79
  -3 -17   0    3.12    0.59
   4 -17   0    2.42    0.82
  -4 -17   0    1.84    0.58
  -5 -17   0    0.61    0.59
   5 -17   0    0.07    0.80
  -6 -17   0    0.46    0.64
   6 -17   0    0.29    0.85
   7 -17   0    0.02    0.90
   0 -18   0    1.11    0.64
  -1 -18   0    4.24    0.68
   1 -18   0    4.77    0.79
   2 -18   0    9.90    0.97
  -3 -18   0    0.83    0.57
   3 -18   0    0.78    0.77
   4 -18   0    1.47    0.84
  -4 -18   0    0.95    0.61
   5 -18   0    2.54    0.91
  -5 -18   0    2.37    0.67
   6 -18   0    0.73    0.92
   0 -19   0    0.30    0.68
  -1 -19   0    0.60    0.78
   1 -19   0    0.10    0.73
  -2 -19   0    0.63    0.56
   2 -19   0    0.58    0.76
  -3 -19   0    0.34    0.57
   3 -19   0    0.72    0.82
   4 -19   0    2.48    0.92
  -4 -19   0    2.64    0.70
   5 -19   0    1.15    0.94
   0 -20   0    0.39    0.73
   1 -20   0    0.54    0.77
  -2 -20   0    1.96    0.65
   2 -20   0    2.09    0.83
  -3 -20   0    0.66    0.63
   3 -20   0    0.62    0.86
   4 -20   0    0.57    1.23
   0 -21   0   -0.14    0.79
   1 -21   0    0.61    0.85
  12   0  -1    1.47    0.87
  11   0  -1    5.36    0.86
  10   0  -1    7.79    0.80
   9   0  -1    0.38    0.51
   8   0  -1   21.21    1.02
   7   0  -1   99.76    3.36
   6   0  -1   21.01    0.79
   6   0  -1   20.63    0.88
   4   0  -1   82.10    2.71
   4   0  -1   82.86    2.68
   3   0  -1  354.68   11.33
   3   0  -1  354.67   11.34
   2   0  -1   38.47    1.29
   2   0  -1   40.11    1.28
   1   0  -1   36.35    1.18
   1   0   1    0.93    0.09
   2   0   1   34.75    1.15
  -2   0  -1   33.13    1.15
  -3   0  -1   35.39    1.21
   3   0   1   34.30    1.20
   4   0   1  132.43    4.35
  -4   0  -1  134.65    4.37
   5   0   1   51.83    1.71
   5   0   1   51.39    1.79
   6   0   1   56.45    1.90
   6   0   1   50.82    1.78
   7   0   1    7.59    0.62
   8   0   1    0.90    0.47
   9   0   1    7.02    0.72
  10   0   1    2.83    0.71
  11   0   1    1.00    0.75
  12   0   1    6.71    1.00
  12  -1  -1    2.22    0.87
  12   1  -1    2.60    0.92
  11  -1  -1    4.17    0.81
  11   1  -1    3.56    0.84
  10  -1  -1    1.49    0.64
  10   1  -1    1.83    0.69
   9  -1  -1    1.25    0.54
   9   1  -1    0.88    0.53
   8  -1  -1   32.59    1.32
   8   1  -1   31.30    1.30
   7  -1  -1   17.94    0.83
   7   1  -1   15.35    0.83
   6  -1  -1   19.06    0.74
   6  -1  -1   18.69    0.79
   6   1  -1   17.95    0.79
   6   1  -1   18.07    0.70
   5  -1  -1   50.12    1.70
   5  -1  -1   51.45    1.74
   5   1  -1   48.92    1.73
   5   1  -1   51.58    1.67
   4  -1  -1  214.34    6.80
  -4  -1   1  207.02    6.80
   4  -1  -1  209.89    6.78
   4   1  -1  214.06    6.76
   4   1  -1  209.91    6.80
   3  -1  -1  131.72    4.24
  -3  -1   1  129.51    4.25
   3  -1  -1  130.36    4.25
   3   1  -1  131.63    4.25
   3   1  -1  134.31    4.22
   2  -1  -1  217.04    6.93
  -2  -1   1  204.15    6.93
   2  -1  -1  214.84    6.93
   2   1  -1  224.34    6.92
   2   1  -1  222.77    6.93
   1  -1  -1  413.24   13.91
   1   1  -1  455.69   13.92
   1  -1   1   12.01    0.45
   1   1   1   14.10    0.45
  -2  -1  -1   72.42    2.46
   2  -1   1   73.96    2.46
   2   1   1   79.72    2.45
  -3  -1  -1  144.52    4.80
   3  -1   1  151.04    4.80
   3   1   1  149.23    4.79
   4  -1   1  164.88    5.34
  -4  -1  -1  162.47    5.35
   4   1   1  166.05    5.33
   5  -1   1    5.41    0.32
   5  -1   1    4.89    0.43
  -5  -1  -1    5.14    0.47
   5   1   1    4.81    0.43
   6  -1   1   91.93    3.08
  -6  -1  -1   99.19    3.21
   6  -1   1   92.72    3.17
   6   1   1   93.79    3.17
   7  -1   1   14.37    0.78
   7   1   1   15.61    0.81
   8  -1   1    2.69    0.52
   8   1   1    2.82    0.52
   9  -1   1   12.17    0.87
   9   1   1   11.33    0.87
  10  -1   1   11.95    1.01
  10   1   1   11.68    1.02
  11  -1   1    0.59    0.77
  11   1   1    0.93    0.76
  12  -1   1    1.18    0.88
  12   1   1    0.84    0.88
  12  -2  -1    5.77    0.95
  12   2  -1    5.27    0.95
  11  -2  -1    5.35    0.81
  11   2  -1    4.55    0.85
  10  -2  -1    6.36    0.77
  10   2  -1    6.45    0.80
   9  -2  -1    1.79    0.57
   9   2  -1    1.91    0.59
   8  -2  -1   20.94    1.01
   8   2  -1   20.46    1.00
   7  -2  -1   42.26    1.51
   7  -2  -1   42.61    1.56
   7   2  -1   41.52    1.58
   6  -2  -1   15.66    0.72
  -6  -2   1   15.65    0.76
   6  -2  -1   15.32    0.66
   6   2  -1   13.88    0.72
   5  -2  -1   36.39    1.27
   5  -2  -1   34.97    1.29
  -5  -2   1   36.96    1.32
   5   2  -1   36.97    1.30
   4  -2  -1   79.89    2.65
   4  -2  -1   80.08    2.64
  -4  -2   1   80.29    2.65
   4   2  -1   81.66    2.66
   3  -2  -1   14.08    0.56
   3  -2  -1   14.74    0.56
  -3  -2   1   14.49    0.56
   3   2  -1   16.00    0.57
  -2  -2   1  458.51   14.86
   2  -2  -1  476.90   14.84
   2  -2  -1  476.77   14.83
   2   2  -1  460.15   14.83
   2   2  -1  450.76   14.84
   1  -2  -1  138.74    4.36
   1   2  -1  132.53    4.35
   1   2  -1  136.34    4.35
   0   2   1  282.04    9.00
   1  -2   1   69.64    2.30
  -1  -2  -1   70.60    2.30
   1   2   1   72.58    2.29
   2  -2   1  133.96    4.24
  -2  -2  -1  129.52    4.24
   2   2   1  129.73    4.22
  -3  -2  -1    2.90    0.27
   3  -2   1    2.27    0.24
   3   2   1    2.68    0.26
  -4  -2  -1  102.75    3.31
   4  -2   1   99.76    3.29
   4   2   1   97.45    3.28
   5  -2   1   34.58    1.26
  -5  -2  -1   34.28    1.28
   5  -2   1   34.44    1.18
   5   2   1   32.46    1.23
  -6  -2  -1   30.86    1.25
   6  -2   1   32.31    1.21
   6  -2   1   30.89    1.11
   6   2   1   29.18    1.18
  -7  -2  -1   23.72    1.11
   7  -2   1   22.40    1.02
   7   2   1   23.14    1.03
   8  -2   1    3.27    0.54
   8   2   1    3.40    0.55
   9  -2   1    8.87    0.87
   9   2   1    8.09    0.76
  10  -2   1    2.38    0.70
  10   2   1    1.70    0.70
  11  -2   1    0.78    0.77
  11   2   1    0.77    0.79
  12  -2   1    1.68    0.88
  12   2   1    2.23    0.91
  12  -3  -1    2.39    0.84
  12   3  -1    3.03    0.92
  11  -3  -1    4.29    0.80
  11   3  -1    5.29    0.86
  10  -3  -1    4.14    0.71
  10   3  -1    4.33    0.77
   9  -3  -1    2.16    0.56
   9   3  -1    1.79    0.59
   8  -3  -1   13.70    0.84
   8   3  -1   13.35    0.82
   7  -3  -1    5.55    0.52
   7  -3  -1    4.89    0.48
  -7  -3   1    6.67    0.67
   7   3  -1    3.62    0.49
   6  -3  -1   23.88    0.95
  -6  -3   1   24.69    0.99
   6  -3  -1   23.24    0.91
   6   3  -1   21.42    0.95
   5  -3  -1   18.96    0.77
   5  -3  -1   19.41    0.79
  -5  -3   1   20.59    0.82
   5   3  -1   19.00    0.80
  -4  -3   1   73.05    2.40
   4  -3  -1   73.50    2.40
   4  -3  -1   68.94    2.39
   4   3  -1   74.48    2.41
  -3  -3   1   79.98    2.69
   3  -3  -1   83.46    2.70
   3  -3  -1   82.92    2.69
   3   3  -1   83.18    2.69
   2  -3  -1  394.20   12.53
  -2  -3   1  388.40   12.55
   2  -3  -1  398.67   12.52
   2   3  -1  386.49   12.52
   1  -3  -1  500.39   16.25
   1   3  -1  514.99   16.24
   0  -3  -1  954.75   31.45
   0   3  -1  995.87   31.46
   0   3   1 1000.00   31.37
  -1  -3  -1  251.98    8.09
  -1  -3  -1  256.90    8.06
   1  -3   1  246.89    8.08
   1   3   1  254.28    8.07
   2  -3   1  117.42    3.88
  -2  -3  -1  116.01    3.88
   2   3   1  126.02    3.87
   3  -3   1  132.47    4.34
  -3  -3  -1  130.38    4.34
   3   3   1  137.58    4.32
  -4  -3  -1  125.00    4.11
   4  -3   1  124.63    4.11
   4   3   1  126.95    4.09
   5  -3   1   16.91    0.77
  -5  -3  -1   16.67    0.77
   5   3   1   16.95    0.74
   6  -3   1   22.30    0.87
   6  -3   1   21.38    0.94
  -6  -3  -1   22.92    1.01
   6   3   1   21.12    0.93
   7  -3   1   10.58    0.60
   7  -3   1    9.36    0.71
  -7  -3  -1   10.69    0.80
   7   3   1    9.62    0.70
  -8  -3  -1   27.91    1.28
   8  -3   1   24.90    1.18
   8   3   1   24.32    1.18
   9  -3   1    9.97    0.85
   9   3   1    9.20    0.81
  10  -3   1    9.64    0.96
  10   3   1    8.18    0.87
  11  -3   1    4.19    0.84
  11   3   1    4.48    0.87
  12  -3   1    3.41    0.92
  12   3   1    3.19    0.97
  12  -4  -1    7.70    0.96
  12   4  -1    9.11    1.08
  11  -4  -1    2.56    0.76
  11   4  -1    4.11    0.84
  10  -4  -1    7.28    0.78
  10   4  -1    5.94    0.84
   9  -4  -1    8.14    0.74
   9   4  -1    8.16    0.76
   8  -4  -1   25.40    1.09
   8  -4  -1   24.68    1.13
  -8  -4   1   26.78    1.21
   8   4  -1   25.16    1.16
  -7  -4   1    9.65    0.72
   7  -4  -1    8.32    0.61
   7  -4  -1    8.98    0.65
   7   4  -1    7.33    0.64
  -6  -4   1   36.68    1.37
   6  -4  -1   35.15    1.34
   6  -4  -1   37.67    1.33
   6   4  -1   35.12    1.35
   5  -4  -1   84.01    2.90
   5  -4  -1   85.10    2.91
  -5  -4   1   89.28    2.92
   5   4  -1   92.39    2.93
  -4  -4   1   93.84    3.15
   4  -4  -1   94.69    3.15
   4  -4  -1   95.79    3.15
   4   4  -1   99.43    3.16
   3  -4  -1   40.28    1.36
  -3  -4   1   38.98    1.36
   3  -4  -1   39.65    1.37
   3   4  -1   41.76    1.36
   2  -4  -1   65.50    2.09
  -2  -4   1   63.47    2.07
   2  -4  -1   62.94    2.06
   2   4  -1   61.36    2.07
   1  -4  -1   71.82    2.30
   1  -4  -1   69.76    2.26
   1   4  -1   68.83    2.28
   0  -4  -1   18.32    0.68
   0   4  -1   20.34    0.67
   0   4   1   19.13    0.64
   1  -4   1  167.53    5.46
  -1  -4  -1  175.15    5.44
   1   4   1  166.73    5.44
  -2  -4  -1  208.95    6.82
   2  -4   1  212.34    6.81
   2   4   1  214.29    6.80
   3  -4   1   12.51    0.56
  -3  -4  -1   12.37    0.55
   3   4   1   13.03    0.53
  -4  -4  -1   17.60    0.72
   4   4   1   16.35    0.70
  -5  -4  -1   22.39    0.92
   5  -4   1   22.94    0.94
   5   4   1   21.55    0.90
   6  -4   1   10.21    0.58
   6  -4   1    9.84    0.68
  -6  -4  -1   10.22    0.69
   6   4   1    9.12    0.63
   7  -4   1   20.94    1.04
  -7  -4  -1   23.07    1.10
   7  -4   1   23.00    0.95
   7   4   1   23.08    1.04
   8  -4   1    7.61    0.76
  -8  -4  -1    5.13    0.64
   8   4   1    7.33    0.69
  -9  -4  -1   11.36    1.04
   9  -4   1   10.51    0.90
   9   4   1   10.65    0.94
  10  -4   1    5.66    0.78
  10   4   1    5.59    0.82
  11  -4   1    4.33    0.83
  11   4   1    3.67    0.88
  12  -4   1    2.94    0.92
  12   4   1    1.60    1.07
  12  -5  -1    2.20    0.84
  12   5  -1    1.53    0.92
  11  -5  -1    0.81    0.72
  11   5  -1    0.80    0.81
  10  -5  -1    9.25    0.91
  10   5  -1    8.29    0.90
  -9  -5   1    5.50    0.67
   9  -5  -1    4.87    0.66
   9   5  -1    3.98    0.69
   8  -5  -1    4.70    0.54
  -8  -5   1    4.63    0.57
   8  -5  -1    5.08    0.57
   8   5  -1    2.90    0.59
   7  -5  -1    6.53    0.61
   7  -5  -1    7.41    0.62
  -7  -5   1    8.42    0.70
   7   5  -1    6.11    0.58
  -6  -5   1   37.13    1.34
   6  -5  -1   33.02    1.29
   6  -5  -1   35.07    1.30
   6   5  -1   32.64    1.31
  -5  -5   1    9.73    0.53
   5  -5  -1    8.50    0.53
   5  -5  -1    9.61    0.55
   5   5  -1    7.77    0.54
  -4  -5   1    7.75    0.42
   4  -5  -1    7.13    0.45
   4  -5  -1    6.13    0.44
   4   5  -1    7.47    0.44
   3  -5  -1  101.18    3.20
  -3  -5   1   96.87    3.18
   3  -5  -1   95.73    3.17
   3   5  -1   95.83    3.18
  -2  -5   1   17.27    0.62
   2  -5  -1   17.65    0.66
   2  -5  -1   17.48    0.62
   2   5  -1   15.98    0.62
   1  -5  -1   12.87    0.52
   1  -5  -1   13.17    0.47
   1   5  -1   13.18    0.49
   0  -5  -1  656.52   20.97
   0   5  -1  661.99   21.00
   0   5   1  650.33   20.94
  -1  -5  -1   75.39    2.29
   1  -5   1   70.48    2.29
   1   5   1   64.46    2.27
   2  -5   1    7.03    0.36
  -2  -5  -1    6.64    0.35
  -2  -5  -1    6.33    0.28
   2   5   1    6.10    0.31
   3  -5   1   55.89    1.91
  -3  -5  -1   55.79    1.91
   3   5   1   57.91    1.89
   4  -5   1  118.33    3.88
  -4  -5  -1  115.08    3.89
   4   5   1  120.89    3.87
  -5  -5  -1   39.92    1.47
   5  -5   1   39.78    1.47
   5   5   1   40.73    1.45
  -6  -5  -1    1.45    0.36
   6  -5   1    1.63    0.41
   6  -5   1    1.79    0.36
   6   5   1    1.65    0.40
  -7  -5  -1    4.61    0.53
   7  -5   1    5.32    0.55
   7  -5   1    5.71    0.59
   7   5   1    4.58    0.55
  -8  -5  -1   19.00    1.10
   8  -5   1   18.08    1.01
   8   5   1   17.50    1.03
  -9  -5  -1    2.85    0.65
   9  -5   1    3.60    0.66
   9   5   1    2.54    0.69
  10  -5   1    1.26    0.69
  10   5   1    1.12    0.71
  11  -5   1    7.94    0.93
  11   5   1    6.02    0.93
  12  -6  -1    6.49    0.93
  12   6  -1    6.12    1.01
  11  -6  -1    0.58    0.72
  11   6  -1    0.54    0.79
  10  -6  -1    1.27    0.65
  10   6  -1    0.68    0.72
   9  -6  -1   15.87    0.98
  -9  -6   1   15.98    1.11
   9   6  -1   14.81    1.05
  -8  -6   1   13.51    0.89
   8  -6  -1   12.42    0.81
   8  -6  -1   11.12    0.80
   8   6  -1   10.45    0.83
   7  -6  -1    2.44    0.45
  -7  -6   1    2.42    0.44
   7  -6  -1    2.76    0.47
   7   6  -1    2.72    0.49
  -6  -6   1   36.99    1.36
   6  -6  -1   34.53    1.33
   6  -6  -1   34.80    1.35
   6   6  -1   34.71    1.35
   5  -6  -1   47.32    1.69
  -5  -6   1   48.08    1.68
   5  -6  -1   47.65    1.67
   5   6  -1   48.03    1.68
   3  -6  -1   21.99    0.85
   3  -6  -1   21.98    0.81
  -3  -6   1   22.21    0.81
   3   6  -1   21.72    0.81
   2  -6  -1   59.41    1.98
  -2  -6   1   60.34    2.00
   2  -6  -1   61.05    2.03
   2   6  -1   60.58    1.99
   1  -6  -1    8.92    0.34
   1  -6  -1    8.35    0.41
   1   6  -1    7.90    0.36
   0  -6  -1   29.78    1.02
   0   6   1   28.58    0.97
   1  -6   1   24.91    0.87
  -1  -6  -1   25.46    0.86
   1   6   1   23.51    0.84
   2  -6   1   78.77    2.56
  -2  -6  -1   78.59    2.58
  -2  -6  -1   77.57    2.53
   2   6   1   76.27    2.54
   3  -6   1    6.83    0.43
  -3  -6  -1    6.63    0.42
   3   6   1    6.99    0.39
   4  -6   1   39.09    1.37
  -4  -6  -1   37.05    1.37
   4   6   1   37.59    1.35
   5  -6   1   10.46    0.67
  -5  -6  -1   11.32    0.65
   5   6   1   10.24    0.62
  -6  -6  -1    0.70    0.36
   6  -6   1    0.80    0.41
   6  -6   1    0.96    0.37
   6   6   1    0.48    0.37
   7  -6   1   10.31    0.80
   7  -6   1   11.01    0.71
  -7  -6  -1    9.92    0.83
   7   6   1    9.95    0.75
   8  -6   1    6.31    0.68
  -8  -6  -1    4.65    0.61
   8  -6   1    5.87    0.66
   8   6   1    7.23    0.69
  -9  -6  -1    4.03    0.69
   9  -6   1    6.67    0.72
   9   6   1    5.39    0.75
  10  -6   1    5.65    0.78
 -10  -6  -1    3.86    0.75
  10   6   1    4.45    0.82
  11  -6   1    4.59    0.86
  11   6   1    4.62    0.90
  12  -7  -1    1.42    0.84
  12   7  -1    1.18    1.34
  11  -7  -1    2.99    0.77
  11   7  -1    2.74    0.87
  10  -7  -1    3.94    0.73
 -10  -7   1    3.40    0.70
  10   7  -1    2.94    0.78
  -9  -7   1    2.88    0.62
   9  -7  -1    3.56    0.64
   9  -7  -1    3.21    0.62
   9   7  -1    2.58    0.71
  -8  -7   1    2.38    0.50
   8  -7  -1    1.37    0.54
   8  -7  -1    2.13    0.52
   8   7  -1    1.14    0.58
   7  -7  -1    3.34    0.49
   7  -7  -1    3.26    0.51
  -7  -7   1    3.47    0.48
   7   7  -1    3.35    0.52
   6  -7  -1   12.30    0.74
   6  -7  -1   11.77    0.73
  -6  -7   1   13.36    0.74
   6   7  -1   10.28    0.70
  -5  -7   1    6.44    0.49
   5  -7  -1    5.39    0.52
   5  -7  -1    5.74    0.51
   5   7  -1    5.21    0.49
   4  -7  -1    1.38    0.33
  -4  -7   1    3.45    0.36
   4  -7  -1    2.23    0.30
   4   7  -1    2.67    0.31
  -3  -7   1  146.21    4.77
   3  -7  -1  144.94    4.75
   3  -7  -1  148.85    4.79
   3   7  -1  146.59    4.76
   2  -7  -1   27.38    0.96
   2  -7  -1   26.54    1.02
   2   7  -1   29.20    0.98
   1  -7  -1   55.10    1.90
   1  -7  -1   54.78    1.85
   1   7  -1   59.64    1.88
   0  -7  -1  130.39    4.23
   0   7   1  129.87    4.19
  -1  -7  -1  131.47    4.23
   1  -7   1  129.78    4.23
   1   7   1  130.03    4.21
  -2  -7  -1   74.48    2.48
   2  -7   1   73.88    2.47
  -2  -7  -1   74.11    2.44
   2   7   1   75.16    2.44
  -3  -7  -1   16.71    0.69
   3  -7   1   16.78    0.69
   3   7   1   15.29    0.64
  -4  -7  -1  102.89    3.44
   4  -7   1  103.27    3.43
   4   7   1  103.79    3.41
   5  -7   1   60.12    2.18
  -5  -7  -1   61.89    2.18
   5   7   1   64.46    2.15
   6  -7   1    5.31    0.58
   6  -7   1    5.45    0.54
  -6  -7  -1    5.80    0.65
   6   7   1    5.35    0.53
  -7  -7  -1   15.19    0.92
   7  -7   1   14.08    0.82
   7  -7   1   12.85    0.88
   7   7   1   12.94    0.86
   8  -7   1   18.33    1.06
  -8  -7  -1   20.35    1.15
   8  -7   1   19.05    1.01
   8   7   1   19.12    1.08
   9  -7   1    7.45    0.76
  -9  -7  -1    5.91    0.73
   9   7   1    5.90    0.79
 -10  -7  -1    2.69    0.73
  10  -7   1    2.61    0.72
  10   7   1    2.34    0.80
  11  -7   1    5.77    0.90
  11   7   1    4.88    0.95
  11  -8  -1    4.79    0.81
  11   8  -1    4.51    0.94
 -10  -8   1    4.53    0.75
  10  -8  -1    5.99    0.77
  10   8  -1    5.19    0.84
   9  -8  -1   10.38    0.95
  -9  -8   1   12.57    1.05
   9  -8  -1   13.15    0.91
   9   8  -1   12.91    1.02
   8  -8  -1    9.39    0.84
  -8  -8   1    9.35    0.85
   8  -8  -1    9.77    0.78
   8   8  -1    8.88    0.86
  -7  -8   1    4.11    0.50
   7  -8  -1    5.06    0.55
   7  -8  -1    6.32    0.61
   7   8  -1    5.38    0.59
   6  -8  -1   10.44    0.70
  -6  -8   1   10.18    0.69
   6  -8  -1    9.44    0.72
   6   8  -1    9.33    0.66
  -5  -8   1   27.89    1.10
   5  -8  -1   26.45    1.08
   5  -8  -1   27.12    1.12
   5   8  -1   27.57    1.07
  -4  -8   1   18.86    0.79
   4  -8  -1   18.79    0.80
   4  -8  -1   18.12    0.85
   4   8  -1   20.06    0.79
   3  -8  -1   17.28    0.69
   3  -8  -1   16.26    0.74
  -3  -8   1   16.69    0.69
   3   8  -1   16.82    0.68
   2  -8  -1   69.22    2.31
   2  -8  -1   70.37    2.37
   2   8  -1   70.52    2.32
   1  -8  -1   27.00    1.02
   1  -8  -1   27.50    0.95
   1   8  -1   28.54    0.98
   0   8   1    6.05    0.29
  -1  -8  -1    9.42    0.48
   1  -8   1   10.87    0.47
   1   8   1   10.44    0.43
  -2  -8  -1   13.83    0.57
   2  -8   1   14.38    0.61
  -2  -8  -1   14.61    0.63
   2   8   1   13.85    0.57
  -3  -8  -1   20.74    0.86
  -3  -8  -1   21.52    0.76
   3  -8   1   22.58    0.86
   3   8   1   20.09    0.81
   4  -8   1   29.49    1.15
  -4  -8  -1   29.81    1.15
   4   8   1   28.77    1.11
   5  -8   1   16.59    0.85
  -5  -8  -1   17.29    0.84
   5   8   1   15.70    0.78
  -6  -8  -1    4.64    0.50
   6  -8   1    6.13    0.58
   6  -8   1    5.92    0.57
   6   8   1    5.36    0.55
  -7  -8  -1    3.14    0.51
   7  -8   1    3.86    0.58
   7  -8   1    3.29    0.53
   7   8   1    2.31    0.56
  -8  -8  -1    6.00    0.69
   8  -8   1    7.63    0.81
   8  -8   1    9.34    0.87
   8   8   1    7.06    0.76
  -9  -8  -1    0.72    0.62
   9  -8   1    2.07    0.65
   9   8   1    2.18    0.70
  10  -8   1    5.00    0.79
 -10  -8  -1    3.91    0.77
  10   8   1    4.29    0.85
  11  -8   1    2.53    0.83
 -11  -8  -1    1.09    0.78
  11   8   1    2.24    0.89
  11  -9  -1    2.56    0.78
  11   9  -1    2.87    0.91
  10  -9  -1    3.22    0.71
 -10  -9   1    1.35    0.67
  10   9  -1    2.85    0.84
   9  -9  -1    1.27    0.66
   9  -9  -1    1.96    0.61
  -9  -9   1    0.89    0.56
   9   9  -1    0.74    0.69
   8  -9  -1    8.94    0.90
   8  -9  -1    9.43    0.79
  -8  -9   1    9.74    0.91
   8   9  -1    9.05    0.80
  -7  -9   1    2.67    0.48
   7  -9  -1    2.17    0.56
   7  -9  -1    3.04    0.51
   7   9  -1    3.27    0.55
   6  -9  -1    4.23    0.51
  -6  -9   1    5.65    0.61
   6  -9  -1    4.04    0.54
   6   9  -1    3.50    0.48
   5  -9  -1   11.21    0.72
  -5  -9   1   12.31    0.69
   5  -9  -1   10.14    0.68
   5   9  -1   10.59    0.64
  -4  -9   1   27.48    1.04
   4  -9  -1   25.38    1.02
   4  -9  -1   23.77    1.09
   4   9  -1   27.76    1.02
   3  -9  -1   32.01    1.16
  -3  -9   1   33.53    1.19
   3  -9  -1   31.92    1.23
   3   9  -1   31.63    1.16
   2  -9  -1   18.57    0.70
   2  -9  -1   18.24    0.81
   2   9  -1   18.19    0.72
   1  -9  -1   28.65    1.07
   1  -9  -1   27.63    0.98
   1   9  -1   28.44    1.01
   0  -9   1   60.09    1.96
   0  -9  -1   59.76    1.99
   0   9   1   55.69    1.93
   1  -9   1   66.20    2.23
  -1  -9  -1   66.77    2.24
   1   9   1   67.33    2.20
  -2  -9  -1   44.53    1.57
  -2  -9  -1   45.25    1.52
   2  -9   1   45.48    1.54
   2   9   1   42.45    1.51
  -3  -9  -1   68.48    2.30
  -3  -9  -1   71.66    2.39
   3  -9   1   69.25    2.36
   3   9   1   69.43    2.33
  -4  -9  -1   70.20    2.41
   4  -9   1   68.89    2.39
   4   9   1   69.19    2.35
  -5  -9  -1   15.77    0.84
   5  -9   1   15.59    0.85
   5  -9   1   15.14    0.83
   5   9   1   16.40    0.78
  -6  -9  -1   21.30    1.04
   6  -9   1   20.95    1.03
   6  -9   1   19.14    1.03
   6   9   1   21.60    0.99
  -7  -9  -1   10.67    0.89
   7  -9   1   11.43    0.87
   7  -9   1   10.80    0.84
   7   9   1    9.79    0.85
   8  -9   1    9.45    0.90
  -8  -9  -1    9.32    0.99
   8  -9   1    8.39    0.86
   8   9   1    8.72    0.88
   9  -9   1    8.78    1.22
   9  -9   1    8.33    0.82
  -9  -9  -1    6.68    0.79
   9   9   1    7.90    0.86
  10  -9   1    5.51    0.82
 -10  -9  -1    4.63    0.80
  10   9   1    5.26    0.87
 -11  -9  -1    1.55    0.82
  11  -9   1    2.28    0.82
  11   9   1    3.07    0.91
  11 -10  -1    4.17    1.26
  11  10  -1    2.33    0.92
  10 -10  -1    6.80    0.79
 -10 -10   1    3.83    0.89
  10  10  -1    4.66    0.87
   9 -10  -1    6.12    0.82
   9 -10  -1    9.44    0.88
  -9 -10   1    4.29    0.69
   9  10  -1    7.30    0.82
   8 -10  -1    5.79    0.65
  -8 -10   1    3.28    0.57
   8 -10  -1    5.04    0.74
   8  10  -1    5.05    0.71
   7 -10  -1   20.65    1.01
  -7 -10   1   19.29    1.05
   7 -10  -1   19.26    1.10
   7  10  -1   18.85    1.01
   6 -10  -1    5.10    0.59
   6 -10  -1    4.59    0.52
  -6 -10   1    4.14    0.47
   6  10  -1    5.47    0.55
  -5 -10   1    6.82    0.64
   5 -10  -1    6.63    0.67
   5 -10  -1    7.57    0.61
   5  10  -1    6.12    0.56
  -4 -10   1   32.69    1.22
   4 -10  -1   30.79    1.19
   4 -10  -1   29.42    1.25
   4  10  -1   31.67    1.19
  -3 -10   1   11.89    0.62
   3 -10  -1   11.17    0.67
   3 -10  -1   12.16    0.59
   3  10  -1   11.42    0.59
   2 -10  -1   11.75    0.67
   2 -10  -1   12.66    0.55
   2  10  -1   12.24    0.57
   1 -10  -1    7.51    0.53
   1 -10  -1    6.72    0.38
   1  10  -1    7.84    0.44
   0 -10  -1   53.28    1.85
   0 -10   1   52.97    1.80
  -1 -10  -1    4.14    0.36
   1 -10   1    3.98    0.33
   1  10   1    3.63    0.31
   2 -10   1   16.23    0.72
  -2 -10  -1   16.45    0.69
   2  10   1   16.93    0.68
  -3 -10  -1    3.72    0.38
  -3 -10  -1    3.96    0.33
   3 -10   1    4.52    0.41
   3  10   1    4.16    0.37
  -4 -10  -1    6.68    0.61
   4 -10   1    6.51    0.62
   4  10   1    7.40    0.53
  -5 -10  -1    7.26    0.69
   5 -10   1    7.53    0.68
   5 -10   1    6.25    0.71
   5  10   1    7.33    0.57
   6 -10   1    1.41    0.51
  -6 -10  -1    1.06    0.42
   6 -10   1    2.07    0.51
   6  10   1    1.26    0.47
   7 -10   1    8.06    0.86
   7 -10   1    8.12    0.84
  -7 -10  -1    7.78    0.88
   7  10   1    7.60    0.72
   8 -10   1    3.46    0.64
   8 -10   1    2.72    0.66
  -8 -10  -1    2.00    0.58
   8  10   1    2.50    0.68
  -9 -10  -1    1.48    0.66
   9 -10   1    4.04    0.72
   9 -10   1    2.48    0.73
   9  10   1    1.16    0.74
 -10 -10  -1    1.25    0.73
  10 -10   1    2.76    0.76
  10  10   1    1.41    0.83
  10 -11  -1   -0.63    0.79
  10  11  -1    0.75    0.79
   9 -11  -1    0.12    0.73
  -9 -11   1   -0.77    0.57
   9  11  -1    1.82    0.72
   8 -11  -1   16.18    1.14
  -8 -11   1   15.75    1.07
   8 -11  -1   17.08    1.01
   8  11  -1   16.68    1.09
   7 -11  -1    2.88    0.53
   7 -11  -1    3.31    0.67
  -7 -11   1    1.97    0.49
   7  11  -1    1.91    0.56
  -6 -11   1    2.48    0.46
   6 -11  -1    4.07    0.51
   6 -11  -1    3.15    0.59
   6  11  -1    3.17    0.51
   5 -11  -1    5.58    0.53
  -5 -11   1    5.21    0.48
   5 -11  -1    5.53    0.59
   5  11  -1    5.32    0.51
   4 -11  -1   29.09    1.29
   4 -11  -1   31.53    1.20
  -4 -11   1   32.64    1.23
   4  11  -1   30.60    1.19
   3 -11  -1    3.74    0.47
   3 -11  -1    4.60    0.47
  -3 -11   1    4.66    0.51
   3  11  -1    4.93    0.41
   2 -11  -1    8.97    0.62
   2 -11  -1    9.11    0.50
   2  11  -1   10.07    0.54
   1 -11  -1   77.36    2.60
   1 -11  -1   75.01    2.52
   1  11  -1   75.69    2.54
   0 -11   1   17.34    0.71
   0 -11  -1   18.14    0.78
   0 -11  -1   15.67    0.68
   1 -11   1    9.55    0.52
  -1 -11  -1    9.38    0.56
   1  11   1   10.28    0.49
  -2 -11  -1   21.34    0.85
   2 -11   1   21.60    0.87
   2  11   1   20.41    0.82
   3 -11   1   54.64    1.90
  -3 -11  -1   52.61    1.83
  -3 -11  -1   52.69    1.92
   3  11   1   54.52    1.85
  -4 -11  -1    3.39    0.43
   4 -11   1    4.05    0.48
   4  11   1    3.71    0.41
   5 -11   1    2.24    0.52
  -5 -11  -1    1.32    0.42
   5 -11   1    1.41    0.47
   5  11   1    1.47    0.42
  -6 -11  -1   13.62    0.92
   6 -11   1   13.58    0.95
   6 -11   1   12.58    0.91
   6  11   1   12.90    0.80
  -7 -11  -1    3.50    0.58
   7 -11   1    4.53    0.72
   7 -11   1    4.72    0.65
   7  11   1    4.97    0.64
   8 -11   1    0.55    0.65
   8 -11   1    2.07    0.63
  -8 -11  -1    0.67    0.58
   8  11   1    0.53    0.64
   9 -11   1    3.66    0.73
  -9 -11  -1    2.90    0.72
   9 -11   1    3.16    0.80
   9  11   1    3.50    0.79
 -10 -11  -1    1.20    0.75
  10 -11   1    4.01    0.81
  10  11   1    3.11    0.86
  10 -12  -1    3.26    0.90
  10  12  -1    3.48    0.89
   9 -12  -1   -0.23    0.76
   9  12  -1    0.20    0.73
  -8 -12   1    1.17    0.57
   8 -12  -1    1.56    0.74
   8  12  -1    2.19    0.68
   7 -12  -1   19.74    1.21
  -7 -12   1   18.44    1.10
   7  12  -1   17.81    1.04
  -6 -12   1    0.36    0.43
   6 -12  -1    0.60    0.57
   6  12  -1   -0.12    0.47
  -5 -12   1    0.51    0.37
   5 -12  -1    1.33    0.46
   5 -12  -1    0.95    0.52
   5  12  -1    1.11    0.41
   4 -12  -1   17.38    0.99
   4 -12  -1   18.90    0.87
  -4 -12   1   18.75    0.92
   4  12  -1   18.13    0.85
  -3 -12   1   13.63    0.76
   3 -12  -1   13.84    0.69
   3 -12  -1   13.39    0.81
   3  12  -1   13.69    0.70
   2 -12  -1    0.98    0.28
   2 -12  -1    1.00    0.39
   2  12  -1    0.95    0.31
   1 -12  -1    1.49    0.39
   1 -12  -1    1.61    0.27
   1  12  -1    2.44    0.33
   0 -12  -1   44.87    1.54
   0 -12   1   44.52    1.57
   0 -12  -1   44.86    1.64
   1 -12   1    2.14    0.32
  -1 -12  -1    1.98    0.37
   1  12   1    1.97    0.29
   2 -12   1    5.19    0.44
  -2 -12  -1    5.39    0.44
   2  12   1    4.36    0.43
  -3 -12  -1    5.81    0.60
   3 -12   1    5.60    0.57
  -3 -12  -1    5.48    0.63
   3  12   1    5.11    0.49
   4 -12   1    1.70    0.44
  -4 -12  -1    1.44    0.41
   4 -12   1    1.69    0.51
   4  12   1    1.60    0.38
  -5 -12  -1    2.43    0.49
   5 -12   1    2.74    0.52
   5 -12   1    3.91    0.61
   5  12   1    3.91    0.48
   6 -12   1    0.57    0.62
   6 -12   1    1.70    0.56
  -6 -12  -1    0.90    0.49
   6  12   1    1.54    0.50
  -7 -12  -1    3.65    0.64
   7 -12   1    4.12    0.65
   7 -12   1    4.34    0.77
   7  12   1    3.56    0.62
  -8 -12  -1    1.47    0.63
   8 -12   1    2.86    0.74
   8 -12   1    4.15    0.70
   8  12   1    4.01    0.72
  -9 -12  -1    3.30    0.74
   9 -12   1    4.43    0.88
   9 -12   1    3.96    0.75
   9  12   1    3.46    0.80
 -10 -12  -1   -0.75    0.73
  10 -12   1    2.09    0.78
  10  12   1    1.69    0.82
  10 -13  -1    0.03    0.89
  10  13  -1    1.82    0.87
   9 -13  -1   -0.61    0.81
   9  13  -1    1.10    0.77
  -8 -13   1    4.05    0.81
   8 -13  -1    5.45    0.88
   8  13  -1    6.25    0.79
  -7 -13   1    1.56    0.54
   7 -13  -1    2.09    0.74
   7  13  -1    2.20    0.63
  -6 -13   1    2.85    0.53
   6 -13  -1    4.37    0.74
   6  13  -1    3.26    0.58
  -5 -13   1    5.38    0.54
   5 -13  -1    6.46    0.71
   5  13  -1    5.30    0.58
   4 -13  -1   13.08    0.93
  -4 -13   1   15.16    0.85
   4  13  -1   13.58    0.75
  -3 -13   1    0.56    0.34
   3 -13  -1    0.21    0.45
   3  13  -1    0.79    0.36
   2 -13  -1    3.13    0.51
   2  13  -1    3.46    0.41
   1 -13  -1   28.62    1.21
   0 -13  -1    3.22    0.35
   0 -13   1    3.60    0.37
   0 -13  -1    3.56    0.47
   1 -13   1    2.83    0.37
  -1 -13  -1    2.91    0.43
   2 -13   1   17.17    0.82
  -2 -13  -1   18.25    0.83
  -3 -13  -1   23.94    1.11
   3 -13   1   23.98    1.06
   3  13   1   25.20    1.01
   4 -13   1    4.24    0.51
  -4 -13  -1    4.24    0.52
   4 -13   1    4.81    0.62
   4  13   1    4.15    0.48
   5 -13   1    0.95    0.50
   5 -13   1    1.79    0.59
  -5 -13  -1    1.25    0.48
   5  13   1    0.66    0.44
  -6 -13  -1    9.99    0.97
   6 -13   1   10.22    1.03
   6 -13   1   11.29    0.94
   6  13   1   11.56    0.82
  -7 -13  -1    1.79    0.60
   7 -13   1    1.73    0.61
   7 -13   1    1.48    0.73
   7  13   1    1.87    0.61
   8 -13   1    2.87    0.71
   8 -13   1    1.79    0.76
  -8 -13  -1    0.78    0.63
   8  13   1    1.99    0.71
   9 -13   1    1.85    0.87
  -9 -13  -1    1.46    0.70
   9  13   1    2.45    0.80
   9 -14  -1   -0.01    0.88
   9  14  -1    1.99    0.85
   8 -14  -1    1.48    0.84
   8  14  -1    0.80    0.73
  -7 -14   1    2.34    0.61
   7 -14  -1    3.52    0.85
   7  14  -1    3.94    0.71
   6 -14  -1    1.42    0.72
  -6 -14   1    1.58    0.52
   6  14  -1    2.57    0.60
   5 -14  -1    4.96    0.72
  -5 -14   1    3.41    0.54
   5  14  -1    3.43    0.55
  -4 -14   1    8.01    0.76
   4 -14  -1    8.13    0.78
   4  14  -1    7.54    0.68
  -3 -14   1    3.81    0.48
   3 -14  -1    4.63    0.64
   3  14  -1    4.00    0.49
   2 -14  -1    4.81    0.61
   2  14  -1    5.00    0.47
   1 -14  -1    0.61    0.45
   0 -14   1   16.33    0.75
   0 -14  -1   15.35    0.88
   1 -14   1    0.75    0.33
  -1 -14  -1    0.68    0.40
   2 -14   1    3.69    0.44
  -2 -14  -1    4.21    0.47
   3 -14   1    0.89    0.40
  -3 -14  -1    1.76    0.43
   3 -14   1    1.45    0.55
   4 -14   1   -0.04    0.54
   4 -14   1    0.19    0.44
  -4 -14  -1    0.17    0.44
   5 -14   1    6.59    0.67
  -5 -14  -1    5.92    0.66
   5 -14   1    6.98    0.82
   6 -14   1    1.17    0.71
  -6 -14  -1    0.13    0.54
   7 -14   1    1.83    0.78
  -7 -14  -1    0.90    0.62
   8 -14   1    0.24    0.80
  -8 -14  -1    0.52    0.64
   9 -14   1    1.62    0.92
  -9 -14  -1    0.75    0.72
   9 -15  -1   -0.60    0.92
   9  15  -1    0.33    0.84
   8 -15  -1   -1.09    0.85
   8  15  -1    0.25    0.75
   7 -15  -1    1.64    0.84
   7  15  -1    0.83    0.69
   6 -15  -1   10.39    1.03
  -6 -15   1    7.78    0.76
   6  15  -1    8.17    0.77
   5 -15  -1    0.29    0.68
  -5 -15   1    1.25    0.49
   5  15  -1    0.86    0.52
   4 -15  -1    5.18    0.76
  -4 -15   1    4.10    0.53
   4  15  -1    3.60    0.53
   3 -15  -1    6.43    0.76
  -3 -15   1    6.24    0.58
   3  15  -1    5.70    0.56
   2 -15  -1    8.75    0.88
  -2 -15   1    7.84    0.70
   2  15  -1    8.74    0.66
   1 -15  -1    5.93    0.66
  -1 -15   1    4.78    0.45
   0 -15  -1    4.81    0.59
   0 -15   1    4.36    0.43
   1 -15   1   24.68    1.14
   1 -15   1   20.46    0.96
  -1 -15  -1   21.16    1.03
  -2 -15  -1    3.97    0.50
   2 -15   1    4.35    0.65
   3 -15   1    4.65    0.70
  -3 -15  -1    3.43    0.52
   4 -15   1   12.40    1.04
  -4 -15  -1   11.61    0.93
  -5 -15  -1    2.89    0.61
   5 -15   1    5.20    0.81
   6 -15   1    4.59    0.84
  -6 -15  -1    3.84    0.69
   7 -15   1    1.82    0.82
  -7 -15  -1    1.37    0.67
   8 -15   1    3.45    0.92
  -8 -15  -1    2.64    0.74
   8 -16  -1    1.87    0.95
   7 -16  -1    1.63    0.89
   6 -16  -1    0.74    0.84
   5 -16  -1    8.71    0.99
  -5 -16   1    8.21    0.75
  -4 -16   1    1.64    0.51
   4 -16  -1    2.85    0.75
   3 -16  -1    3.15    0.72
  -3 -16   1    2.94    0.52
   2 -16  -1    7.36    0.80
  -2 -16   1    6.67    0.73
   1 -16  -1    4.07    0.66
  -1 -16   1    4.64    0.59
   0 -16   1    1.93    0.56
   0 -16  -1    1.73    0.54
  -1 -16  -1    5.61    0.62
   1 -16   1    7.38    0.76
   2 -16   1    9.30    0.98
  -3 -16  -1    0.78    0.49
   3 -16   1    0.68    0.66
   4 -16   1    0.61    0.72
  -4 -16  -1    1.27    0.55
  -5 -16  -1    2.85    0.64
   5 -16   1    3.87    0.82
   6 -16   1    1.67    0.82
  -6 -16  -1    0.25    0.64
   7 -16   1   -0.01    0.84
  -7 -16  -1    0.24    0.69
   7 -17  -1    0.06    0.91
   6 -17  -1    6.92    1.05
   5 -17  -1   -0.33    0.84
   4 -17  -1    1.08    0.77
  -4 -17   1    0.59    0.51
   3 -17  -1   11.43    1.07
  -3 -17   1    9.85    0.89
  -2 -17   1    6.77    0.69
   2 -17  -1    8.52    0.85
   1 -17  -1    0.92    0.61
  -1 -17   1    1.10    0.54
   0 -17  -1    3.49    0.64
   0 -17   1    3.82    0.65
   1 -17   1    9.27    0.85
  -1 -17  -1    8.07    0.74
   2 -17   1    0.75    0.65
  -2 -17  -1    0.42    0.51
   3 -17   1    0.91    0.72
  -3 -17  -1    0.96    0.54
   4 -17   1    9.53    1.00
  -4 -17  -1    8.94    1.02
  -5 -17  -1    3.30    0.70
   5 -17   1    3.47    0.88
   6 -17   1    0.92    0.85
  -6 -17  -1   -0.33    0.64
  -7 -17  -1    1.16    0.75
   7 -17   1    1.81    0.94
   6 -18  -1   -1.17    0.88
   5 -18  -1    1.54    0.93
   4 -18  -1    1.71    0.89
  -4 -18   1    2.44    0.75
   3 -18  -1    1.66    0.80
  -3 -18   1    1.16    0.54
   2 -18  -1    3.28    0.79
  -1 -18   1    1.61    0.61
   1 -18  -1    1.70    0.70
   0 -18  -1   -0.19    0.61
   0 -18   1    1.11    0.62
  -1 -18  -1    0.28    0.61
   1 -18   1    0.49    0.67
   2 -18   1    1.61    0.75
  -2 -18  -1    0.75    0.56
  -3 -18  -1    1.29    0.57
   3 -18   1    1.10    0.78
   4 -18   1    0.57    0.84
  -4 -18  -1    0.58    0.62
  -5 -18  -1    0.15    0.65
   5 -18   1    1.74    0.91
  -6 -18  -1    0.10    0.70
   6 -18   1    0.19    0.92
   5 -19  -1   -1.18    0.94
   4 -19  -1   -0.02    0.91
   3 -19  -1    4.59    0.95
  -3 -19   1    4.10    0.81
   2 -19  -1    3.70    0.87
  -1 -19   1    0.66    0.63
   1 -19  -1    0.52    0.74
   0 -19   1    1.22    0.68
   0 -19  -1    0.67    0.69
   1 -19   1    4.23    0.81
   2 -19   1    1.23    0.79
  -2 -19  -1    1.87    0.63
   3 -19   1    1.41    0.84
  -3 -19  -1    1.17    0.63
  -4 -19  -1    4.04    0.73
   4 -19   1    4.97    1.00
   5 -19   1    1.56    1.15
  -5 -19  -1    0.76    0.71
   4 -20  -1   -0.96    0.93
   3 -20  -1   -1.09    0.86
   2 -20  -1    1.05    0.85
  -2 -20   1    0.77    0.67
   1 -20  -1   -0.33    0.78
   0 -20  -1    0.96    0.77
   0 -20   1    0.66    0.75
   1 -20   1   -0.25    0.78
   2 -20   1    1.43    0.85
  -2 -20  -1    1.07    0.65
  -3 -20  -1    1.00    0.66
   3 -20   1   -0.39    0.88
   1 -21  -1    0.66    0.85
   0 -21   1   -0.51    0.79
   1 -21   1    0.44    0.84
  12   0  -2    4.52    0.92
  11   0  -2    1.53    0.77
  10   0  -2    1.42    0.65
   9   0  -2    7.82    0.71
   7   0  -2    8.42    0.60
   7   0  -2    8.00    0.56
   5   0  -2   92.64    3.03
   5   0  -2   92.29    3.05
   4   0  -2   11.75    0.49
   4   0  -2   10.74    0.50
   2   0  -2   25.99    0.86
   2   0  -2   25.63    0.88
   1   0  -2   52.88    1.70
   0   0  -2    0.77    0.07
   0   0  -2    0.87    0.08
   0   0   2    0.86    0.08
   1   0   2  118.78    3.90
  -1   0  -2  118.30    3.89
  -1   0  -2  126.43    3.91
  -2   0  -2  261.92    8.60
   2   0   2  274.13    8.60
  -3   0  -2   15.80    0.63
   3   0   2   15.39    0.63
  -4   0  -2   78.10    2.67
   4   0   2   80.97    2.65
   5   0   2   59.66    2.04
  -5   0  -2   59.01    2.07
   6   0   2   48.28    1.74
   7   0   2    0.11    0.39
   8   0   2    4.60    0.57
   9   0   2   20.79    1.10
  10   0   2    2.77    0.73
  11   0   2    2.80    0.83
  12  -1  -2    9.42    1.03
  12   1  -2   10.13    1.06
  11  -1  -2    7.93    0.89
  11   1  -2    6.74    0.88
  10  -1  -2   -0.18    0.62
  10   1  -2    0.89    0.64
   9  -1  -2    2.08    0.56
   9   1  -2    2.91    0.58
   8  -1  -2   74.74    2.62
   8   1  -2   76.11    2.64
   7  -1  -2   31.70    1.20
   7  -1  -2   33.01    1.24
   7   1  -2   31.09    1.26
   6  -1  -2   29.69    1.12
   6  -1  -2   30.25    1.09
   6   1  -2   28.14    1.05
   6   1  -2   30.13    1.14
   5  -1  -2  196.30    6.43
   5  -1  -2  198.65    6.41
   5   1  -2  197.11    6.40
   5   1  -2  203.82    6.44
   4  -1  -2  270.76    8.67
   4  -1  -2  266.87    8.67
   4   1  -2  269.99    8.66
   4   1  -2  273.47    8.68
   3  -1  -2   76.49    2.52
   3  -1  -2   74.51    2.51
   3   1  -2   79.49    2.51
   3   1  -2   78.36    2.52
   2  -1  -2  263.37    8.40
   2  -1  -2  262.30    8.39
   2   1  -2  265.36    8.40
   2   1  -2  259.03    8.39
   1  -1  -2  681.90   20.87
   1   1  -2  595.82   20.82
   1   1  -2  675.79   20.87
   0  -1  -2  178.10    6.47
   0  -1   2  205.70    6.47
   0  -1  -2  210.57    6.47
   0   1  -2  196.18    6.47
   0   1   2  216.35    6.46
   0   1  -2  206.80    6.46
  -1  -1  -2   25.78    0.80
  -1  -1  -2   22.26    0.76
   1  -1   2   22.46    0.79
  -1   1  -2   22.17    0.79
   1   1   2   23.24    0.79
  -1   1  -2   21.77    0.77
  -2  -1  -2   53.35    1.76
  -2  -1  -2   54.46    1.81
   2  -1   2   54.57    1.81
   2   1   2   55.54    1.80
  -2   1  -2   53.94    1.81
  -3  -1  -2  160.65    5.24
   3  -1   2  162.18    5.24
   3   1   2  162.25    5.23
   4  -1   2   18.98    0.79
  -4  -1  -2   19.33    0.81
   4   1   2   20.59    0.79
  -6  -1  -2   18.59    0.90
   6  -1   2   17.67    0.70
   6  -1   2   16.20    0.84
   6   1   2   18.00    0.84
   7  -1   2    2.23    0.45
   7   1   2    1.94    0.44
   8  -1   2   10.17    0.81
   8   1   2   10.52    0.81
   9  -1   2    4.45    0.67
   9   1   2    3.05    0.63
  10  -1   2    1.55    0.71
  10   1   2    1.98    0.71
  11  -1   2    3.94    0.86
  11   1   2    3.45    0.84
  12  -2  -2    4.99    0.90
  12   2  -2    5.87    0.98
  11  -2  -2    1.10    0.73
  11   2  -2    0.93    0.77
  10  -2  -2    2.45    0.65
  10   2  -2    1.17    0.66
   9  -2  -2    6.68    0.65
   9   2  -2    5.59    0.65
   8  -2  -2   12.68    0.76
   8   2  -2   10.29    0.80
   7  -2  -2   22.22    0.94
   7  -2  -2   22.41    0.91
   7   2  -2   18.68    0.93
   6  -2  -2   10.14    0.59
   6  -2  -2   11.27    0.58
   6   2  -2    9.92    0.47
   6   2  -2   10.64    0.61
   5  -2  -2   63.24    2.08
   5  -2  -2   62.37    2.08
   5   2  -2   63.03    2.10
   5   2  -2   58.82    2.03
   4  -2  -2   15.71    0.63
   4  -2  -2   15.04    0.61
  -4  -2   2   15.97    0.61
   3  -2  -2  150.04    4.84
  -3  -2   2  146.69    4.82
   3  -2  -2  150.78    4.82
   3   2  -2  149.13    4.82
   3   2  -2  153.18    4.84
  -2  -2   2  378.37   12.56
   2  -2  -2  388.30   12.58
   2  -2  -2  393.50   12.55
   2   2  -2  413.61   12.57
   2   2  -2  394.10   12.58
   1  -2  -2   19.23    0.65
   1   2  -2   18.17    0.63
   1   2  -2   18.03    0.64
   0  -2   2   44.78    1.52
   0  -2  -2   45.61    1.52
   0   2   2   49.54    1.50
   0   2  -2   46.55    1.53
  -1  -2  -2   48.27    1.57
  -1  -2  -2   47.13    1.60
   1  -2   2   46.37    1.59
   1   2   2   51.20    1.58
  -2  -2  -2  101.61    3.34
   2  -2   2  101.35    3.34
   2   2   2  104.69    3.32
   3  -2   2   36.40    1.31
  -3  -2  -2   36.54    1.32
   3   2   2   40.05    1.30
   4  -2   2   49.08    1.65
  -4  -2  -2   44.26    1.65
   4   2   2   48.32    1.63
   5  -2   2   60.61    2.11
  -5  -2  -2   62.42    2.13
   5   2   2   60.07    2.09
  -6  -2  -2   24.30    1.06
   6  -2   2   23.70    1.02
   6   2   2   24.08    1.02
  -7  -2  -2    8.33    0.79
   7  -2   2    7.02    0.66
   7   2   2    8.01    0.64
   8  -2   2    7.37    0.67
   8   2   2    6.91    0.66
   9  -2   2   18.10    1.08
   9   2   2   17.24    1.08
  10  -2   2    3.27    0.74
  10   2   2    2.68    0.72
  11  -2   2    3.09    0.84
  11   2   2    2.09    0.81
  12  -3  -2    4.42    0.90
  12   3  -2    4.82    0.97
  11  -3  -2    5.02    0.79
  11   3  -2    4.99    0.86
  10  -3  -2    3.95    0.69
  10   3  -2    4.17    0.74
   9  -3  -2    2.12    0.57
   9   3  -2    1.81    0.57
   8  -3  -2   39.16    1.44
   8  -3  -2   37.23    1.45
   8   3  -2   35.16    1.47
   7  -3  -2   21.50    0.90
   7  -3  -2   18.90    0.89
   7   3  -2   18.55    0.91
   6  -3  -2   56.93    1.99
   6  -3  -2   58.50    1.98
  -6  -3   2   59.34    2.01
   6   3  -2   56.11    2.00
   5  -3  -2   14.73    0.67
   5  -3  -2   15.00    0.65
  -5  -3   2   16.04    0.67
   5   3  -2   15.34    0.68
   4  -3  -2   72.40    2.38
   4  -3  -2   71.01    2.36
  -4  -3   2   70.90    2.36
   4   3  -2   71.61    2.37
   4   3  -2   71.92    2.33
   3  -3  -2  256.87    7.98
   3  -3  -2  247.06    7.95
  -3  -3   2  245.39    7.96
   3   3  -2  252.61    7.97
   3   3  -2  240.06    7.95
  -2  -3   2   63.26    2.02
   2  -3  -2   63.58    2.06
   2  -3  -2   63.22    2.02
   2   3  -2   61.99    2.04
   2   3  -2   60.11    2.03
   1  -3  -2  317.74   10.10
   1   3  -2  308.02   10.10
   1   3  -2  321.72   10.10
   0  -3   2   24.80    0.85
   0  -3  -2   25.40    0.86
   1  -3   2  247.88    8.08
  -1  -3  -2  251.83    8.06
  -1  -3  -2  252.08    8.09
   1   3   2  257.13    8.06
  -2  -3  -2    9.90    0.42
   2  -3   2    9.19    0.43
   2   3   2    9.07    0.40
  -3  -3  -2   96.64    3.15
   3  -3   2   96.52    3.15
   3   3   2   93.77    3.13
  -4  -3  -2   35.43    1.29
   4  -3   2   34.35    1.29
   4   3   2   36.38    1.26
  -5  -3  -2   28.64    1.14
   5  -3   2   28.53    1.12
   5   3   2   28.41    1.08
   6  -3   2   16.44    0.84
  -6  -3  -2   15.54    0.87
   6   3   2   16.51    0.80
  -7  -3  -2    1.30    0.44
   7  -3   2    1.27    0.44
   7   3   2    1.36    0.44
   8  -3   2    8.22    0.74
  -8  -3  -2    5.62    0.65
   8   3   2    5.45    0.63
   9  -3   2    4.66    0.67
   9   3   2    2.65    0.64
  10  -3   2    5.50    0.81
  10   3   2    5.19    0.78
  11  -3   2    1.06    0.78
  11   3   2    0.88    0.81
  12  -4  -2    2.96    0.84
  12   4  -2    3.28    0.94
  11  -4  -2    1.69    0.71
  11   4  -2    1.85    0.83
  10  -4  -2    4.60    0.72
  10   4  -2    5.51    0.80
   9  -4  -2    2.13    0.57
   9   4  -2    2.00    0.61
   8  -4  -2    3.11    0.50
   8  -4  -2    2.28    0.47
   8   4  -2    0.93    0.51
   7  -4  -2   18.70    0.89
  -7  -4   2   20.44    0.95
   7  -4  -2   19.08    0.88
   7   4  -2   15.47    0.90
   6  -4  -2   11.74    0.63
  -6  -4   2   13.31    0.68
   6  -4  -2   12.27    0.64
   6   4  -2   11.13    0.67
  -5  -4   2   16.82    0.72
   5  -4  -2   17.69    0.76
   5  -4  -2   16.60    0.71
   5   4  -2   19.48    0.74
   4  -4  -2   55.14    1.94
   4  -4  -2   57.27    1.97
  -4  -4   2   58.42    1.95
   4   4  -2   58.56    1.91
   4   4  -2   62.63    1.97
   3  -4  -2   58.26    1.86
   3  -4  -2   55.29    1.82
  -3  -4   2   56.48    1.82
   3   4  -2   54.10    1.83
   3   4  -2   51.75    1.80
  -2  -4   2   58.70    1.94
   2  -4  -2   59.88    1.93
   2  -4  -2   60.02    1.97
   2   4  -2   58.71    1.95
   2   4  -2   60.11    1.96
   1  -4  -2    1.96    0.21
   1   4  -2    2.26    0.19
   0  -4  -2  767.80   24.43
   0  -4   2  763.43   24.51
   0   4   2  761.09   24.36
   1  -4   2   46.39    1.55
  -1  -4  -2   47.03    1.56
  -1  -4  -2   46.12    1.52
   1   4   2   46.22    1.52
   2  -4   2   64.76    2.13
  -2  -4  -2   62.08    2.08
  -2  -4  -2   65.47    2.14
   2   4   2   64.65    2.10
  -3  -4  -2   83.39    2.79
   3  -4   2   81.36    2.78
   3   4   2   86.79    2.76
   4  -4   2  132.99    4.29
  -4  -4  -2  129.12    4.29
   4   4   2  129.37    4.26
   5  -4   2   37.49    1.40
  -5  -4  -2   37.14    1.40
   5   4   2   37.91    1.37
   6  -4   2   15.35    0.83
  -6  -4  -2   14.73    0.85
   6   4   2   15.15    0.78
   7  -4   2   29.95    1.11
   7  -4   2   26.02    1.19
  -7  -4  -2   27.72    1.27
   7   4   2   26.12    1.16
  -8  -4  -2   13.16    1.01
   8  -4   2   12.18    0.89
   8   4   2   11.99    0.85
   9  -4   2   14.78    1.03
  -9  -4  -2   15.60    1.16
   9   4   2   14.03    1.03
  10  -4   2    7.28    0.85
  10   4   2    7.97    0.88
  11  -4   2    4.19    0.87
  11   4   2    3.49    0.87
  12  -5  -2    1.70    0.80
  12   5  -2    1.67    0.91
  11  -5  -2    1.26    0.72
  11   5  -2    1.24    0.80
  10  -5  -2   11.43    0.93
  10   5  -2   11.58    0.99
   9  -5  -2    3.14    0.59
   9   5  -2    3.02    0.65
  -8  -5   2   11.96    0.85
   8  -5  -2   12.78    0.82
   8  -5  -2   11.96    0.78
   8   5  -2   10.58    0.84
   7  -5  -2   22.86    1.00
   7  -5  -2   23.15    0.99
  -7  -5   2   23.66    1.04
   7   5  -2   19.52    0.98
   6  -5  -2   39.00    1.46
   6  -5  -2   40.88    1.50
  -6  -5   2   42.10    1.49
   6   5  -2   41.15    1.49
   5  -5  -2    0.38    0.28
  -5  -5   2    0.71    0.23
   5  -5  -2    0.37    0.25
   5   5  -2    0.66    0.28
   4  -5  -2   42.82    1.49
  -4  -5   2   42.52    1.50
   4  -5  -2   44.44    1.54
   4   5  -2   45.88    1.52
   3  -5  -2  107.84    3.47
   3  -5  -2  108.53    3.51
  -3  -5   2  105.18    3.47
   3   5  -2  106.47    3.49
  -2  -5   2  113.94    3.75
   2  -5  -2  116.44    3.73
   2  -5  -2  119.87    3.79
   2   5  -2  114.45    3.77
   1  -5  -2    1.09    0.19
   0  -5   2  123.21    4.08
   0  -5  -2  126.32    4.08
   0   5   2  128.79    4.04
  -1  -5  -2   96.97    3.12
   1  -5   2   95.00    3.14
  -1  -5  -2   95.87    3.16
   1   5   2   97.96    3.11
  -2  -5  -2   42.40    1.43
  -2  -5  -2   44.16    1.50
   2  -5   2   44.37    1.49
   2   5   2   43.63    1.45
  -3  -5  -2   20.24    0.79
   3  -5   2   19.99    0.79
   3   5   2   18.73    0.75
   4  -5   2   46.73    1.63
  -4  -5  -2   46.25    1.64
   4   5   2   45.51    1.60
   5  -5   2   10.24    0.67
  -5  -5  -2    9.63    0.64
   5   5   2    9.43    0.58
  -6  -5  -2   22.76    1.05
   6  -5   2   22.45    1.04
   6   5   2   22.69    0.99
   7  -5   2    4.16    0.47
   7  -5   2    3.14    0.53
  -7  -5  -2    2.20    0.48
   7   5   2    2.94    0.53
   8  -5   2    3.52    0.59
  -8  -5  -2    3.12    0.58
   8   5   2    4.21    0.62
   9  -5   2    2.14    0.62
  -9  -5  -2    3.68    0.68
   9   5   2    3.65    0.70
  10  -5   2    2.65    0.73
  10   5   2    2.64    0.77
  11  -5   2    2.80    0.84
  11   5   2    1.56    0.84
  12  -6  -2    2.29    0.82
  12   6  -2    1.72    0.94
  11  -6  -2    2.31    0.74
  11   6  -2    2.26    0.84
  10  -6  -2    2.73    0.66
  10   6  -2    2.57    0.77
   9  -6  -2    9.92    0.80
   9  -6  -2    7.46    0.82
  -9  -6   2    9.97    0.93
   9   6  -2    9.24    0.92
   8  -6  -2    3.62    0.53
  -8  -6   2    4.00    0.53
   8  -6  -2    3.11    0.53
   8   6  -2    2.95    0.58
   7  -6  -2    7.91    0.66
   7  -6  -2    8.24    0.69
  -7  -6   2    9.68    0.72
   7   6  -2    8.40    0.68
  -6  -6   2    6.01    0.56
   6  -6  -2    5.28    0.58
   6  -6  -2    5.11    0.52
   6   6  -2    4.97    0.48
  -5  -6   2    7.43    0.49
   5  -6  -2    7.04    0.55
   5  -6  -2    8.13    0.49
   5   6  -2    8.68    0.52
  -4  -6   2   87.43    2.84
   4  -6  -2   85.00    2.88
   4  -6  -2   83.70    2.83
   4   6  -2   88.24    2.85
   3  -6  -2   83.95    2.79
   3  -6  -2   88.06    2.85
  -3  -6   2   84.96    2.81
   3   6  -2   86.04    2.82
   2  -6  -2    4.00    0.24
   2  -6  -2    4.37    0.34
   2   6  -2    3.77    0.27
   1  -6  -2    9.45    0.35
   1  -6  -2    9.52    0.44
   1   6  -2    9.32    0.41
   0  -6   2  254.19    8.03
   0  -6  -2  251.37    8.03
   0   6   2  244.29    7.98
   1  -6   2    7.84    0.38
  -1  -6  -2    7.19    0.35
   1   6   2    7.36    0.32
   2  -6   2    9.00    0.46
  -2  -6  -2    9.82    0.47
  -2  -6  -2    9.04    0.38
   2   6   2    9.08    0.40
  -3  -6  -2  104.11    3.44
   3  -6   2  102.24    3.43
   3   6   2  105.76    3.41
   4  -6   2  139.10    4.61
  -4  -6  -2  138.73    4.62
   4   6   2  142.68    4.58
   5  -6   2    4.58    0.49
   5   6   2    6.29    0.51
   6  -6   2    7.77    0.68
  -6  -6  -2    8.89    0.72
   6   6   2    7.74    0.64
   7  -6   2   24.46    1.20
   7  -6   2   26.88    1.10
  -7  -6  -2   26.33    1.24
   7   6   2   24.63    1.15
   8  -6   2    5.35    0.66
  -8  -6  -2    4.53    0.64
   8   6   2    5.93    0.68
  -9  -6  -2    0.90    0.62
   9  -6   2    1.69    0.63
   9   6   2    0.35    0.65
 -10  -6  -2    9.48    0.94
  10  -6   2   11.30    1.05
  10   6   2    9.09    0.94
  11  -6   2    4.73    0.89
  11   6   2    4.01    0.90
  12  -7  -2    4.07    0.85
  12   7  -2    2.85    1.00
  11  -7  -2    2.00    0.73
  11   7  -2    1.46    0.83
  10  -7  -2   12.51    0.95
  10   7  -2   13.31    1.10
   9  -7  -2    4.62    0.64
   9  -7  -2    3.69    0.66
  -9  -7   2    4.70    0.64
   9   7  -2    5.72    0.76
   8  -7  -2   10.29    0.86
   8  -7  -2   12.78    0.82
  -8  -7   2   12.39    0.88
   8   7  -2   12.17    0.89
  -7  -7   2   12.07    0.79
   7  -7  -2   10.45    0.79
   7  -7  -2   11.24    0.74
   7   7  -2   12.05    0.77
  -6  -7   2   19.60    0.88
   6  -7  -2   18.67    0.93
   6  -7  -2   19.72    0.87
   6   7  -2   18.36    0.87
   5  -7  -2   11.87    0.69
  -5  -7   2   12.67    0.62
   5  -7  -2   12.61    0.62
   5   7  -2   12.22    0.62
  -4  -7   2   17.00    0.72
   4  -7  -2   18.12    0.81
   4  -7  -2   17.71    0.72
   4   7  -2   18.64    0.74
   3  -7  -2   90.00    2.94
   3  -7  -2   86.09    2.87
  -3  -7   2   86.59    2.89
   3   7  -2   89.51    2.91
   2  -7  -2   60.76    2.00
   2  -7  -2   62.55    2.08
   2   7  -2   60.58    2.04
   1  -7  -2   22.95    0.89
   1  -7  -2   23.39    0.80
   1   7  -2   24.73    0.86
   0  -7  -2   63.39    2.14
   0  -7   2   64.26    2.14
   0   7   2   65.28    2.09
  -1  -7  -2   78.43    2.54
   1  -7   2   77.94    2.55
   1   7   2   75.15    2.51
  -2  -7  -2    3.37    0.35
   2  -7   2    4.10    0.33
  -2  -7  -2    3.16    0.27
   2   7   2    3.31    0.27
   3  -7   2   13.31    0.63
  -3  -7  -2   13.00    0.62
   3   7   2   12.01    0.57
  -4  -7  -2   57.96    2.02
   4  -7   2   57.07    2.02
   4   7   2   57.25    1.97
   5  -7   2    7.63    0.67
  -5  -7  -2    7.53    0.61
   5   7   2    8.84    0.58
   6  -7   2    6.17    0.59
  -6  -7  -2    5.12    0.53
   6   7   2    5.53    0.54
  -7  -7  -2    4.35    0.55
   7  -7   2    7.09    0.69
   7  -7   2    4.50    0.61
   7   7   2    3.87    0.57
   8  -7   2    9.40    0.91
   8  -7   2    7.09    0.75
  -8  -7  -2    7.52    0.75
   8   7   2    8.61    0.85
   9  -7   2    4.30    0.71
  -9  -7  -2    3.78    0.69
   9   7   2    4.27    0.75
 -10  -7  -2    3.74    0.79
  10  -7   2    5.06    0.79
  10   7   2    3.74    0.83
 -11  -7  -2    1.85    0.81
  11  -7   2    2.98    0.84
  11   7   2    0.97    0.86
  11  -8  -2    1.29    0.72
  11   8  -2    1.54    0.87
 -10  -8   2    0.74    0.73
  10  -8  -2    3.35    0.68
  10   8  -2    2.95    0.80
  -9  -8   2    6.83    0.70
   9  -8  -2    6.67    0.76
   9  -8  -2    7.76    0.79
   9   8  -2    8.18    0.85
  -8  -8   2    2.33    0.49
   8  -8  -2    1.68    0.58
   8  -8  -2    3.00    0.52
   8   8  -2    2.75    0.61
   7  -8  -2    5.94    0.62
   7  -8  -2    5.79    0.54
  -7  -8   2    6.45    0.69
   7   8  -2    5.27    0.57
   6  -8  -2    5.21    0.48
  -6  -8   2    5.40    0.60
   6  -8  -2    4.73    0.54
   6   8  -2    5.17    0.51
   5  -8  -2   16.39    0.83
  -5  -8   2   17.24    0.77
   5  -8  -2   16.55    0.75
   5   8  -2   15.87    0.76
  -4  -8   2   50.82    1.73
   4  -8  -2   51.97    1.80
   4  -8  -2   49.11    1.71
   4   8  -2   48.84    1.74
  -3  -8   2   44.79    1.56
   3  -8  -2   43.77    1.54
   3  -8  -2   46.13    1.63
   3   8  -2   47.44    1.58
   2  -8  -2   47.47    1.59
   2  -8  -2   49.53    1.68
   2   8  -2   47.05    1.63
   1  -8  -2   32.69    1.15
   1  -8  -2   30.28    1.06
   1   8  -2   31.86    1.12
   0  -8   2  192.62    6.16
   0  -8  -2  196.00    6.18
   0   8   2  183.78    6.12
   1  -8   2   65.66    2.22
  -1  -8  -2   67.38    2.21
   1   8   2   66.18    2.18
  -2  -8  -2   47.40    1.61
  -2  -8  -2   47.27    1.67
   2  -8   2   47.21    1.65
   2   8   2   48.95    1.60
  -3  -8  -2  148.81    4.83
   3  -8   2  146.47    4.81
  -3  -8  -2  141.72    4.74
   3   8   2  150.87    4.78
   4  -8   2   45.81    1.70
  -4  -8  -2   46.96    1.71
   4   8   2   48.14    1.66
   5  -8   2   17.13    0.93
  -5  -8  -2   17.67    0.91
   5   8   2   20.18    0.87
  -6  -8  -2   17.44    0.96
   6  -8   2   17.90    0.97
   6   8   2   17.47    0.90
  -7  -8  -2   22.61    1.22
   7  -8   2   25.83    1.15
   7  -8   2   23.17    1.21
   7   8   2   25.96    1.16
   8  -8   2   12.57    0.97
   8  -8   2   10.59    0.88
  -8  -8  -2   10.14    1.01
   8   8   2   12.48    0.97
  -9  -8  -2    4.03    0.70
   9  -8   2    4.58    0.74
   9   8   2    4.26    0.76
 -10  -8  -2    5.78    0.85
  10  -8   2    8.06    0.87
  10   8   2    6.48    0.91
 -11  -8  -2    2.53    0.84
  11  -8   2    2.52    0.83
  11   8   2    2.59    0.91
  11  -9  -2    3.38    0.90
  11   9  -2    2.50    0.90
  10  -9  -2    6.54    0.78
  10   9  -2    6.44    0.89
  -9  -9   2    7.30    0.72
   9  -9  -2    8.23    0.82
   9  -9  -2    9.15    0.86
   9   9  -2    9.52    0.95
  -8  -9   2   22.03    1.11
   8  -9  -2   19.55    1.17
   8  -9  -2   21.22    1.04
   8   9  -2   21.21    1.11
  -7  -9   2    4.80    0.52
   7  -9  -2    6.10    0.63
   7  -9  -2    5.04    0.64
   7   9  -2    6.19    0.62
   6  -9  -2   17.47    0.86
   6  -9  -2   16.92    0.95
  -6  -9   2   17.80    0.88
   6   9  -2   17.32    0.86
  -5  -9   2    8.75    0.61
   5  -9  -2    8.69    0.59
   5  -9  -2    7.99    0.68
   5   9  -2    8.92    0.58
   4  -9  -2   44.31    1.65
  -4  -9   2   44.18    1.57
   4  -9  -2   44.26    1.56
   4   9  -2   45.68    1.59
   3  -9  -2   46.52    1.63
  -3  -9   2   49.25    1.67
   3  -9  -2   50.29    1.73
   3   9  -2   46.33    1.66
   2  -9  -2   14.73    0.59
   2  -9  -2   14.22    0.71
   2   9  -2   16.42    0.65
   1  -9  -2   23.67    0.92
   1  -9  -2   22.69    0.81
   1   9  -2   23.14    0.87
   0  -9  -2    9.80    0.55
   0  -9   2   11.35    0.51
   0   9   2   11.63    0.44
   1  -9   2   12.85    0.57
  -1  -9  -2   12.26    0.56
   1   9   2   11.94    0.49
  -2  -9  -2    8.78    0.55
  -2  -9  -2    8.29    0.46
   2  -9   2   10.51    0.53
   2   9   2    8.68    0.44
   3  -9   2   48.81    1.71
  -3  -9  -2   48.72    1.73
  -3  -9  -2   44.88    1.62
   3   9   2   50.16    1.66
  -4  -9  -2    9.67    0.66
   4  -9   2   10.17    0.70
   4   9   2    8.76    0.56
   5  -9   2    2.16    0.46
  -5  -9  -2    2.56    0.42
   5   9   2    3.40    0.44
   6  -9   2   15.84    0.98
  -6  -9  -2   15.66    0.94
   6   9   2   15.16    0.86
  -7  -9  -2    1.25    0.51
   7  -9   2    2.44    0.58
   7  -9   2    1.71    0.56
   7   9   2    1.37    0.54
  -8  -9  -2    4.60    0.67
   8  -9   2    4.69    0.67
   8  -9   2    4.75    0.70
   8   9   2    5.71    0.73
  -9  -9  -2    2.00    0.68
   9  -9   2    3.54    0.71
   9   9   2    3.60    0.76
  10  -9   2    5.25    0.83
 -10  -9  -2    3.84    0.80
  10   9   2    3.89    0.86
  11  10  -2    1.75    0.89
  10 -10  -2   -0.71    0.73
  10  10  -2    0.94    0.78
   9 -10  -2    5.63    0.80
   9  10  -2    5.45    0.79
   8 -10  -2    3.68    0.71
  -8 -10   2    2.27    0.53
   8 -10  -2    3.29    0.57
   8  10  -2    2.79    0.64
   7 -10  -2    5.17    0.70
  -7 -10   2    6.41    0.57
   7 -10  -2    6.97    0.67
   7  10  -2    6.30    0.64
   6 -10  -2    2.19    0.55
  -6 -10   2    1.81    0.38
   6 -10  -2    1.68    0.42
   6  10  -2    1.74    0.45
   5 -10  -2    7.43    0.59
  -5 -10   2    8.75    0.63
   5 -10  -2    8.05    0.71
   5  10  -2    7.93    0.60
  -4 -10   2   26.99    1.03
   4 -10  -2   23.31    1.10
   4 -10  -2   25.99    1.00
   4  10  -2   25.53    1.03
   3 -10  -2    4.30    0.41
   3 -10  -2    4.97    0.47
  -3 -10   2    4.15    0.44
   3  10  -2    4.27    0.43
   2 -10  -2   33.85    1.27
   2 -10  -2   32.62    1.15
   2  10  -2   32.73    1.20
   1 -10  -2    6.31    0.33
   1 -10  -2    5.75    0.49
   1  10  -2    5.98    0.43
   0 -10   2    6.12    0.40
   0 -10  -2    5.04    0.46
  -1 -10  -2    8.25    0.50
   1 -10   2    9.44    0.51
   1  10   2    9.39    0.43
   2 -10   2   62.74    2.18
  -2 -10  -2   65.31    2.15
  -2 -10  -2   63.86    2.22
   2  10   2   63.27    2.13
  -3 -10  -2   18.71    0.88
  -3 -10  -2   18.83    0.74
   3 -10   2   18.42    0.86
   3  10   2   19.56    0.77
   4 -10   2    3.31    0.45
  -4 -10  -2    2.28    0.39
   4  10   2    2.95    0.38
  -5 -10  -2   24.42    1.13
   5 -10   2   23.55    1.13
   5  10   2   24.87    1.04
   6 -10   2    8.07    0.80
   6 -10   2    7.62    0.70
  -6 -10  -2    6.40    0.62
   6  10   2    7.28    0.73
   7 -10   2    6.80    0.75
  -7 -10  -2    6.01    0.67
   7 -10   2    6.56    0.73
   7  10   2    8.08    0.81
   8 -10   2    5.54    0.75
  -8 -10  -2    4.48    0.68
   8 -10   2    5.67    0.74
   8  10   2    5.24    0.73
  -9 -10  -2    4.14    0.76
   9 -10   2    7.17    0.82
   9  10   2    5.86    0.83
  10 -10   2    3.14    0.80
 -10 -10  -2    0.62    0.75
  10  10   2    1.98    0.81
  11  11  -2    3.98    0.96
  10 -11  -2   -0.31    0.78
  10  11  -2    1.20    0.82
   9 -11  -2    2.77    0.79
   9  11  -2    4.37    0.79
  -8 -11   2   13.08    1.28
   8 -11  -2   13.84    1.12
   8  11  -2   13.71    0.99
  -7 -11   2    3.48    0.51
   7 -11  -2    4.32    0.70
   7  11  -2    3.44    0.60
  -6 -11   2    0.93    0.39
   6 -11  -2    0.36    0.54
   6  11  -2    0.74    0.46
   5 -11  -2    6.41    0.77
   5 -11  -2    4.76    0.61
  -5 -11   2    4.46    0.45
   5  11  -2    5.11    0.50
  -4 -11   2   33.20    1.25
   4 -11  -2   32.80    1.25
   4 -11  -2   29.99    1.32
   4  11  -2   32.06    1.23
   3 -11  -2    7.45    0.49
   3 -11  -2    7.06    0.64
  -3 -11   2    7.69    0.54
   3  11  -2    7.48    0.55
   2 -11  -2    6.60    0.59
   2 -11  -2    6.09    0.41
   2  11  -2    6.97    0.49
   1 -11  -2   50.52    1.80
   1 -11  -2   48.36    1.69
   1  11  -2   52.64    1.76
   0 -11   2   20.44    0.83
   0 -11  -2   20.61    0.89
  -1 -11  -2    6.34    0.48
   1 -11   2    5.75    0.48
   1  11   2    6.34    0.38
   2 -11   2   14.89    0.71
  -2 -11  -2   13.57    0.65
  -2 -11  -2   13.77    0.74
   2  11   2   13.60    0.61
   3 -11   2   15.08    0.80
  -3 -11  -2   15.25    0.82
   3  11   2   16.48    0.70
  -4 -11  -2    5.41    0.53
   4 -11   2    6.21    0.56
   4  11   2    6.01    0.53
  -5 -11  -2    0.95    0.42
   5 -11   2    1.49    0.49
   5  11   2    0.43    0.41
   6 -11   2    9.26    0.89
   6 -11   2   10.42    0.90
  -6 -11  -2    9.78    0.89
   6  11   2    9.51    0.77
   7 -11   2    0.47    0.63
   7 -11   2    0.43    0.58
  -7 -11  -2    0.07    0.51
   7  11   2    0.34    0.56
   8 -11   2    4.88    0.76
  -8 -11  -2    2.72    0.68
   8 -11   2    4.09    0.76
   8  11   2    3.25    0.72
  -9 -11  -2    0.06    0.67
   9 -11   2    1.97    0.73
   9 -11   2    0.34    0.70
   9  11   2   -0.22    0.73
  10 -11   2    1.56    0.78
 -10 -11  -2   -0.10    0.73
  10  11   2    1.59    0.86
  10 -12  -2   -0.08    0.82
  10  12  -2    1.04    0.82
   9 -12  -2    1.17    0.80
   9  12  -2    2.77    0.78
   8 -12  -2    0.20    0.73
   8  12  -2    1.03    0.67
   7 -12  -2    5.99    0.80
  -7 -12   2    5.05    0.59
   7  12  -2    6.13    0.72
   6 -12  -2    0.09    0.58
  -6 -12   2    0.37    0.40
   6  12  -2    0.49    0.49
  -5 -12   2    2.74    0.41
   5 -12  -2    3.22    0.59
   5  12  -2    3.72    0.50
   4 -12  -2    3.35    0.57
  -4 -12   2    5.44    0.58
   4  12  -2    4.30    0.47
   3 -12  -2    0.67    0.44
  -3 -12   2    0.92    0.31
   3  12  -2    1.10    0.35
   2 -12  -2   21.96    1.03
   2  12  -2   24.63    0.97
   1 -12  -2   10.36    0.69
   0 -12   2    7.74    0.50
   0 -12  -2    6.78    0.58
   1 -12   2    5.84    0.50
  -1 -12  -2    5.81    0.53
  -2 -12  -2   34.50    1.25
   2 -12   2   32.34    1.27
  -2 -12  -2   32.62    1.32
  -3 -12  -2    0.46    0.35
   3 -12   2    0.75    0.37
   3  12   2    0.30    0.38
   4 -12   2    2.43    0.49
  -4 -12  -2    2.73    0.46
   4  12   2    2.95    0.43
  -5 -12  -2   12.02    0.89
   5 -12   2   10.95    0.86
   5  12   2   10.05    0.71
   6 -12   2    7.39    0.72
  -6 -12  -2    6.56    0.70
   6 -12   2    8.76    0.83
   6  12   2    6.54    0.64
  -7 -12  -2   -0.51    0.54
   7 -12   2   -0.49    0.65
   7 -12   2    0.94    0.62
   7  12   2    0.54    0.57
   8 -12   2    3.08    0.80
   8 -12   2    3.07    0.72
  -8 -12  -2    1.67    0.66
   8  12   2    2.50    0.69
   9 -12   2    4.77    0.85
  -9 -12  -2    3.68    0.77
   9 -12   2    5.22    0.82
   9  12   2    4.54    0.83
  10 -13  -2    0.37    0.88
  10  13  -2    0.88    0.89
   9 -13  -2    0.14    0.83
   9  13  -2    1.31    0.80
   8 -13  -2   10.44    1.03
   8  13  -2   10.78    1.05
   7 -13  -2    2.95    0.77
   7  13  -2    2.89    0.66
  -6 -13   2    3.48    0.52
   6 -13  -2    3.31    0.73
   6  13  -2    3.85    0.61
  -5 -13   2    7.50    0.73
   5 -13  -2    7.86    0.78
   5  13  -2    8.15    0.71
   4 -13  -2   17.64    1.08
  -4 -13   2   18.34    0.91
   4  13  -2   17.68    0.90
   3 -13  -2    2.13    0.52
  -3 -13   2    1.70    0.36
   3  13  -2    1.56    0.40
   2 -13  -2    3.20    0.52
   2  13  -2    3.36    0.43
   1 -13  -2   32.88    1.34
   0 -13   2    9.99    0.60
   0 -13  -2   10.57    0.69
  -1 -13  -2    5.77    0.57
   1 -13   2    5.30    0.54
  -2 -13  -2   12.32    0.80
  -2 -13  -2   12.31    0.70
   2 -13   2   12.78    0.72
  -3 -13  -2    5.48    0.53
   3 -13   2    4.42    0.51
  -4 -13  -2    2.13    0.48
   4 -13   2    1.67    0.48
   5 -13   2    0.68    0.52
  -5 -13  -2    0.91    0.49
   5 -13   2    1.53    0.60
   6 -13   2    3.56    0.66
   6 -13   2    4.59    0.75
  -6 -13  -2    3.62    0.65
  -7 -13  -2   -0.10    0.60
   7 -13   2    1.43    0.66
   7 -13   2    0.46    0.71
   8 -13   2    2.98    0.83
   8 -13   2    3.31    0.76
  -8 -13  -2    1.13    0.68
   9 -13   2   -0.51    0.81
   9 -13   2    2.17    0.77
  -9 -13  -2    0.25    0.70
   9 -14  -2    1.19    0.91
   9  14  -2    0.38    0.81
   8 -14  -2   -0.11    0.82
   8  14  -2    0.06    0.72
   7 -14  -2    2.74    0.83
   7  14  -2    2.82    0.71
   6 -14  -2   -0.60    0.69
   6  14  -2    0.63    0.58
   5 -14  -2    5.01    0.75
  -5 -14   2    4.16    0.53
   5  14  -2    5.23    0.60
   4 -14  -2    3.99    0.67
  -4 -14   2    4.76    0.50
   4  14  -2    4.33    0.53
  -3 -14   2    0.47    0.36
   3 -14  -2    0.89    0.55
   3  14  -2    0.84    0.42
   2 -14  -2    7.00    0.79
   2  14  -2    6.55    0.61
  -1 -14   2    3.40    0.42
   1 -14  -2    3.88    0.55
   0 -14  -2   28.80    1.20
   0 -14   2   26.32    1.10
   1 -14   2    4.51    0.48
  -1 -14  -2    4.94    0.53
  -2 -14  -2    6.63    0.71
  -2 -14  -2    5.88    0.58
   2 -14   2    5.61    0.53
   3 -14   2    2.84    0.48
  -3 -14  -2    2.95    0.49
   4 -14   2    2.06    0.51
  -4 -14  -2    1.25    0.50
  -5 -14  -2    2.55    0.59
   5 -14   2    1.64    0.58
   5 -14   2    2.09    0.69
   6 -14   2    3.47    0.75
  -6 -14  -2    1.98    0.63
   6 -14   2    1.95    0.64
   7 -14   2    4.77    0.75
   7 -14   2    4.79    0.86
  -7 -14  -2    3.18    0.71
  -8 -14  -2    1.32    0.70
   8 -14   2    2.51    0.86
   8 -14   2    2.54    0.86
   9 -15  -2    1.36    0.94
   9  15  -2    2.97    0.88
   8 -15  -2    1.28    0.89
   8  15  -2    0.49    0.77
   7 -15  -2    1.38    0.84
   7  15  -2    2.05    0.72
   6 -15  -2    8.78    0.99
   6  15  -2    9.31    0.90
   5 -15  -2    3.41    0.78
  -5 -15   2    2.72    0.78
   5  15  -2    2.78    0.58
   4 -15  -2    7.75    0.83
  -4 -15   2    6.62    0.76
   4  15  -2    5.91    0.64
   3 -15  -2    8.74    0.83
  -3 -15   2    8.22    0.74
   3  15  -2    7.87    0.73
   2 -15  -2    7.88    0.88
   2  15  -2    7.57    0.69
   1 -15  -2    6.02    0.66
  -1 -15   2    5.39    0.49
   0 -15   2    5.76    0.57
   0 -15  -2    6.67    0.64
  -1 -15  -2   14.58    0.88
   1 -15   2   15.19    0.82
  -2 -15  -2    0.56    0.43
   2 -15   2    0.07    0.39
   3 -15   2   -0.04    0.43
  -3 -15  -2    0.57    0.47
   4 -15   2    3.51    0.71
   4 -15   2    2.95    0.58
  -4 -15  -2    3.22    0.61
   5 -15   2    1.28    0.70
  -5 -15  -2    0.51    0.57
   5 -15   2    0.81    0.59
   6 -15   2    0.84    0.76
  -6 -15  -2    0.20    0.63
   7 -15   2    0.38    0.81
  -7 -15  -2   -0.32    0.66
  -8 -15  -2    0.96    0.73
   8 -15   2    1.40    0.87
   8 -16  -2   -1.26    0.91
   8  16  -2   -0.76    0.77
   7 -16  -2    3.00    0.91
   7  16  -2    2.74    0.74
   6 -16  -2   -1.11    0.79
   6  16  -2   -0.28    0.62
   5 -16  -2    1.26    0.82
   5  16  -2    2.27    0.61
  -4 -16   2    4.92    0.67
   4 -16  -2    7.53    0.90
   4  16  -2    6.45    0.67
   3 -16  -2    5.45    0.80
  -3 -16   2    5.36    0.58
   3  16  -2    4.47    0.59
   2 -16  -2   -0.85    0.58
   1 -16  -2   -0.16    0.55
  -1 -16   2    0.31    0.34
   0 -16  -2    7.16    0.70
   0 -16   2    5.80    0.61
  -1 -16  -2    2.46    0.54
   1 -16   2    3.07    0.48
  -2 -16  -2    3.80    0.58
  -3 -16  -2   10.55    0.94
   3 -16   2   10.26    1.03
  -4 -16  -2    6.66    0.73
   4 -16   2    7.17    0.88
  -5 -16  -2    1.06    0.62
   5 -16   2    2.87    0.79
   6 -16   2    0.92    0.80
  -6 -16  -2    0.15    0.66
  -7 -16  -2    3.96    0.80
   7 -16   2    5.55    0.98
   7 -17  -2    0.38    0.90
   6 -17  -2    6.40    1.04
   5 -17  -2   -0.63    0.81
   4 -17  -2    0.36    0.79
   3 -17  -2    7.16    0.90
  -3 -17   2    5.15    0.62
   2 -17  -2    6.73    0.84
   1 -17  -2    0.11    0.62
   0 -17  -2    1.15    0.60
  -1 -17  -2    4.20    0.63
  -2 -17  -2   -0.29    0.51
   2 -17   2   -0.09    0.64
   3 -17   2    0.70    0.70
  -3 -17  -2    0.72    0.55
  -4 -17  -2    2.04    0.64
   4 -17   2    2.01    0.79
  -5 -17  -2    2.27    0.68
   5 -17   2    3.57    0.87
   6 -17   2    0.34    0.85
  -6 -17  -2    0.19    0.70
   6 -18  -2   -0.21    0.92
   5 -18  -2   -0.70    0.90
   4 -18  -2    2.96    0.91
   3 -18  -2    5.09    0.89
   2 -18  -2   -0.73    0.71
  -2 -18   2   -0.05    0.57
   1 -18  -2    0.00    0.68
  -1 -18   2    0.93    0.59
   0 -18   2    5.72    0.77
   0 -18  -2    4.44    0.75
   1 -18   2    2.20    0.71
  -2 -18  -2    0.06    0.56
   2 -18   2    0.66    0.71
   3 -18   2    5.17    0.87
  -3 -18  -2    3.69    0.68
  -4 -18  -2    4.33    0.74
   4 -18   2    5.90    0.96
   5 -18   2   -0.34    0.83
  -5 -18  -2   -0.18    0.66
   5 -19  -2    0.28    0.97
   4 -19  -2    2.60    0.94
   3 -19  -2    3.34    0.92
   2 -19  -2    1.54    0.81
   1 -19  -2    0.71    0.77
  -1 -19   2    1.67    0.66
   0 -19   2    0.43    0.68
   0 -19  -2   -0.09    0.67
   1 -19   2    4.22    0.82
  -2 -19  -2    1.21    0.64
   2 -19   2    1.19    0.78
   3 -19   2   -0.72    0.82
  -3 -19  -2   -0.59    0.61
  -4 -19  -2    0.33    0.67
   4 -19   2   -0.03    0.87
   4 -20  -2    0.20    0.96
   3 -20  -2    0.23    0.88
   2 -20  -2   -1.02    0.81
  -1 -20   2    0.43    0.69
   1 -20  -2    0.31    0.79
   0 -20   2    2.69    0.80
   1 -20   2    1.94    0.79
   2 -20   2    0.36    0.81
  -2 -20  -2    0.77    0.65
  -3 -20  -2    1.12    0.71
   3 -20   2    3.02    0.95
  13   0  -3    3.57    0.99
  12   0  -3    8.44    1.03
  11   0  -3   -0.04    0.70
  10   0  -3    0.71    0.63
   9   0  -3    7.59    0.79
   8   0  -3   84.27    2.90
   7   0  -3    0.13    0.34
   7   0  -3    0.27    0.37
   6   0  -3   69.72    2.39
   6   0  -3   72.71    2.42
   5   0  -3  142.21    4.57
   5   0  -3  138.24    4.56
   4   0  -3   55.00    1.88
   4   0  -3   58.13    1.89
   3   0  -3  123.35    3.98
   3   0  -3  122.29    3.96
   2   0  -3  380.58   12.37
   2   0  -3  392.98   12.35
   1   0  -3  935.91   30.42
   1   0  -3  963.89   30.36
   0   0  -3    2.17    0.19
   0   0  -3    2.70    0.19
   0   0   3    2.83    0.18
  -1   0  -3  142.48    4.71
   1   0   3  147.86    4.73
  -1   0  -3  149.69    4.73
  -2   0  -3   68.93    2.25
  -2   0  -3   65.20    2.21
   2   0   3   69.87    2.25
  -3   0  -3  145.76    4.79
   3   0   3  147.85    4.78
   4   0   3   31.72    1.16
  -4   0  -3   30.85    1.19
   5   0   3   58.21    2.08
  -5   0  -3   62.03    2.13
   6   0   3    7.47    0.62
   7   0   3    5.52    0.58
   8   0   3    2.44    0.57
   9   0   3   15.76    1.06
  10   0   3    0.52    0.68
  11   0   3    2.32    0.83
  13  -1  -3    3.23    0.97
  13   1  -3    2.68    1.11
  12  -1  -3    2.60    0.84
  12   1  -3    1.17    0.86
  11  -1  -3    3.29    0.77
  11   1  -3    1.08    0.76
  10  -1  -3    2.64    0.67
  10   1  -3    3.00    0.68
   9  -1  -3    2.30    0.58
   9   1  -3    1.85    0.55
   8  -1  -3   16.65    0.89
   8   1  -3   14.48    0.90
   7  -1  -3    1.14    0.39
   7  -1  -3    1.57    0.40
   7   1  -3    0.35    0.38
   7   1  -3    1.12    0.33
   6  -1  -3   35.84    1.28
   6  -1  -3   35.38    1.28
   6   1  -3   32.31    1.23
   6   1  -3   34.47    1.29
   5  -1  -3   43.89    1.51
   5  -1  -3   44.14    1.52
   5   1  -3   44.35    1.53
   5   1  -3   42.30    1.50
   4  -1  -3   37.18    1.23
   4  -1  -3   35.71    1.24
   4   1  -3   35.79    1.23
   4   1  -3   33.97    1.22
   3  -1  -3    3.22    0.30
   3  -1  -3    2.90    0.22
   3   1  -3    2.81    0.25
   2  -1  -3   25.44    0.86
   2  -1  -3   24.09    0.90
   2   1  -3   26.75    0.87
   2   1  -3   26.46    0.89
   1  -1  -3  124.80    3.95
   1  -1  -3  123.56    3.98
   1   1  -3  124.94    3.96
   1   1  -3  119.76    3.98
   0  -1  -3  502.52   15.63
   0  -1   3  491.27   15.60
   0  -1  -3  486.26   15.62
   0   1   3  496.80   15.57
   0   1  -3  480.83   15.60
   0   1  -3  467.75   15.60
  -1  -1  -3  194.09    6.13
   1  -1   3  189.30    6.12
  -1  -1  -3  186.04    6.10
  -1   1  -3  190.74    6.12
   1   1   3  195.18    6.11
  -1   1  -3  187.03    6.11
  -2  -1  -3   79.81    2.64
   2  -1   3   80.97    2.68
  -2  -1  -3   80.46    2.69
  -2   1  -3   82.69    2.69
   2   1   3   84.32    2.68
   3  -1   3   17.05    0.68
  -3  -1  -3   16.11    0.69
  -3   1  -3   15.87    0.69
   3   1   3   15.78    0.66
   4  -1   3   93.46    3.10
  -4  -1  -3   92.40    3.12
   4   1   3   93.41    3.09
  -5  -1  -3   56.51    2.00
   5  -1   3   57.11    1.98
   5   1   3   55.65    1.96
  -6  -1  -3    1.38    0.38
   6   1   3    1.41    0.39
   7  -1   3    1.48    0.46
   7   1   3    1.31    0.46
   8  -1   3   23.82    1.16
   8   1   3   23.76    1.14
   9  -1   3   13.81    1.02
   9   1   3   14.37    1.03
  10  -1   3    2.16    0.73
  10   1   3    1.34    0.71
  11  -1   3    5.38    0.88
  11   1   3    5.46    0.90
  12  -2  -3   10.99    1.12
  12   2  -3    9.61    1.07
  11  -2  -3    4.22    0.79
  11   2  -3    4.71    0.84
  10  -2  -3    0.49    0.62
  10   2  -3    0.49    0.63
   9  -2  -3   13.79    0.91
   9   2  -3   15.15    0.91
   8  -2  -3   59.62    2.16
   8  -2  -3   65.75    2.16
   8   2  -3   56.22    2.17
   7  -2  -3   34.76    1.34
   7  -2  -3   38.04    1.36
   7   2  -3   33.70    1.36
   6  -2  -3   50.40    1.74
   6  -2  -3   49.92    1.73
   6   2  -3   46.53    1.67
   6   2  -3   51.08    1.75
   5  -2  -3  115.85    3.82
   5  -2  -3  118.96    3.80
   5   2  -3  119.69    3.82
   5   2  -3  111.36    3.78
   4  -2  -3  110.69    3.70
   4  -2  -3  109.06    3.68
   4   2  -3  117.19    3.68
   4   2  -3  116.36    3.69
   3  -2  -3   57.15    1.94
   3  -2  -3   56.26    1.90
   3   2  -3   60.60    1.92
   3   2  -3   58.61    1.92
   2  -2  -3   96.73    3.31
   2  -2  -3  100.85    3.27
   2   2  -3  103.78    3.30
   2   2  -3  106.45    3.30
   1  -2  -3   75.72    2.57
   1   2  -3   81.75    2.56
   1   2  -3   78.87    2.57
   0  -2  -3    5.48    0.27
   0  -2  -3    4.80    0.29
   0  -2   3    5.38    0.27
   0   2   3    6.02    0.25
   0   2  -3    5.38    0.28
  -1  -2  -3   49.05    1.69
   1  -2   3   49.47    1.69
  -1  -2  -3   49.39    1.66
  -1   2  -3   51.49    1.68
   1   2   3   54.19    1.67
  -2  -2  -3  113.47    3.70
  -2  -2  -3  108.40    3.65
   2  -2   3  115.24    3.70
   2   2   3  116.78    3.68
  -3  -2  -3   81.96    2.69
   3  -2   3   80.66    2.68
  -3  -2  -3   78.11    2.60
   3   2   3   81.86    2.66
   4  -2   3   15.21    0.68
  -4  -2  -3   13.02    0.67
   4   2   3   13.49    0.63
  -5  -2  -3   18.48    0.85
   5  -2   3   15.30    0.79
   5   2   3   15.45    0.76
   6  -2   3    8.94    0.70
  -6  -2  -3    9.44    0.73
   6   2   3    9.62    0.65
  -7  -2  -3    4.45    0.56
   7  -2   3    3.76    0.54
   7   2   3    3.89    0.54
   8  -2   3    2.30    0.54
   8   2   3    1.93    0.55
   9  -2   3   10.44    0.93
   9   2   3    8.52    0.88
  10  -2   3    3.34    0.77
  10   2   3    3.25    0.76
  11  -2   3    3.03    0.86
  11   2   3    1.44    0.81
  12  -3  -3    1.69    0.82
  12   3  -3    3.15    0.93
  11  -3  -3    3.33    0.76
  11   3  -3    2.09    0.81
  10  -3  -3    7.53    0.78
  10   3  -3    8.07    0.84
   9  -3  -3    2.48    0.57
   9   3  -3    2.97    0.61
   8  -3  -3   12.52    0.76
   8  -3  -3   12.97    0.80
   8   3  -3    9.53    0.83
   7  -3  -3    6.20    0.60
   7  -3  -3    6.33    0.52
   7   3  -3    5.90    0.54
   6  -3  -3   56.45    1.97
   6  -3  -3   57.46    1.95
   6   3  -3   59.15    1.97
   6   3  -3   53.61    1.89
  -5  -3   3    6.42    0.43
   5  -3  -3    6.45    0.40
   5  -3  -3    5.67    0.47
   5   3  -3    6.07    0.44
   5   3  -3    5.87    0.36
  -4  -3   3   99.90    3.27
   4  -3  -3  104.07    3.31
   4  -3  -3  101.67    3.28
   4   3  -3   95.38    3.27
   4   3  -3  102.51    3.30
   3  -3  -3  188.07    5.95
  -3  -3   3  176.72    5.94
   3  -3  -3  188.28    5.99
   3   3  -3  187.65    5.98
   3   3  -3  187.47    5.97
   2  -3  -3   55.44    1.91
   2  -3  -3   58.78    1.86
   2   3  -3   59.14    1.90
   2   3  -3   56.88    1.90
   1  -3  -3   33.17    1.09
   1   3  -3   31.33    1.06
   1   3  -3   29.76    1.07
   0  -3   3  388.20   12.50
   0  -3  -3  391.59   12.50
   0   3   3  402.38   12.47
   0   3  -3  381.96   12.51
  -1  -3  -3  170.14    5.38
  -1  -3  -3  165.43    5.41
   1  -3   3  163.40    5.40
   1   3   3  170.83    5.37
  -2  -3  -3   47.98    1.66
  -2  -3  -3   46.82    1.60
   2  -3   3   48.59    1.66
   2   3   3   51.63    1.63
  -3  -3  -3   21.24    0.84
   3  -3   3   22.16    0.86
   3   3   3   21.30    0.81
   4  -3   3   58.88    2.00
  -4  -3  -3   57.19    2.00
   4   3   3   56.71    1.96
   5  -3   3   36.70    1.37
  -5  -3  -3   35.89    1.39
   5   3   3   34.62    1.31
  -6  -3  -3   19.52    1.01
   6  -3   3   19.89    0.97
   6   3   3   20.11    0.91
   7  -3   3    9.87    0.80
  -7  -3  -3   10.24    0.88
   7   3   3   10.17    0.75
  -8  -3  -3    5.92    0.69
   8  -3   3    6.82    0.67
   8   3   3    5.30    0.65
   9  -3   3   12.63    0.99
   9   3   3   10.04    0.95
  10  -3   3    6.45    0.83
  10   3   3    7.05    0.85
  11  -3   3    3.46    0.87
  11   3   3    1.57    0.83
  12  -4  -3    4.18    0.85
  12   4  -3    2.20    0.92
  11  -4  -3    7.60    0.85
  11   4  -3    6.25    0.92
  10  -4  -3    3.83    0.68
  10   4  -3    3.98    0.76
   9  -4  -3    4.25    0.60
   9   4  -3    4.91    0.66
   8  -4  -3   23.40    1.05
   8  -4  -3   21.01    0.99
   8   4  -3   20.24    1.05
   7  -4  -3   36.51    1.39
   7  -4  -3   36.19    1.34
   7   4  -3   33.81    1.36
   6  -4  -3   11.77    0.66
  -6  -4   3   11.88    0.62
   6  -4  -3   11.54    0.57
   6   4  -3   10.30    0.62
   6   4  -3    9.21    0.47
   5  -4  -3   15.69    0.70
   5  -4  -3   15.29    0.62
  -5  -4   3   15.24    0.64
   5   4  -3   13.36    0.57
   5   4  -3   15.05    0.65
   4  -4  -3  275.08    8.75
  -4  -4   3  266.07    8.70
   4  -4  -3  273.13    8.71
   4   4  -3  265.71    8.70
   4   4  -3  277.68    8.74
  -3  -4   3   48.99    1.63
   3  -4  -3   52.00    1.70
   3  -4  -3   50.28    1.63
   3   4  -3   48.87    1.67
   3   4  -3   48.34    1.65
   2  -4  -3   21.79    0.83
  -2  -4   3   21.69    0.75
   2   4  -3   23.14    0.80
   2   4  -3   23.55    0.80
   1  -4  -3   33.38    1.10
   1   4  -3   31.43    1.08
   1   4  -3   30.13    1.08
   0  -4   3   76.32    2.51
   0  -4  -3   76.97    2.51
   1  -4   3   28.51    0.99
  -1  -4  -3   28.80    1.00
  -1  -4  -3   27.20    0.96
   1   4   3   28.42    0.95
  -2  -4  -3   45.63    1.55
  -2  -4  -3   47.31    1.61
   2  -4   3   47.03    1.61
   2   4   3   48.39    1.57
  -3  -4  -3   93.92    3.10
   3  -4   3   93.58    3.09
   3   4   3   91.84    3.05
  -4  -4  -3   38.86    1.42
   4  -4   3   40.16    1.42
   4   4   3   36.49    1.36
  -5  -4  -3   13.58    0.74
   5  -4   3   13.48    0.74
   5   4   3   12.56    0.66
   6  -4   3    4.60    0.52
  -6  -4  -3    3.77    0.46
   6   4   3    4.17    0.46
  -7  -4  -3   16.31    0.98
   7  -4   3   14.32    0.93
   7   4   3   14.72    0.88
   8  -4   3    6.07    0.68
  -8  -4  -3    5.60    0.68
   8   4   3    5.93    0.65
  -9  -4  -3    5.06    0.75
   9  -4   3    6.26    0.73
   9   4   3    4.72    0.72
  10  -4   3    1.43    0.72
  10   4   3    1.07    0.73
  11  -4   3    1.94    0.86
  11   4   3    1.07    0.83
  12  -5  -3    1.54    0.82
  12   5  -3    0.76    0.90
  11  -5  -3    2.38    0.72
  11   5  -3    1.81    0.82
  10  -5  -3    4.70    0.70
  10   5  -3    5.09    0.80
   9  -5  -3    6.20    0.68
   9  -5  -3    6.83    0.66
   9   5  -3    7.95    0.76
   8  -5  -3    7.74    0.77
   8  -5  -3    8.93    0.68
   8   5  -3    6.68    0.66
   7  -5  -3    2.99    0.44
   7  -5  -3    3.25    0.49
  -7  -5   3    3.16    0.42
   7   5  -3    3.37    0.48
   6  -5  -3   11.11    0.71
  -6  -5   3   11.91    0.66
   6  -5  -3   11.74    0.61
   6   5  -3   13.51    0.67
   5  -5  -3   38.98    1.37
  -5  -5   3   39.33    1.38
   5  -5  -3   38.33    1.43
   5   5  -3   38.59    1.33
   5   5  -3   41.49    1.41
  -4  -5   3   47.84    1.67
   4  -5  -3   49.38    1.67
   4  -5  -3   50.68    1.74
   4   5  -3   50.87    1.67
   4   5  -3   50.37    1.70
  -3  -5   3   62.92    2.07
   3  -5  -3   63.26    2.06
   3  -5  -3   65.03    2.13
   3   5  -3   63.59    2.11
   3   5  -3   61.44    2.09
   2  -5  -3   12.26    0.53
   2   5  -3   11.76    0.48
   2   5  -3   11.13    0.48
   1  -5  -3   60.35    2.04
   1   5  -3   62.07    2.03
   0  -5  -3   82.35    2.69
   0  -5   3   82.25    2.70
  -1  -5  -3   81.51    2.67
  -1  -5  -3   82.86    2.71
   1  -5   3   80.50    2.70
   1   5   3   83.10    2.65
   2  -5   3   82.45    2.74
  -2  -5  -3   80.97    2.68
  -2  -5  -3   82.06    2.75
   2   5   3   84.71    2.69
   3  -5   3  104.86    3.45
  -3  -5  -3  103.55    3.45
   3   5   3  103.77    3.40
  -4  -5  -3   30.09    1.19
   4  -5   3   31.60    1.19
   4   5   3   31.20    1.14
  -5  -5  -3    5.13    0.60
   5  -5   3    5.35    0.50
   5   5   3    6.05    0.50
   6  -5   3   32.27    1.38
  -6  -5  -3   35.00    1.42
   6   5   3   35.81    1.34
   7  -5   3    8.35    0.83
  -7  -5  -3    7.55    0.88
   7   5   3    8.93    0.73
  -8  -5  -3    2.33    0.57
   8  -5   3    3.30    0.62
   8   5   3    3.48    0.60
   9  -5   3    5.64    0.74
  -9  -5  -3    4.79    0.75
   9   5   3    4.21    0.73
  10  -5   3    6.62    0.87
 -10  -5  -3    6.46    0.88
  10   5   3    8.23    0.90
  11  -5   3    1.72    0.82
  11   5   3    0.92    0.83
  12  -6  -3    1.03    0.78
  12   6  -3    0.76    0.94
  11  -6  -3    3.58    0.74
  11   6  -3    3.17    0.87
  10  -6  -3    6.80    0.75
  10   6  -3    6.33    0.86
   9  -6  -3    2.13    0.55
   9  -6  -3    0.43    0.58
   9   6  -3    1.78    0.63
  -8  -6   3   12.70    0.86
   8  -6  -3   11.39    0.78
   8  -6  -3   11.78    0.86
   8   6  -3   11.58    0.82
   7  -6  -3   37.20    1.39
   7  -6  -3   35.86    1.45
  -7  -6   3   38.69    1.43
   7   6  -3   35.13    1.43
   6  -6  -3    6.51    0.49
  -6  -6   3    6.18    0.53
   6  -6  -3    6.22    0.61
   6   6  -3    5.29    0.48
   5  -6  -3    6.42    0.56
   5  -6  -3    6.45    0.43
  -5  -6   3    6.30    0.46
   5   6  -3    7.04    0.48
   5   6  -3    6.36    0.37
   4  -6  -3  154.20    4.99
  -4  -6   3  149.87    4.93
   4  -6  -3  150.38    4.92
   4   6  -3  155.50    4.97
  -3  -6   3  134.86    4.50
   3  -6  -3  140.18    4.48
   3  -6  -3  142.62    4.56
   3   6  -3  139.91    4.53
   2  -6  -3    4.02    0.37
   2   6  -3    4.20    0.30
   1  -6  -3   28.43    1.01
   1   6  -3   27.48    0.99
   0  -6  -3  203.38    6.65
   0  -6   3  209.54    6.66
   1  -6   3   31.44    1.12
  -1  -6  -3   31.25    1.13
  -1  -6  -3   29.84    1.09
   1   6   3   33.19    1.06
  -2  -6  -3    5.04    0.38
   2  -6   3    5.31    0.40
  -2  -6  -3    5.19    0.30
   2   6   3    4.36    0.30
   3  -6   3   57.67    2.03
  -3  -6  -3   60.55    2.04
   3   6   3   58.90    1.98
   4  -6   3   70.69    2.46
  -4  -6  -3   70.56    2.46
   4   6   3   73.37    2.41
  -5  -6  -3    3.89    0.43
   5  -6   3    3.62    0.49
   5   6   3    4.61    0.45
  -6  -6  -3    4.19    0.50
   6  -6   3    4.75    0.57
   6   6   3    4.46    0.52
  -7  -6  -3   15.75    1.04
   7  -6   3   15.78    1.00
   7   6   3   16.84    0.92
   8  -6   3    1.31    0.60
  -8  -6  -3    1.01    0.56
   8   6   3    0.77    0.56
   9  -6   3    2.04    0.65
  -9  -6  -3   -0.02    0.62
   9   6   3    0.91    0.66
  10  -6   3    4.37    0.80
 -10  -6  -3    4.57    0.82
  10   6   3    3.87    0.83
  11  -6   3    3.55    0.87
  11   6   3    2.56    0.88
  12  -7  -3    0.46    0.77
  12   7  -3    1.38    0.96
  11  -7  -3    2.11    0.72
  11   7  -3    1.64    0.86
  10  -7  -3    4.08    0.69
  10   7  -3    5.13    0.84
   9  -7  -3    3.91    0.60
  -9  -7   3    3.47    0.59
   9  -7  -3    2.87    0.65
   9   7  -3    4.92    0.72
   8  -7  -3    4.88    0.55
  -8  -7   3    4.25    0.51
   8  -7  -3    3.90    0.62
   8   7  -3    4.43    0.61
   7  -7  -3    3.25    0.45
   7  -7  -3    3.05    0.53
  -7  -7   3    2.46    0.42
   7   7  -3    3.42    0.50
   6  -7  -3   16.74    0.75
  -6  -7   3   17.65    0.79
   6  -7  -3   15.52    0.84
   6   7  -3   15.16    0.78
   5  -7  -3    2.21    0.41
  -5  -7   3    2.20    0.27
   5  -7  -3    2.51    0.30
   5   7  -3    1.94    0.33
  -4  -7   3   72.36    2.44
   4  -7  -3   76.42    2.52
   4  -7  -3   73.83    2.43
   4   7  -3   72.37    2.47
   3  -7  -3   14.28    0.68
  -3  -7   3   14.19    0.56
   3  -7  -3   14.13    0.55
   3   7  -3   14.04    0.61
   2  -7  -3    6.80    0.47
   2   7  -3    6.99    0.39
   1  -7  -3   53.73    1.81
   1   7  -3   52.64    1.79
   0  -7   3  109.94    3.59
   0  -7  -3  109.70    3.59
   1  -7   3   35.21    1.23
  -1  -7  -3   33.85    1.20
  -1  -7  -3   36.98    1.25
   1   7   3   32.72    1.16
  -2  -7  -3   47.85    1.65
  -2  -7  -3   45.37    1.57
   2  -7   3   46.07    1.63
   2   7   3   47.97    1.57
  -3  -7  -3   71.53    2.48
   3  -7   3   72.94    2.48
   3   7   3   73.82    2.42
  -4  -7  -3   25.40    1.05
   4  -7   3   24.06    1.06
   4   7   3   24.74    0.97
   5  -7   3    2.73    0.48
  -5  -7  -3    3.16    0.43
   5   7   3    3.99    0.44
  -6  -7  -3   37.57    1.54
   6  -7   3   37.97    1.55
   6   7   3   37.82    1.46
   7  -7   3   11.54    0.92
  -7  -7  -3   10.40    0.93
   7   7   3   11.98    0.85
  -8  -7  -3    3.81    0.66
   8  -7   3    3.39    0.66
   8   7   3    4.42    0.67
   9  -7   3    7.07    0.82
  -9  -7  -3    7.40    0.81
   9   7   3    6.74    0.82
  10  -7   3    6.73    0.86
 -10  -7  -3    5.39    0.86
  10   7   3    6.05    0.88
  12   8  -3    3.82    1.28
  11  -8  -3    5.24    0.93
  11   8  -3    5.40    0.92
  10  -8  -3    6.13    1.02
  10  -8  -3    7.22    0.74
  10   8  -3    7.08    0.89
   9  -8  -3    2.08    0.56
   9  -8  -3    1.84    0.65
   9   8  -3    2.07    0.67
   8  -8  -3    9.40    0.74
   8  -8  -3    9.22    0.88
  -8  -8   3   10.29    0.82
   8   8  -3    9.68    0.83
   7  -8  -3   20.87    0.95
   7  -8  -3   19.56    1.04
  -7  -8   3   23.37    1.01
   7   8  -3   18.73    0.96
   6  -8  -3    7.48    0.69
   6  -8  -3    8.66    0.58
  -6  -8   3    9.69    0.63
   6   8  -3    7.21    0.61
  -5  -8   3   14.54    0.66
   5  -8  -3   12.30    0.76
   5  -8  -3   13.26    0.62
   5   8  -3   13.47    0.67
   4  -8  -3   76.42    2.59
  -4  -8   3   74.80    2.51
   4  -8  -3   75.43    2.49
   4   8  -3   75.18    2.54
   3  -8  -3   77.26    2.54
   3  -8  -3   78.75    2.64
  -3  -8   3   77.90    2.57
   3   8  -3   77.01    2.60
   2  -8  -3   59.10    1.98
   2   8  -3   55.81    1.94
   1  -8  -3   30.75    1.13
   1   8  -3   30.53    1.10
   0  -8   3  192.30    6.23
   0  -8  -3  193.95    6.23
   0   8   3  190.67    6.16
   1  -8   3   57.05    1.93
  -1  -8  -3   57.25    1.91
   1   8   3   55.72    1.86
  -2  -8  -3   76.58    2.56
  -2  -8  -3   78.65    2.64
   2  -8   3   78.96    2.62
   2   8   3   77.22    2.55
   3  -8   3   30.88    1.17
  -3  -8  -3   28.80    1.05
  -3  -8  -3   31.05    1.18
   3   8   3   30.29    1.10
  -4  -8  -3   21.51    0.98
   4  -8   3   21.82    1.00
   4   8   3   24.25    0.93
   5  -8   3    7.57    0.74
  -5  -8  -3    9.11    0.72
   5   8   3    9.60    0.64
   6  -8   3    5.95    0.64
  -6  -8  -3    4.74    0.54
   6   8   3    4.70    0.56
  -7  -8  -3    8.05    0.91
   7  -8   3    9.59    0.90
   7   8   3    8.87    0.79
  -8  -8  -3    2.04    0.62
   8  -8   3    3.22    0.66
   8  -8   3    2.15    0.60
   8   8   3    2.13    0.63
  -9  -8  -3    3.94    0.75
   9  -8   3    5.42    0.77
   9   8   3    5.56    0.80
 -10  -8  -3    1.63    0.77
  10  -8   3    3.48    0.79
  10   8   3    2.06    0.81
  11   9  -3    2.62    0.88
  10  -9  -3    3.82    0.81
  10   9  -3    5.12    0.85
   9  -9  -3    1.71    0.71
   9   9  -3    3.40    0.73
   8  -9  -3    3.62    0.69
   8  -9  -3    5.88    0.60
   8   9  -3    4.64    0.67
   7  -9  -3    1.63    0.44
   7  -9  -3    1.53    0.55
  -7  -9   3    1.41    0.41
   7   9  -3    1.73    0.50
  -6  -9   3    6.73    0.61
   6  -9  -3    6.72    0.73
   6  -9  -3    7.53    0.57
   6   9  -3    6.09    0.61
  -5  -9   3    1.89    0.30
   5  -9  -3    1.76    0.32
   5  -9  -3    1.06    0.42
   5   9  -3    1.23    0.36
   4  -9  -3   11.29    0.71
  -4  -9   3   12.68    0.59
   4  -9  -3   12.43    0.57
   4   9  -3   11.43    0.62
   3  -9  -3   11.75    0.52
   3  -9  -3   12.46    0.69
  -3  -9   3   12.24    0.56
   3   9  -3   11.42    0.60
   2  -9  -3   18.10    0.82
   2   9  -3   18.62    0.76
   1  -9  -3   31.77    1.07
   1  -9  -3   32.98    1.20
   1   9  -3   31.55    1.16
   0  -9   3   42.26    1.46
   0  -9  -3   42.63    1.48
   0   9   3   40.34    1.38
   1  -9   3   20.56    0.81
  -1  -9  -3   19.96    0.78
   1   9   3   17.85    0.70
  -2  -9  -3   30.77    1.12
  -2  -9  -3   32.41    1.21
   2  -9   3   31.20    1.18
   2   9   3   31.29    1.10
  -3  -9  -3   19.22    0.76
   3  -9   3   20.51    0.90
  -3  -9  -3   19.82    0.90
   3   9   3   20.72    0.80
   4  -9   3   31.86    1.31
  -4  -9  -3   30.79    1.30
   4   9   3   33.76    1.22
   5  -9   3    7.87    0.76
  -5  -9  -3    7.83    0.71
   5   9   3    8.42    0.65
  -6  -9  -3   23.88    1.19
   6  -9   3   22.52    1.20
   6   9   3   24.37    1.11
   7  -9   3   11.62    0.99
  -7  -9  -3    9.07    0.96
   7   9   3   10.63    0.84
  -8  -9  -3    4.25    0.69
   8  -9   3    5.65    0.75
   8  -9   3    6.04    0.73
   8   9   3    5.09    0.73
  -9  -9  -3    2.96    0.73
   9  -9   3    4.99    0.81
   9   9   3    3.77    0.80
 -10  -9  -3    1.57    0.78
  10  -9   3    3.39    0.79
  10   9   3    3.08    0.85
  11  10  -3    2.79    0.91
  10 -10  -3   -0.23    0.74
  10  10  -3    1.04    0.79
   9 -10  -3    8.28    0.90
   9  10  -3    9.35    0.89
   8 -10  -3    6.21    0.77
   8  10  -3    5.56    0.72
  -7 -10   3    1.93    0.52
   7 -10  -3    3.08    0.64
   7  10  -3    2.78    0.56
  -6 -10   3    3.60    0.41
   6 -10  -3    3.75    0.59
   6  10  -3    3.98    0.51
  -5 -10   3   24.94    0.99
   5 -10  -3   22.28    1.08
   5  10  -3   22.39    0.99
  -4 -10   3   20.62    0.83
   4 -10  -3   18.08    0.94
   4  10  -3   19.43    0.85
   3 -10  -3    3.44    0.46
  -3 -10   3    3.09    0.30
   3  10  -3    3.63    0.38
   2 -10  -3   72.32    2.44
   2  10  -3   68.52    2.38
   1 -10  -3   18.71    0.67
   1 -10  -3   19.12    0.84
   1  10  -3   18.20    0.79
   0 -10   3   42.10    1.49
   0 -10  -3   41.91    1.51
   1 -10   3   21.18    0.86
  -1 -10  -3   20.93    0.84
   1  10   3   20.25    0.76
   2 -10   3   47.42    1.68
  -2 -10  -3   46.14    1.62
  -2 -10  -3   46.90    1.71
   2  10   3   47.48    1.60
   3 -10   3    5.34    0.56
  -3 -10  -3    5.17    0.57
   3  10   3    5.55    0.43
  -4 -10  -3    1.03    0.36
   4 -10   3    1.87    0.45
   4  10   3    1.15    0.36
   5 -10   3   11.57    0.86
  -5 -10  -3   13.22    0.84
   5  10   3    9.91    0.73
  -6 -10  -3    8.79    0.87
   6 -10   3    9.01    0.89
   6  10   3    8.24    0.76
   7 -10   3    5.91    0.73
  -7 -10  -3    4.32    0.65
   7 -10   3    6.32    0.73
   7  10   3    5.23    0.66
   8 -10   3    2.11    0.69
  -8 -10  -3    1.30    0.61
   8 -10   3    1.60    0.66
   8  10   3    0.87    0.65
  -9 -10  -3    2.35    0.74
   9 -10   3    3.94    0.80
   9  10   3    3.27    0.78
  10 -10   3    1.25    0.79
 -10 -10  -3    0.96    0.78
  10  10   3    1.15    0.80
  11  11  -3    1.37    0.92
  10 -11  -3    0.26    0.80
  10  11  -3    0.72    0.81
   9 -11  -3    0.11    0.74
   9  11  -3    1.56    0.74
   8 -11  -3    3.71    0.77
   8  11  -3    6.38    0.75
   7 -11  -3   -0.38    0.60
   7  11  -3    0.13    0.53
  -6 -11   3    4.02    0.45
   6 -11  -3    4.57    0.65
   6  11  -3    3.80    0.54
  -5 -11   3    1.29    0.33
   5 -11  -3    1.55    0.51
   5  11  -3    1.65    0.44
  -4 -11   3    3.06    0.35
   4 -11  -3    3.54    0.53
   4  11  -3    4.30    0.46
  -3 -11   3   12.62    0.64
   3 -11  -3   12.46    0.78
   3  11  -3   11.70    0.67
   2 -11  -3    9.70    0.69
   2  11  -3   10.02    0.61
   1 -11  -3    6.29    0.57
   0 -11   3   10.27    0.57
   0 -11  -3   10.04    0.63
   1 -11   3   16.59    0.78
  -1 -11  -3   16.47    0.75
  -2 -11  -3   10.29    0.58
  -2 -11  -3   10.52    0.69
   2 -11   3   10.21    0.65
  -3 -11  -3    0.46    0.34
   3 -11   3    0.44    0.37
   4 -11   3   20.36    1.02
  -4 -11  -3   20.15    1.02
   4  11   3   20.33    0.89
   5 -11   3    8.25    0.84
  -5 -11  -3    8.95    0.83
   5  11   3    8.60    0.68
   6 -11   3    3.35    0.65
  -6 -11  -3    2.74    0.58
   6  11   3    3.40    0.56
   7 -11   3    4.69    0.73
  -7 -11  -3    2.92    0.62
   7 -11   3    4.41    0.73
   7  11   3    5.12    0.66
   8 -11   3    8.93    0.89
   8 -11   3    9.08    1.00
  -8 -11  -3    7.16    0.81
   8  11   3    9.60    0.96
   9 -11   3    0.93    0.71
  -9 -11  -3    0.68    0.71
   9  11   3    1.47    0.74
  10 -12  -3   -1.22    0.82
  10  12  -3    0.30    0.84
   9 -12  -3    6.95    0.95
   9  12  -3    9.05    0.93
   8 -12  -3    4.73    0.81
   8  12  -3    4.38    0.75
   7 -12  -3    0.14    0.69
   7  12  -3   -0.13    0.57
   6 -12  -3    6.58    0.74
   6  12  -3    6.17    0.66
  -5 -12   3   19.79    0.93
   5 -12  -3   18.44    1.07
   5  12  -3   17.96    0.92
  -4 -12   3   10.95    0.67
   4 -12  -3    9.81    0.81
   4  12  -3   10.78    0.69
  -3 -12   3    7.72    0.57
   3 -12  -3    6.98    0.70
   3  12  -3    7.26    0.59
   2 -12  -3   40.41    1.58
   2  12  -3   41.55    1.52
   1 -12  -3   25.57    1.10
   0 -12   3    1.74    0.33
   0 -12  -3    1.75    0.39
   1 -12   3   14.15    0.75
  -1 -12  -3   14.33    0.74
  -2 -12  -3   17.71    0.90
  -2 -12  -3   17.12    0.79
   2 -12   3   16.27    0.84
   3 -12   3    1.10    0.41
  -3 -12  -3    0.97    0.39
  -4 -12  -3    3.57    0.51
   4 -12   3    3.03    0.52
   5 -12   3    9.11    0.76
  -5 -12  -3    8.44    0.88
   6 -12   3    7.33    0.79
  -6 -12  -3    6.66    0.72
   7 -12   3    2.06    0.69
   7 -12   3    1.16    0.68
  -7 -12  -3    0.22    0.58
  -8 -12  -3    0.83    0.66
   8 -12   3    1.72    0.71
   8 -12   3    2.09    0.77
  -9 -12  -3    0.61    0.74
   9 -12   3    1.43    1.15
   9 -12   3    2.66    0.78
  10 -13  -3   -0.06    0.89
  10  13  -3    0.66    0.88
   9 -13  -3   -0.44    0.81
   9  13  -3    1.13    0.80
   8 -13  -3    3.99    0.86
   8  13  -3    5.51    0.81
   7 -13  -3    1.04    0.75
   7  13  -3    0.77    0.63
   6 -13  -3    2.83    0.71
   6  13  -3    2.77    0.59
   5 -13  -3    2.20    0.63
   5  13  -3    2.71    0.52
  -4 -13   3    1.66    0.37
   4 -13  -3    1.29    0.57
   4  13  -3    1.77    0.45
  -3 -13   3    3.21    0.40
   3 -13  -3    3.71    0.56
   3  13  -3    3.22    0.47
   2 -13  -3    0.59    0.46
   2  13  -3    0.42    0.36
   1 -13  -3   11.32    0.79
  -1 -13   3   11.90    0.67
   0 -13  -3    5.15    0.53
   0 -13   3    5.14    0.47
  -1 -13  -3   11.12    0.70
   1 -13   3   11.37    0.69
  -2 -13  -3    0.47    0.37
   2 -13   3    0.40    0.37
  -2 -13  -3    1.01    0.40
  -3 -13  -3    1.48    0.45
   3 -13   3    2.17    0.46
   4 -13   3    8.04    0.71
  -4 -13  -3    7.93    0.82
   5 -13   3    5.94    0.71
  -5 -13  -3    6.35    0.68
  -6 -13  -3    0.46    0.57
   6 -13   3    0.81    0.62
   7 -13   3    2.93    0.74
  -7 -13  -3    1.49    0.66
   7 -13   3    3.09    0.76
   8 -13   3    5.13    0.90
  -8 -13  -3    3.17    0.76
   8 -13   3    5.18    0.82
   9 -14  -3    4.25    0.96
   9  14  -3    3.98    0.87
   8 -14  -3    3.32    0.88
   8  14  -3    3.86    0.81
   7 -14  -3    2.86    0.84
   7  14  -3    3.18    0.71
   6 -14  -3    3.11    0.78
   6  14  -3    4.00    0.64
   5 -14  -3    8.98    0.88
   5  14  -3    9.37    0.83
   4 -14  -3    5.56    0.73
  -4 -14   3    5.14    0.71
   4  14  -3    5.62    0.61
   3 -14  -3    9.40    0.88
  -3 -14   3    9.27    0.69
   3  14  -3    8.95    0.74
   2 -14  -3    6.91    0.69
   2  14  -3    6.11    0.56
  -1 -14   3    2.47    0.40
   1 -14  -3    1.82    0.50
   0 -14   3    7.63    0.61
   0 -14  -3    6.46    0.69
   1 -14   3    3.96    0.48
  -1 -14  -3    4.32    0.52
   2 -14   3    7.08    0.60
  -2 -14  -3    6.43    0.61
  -3 -14  -3    0.42    0.46
   3 -14   3    0.10    0.44
  -4 -14  -3    4.35    0.61
   4 -14   3    4.83    0.63
  -5 -14  -3    3.56    0.64
   5 -14   3    2.61    0.65
   6 -14   3    1.74    0.73
  -6 -14  -3    0.51    0.62
   6 -14   3    1.72    0.68
   7 -14   3    4.28    0.81
   7 -14   3    4.15    0.84
  -7 -14  -3    3.39    0.75
  -8 -14  -3    0.04    0.69
   8 -14   3    2.19    0.77
   8 -14   3    0.38    0.83
   9 -15  -3   -1.49    0.89
   9  15  -3   -0.51    0.84
   8 -15  -3   -0.93    0.84
   8  15  -3    1.28    0.78
   7 -15  -3   -0.05    0.83
   7  15  -3    0.64    0.68
   6 -15  -3    2.37    0.84
   6  15  -3    3.62    0.68
   5 -15  -3    0.25    0.72
   5  15  -3    0.97    0.55
   4 -15  -3    6.09    0.80
   4  15  -3    5.63    0.64
  -3 -15   3    0.90    0.41
   3 -15  -3    1.19    0.64
   3  15  -3    1.48    0.50
   2 -15  -3    1.80    0.61
   1 -15  -3    1.68    0.53
  -1 -15   3    1.41    0.39
   0 -15  -3    3.36    0.56
   0 -15   3    3.98    0.48
   1 -15   3   10.96    0.77
  -1 -15  -3    9.79    0.78
   2 -15   3    2.15    0.48
  -2 -15  -3    2.34    0.53
  -3 -15  -3    2.12    0.56
   3 -15   3    2.17    0.53
  -4 -15  -3    1.82    0.58
   4 -15   3    2.02    0.58
  -5 -15  -3    1.96    0.63
   5 -15   3    1.71    0.64
  -6 -15  -3    3.09    0.72
   6 -15   3    5.29    0.84
   6 -15   3    3.78    0.77
  -7 -15  -3    2.26    0.75
   7 -15   3    4.61    0.90
   7 -15   3    2.81    0.79
   8 -16  -3    1.42    0.94
   8  16  -3    1.94    0.80
   7 -16  -3    3.09    0.95
   7  16  -3    4.70    0.80
   6 -16  -3    1.24    0.87
   6  16  -3    3.16    0.71
   5 -16  -3    0.24    0.78
   5  16  -3    1.15    0.63
   4 -16  -3   10.87    1.00
   4  16  -3    9.87    0.89
   3 -16  -3    9.09    0.90
   3  16  -3    7.47    0.70
   2 -16  -3   -0.22    0.60
  -2 -16   3    0.38    0.40
   1 -16  -3    3.91    0.65
  -1 -16   3    3.20    0.48
   0 -16  -3   14.34    0.97
   0 -16   3   13.03    0.84
   1 -16   3    2.98    0.53
  -1 -16  -3    3.02    0.56
  -2 -16  -3    4.54    0.62
   2 -16   3    4.00    0.58
   3 -16   3    3.82    0.60
  -3 -16  -3    5.14    0.68
  -4 -16  -3    1.17    0.60
   4 -16   3    1.20    0.60
   5 -16   3    0.43    0.69
   5 -16   3    2.34    0.76
  -5 -16  -3    0.95    0.65
  -6 -16  -3    0.58    0.68
   6 -16   3    1.72    0.79
   7 -16   3    5.67    0.99
  -7 -16  -3    3.86    0.83
   7 -17  -3   -1.06    0.92
   7  17  -3    0.87    0.75
   6 -17  -3   -0.13    0.91
   6  17  -3    1.67    0.72
   5 -17  -3    0.33    0.85
   5  17  -3    1.37    0.66
   4 -17  -3    4.43    0.89
   4  17  -3    4.20    0.67
   3 -17  -3    0.21    0.73
   3  17  -3   -0.72    0.53
  -2 -17   3    0.47    0.43
   2 -17  -3   -0.82    0.65
   1 -17  -3    5.26    0.75
  -1 -17   3    4.37    0.53
   0 -17   3    0.21    0.44
   0 -17  -3   -0.11    0.58
   1 -17   3    1.34    0.50
  -2 -17  -3    2.91    0.60
  -3 -17  -3    2.82    0.65
  -4 -17  -3   -0.14    0.61
   4 -17   3    0.79    0.75
  -5 -17  -3   -0.24    0.65
   5 -17   3    0.66    0.77
  -6 -17  -3    2.12    0.76
   6 -17   3    2.94    0.89
   6 -18  -3    0.76    0.96
   5 -18  -3   -0.45    0.90
   4 -18  -3    4.27    0.97
   3 -18  -3    4.59    0.89
   2 -18  -3   -0.88    0.71
   1 -18  -3    1.51    0.71
   0 -18  -3    6.35    0.80
  -2 -18  -3    0.05    0.57
  -3 -18  -3    5.43    0.76
   3 -18   3    7.10    0.94
  -4 -18  -3    0.63    0.65
   4 -18   3    1.86    0.81
   5 -18   3    1.09    0.84
  -5 -18  -3   -0.37    0.68
   5 -19  -3   -0.27    0.96
   4 -19  -3    0.51    0.94
   3 -19  -3   -0.20    0.85
   2 -19  -3   -0.27    0.79
   1 -19  -3    3.09    0.82
   0 -19  -3    0.06    0.84
  -1 -19  -3    0.72    0.60
   1 -19   3    1.60    0.74
  -2 -19  -3    1.89    0.66
   2 -19   3    2.99    0.83
  -3 -19  -3    2.35    0.71
   3 -19   3    4.47    0.90
  -4 -19  -3    0.03    0.68
   4 -19   3    1.57    0.96
   4 -20  -3    1.74    1.02
   3 -20  -3    0.58    0.92
   2 -20  -3   -0.21    0.84
  -1 -20   3    1.51    0.72
   1 -20  -3    0.81    0.82
   0 -20   3    4.74    0.84
   1 -20   3    1.61    0.81
  -1 -20  -3    1.01    0.67
  -2 -20  -3    1.74    0.70
   2 -20   3    2.75    0.86
  13   0  -4    4.03    0.99
  12   0  -4    3.70    0.89
  11   0  -4    1.35    0.72
  10   0  -4    2.55    0.68
   9   0  -4   36.65    1.50
   8   0  -4    6.00    0.63
   7   0  -4    3.11    0.44
   7   0  -4    2.53    0.42
   6   0  -4   10.60    0.64
   6   0  -4   11.68    0.62
   5   0  -4   65.47    2.21
   5   0  -4   65.80    2.20
   4   0  -4   69.04    2.31
   4   0  -4   69.24    2.28
   3   0  -4   11.96    0.45
   3   0  -4   11.03    0.50
   2   0  -4   33.55    1.10
   2   0  -4   32.23    1.13
   1   0  -4    3.91    0.19
   1   0  -4    3.77    0.26
   0   0  -4  226.85    7.04
   0   0  -4  216.16    7.05
   0   0   4  215.34    7.03
  -1   0  -4   33.18    1.13
  -1   0  -4   32.43    1.11
   1   0   4   32.64    1.13
  -2   0  -4   26.88    0.97
   2   0   4   26.39    0.96
  -2   0  -4   25.89    0.92
   3   0   4    1.42    0.27
  -3   0  -4    0.77    0.22
  -4   0  -4   71.34    2.42
   4   0   4   69.26    2.39
  -5   0  -4    6.01    0.63
   6   0   4    4.40    0.51
   7   0   4   18.57    0.99
   8   0   4    5.61    0.67
   9   0   4    5.27    0.75
  10   0   4   12.28    1.09
  11   0   4    5.17    0.91
  13  -1  -4    4.96    0.99
  13   1  -4    6.05    1.03
  12  -1  -4    2.71    0.84
  12   1  -4    1.79    0.88
  11  -1  -4    0.96    0.73
  11   1  -4    0.06    0.74
  10  -1  -4   11.80    0.95
   9  -1  -4    1.57    0.56
   9   1  -4    2.53    0.59
   8  -1  -4   23.29    1.08
   8  -1  -4   23.86    1.09
   8   1  -4   22.80    1.10
   7  -1  -4   19.65    0.93
   7  -1  -4   22.07    0.97
   7   1  -4   20.48    0.95
   7   1  -4   22.95    0.90
   6  -1  -4   34.45    1.30
   6  -1  -4   33.64    1.28
   6   1  -4   35.56    1.28
   6   1  -4   35.50    1.26
   5  -1  -4    9.04    0.49
   5  -1  -4    8.26    0.53
   5   1  -4    9.65    0.51
   5   1  -4   10.20    0.49
   4  -1  -4   93.11    3.19
   4  -1  -4   99.46    3.23
   4   1  -4   98.32    3.21
   4   1  -4  101.97    3.22
   3  -1  -4  119.17    3.88
   3  -1  -4  117.68    3.92
   3   1  -4  121.90    3.91
   3   1  -4  123.00    3.90
   2  -1  -4  102.79    3.38
   2  -1  -4  103.04    3.34
   2   1  -4  102.90    3.38
   2   1  -4  106.12    3.35
   1  -1  -4    3.16    0.26
   1   1  -4    3.65    0.17
   1   1  -4    3.67    0.21
   1   1  -4    3.66    0.25
   0  -1   4  137.55    4.41
   0  -1  -4  139.82    4.41
   0  -1  -4  135.19    4.42
   0   1   4  138.89    4.40
   0   1  -4  137.04    4.40
   0   1  -4  132.12    4.42
   1  -1   4  128.35    4.16
  -1  -1  -4  133.09    4.17
  -1  -1  -4  125.82    4.15
  -1   1  -4  128.06    4.16
  -1   1  -4  127.36    4.16
   1   1   4  127.64    4.15
   2  -1   4  116.17    3.83
  -2  -1  -4  119.14    3.84
  -2  -1  -4  115.22    3.80
  -2   1  -4  117.57    3.84
  -2   1  -4  115.34    3.81
   2   1   4  121.02    3.83
   3  -1   4    4.45    0.42
  -3  -1  -4    3.90    0.27
  -3  -1  -4    4.80    0.42
  -3   1  -4    4.80    0.41
   3   1   4    4.80    0.38
   4  -1   4   80.42    2.71
  -4  -1  -4   80.34    2.72
   4   1   4   78.38    2.69
  -4   1  -4   80.36    2.71
   5  -1   4   34.18    1.35
  -5  -1  -4   34.70    1.36
   5   1   4   35.45    1.33
  -6  -1  -4    1.76    0.43
   6  -1   4    1.87    0.45
   6   1   4    1.23    0.41
   7  -1   4    4.50    0.58
  -7  -1  -4    4.54    0.57
   7   1   4    4.53    0.58
   8  -1   4   11.15    0.90
   8   1   4   10.93    0.86
   9  -1   4    3.22    0.67
   9   1   4    2.60    0.67
  10  -1   4    2.38    0.76
  10   1   4    2.03    0.74
  11  -1   4    4.42    0.91
  11   1   4    3.45    0.88
  13  -2  -4    3.87    0.95
  13   2  -4    6.00    1.08
  12  -2  -4    6.91    0.94
  12   2  -4    6.07    0.98
  11  -2  -4    2.44    0.74
  11   2  -4    2.26    0.79
  10  -2  -4    4.30    0.71
  10   2  -4    3.84    0.72
   9  -2  -4   14.42    0.94
   9   2  -4   14.16    0.95
   8  -2  -4    7.03    0.61
   8  -2  -4    5.14    0.62
   8   2  -4    3.88    0.61
   7  -2  -4   31.93    1.22
   7  -2  -4   27.93    1.15
   7   2  -4   27.57    1.17
   7   2  -4   28.94    1.10
   6  -2  -4   13.96    0.69
   6  -2  -4   14.67    0.77
   6   2  -4   14.35    0.66
   6   2  -4   15.51    0.71
   5  -2  -4   32.88    1.22
   5  -2  -4   33.62    1.17
   5   2  -4   33.43    1.19
   5   2  -4   31.94    1.17
   4  -2  -4  115.93    3.79
   4  -2  -4  114.59    3.75
   4   2  -4  117.32    3.77
   4   2  -4  114.58    3.77
   3  -2  -4    7.07    0.43
   3  -2  -4    7.38    0.32
   3   2  -4    7.22    0.36
   3   2  -4    7.85    0.38
   2  -2  -4   31.48    1.05
   2  -2  -4   31.46    1.12
   2   2  -4   32.28    1.11
   2   2  -4   32.77    1.09
   1  -2  -4   20.49    0.76
  -1   2   4   20.78    0.69
   1   2  -4   20.55    0.75
   1   2  -4   20.97    0.73
   0  -2  -4   91.27    2.96
   0  -2  -4   91.92    2.96
   0  -2   4   88.16    2.95
   0   2   4   92.83    2.93
   0   2  -4   89.67    2.96
  -1  -2  -4   14.83    0.57
  -1  -2  -4   15.53    0.60
   1  -2   4   15.26    0.60
  -1   2  -4   15.44    0.59
   1   2   4   15.86    0.58
  -2  -2  -4    5.91    0.38
  -2  -2  -4    5.98    0.30
   2  -2   4    5.56    0.38
   2   2   4    5.48    0.35
  -3  -2  -4   35.82    1.23
  -3  -2  -4   37.86    1.33
   3  -2   4   37.06    1.33
   3   2   4   36.62    1.30
   4  -2   4   74.70    2.52
  -4  -2  -4   74.91    2.53
   4   2   4   71.15    2.48
  -5  -2  -4   15.61    0.81
   5  -2   4   14.58    0.78
   5   2   4   13.19    0.73
  -6  -2  -4   13.12    0.82
   6  -2   4   13.51    0.83
   6   2   4   12.82    0.78
  -7  -2  -4   15.95    1.00
   7  -2   4   12.72    0.89
   7   2   4   13.37    0.87
   8  -2   4    4.17    0.62
   8   2   4    4.10    0.64
   9  -2   4    6.80    0.79
   9   2   4    7.35    0.78
  10  -2   4    5.00    0.80
  10   2   4    4.36    0.79
  11  -2   4    3.36    0.87
  11   2   4    2.14    0.84
  12  -3  -4    3.79    0.85
  12   3  -4    3.41    0.94
  11  -3  -4    2.72    0.76
  11   3  -4    2.28    0.82
  10  -3  -4    1.43    0.65
  10   3  -4    2.13    0.68
   9  -3  -4    9.08    0.82
   9   3  -4   10.34    0.86
   8  -3  -4   54.81    1.88
   8  -3  -4   47.04    1.81
   8   3  -4   46.77    1.83
   7  -3  -4   18.95    0.89
   7  -3  -4   21.46    0.99
   7   3  -4   20.36    0.93
   6  -3  -4   34.31    1.25
   6  -3  -4   33.43    1.31
   6   3  -4   33.70    1.22
   6   3  -4   36.21    1.29
   5  -3  -4    9.67    0.60
   5  -3  -4   10.38    0.50
   5   3  -4   10.28    0.53
   5   3  -4   10.33    0.49
   4  -3  -4   40.22    1.50
   4  -3  -4   39.43    1.43
   4   3  -4   43.89    1.46
   4   3  -4   45.97    1.46
   3  -3  -4   62.33    2.01
   3  -3  -4   59.70    2.08
   3   3  -4   61.47    2.05
   3   3  -4   63.54    2.05
   2  -3  -4   13.73    0.58
   2  -3  -4   13.60    0.47
   2   3  -4   14.04    0.53
   2   3  -4   13.36    0.54
   1  -3  -4    9.43    0.41
   1   3  -4    7.77    0.36
   1   3  -4    8.02    0.39
   0  -3  -4  231.84    7.30
   0  -3   4  220.39    7.29
   0  -3  -4  227.91    7.29
   0   3   4  231.12    7.26
   0   3  -4  223.06    7.30
  -1  -3  -4  202.52    6.60
   1  -3   4  198.69    6.62
  -1  -3  -4  204.23    6.63
   1   3   4  216.55    6.60
   2  -3   4   43.42    1.49
  -2  -3  -4   44.98    1.49
  -2  -3  -4   42.20    1.42
   2   3   4   40.44    1.45
   3  -3   4   62.65    2.06
  -3  -3  -4   58.68    2.06
  -3  -3  -4   59.40    1.97
   3   3   4   59.48    2.02
  -4  -3  -4   59.30    2.02
   4  -3   4   58.74    2.01
   4   3   4   54.18    1.96
  -5  -3  -4   19.72    0.96
   5  -3   4   19.75    0.93
   5   3   4   20.60    0.89
  -6  -3  -4   13.03    0.87
   6  -3   4   11.47    0.78
   6   3   4   11.63    0.74
  -7  -3  -4    5.36    0.61
   7  -3   4    6.46    0.65
   7   3   4    5.54    0.61
   8  -3   4    7.51    0.73
  -8  -3  -4    6.45    0.72
   8   3   4    7.17    0.70
   9  -3   4    9.92    0.97
   9   3   4    7.41    0.80
  10  -3   4    4.10    0.79
  10   3   4    3.54    0.79
  11  -3   4    1.36    0.90
  11   3   4    1.52    0.83
  12  -4  -4    1.47    0.80
  12   4  -4    2.29    0.92
  11  -4  -4    5.87    0.83
  11   4  -4    5.20    0.89
  10  -4  -4    3.00    0.65
  10   4  -4    2.99    0.73
   9  -4  -4    0.52    0.57
   9  -4  -4    0.72    0.53
   9   4  -4    0.83    0.58
   8  -4  -4    5.26    0.64
   8  -4  -4    6.96    0.64
   8   4  -4    5.54    0.63
   7  -4  -4   44.52    1.64
   7  -4  -4   44.02    1.57
   7   4  -4   41.16    1.59
   6  -4  -4   10.28    0.68
   6  -4  -4   10.34    0.56
   6   4  -4   10.58    0.59
   6   4  -4   10.52    0.52
   5  -4  -4   21.62    0.82
   5  -4  -4   22.23    0.92
  -5  -4   4   21.40    0.82
   5   4  -4   21.05    0.81
   5   4  -4   21.57    0.85
   4  -4  -4  124.57    4.01
  -4  -4   4  120.51    4.00
   4  -4  -4  126.35    4.08
   4   4  -4  122.24    4.03
   4   4  -4  126.07    4.05
   3  -4  -4   97.61    3.20
   3  -4  -4   97.76    3.12
   3   4  -4   95.03    3.17
   3   4  -4   97.25    3.18
   2  -4  -4   11.64    0.54
   2   4  -4   11.93    0.50
   2   4  -4   12.46    0.49
   1  -4  -4   56.80    1.90
   1   4  -4   55.85    1.89
   1   4  -4   57.33    1.88
   0  -4   4   64.71    2.10
   0  -4  -4   62.77    2.10
   0  -4  -4   64.67    2.11
   0   4  -4   62.16    2.11
   0   4   4   62.48    2.05
  -1  -4  -4    8.70    0.41
   1  -4   4   10.24    0.45
  -1  -4  -4   10.95    0.46
   1   4   4    7.63    0.37
  -2  -4  -4   89.17    2.91
  -2  -4  -4   85.01    2.84
   2  -4   4   87.39    2.90
   2   4   4   88.31    2.86
   3  -4   4   20.07    0.82
  -3  -4  -4   17.74    0.69
  -3  -4  -4   20.08    0.83
   3   4   4   19.94    0.76
  -4  -4  -4   16.13    0.77
   4  -4   4   16.07    0.77
   4   4   4   15.12    0.70
  -5  -4  -4    7.19    0.62
   5  -4   4    7.73    0.66
   5   4   4    7.74    0.57
  -6  -4  -4   10.87    0.84
   6  -4   4   11.11    0.79
   6   4   4   11.27    0.74
  -7  -4  -4    2.62    0.53
   7  -4   4    3.52    0.58
   7   4   4    3.20    0.52
   8  -4   4    5.79    0.70
  -8  -4  -4    6.06    0.72
   8   4   4    6.64    0.69
   9  -4   4   16.47    1.09
  -9  -4  -4   17.04    1.27
   9   4   4   17.19    1.10
  10  -4   4    2.14    0.77
  10   4   4    2.13    0.75
  11  -4   4    1.87    1.20
  11   4   4    1.56    0.85
  12  -5  -4    3.53    0.84
  12   5  -4    2.67    0.98
  11  -5  -4    7.64    0.83
  11   5  -4    4.76    0.91
  10  -5  -4    1.14    0.62
  10   5  -4    0.54    0.72
   9  -5  -4    1.54    0.53
   9  -5  -4    0.69    0.59
   9   5  -4    1.42    0.61
   8  -5  -4   67.56    2.35
   8  -5  -4   69.45    2.42
   8   5  -4   64.11    2.38
   7  -5  -4   13.71    0.73
   7  -5  -4   15.05    0.86
   7   5  -4   13.29    0.75
   6  -5  -4    4.63    0.43
  -6  -5   4    5.58    0.48
   6  -5  -4    4.64    0.51
   6   5  -4    4.87    0.39
   6   5  -4    4.78    0.45
   5  -5  -4   74.37    2.42
  -5  -5   4   70.53    2.42
   5  -5  -4   73.60    2.50
   5   5  -4   72.88    2.46
   5   5  -4   74.25    2.43
  -4  -5   4  182.03    6.00
   4  -5  -4  187.30    6.00
   4  -5  -4  188.45    6.08
   4   5  -4  191.28    6.06
   4   5  -4  185.33    6.03
  -3  -5   4   18.47    0.65
   3  -5  -4   19.06    0.64
   3  -5  -4   17.09    0.78
   3   5  -4   19.55    0.73
   3   5  -4   18.80    0.72
   2  -5  -4   10.94    0.54
   2   5  -4   10.60    0.47
   2   5  -4   11.10    0.49
   1  -5  -4  158.82    5.19
   1   5  -4  162.73    5.18
   1   5  -4  158.58    5.19
   0  -5   4  152.07    4.93
   0  -5  -4  152.18    4.92
   1  -5   4   40.26    1.43
  -1  -5  -4   41.67    1.40
  -1  -5  -4   43.26    1.45
   1   5   4   40.41    1.37
  -2  -5  -4   88.74    2.90
  -2  -5  -4   92.11    2.97
   2  -5   4   91.27    2.96
   2   5   4   84.24    2.90
  -3  -5  -4  126.33    4.06
   3  -5   4  123.78    4.05
   3   5   4  117.63    3.99
  -4  -5  -4   16.85    0.81
   4  -5   4   17.92    0.82
   4   5   4   16.70    0.74
  -5  -5  -4    3.67    0.45
   5  -5   4    3.65    0.48
   5   5   4    3.90    0.42
  -6  -5  -4   23.60    1.13
   6  -5   4   23.28    1.14
   6   5   4   22.62    1.03
  -7  -5  -4    3.81    0.58
   7  -5   4    4.07    0.62
   7   5   4    4.81    0.58
   8  -5   4    5.44    0.72
  -8  -5  -4    4.15    0.67
   8   5   4    5.48    0.67
   9  -5   4    6.41    0.77
  -9  -5  -4    4.65    0.78
   9   5   4    5.21    0.75
 -10  -5  -4    4.51    0.85
  10  -5   4    5.07    0.82
  10   5   4    3.86    0.82
  12  -6  -4    1.64    0.80
  12   6  -4    0.69    0.94
  11  -6  -4    3.80    0.76
  11   6  -4    4.26    0.91
  10  -6  -4    5.68    0.71
  10   6  -4    6.55    0.85
   9  -6  -4    2.15    0.62
   9  -6  -4    1.45    0.54
   9   6  -4    2.35    0.63
   8  -6  -4    5.31    0.55
   8  -6  -4    4.46    0.64
   8   6  -4    5.11    0.61
   7  -6  -4    9.73    0.82
  -7  -6   4   13.07    0.74
   7  -6  -4   11.69    0.68
   7   6  -4   10.99    0.73
   6  -6  -4    4.40    0.53
  -6  -6   4    5.19    0.49
   6  -6  -4    4.55    0.44
   6   6  -4    3.99    0.44
   6   6  -4    4.49    0.42
   5  -6  -4   10.51    0.68
  -5  -6   4   10.65    0.52
   5  -6  -4    9.89    0.51
   5   6  -4   10.21    0.58
   5   6  -4   11.26    0.53
   4  -6  -4   44.21    1.58
  -4  -6   4   43.04    1.46
   4  -6  -4   43.22    1.45
   4   6  -4   42.38    1.49
   4   6  -4   44.13    1.52
   3  -6  -4   47.69    1.62
  -3  -6   4   45.23    1.51
   3   6  -4   45.55    1.57
   3   6  -4   44.71    1.57
   2  -6  -4   28.37    1.07
   2   6  -4   28.90    1.03
   1  -6  -4   14.37    0.65
   1   6  -4   15.53    0.61
   0  -6   4   61.16    2.05
   0  -6  -4   61.19    2.05
   1  -6   4    4.19    0.34
  -1  -6  -4    2.96    0.28
   1   6   4    2.72    0.22
  -2  -6  -4   58.34    2.03
  -2  -6  -4   57.93    1.95
   2  -6   4   58.13    2.02
   2   6   4   61.03    1.95
  -3  -6  -4    8.71    0.43
   3  -6   4   11.37    0.62
   3   6   4   10.62    0.51
   4  -6   4    2.73    0.42
  -4  -6  -4    2.17    0.35
   4   6   4    2.87    0.34
  -5  -6  -4   12.38    0.80
   5  -6   4   11.91    0.82
   5   6   4   14.68    0.72
  -6  -6  -4    8.55    0.80
   6  -6   4   10.02    0.82
   6   6   4   10.45    0.73
  -7  -6  -4    5.19    0.64
   7  -6   4    5.61    0.68
   7   6   4    5.94    0.62
  -8  -6  -4    1.31    0.60
   8  -6   4    1.87    0.63
   8   6   4    1.65    0.60
   9  -6   4    8.51    0.87
  -9  -6  -4    7.57    0.85
   9   6   4    8.95    0.86
  10  -6   4    1.25    0.74
 -10  -6  -4    0.01    0.73
  10   6   4    0.67    0.76
  12   7  -4    2.13    0.95
  11  -7  -4    6.96    0.95
  11   7  -4    6.23    0.93
  10  -7  -4    1.28    0.60
  10  -7  -4    0.00    0.74
  10   7  -4    0.57    0.72
   9  -7  -4    1.08    0.53
   9  -7  -4    0.92    0.63
   9   7  -4    2.67    0.65
   8  -7  -4   16.20    0.85
   8  -7  -4   13.79    0.98
   8   7  -4   15.21    0.93
   7  -7  -4    6.53    0.66
   7  -7  -4    6.57    0.56
  -7  -7   4    7.54    0.65
   7   7  -4    5.90    0.58
  -6  -7   4   15.18    0.72
   6  -7  -4   14.91    0.68
   6  -7  -4   14.28    0.85
   6   7  -4   13.17    0.74
   5  -7  -4   41.81    1.42
  -5  -7   4   40.41    1.43
   5  -7  -4   40.82    1.56
   5   7  -4   41.42    1.49
   4  -7  -4  137.61    4.36
  -4  -7   4  132.27    4.37
   4  -7  -4  135.16    4.46
   4   7  -4  135.16    4.43
  -3  -7   4    8.02    0.36
   3  -7  -4    7.62    0.54
   3   7  -4    8.13    0.45
   2  -7  -4   30.50    1.14
   2   7  -4   29.72    1.09
   1  -7  -4  245.57    7.90
   1   7  -4  243.90    7.89
   0  -7  -4   49.76    1.72
   0  -7   4   50.97    1.73
   1  -7   4   59.38    2.03
  -1  -7  -4   60.69    2.05
  -1  -7  -4   58.42    2.00
   1   7   4   60.00    1.95
  -2  -7  -4   52.20    1.77
  -2  -7  -4   52.78    1.84
   2  -7   4   52.93    1.83
   2   7   4   52.29    1.76
   3  -7   4   59.47    2.10
  -3  -7  -4   61.89    2.11
  -3  -7  -4   58.39    1.99
   3   7   4   60.99    2.03
  -4  -7  -4   15.56    0.83
   4  -7   4   15.40    0.84
   4   7   4   16.91    0.73
  -5  -7  -4   12.84    0.82
   5  -7   4   11.88    0.84
   5   7   4   13.15    0.71
   6  -7   4   32.75    1.45
  -6  -7  -4   34.89    1.46
   6   7   4   31.85    1.32
   7  -7   4    5.97    0.70
  -7  -7  -4    5.57    0.66
   7   7   4    6.22    0.64
  -8  -7  -4    0.30    0.58
   8  -7   4    1.94    0.64
   8   7   4    0.62    0.58
  -9  -7  -4    3.25    0.75
   9  -7   4    3.79    0.76
   9   7   4    2.05    0.73
 -10  -7  -4    2.73    0.82
  10  -7   4    3.34    0.78
  10   7   4    3.54    0.82
  12   8  -4    2.42    1.13
  11   8  -4    5.00    0.93
  10  -8  -4    2.45    0.77
  10   8  -4    3.35    0.80
   9  -8  -4    4.11    0.73
   9   8  -4    3.32    0.70
   8  -8  -4    4.88    0.71
   8  -8  -4    5.59    0.59
   8   8  -4    5.77    0.65
   7  -8  -4   12.53    0.69
   7  -8  -4   11.42    0.88
   7   8  -4   10.49    0.76
   6  -8  -4    3.77    0.39
   6  -8  -4    4.07    0.56
  -6  -8   4    3.22    0.36
   6   8  -4    3.56    0.46
  -5  -8   4   12.24    0.59
   5  -8  -4   11.98    0.75
   5  -8  -4   12.57    0.56
   5   8  -4   10.99    0.65
   4  -8  -4   20.65    0.93
  -4  -8   4   20.60    0.78
   4  -8  -4   19.86    0.74
   4   8  -4   20.21    0.86
   3  -8  -4    9.24    0.63
  -3  -8   4   10.08    0.45
   3   8  -4    9.81    0.55
   2  -8  -4   36.02    1.29
   2   8  -4   32.81    1.23
   1  -8  -4    1.51    0.30
   0  -8   4   73.62    2.43
   0  -8  -4   70.63    2.42
  -1  -8  -4    6.94    0.48
   1  -8   4    6.81    0.46
  -1  -8  -4    5.73    0.42
   1   8   4    6.35    0.32
  -2  -8  -4   37.04    1.41
  -2  -8  -4   37.44    1.32
   2  -8   4   36.87    1.39
   2   8   4   40.46    1.31
  -3  -8  -4    6.66    0.59
  -3  -8  -4    6.71    0.41
   3  -8   4    7.34    0.58
   3   8   4    7.98    0.47
   4  -8   4   25.83    1.17
  -4  -8  -4   26.06    1.15
   4   8   4   28.82    1.06
   5  -8   4   25.31    1.18
  -5  -8  -4   24.23    1.16
   5   8   4   25.39    1.06
   6  -8   4   15.49    1.02
  -6  -8  -4   15.64    1.00
   6   8   4   15.83    0.86
   7  -8   4    2.76    0.65
  -7  -8  -4    2.29    0.57
   7   8   4    3.51    0.58
   8  -8   4    3.45    0.71
  -8  -8  -4    2.38    0.66
   8   8   4    3.30    0.66
   9  -8   4    4.23    0.78
  -9  -8  -4    1.76    0.71
   9   8   4    1.84    0.73
 -10  -8  -4    0.83    0.78
  10  -8   4    1.41    0.76
  10   8   4    2.32    0.83
  11   9  -4    2.32    0.89
  10  -9  -4    1.12    0.77
  10   9  -4    2.96    0.81
   9  -9  -4    4.98    0.80
   9   9  -4    5.92    0.78
   8  -9  -4    7.68    0.79
   8   9  -4    6.42    0.71
   7  -9  -4    5.87    0.69
   7   9  -4    5.72    0.62
   6  -9  -4   19.87    1.04
   6   9  -4   17.12    0.88
  -5  -9   4   13.06    0.66
   5  -9  -4   12.63    0.84
   5   9  -4   13.81    0.73
   4  -9  -4   30.19    1.24
  -4  -9   4   31.90    1.11
   4   9  -4   29.35    1.16
   3  -9  -4   23.57    1.00
  -3  -9   4   23.59    0.86
   3   9  -4   21.99    0.92
   2  -9  -4   47.71    1.71
   2   9  -4   47.39    1.67
   1  -9  -4   72.08    2.45
   0  -9  -4   34.99    1.30
   0  -9   4   35.89    1.29
   1  -9   4   71.01    2.38
  -1  -9  -4   68.31    2.34
  -1  -9  -4   69.31    2.40
  -2  -9  -4   23.45    1.01
  -2  -9  -4   23.63    0.91
   2  -9   4   24.34    0.99
   2   9   4   23.72    0.87
  -3  -9  -4   14.25    0.80
   3  -9   4   14.42    0.79
   3   9   4   16.12    0.69
  -4  -9  -4   18.95    0.94
   4  -9   4   18.89    0.97
   4   9   4   19.11    0.85
   5  -9   4    9.08    0.82
  -5  -9  -4    9.61    0.81
   5   9   4    7.81    0.70
  -6  -9  -4   14.01    1.00
   6  -9   4   15.30    1.02
   6   9   4   14.52    0.87
   7  -9   4   10.58    1.01
  -7  -9  -4    8.44    0.79
   7   9   4   10.32    0.86
   8  -9   4    6.73    0.85
  -8  -9  -4    5.02    0.76
   8  -9   4    9.16    1.21
   8   9   4    6.40    0.77
   9  -9   4    4.42    0.80
  -9  -9  -4    2.26    0.76
   9   9   4    2.67    0.76
 -10  -9  -4    1.25    0.82
  10  -9   4    2.36    0.82
  10   9   4    2.45    0.85
  11  10  -4    0.95    0.87
  10 -10  -4    0.13    0.77
  10  10  -4    0.94    0.79
   9 -10  -4    3.61    0.81
   9  10  -4    5.42    0.79
   8 -10  -4    1.95    0.70
   8  10  -4    2.39    0.64
   7 -10  -4    4.67    0.70
   7  10  -4    4.48    0.62
   6 -10  -4    2.63    0.58
   6  10  -4    2.80    0.50
   5 -10  -4    4.99    0.60
  -5 -10   4    6.06    0.55
   5  10  -4    5.56    0.53
   4 -10  -4    6.99    0.67
  -4 -10   4    6.98    0.49
   4  10  -4    6.70    0.55
   3 -10  -4    5.82    0.59
  -3 -10   4    4.49    0.40
   3  10  -4    4.48    0.47
   2 -10  -4   37.98    1.43
   2  10  -4   36.55    1.37
   1 -10  -4    8.25    0.61
   0 -10   4   27.51    1.06
   0 -10  -4   27.55    1.08
  -1 -10  -4    8.99    0.55
  -1 -10  -4    8.62    0.58
   1 -10   4    8.66    0.58
   2 -10   4   14.41    0.75
  -2 -10  -4   14.66    0.68
  -2 -10  -4   14.91    0.77
  -3 -10  -4    4.35    0.46
   3 -10   4    5.22    0.51
   4 -10   4   17.34    0.98
  -4 -10  -4   18.58    0.98
   4  10   4   17.62    0.92
  -5 -10  -4   15.20    0.98
   5 -10   4   13.85    0.97
   5  10   4   15.09    0.84
  -6 -10  -4    5.28    0.64
   6 -10   4    5.02    0.70
   6  10   4    6.76    0.64
  -7 -10  -4    6.61    0.74
   7 -10   4    7.39    0.82
   7  10   4    7.88    0.74
  -8 -10  -4    0.74    0.63
   8 -10   4    2.44    0.69
   8 -10   4    2.20    0.71
   8  10   4    0.87    0.67
  -9 -10  -4    0.19    0.72
   9 -10   4    1.88    0.77
   9  10   4    1.89    0.76
  11 -11  -4   -1.28    1.40
  11  11  -4    0.32    0.90
  10 -11  -4    2.04    0.87
  10  11  -4    3.41    0.88
   9 -11  -4    5.76    0.88
   9  11  -4    6.87    0.88
   8 -11  -4    0.48    0.71
   8  11  -4    0.58    0.65
   7 -11  -4    2.94    0.69
   7  11  -4    2.99    0.61
   6 -11  -4   12.03    0.96
   6  11  -4   11.82    0.79
   5 -11  -4    7.78    0.83
   5  11  -4    8.06    0.67
   4 -11  -4    5.34    0.58
  -4 -11   4    4.77    0.49
   4  11  -4    5.68    0.58
   3 -11  -4   60.80    2.13
   3  11  -4   56.46    2.05
   2 -11  -4   31.93    1.27
   2  11  -4   30.36    1.21
  -1 -11   4    0.69    0.32
   1 -11  -4    0.98    0.39
   0 -11   4   17.45    0.81
   0 -11  -4   18.24    0.84
   1 -11   4   32.67    1.28
  -1 -11  -4   33.43    1.25
   2 -11   4    7.06    0.62
  -2 -11  -4    7.91    0.55
  -2 -11  -4    8.05    0.63
  -3 -11  -4   -0.02    0.35
   3 -11   4   -0.24    0.39
   4 -11   4   25.33    1.20
  -4 -11  -4   25.81    1.21
   5 -11   4   12.49    0.97
  -5 -11  -4   12.80    0.96
  -6 -11  -4    0.76    0.53
   6 -11   4    1.30    0.63
  -7 -11  -4    3.29    0.66
   7 -11   4    5.12    0.77
  -8 -11  -4    4.95    0.78
   8 -11   4    4.61    0.81
   8 -11   4    6.59    0.83
  -9 -11  -4   -1.27    0.70
   9 -11   4    1.53    0.76
  10 -12  -4   -1.12    0.83
  10  12  -4    0.63    0.88
   9 -12  -4    4.62    0.90
   9  12  -4    5.35    0.87
   8 -12  -4    0.76    0.76
   8  12  -4    2.37    0.72
   7 -12  -4    1.04    0.69
   7  12  -4    0.53    0.61
   6 -12  -4    3.04    0.68
   6  12  -4    4.71    0.62
   5 -12  -4   11.05    0.96
   5  12  -4   11.94    0.78
   4 -12  -4    1.70    0.54
   4  12  -4    1.98    0.44
   3 -12  -4    2.73    0.52
   3  12  -4    3.76    0.46
   2 -12  -4   17.59    0.94
   2  12  -4   16.62    0.83
   1 -12  -4    5.67    0.55
  -1 -12   4    5.57    0.54
   0 -12   4    5.83    0.54
   0 -12  -4    6.16    0.61
  -1 -12  -4    2.07    0.39
   1 -12   4    1.63    0.39
   2 -12   4    2.84    0.47
  -2 -12  -4    2.65    0.45
  -2 -12  -4    3.23    0.44
  -3 -12  -4    8.00    0.75
   3 -12   4    6.79    0.62
  -4 -12  -4   17.32    1.02
   4 -12   4   16.08    0.99
  -5 -12  -4    4.01    0.60
   5 -12   4    3.94    0.66
  -6 -12  -4    1.26    0.58
   6 -12   4    1.42    0.65
   7 -12   4    7.43    0.87
  -7 -12  -4    5.15    0.75
   8 -12   4    2.34    0.78
   8 -12   4    2.59    0.78
  -8 -12  -4    0.61    0.68
  -9 -12  -4    0.02    0.76
  10 -13  -4    1.60    0.93
  10  13  -4    2.60    0.92
   9 -13  -4    0.86    0.86
   9  13  -4    1.22    0.80
   8 -13  -4    1.02    0.80
   8  13  -4    1.30    0.75
   7 -13  -4    1.47    0.76
   7  13  -4    1.71    0.66
   6 -13  -4    9.02    0.89
   6  13  -4    9.01    0.82
   5 -13  -4    1.65    0.62
   5  13  -4    2.10    0.53
   4 -13  -4    3.95    0.65
   4  13  -4    4.09    0.55
   3 -13  -4    5.26    0.64
   3  13  -4    5.36    0.56
   2 -13  -4    2.12    0.51
   2  13  -4    2.29    0.45
   1 -13  -4    4.39    0.54
  -1 -13   4    4.05    0.46
   0 -13   4    8.80    0.65
   0 -13  -4    9.30    0.72
   1 -13   4   10.25    0.73
  -1 -13  -4   10.41    0.69
   2 -13   4    1.09    0.43
  -2 -13  -4    2.04    0.44
  -3 -13  -4    1.32    0.47
   3 -13   4    1.49    0.49
  -4 -13  -4    4.49    0.61
   4 -13   4    5.04    0.66
  -5 -13  -4    7.28    0.75
   5 -13   4    7.00    0.78
   6 -13   4    1.27    0.67
  -6 -13  -4    0.82    0.61
  -7 -13  -4    1.28    0.67
   7 -13   4    4.53    0.80
   7 -13   4    2.75    0.80
  -8 -13  -4    1.14    0.73
   8 -13   4    2.04    0.80
   8 -13   4    2.76    0.83
   9 -14  -4    1.35    0.93
   9  14  -4    2.38    0.87
   8 -14  -4    0.66    0.84
   8  14  -4    1.07    0.76
   7 -14  -4    1.98    0.82
   7  14  -4    3.13    0.70
   6 -14  -4    0.99    0.74
   6  14  -4    1.78    0.61
   5 -14  -4    7.06    0.85
   5  14  -4    7.67    0.71
   4 -14  -4    2.06    0.68
   4  14  -4    2.26    0.54
   3 -14  -4    1.64    0.61
   3  14  -4    2.09    0.51
   2 -14  -4    2.72    0.58
  -1 -14   4    0.72    0.38
   1 -14  -4    0.44    0.47
   0 -14  -4    1.00    0.47
   0 -14   4    1.75    0.42
   1 -14   4    0.36    0.41
  -1 -14  -4    0.45    0.42
  -2 -14  -4    0.82    0.45
   2 -14   4    0.66    0.45
  -3 -14  -4    2.72    0.56
   3 -14   4    3.12    0.56
  -4 -14  -4    4.32    0.63
   4 -14   4    4.63    0.67
   5 -14   4    1.50    0.64
  -5 -14  -4    1.27    0.60
  -6 -14  -4    0.04    0.63
   6 -14   4    1.25    0.69
  -7 -14  -4    2.56    0.75
   7 -14   4    2.92    0.81
   7 -14   4    4.57    0.86
   8 -14   4    1.59    0.81
   8 -14   4    1.60    0.86
  -8 -14  -4    0.47    0.73
   9 -15  -4   -0.42    0.94
   9  15  -4    0.19    0.86
   8 -15  -4    1.56    0.92
   8  15  -4    1.49    0.77
   7 -15  -4    0.81    0.83
   7  15  -4    1.79    0.72
   6 -15  -4    0.56    0.80
   6  15  -4    1.68    0.67
   5 -15  -4    4.74    0.83
   5  15  -4    5.16    0.69
   4 -15  -4    4.62    0.80
   4  15  -4    4.61    0.65
   3 -15  -4    0.78    0.64
   3  15  -4    1.99    0.53
  -2 -15   4    3.89    0.53
   2 -15  -4    3.48    0.65
   1 -15  -4   11.47    0.93
  -1 -15   4   12.51    0.81
   0 -15  -4    8.92    0.82
   0 -15   4   10.34    0.76
   1 -15   4    3.70    0.54
  -1 -15  -4    2.72    0.52
   2 -15   4    3.12    0.55
  -2 -15  -4    3.00    0.56
   3 -15   4    6.79    0.70
  -3 -15  -4    7.12    0.73
   4 -15   4    0.24    0.57
  -4 -15  -4   -0.11    0.53
   5 -15   4    2.80    0.70
  -5 -15  -4    2.49    0.67
   6 -15   4    5.47    0.85
  -6 -15  -4    6.32    0.83
  -7 -15  -4    1.35    0.75
   7 -15   4    2.86    0.84
   7 -15   4    2.10    0.83
   8 -16  -4    0.28    0.95
   8  16  -4    0.59    0.80
   7 -16  -4    2.21    0.94
   7  16  -4    3.33    0.79
   6 -16  -4   -0.18    0.83
   6  16  -4    0.71    0.68
   5 -16  -4    2.17    0.83
   5  16  -4    1.38    0.66
   4 -16  -4   -0.03    0.74
   4  16  -4    1.15    0.61
   3 -16  -4   -0.26    0.69
   3  16  -4    0.18    0.55
   2 -16  -4   -0.34    0.61
  -2 -16   4    0.39    0.43
   1 -16  -4    1.45    0.62
  -1 -16   4    1.71    0.46
   0 -16   4    3.98    0.56
   0 -16  -4    3.24    0.61
   1 -16   4   -0.14    0.47
  -1 -16  -4   -0.35    0.47
   2 -16   4    3.64    0.61
  -2 -16  -4    3.73    0.62
   3 -16   4   -0.34    0.52
  -3 -16  -4    0.54    0.56
   4 -16   4    0.18    0.61
  -4 -16  -4   -0.28    0.59
   5 -16   4    1.70    0.71
  -5 -16  -4    1.30    0.68
   6 -16   4    0.65    0.75
  -6 -16  -4   -0.40    0.70
   6 -16   4    2.11    0.81
   7 -17  -4    1.05    0.96
   7  17  -4    1.07    0.78
   6 -17  -4   -0.20    0.91
   6  17  -4   -0.23    0.71
   5 -17  -4    4.59    0.95
   5  17  -4    4.94    0.79
   4 -17  -4    8.25    0.99
   4  17  -4    5.27    0.74
   3 -17  -4   -0.14    0.72
  -2 -17   4    1.10    0.48
   2 -17  -4    1.98    0.73
   1 -17  -4   10.46    1.02
  -1 -17   4   10.63    0.85
   0 -17  -4    8.62    0.94
   0 -17   4    8.33    0.85
   1 -17   4    0.02    0.50
  -1 -17  -4    0.74    0.54
  -2 -17  -4    4.00    0.66
   2 -17   4    4.21    0.65
   3 -17   4    5.89    0.73
  -3 -17  -4    7.03    0.78
   4 -17   4   -0.26    0.65
  -4 -17  -4   -0.40    0.62
  -5 -17  -4   -0.21    0.68
   5 -17   4    1.87    0.79
   6 -18  -4   -0.61    0.94
   6  18  -4    0.91    0.78
   5 -18  -4    1.23    0.93
   5  18  -4    1.43    0.74
   4 -18  -4   -1.20    0.83
   4  18  -4   -0.69    0.63
  -3 -18   4    1.45    0.53
   3 -18  -4    0.12    0.79
  -2 -18   4    0.97    0.50
   2 -18  -4    0.64    0.77
   1 -18  -4    0.69    0.68
  -1 -18   4    1.24    0.53
   0 -18  -4    0.51    0.70
   0 -18   4    1.23    0.56
   1 -18   4    0.19    0.61
  -1 -18  -4    0.32    0.57
  -2 -18  -4    3.11    0.66
  -3 -18  -4    0.75    0.63
  -4 -18  -4    0.12    0.67
   5 -19  -4    0.70    1.00
   4 -19  -4    3.94    0.99
   3 -19  -4   -0.18    0.83
   2 -19  -4   -0.95    0.77
   1 -19  -4    2.96    0.82
  -1 -19  -4    0.31    0.63
  -2 -19  -4    3.58    0.73
  -3 -19  -4    2.75    0.73
   3 -20  -4   -0.03    0.89
   2 -20  -4   -0.20    0.84
   1 -20  -4    0.00    0.81
  -1 -20  -4    1.04    0.68
  13   0  -5    1.33    0.93
  12   0  -5    0.21    0.82
  11   0  -5    3.62    0.78
  10   0  -5    1.02    0.66
   9   0  -5    8.72    0.81
   8   0  -5   12.06    0.82
   8   0  -5   13.27    0.81
   7   0  -5   41.46    1.52
   7   0  -5   38.27    1.48
   6   0  -5    1.42    0.39
   6   0  -5    1.89    0.34
   5   0  -5    4.28    0.44
   5   0  -5    4.37    0.36
   4   0  -5  262.90    8.42
   4   0  -5  261.39    8.45
   3   0  -5   52.91    1.80
   3   0  -5   52.77    1.75
   2   0  -5    3.45    0.22
   2   0  -5    2.80    0.28
   1   0  -5    2.61    0.27
   1   0  -5    2.81    0.19
  -1   0   5    3.11    0.22
   0   0  -5  161.65    5.31
   0   0   5  164.90    5.29
   0   0  -5  166.46    5.30
   1   0   5   83.92    2.77
  -1   0  -5   83.30    2.76
  -1   0  -5   84.94    2.77
   2   0   5    5.15    0.40
  -2   0  -5    5.59    0.40
  -2   0  -5    5.32    0.33
   3   0   5  125.48    4.21
  -3   0  -5  128.60    4.16
  -3   0  -5  129.91    4.22
   4   0   5  127.57    4.28
  -4   0  -5  131.00    4.30
   5   0   5    4.32    0.48
  -5   0  -5    3.76    0.45
   6   0   5    6.30    0.61
   7   0   5   17.83    0.99
   8   0   5    3.22    0.64
   9   0   5    1.98    0.67
  10   0   5   10.67    1.12
  13  -1  -5    6.95    1.02
  13   1  -5    6.52    1.04
  12  -1  -5    3.13    0.86
  12   1  -5    2.47    0.87
  11  -1  -5    3.59    0.79
  11   1  -5    3.73    0.79
  10  -1  -5   12.58    0.99
  10   1  -5   13.47    1.01
   9  -1  -5   13.72    0.89
   9   1  -5   12.70    0.91
   8  -1  -5    2.74    0.53
   8  -1  -5    2.63    0.56
   8   1  -5    3.07    0.53
   8   1  -5    2.43    0.63
   7  -1  -5   19.53    0.98
   7  -1  -5   20.51    0.93
   7   1  -5   19.36    0.90
   7   1  -5   21.94    0.92
   6  -1  -5   37.07    1.38
   6  -1  -5   39.32    1.45
   6   1  -5   38.41    1.40
   6   1  -5   40.21    1.40
   5  -1  -5    3.37    0.38
   5  -1  -5    3.35    0.33
   5   1  -5    3.61    0.40
   5   1  -5    3.80    0.35
   4  -1  -5   62.45    2.06
   4  -1  -5   60.80    2.12
   4   1  -5   64.87    2.08
   4   1  -5   61.02    2.10
   3  -1  -5  115.75    3.67
   3  -1  -5  113.06    3.72
   3   1  -5  110.19    3.71
   3   1  -5  115.62    3.69
   2  -1  -5    7.04    0.30
   2  -1  -5    6.29    0.39
   2   1  -5    7.31    0.38
   2   1  -5    7.55    0.33
  -1  -1   5   63.49    2.06
   1  -1  -5   63.47    2.09
   1  -1  -5   63.22    2.05
  -1   1   5   60.15    2.04
   1   1  -5   63.64    2.09
   1   1  -5   62.50    2.04
   0  -1   5    7.33    0.36
   0  -1  -5    7.07    0.35
   0  -1  -5    6.78    0.37
   0   1   5    7.36    0.35
   0   1  -5    7.19    0.38
   0   1  -5    6.71    0.33
  -1  -1  -5   95.00    2.99
  -1  -1  -5   90.62    2.97
   1  -1   5   90.33    2.98
   1   1   5   87.63    2.97
  -1   1  -5   88.73    2.97
  -1   1  -5   91.64    2.98
  -2  -1  -5   32.44    1.11
  -2  -1  -5   33.18    1.17
   2  -1   5   32.65    1.17
   2   1   5   31.18    1.15
  -2   1  -5   31.25    1.12
  -2   1  -5   31.42    1.15
   3  -1   5   59.96    2.02
  -3  -1  -5   59.55    2.04
  -3  -1  -5   57.90    1.95
  -3   1  -5   57.25    2.03
   3   1   5   58.14    2.00
  -4  -1  -5   21.05    0.96
   4  -1   5   20.62    0.92
  -4   1  -5   20.97    0.95
   4   1   5   21.35    0.91
   5  -1   5    2.08    0.44
  -5  -1  -5    2.76    0.42
   5   1   5    1.54    0.41
  -6  -1  -5   15.31    0.98
   6  -1   5   16.84    0.94
   6   1   5   16.39    0.89
  -7  -1  -5    6.14    0.66
   7  -1   5    7.78    0.80
   7   1   5    6.75    0.67
   8  -1   5    3.67    0.64
   8   1   5    2.89    0.63
   9  -1   5    7.88    0.84
   9   1   5    7.90    0.84
  10  -1   5    5.13    0.85
  10   1   5    5.86    0.87
  13  -2  -5    1.17    0.91
  13   2  -5    2.32    0.97
  12  -2  -5    2.91    0.84
  12   2  -5    1.30    0.88
  11  -2  -5    4.35    0.80
  11   2  -5    5.77    0.85
  10  -2  -5    4.43    0.69
  10   2  -5    5.01    0.75
   9  -2  -5    5.72    0.64
   9   2  -5    4.19    0.65
   8  -2  -5   13.13    0.89
   8  -2  -5   12.84    0.79
   8   2  -5   13.51    0.83
   7  -2  -5   33.90    1.36
   7  -2  -5   33.04    1.28
   7   2  -5   34.62    1.26
   7   2  -5   30.96    1.27
   6  -2  -5    2.20    0.35
   6  -2  -5    2.42    0.45
   6   2  -5    3.56    0.38
   6   2  -5    4.35    0.47
   5  -2  -5    2.74    0.39
   5  -2  -5    3.18    0.29
   5   2  -5    3.20    0.31
   5   2  -5    2.49    0.32
   4  -2  -5   99.78    3.32
   4  -2  -5   98.28    3.25
   4   2  -5   99.79    3.29
   4   2  -5  101.77    3.28
   3  -2  -5   62.95    2.14
   3  -2  -5   63.54    2.07
   3   2  -5   65.11    2.11
   3   2  -5   62.04    2.12
   2  -2  -5   23.95    0.80
   2  -2  -5   23.39    0.88
   2   2  -5   23.41    0.87
   2   2  -5   23.77    0.84
  -1  -2   5   64.27    2.12
   1  -2  -5   63.96    2.11
   1  -2  -5   63.12    2.14
   1   2  -5   64.09    2.14
  -1   2   5   65.54    2.09
   0  -2  -5  244.59    7.83
   0  -2  -5  239.93    7.83
   0  -2   5  244.11    7.82
   0   2  -5  248.76    7.84
   0   2  -5  232.57    7.80
   0   2   5  250.76    7.80
   1  -2   5  133.39    4.55
  -1  -2  -5  137.78    4.54
  -1  -2  -5  140.52    4.56
  -1   2  -5  139.94    4.54
   1   2   5  145.79    4.54
  -1   2  -5  143.12    4.55
   2  -2   5   20.90    0.86
  -2  -2  -5   21.81    0.86
  -2  -2  -5   20.82    0.79
  -2   2  -5   22.93    0.83
   2   2   5   22.62    0.83
  -3  -2  -5   67.87    2.26
  -3  -2  -5   70.31    2.36
   3  -2   5   70.67    2.35
   3   2   5   66.01    2.32
   4  -2   5   65.85    2.27
  -4  -2  -5   65.47    2.28
   4   2   5   63.42    2.23
   5  -2   5   15.20    0.86
  -5  -2  -5   17.10    0.91
   5   2   5   15.27    0.80
   6  -2   5   16.31    0.95
  -6  -2  -5   16.27    0.96
   6   2   5   16.20    0.89
  -7  -2  -5   14.31    1.03
   7  -2   5   13.98    0.96
   7   2   5   12.88    0.86
  -8  -2  -5    3.30    0.66
   8  -2   5    3.89    0.66
   8   2   5    2.67    0.63
   9  -2   5    3.20    0.70
   9   2   5    4.06    0.72
  10  -2   5    7.38    0.90
  10   2   5    6.81    0.88
  13  -3  -5    3.38    0.94
  12  -3  -5    2.78    0.82
  12   3  -5    2.11    0.93
  11  -3  -5    7.46    0.87
  11   3  -5    7.51    0.93
  10  -3  -5    4.41    0.71
  10   3  -5    4.67    0.76
   9  -3  -5   14.00    0.89
   9  -3  -5   14.22    0.95
   9   3  -5   12.22    0.90
   8  -3  -5    7.32    0.82
   8  -3  -5    7.18    0.67
   8   3  -5    8.15    0.72
   7  -3  -5   13.86    0.91
   7  -3  -5   14.19    0.76
   7   3  -5   15.73    0.74
   7   3  -5   15.86    0.79
   6  -3  -5   13.28    0.79
   6  -3  -5   13.12    0.64
   6   3  -5   14.29    0.66
   6   3  -5   14.12    0.69
   5  -3  -5    6.10    0.40
   5  -3  -5    5.38    0.56
   5   3  -5    7.93    0.45
   5   3  -5    7.92    0.45
   4  -3  -5   64.07    2.21
   4  -3  -5   65.33    2.12
   4   3  -5   63.24    2.16
   4   3  -5   64.63    2.15
   3  -3  -5    6.81    0.31
   3  -3  -5    5.76    0.46
   3   3  -5    7.62    0.38
   3   3  -5    7.03    0.42
   2  -3  -5   27.35    1.03
   2  -3  -5   27.40    0.93
   2   3  -5   29.52    1.02
   2   3  -5   28.85    0.99
   1  -3  -5   34.34    1.26
  -1   3   5   39.87    1.19
   1   3  -5   34.07    1.26
   0  -3  -5   16.50    0.63
   0  -3  -5   15.01    0.62
   0  -3   5   16.42    0.63
   0   3   5   15.72    0.58
   0   3  -5   15.34    0.63
  -1  -3  -5   13.66    0.54
   1  -3   5   13.18    0.58
  -1  -3  -5   14.75    0.59
  -1   3  -5   11.89    0.57
  -2  -3  -5    2.75    0.29
   2  -3   5    3.01    0.32
  -2  -3  -5    3.17    0.28
   2   3   5    3.61    0.32
   3  -3   5   21.58    0.90
  -3  -3  -5   20.50    0.78
  -3  -3  -5   21.89    0.91
   3   3   5   21.63    0.85
  -4  -3  -5   17.45    0.67
  -4  -3  -5   18.19    0.86
   4  -3   5   17.93    0.87
   4   3   5   17.83    0.80
   5  -3   5    6.61    0.64
  -5  -3  -5    6.39    0.69
   5   3   5    6.15    0.57
   6  -3   5   17.27    0.97
  -6  -3  -5   17.78    1.02
   6   3   5   18.00    0.92
  -7  -3  -5    1.49    0.53
   7  -3   5    2.28    0.56
   7   3   5    1.40    0.53
  -8  -3  -5    5.81    0.74
   8  -3   5    6.10    0.72
   8   3   5    5.82    0.69
   9  -3   5    1.45    0.67
   9   3   5    0.52    0.64
  10  -3   5    3.23    0.78
  10   3   5    1.95    0.77
  12  -4  -5    4.21    0.86
  12   4  -5    3.81    0.98
  11  -4  -5    2.32    0.72
  11   4  -5    2.13    0.83
  10  -4  -5    1.91    0.63
  10   4  -5    1.96    0.70
   9  -4  -5    2.46    0.64
   9  -4  -5    1.50    0.54
   9   4  -5    2.30    0.61
   8  -4  -5    8.78    0.91
   8  -4  -5    8.14    0.72
   8   4  -5   11.01    0.77
   7  -4  -5    5.92    0.64
   7  -4  -5    5.54    0.50
   7   4  -5    6.42    0.55
   7   4  -5    6.34    0.59
   6  -4  -5    5.23    0.54
   6  -4  -5    4.74    0.43
   6   4  -5    4.43    0.44
   6   4  -5    4.62    0.43
   5  -4  -5   15.71    0.67
   5  -4  -5   16.39    0.83
   5   4  -5   15.88    0.71
   5   4  -5   17.21    0.71
   4  -4  -5   13.96    0.58
   4  -4  -5   12.10    0.75
   4   4  -5   16.53    0.65
   4   4  -5   17.87    0.66
   3  -4  -5   68.68    2.19
   3  -4  -5   66.89    2.29
   3   4  -5   67.04    2.25
   3   4  -5   67.36    2.26
   2  -4  -5  147.49    4.78
   2   4  -5  145.16    4.77
   2   4  -5  147.34    4.76
   1  -4  -5  172.76    5.55
   1   4  -5  169.64    5.55
   0  -4   5   24.99    0.95
   0  -4  -5   25.60    0.96
   0  -4  -5   26.01    0.96
   0   4   5   27.73    0.90
   0   4  -5   27.36    0.97
  -1  -4  -5   82.74    2.72
  -1  -4  -5   81.82    2.68
   1  -4   5   82.24    2.71
   1   4   5   79.67    2.66
   2  -4   5  139.64    4.62
  -2  -4  -5  143.75    4.63
  -2  -4  -5  140.85    4.57
   2   4   5  140.26    4.58
  -3  -4  -5   26.26    0.94
   3  -4   5   26.86    1.08
  -3  -4  -5   26.89    1.06
   3   4   5   27.01    1.00
  -4  -4  -5   15.21    0.80
   4  -4   5   15.74    0.80
   4   4   5   16.55    0.74
  -5  -4  -5   23.60    1.10
   5  -4   5   24.06    1.08
   5   4   5   24.60    1.03
  -6  -4  -5   22.76    1.15
   6  -4   5   21.91    1.12
   6   4   5   22.24    1.04
  -7  -4  -5    3.52    0.60
   7  -4   5    4.77    0.64
   7   4   5    4.23    0.58
   8  -4   5    4.41    0.70
  -8  -4  -5    4.21    0.71
   8   4   5    3.84    0.65
  -9  -4  -5    7.40    0.87
   9  -4   5    7.95    0.85
   9   4   5    7.33    0.81
  10  -4   5    1.90    0.77
  10   4   5    0.62    0.74
  12  -5  -5    4.44    0.86
  12   5  -5    3.84    0.97
  11  -5  -5    7.38    0.83
  11   5  -5    7.72    0.96
  10  -5  -5    0.95    0.61
  10   5  -5    0.30    0.69
   9  -5  -5    5.30    0.72
   9  -5  -5    4.76    0.62
   9   5  -5    5.55    0.69
   8  -5  -5   29.15    1.21
   8  -5  -5   27.49    1.33
   8   5  -5   30.05    1.26
   7  -5  -5   13.89    0.94
   7  -5  -5   16.31    0.75
   7   5  -5   14.60    0.77
   6  -5  -5   10.08    0.76
   6  -5  -5    7.75    0.52
   6   5  -5   10.38    0.54
   6   5  -5    8.09    0.58
   5  -5  -5   50.12    1.72
  -5  -5   5   50.20    1.71
   5  -5  -5   49.24    1.84
   5   5  -5   52.10    1.76
   5   5  -5   53.24    1.78
   4  -5  -5   88.48    2.94
   4  -5  -5   86.92    2.82
   4   5  -5   84.17    2.88
   4   5  -5   88.42    2.89
   3  -5  -5    1.66    0.34
   3   5  -5    2.57    0.28
   2  -5  -5    2.34    0.33
   2   5  -5    2.50    0.28
   2   5  -5    2.65    0.27
   1  -5  -5  173.48    5.60
   1   5  -5  171.88    5.61
   0  -5   5  112.54    3.76
   0  -5  -5  117.76    3.78
   0  -5  -5  115.75    3.76
   0   5   5  114.19    3.69
   1  -5   5   29.57    1.07
  -1  -5  -5   29.40    1.08
  -1  -5  -5   28.66    1.04
   1   5   5   28.94    1.00
  -2  -5  -5   15.24    0.69
   2  -5   5   13.85    0.67
  -2  -5  -5   13.64    0.58
   2   5   5   14.12    0.58
  -3  -5  -5   14.34    0.57
   3  -5   5   15.17    0.73
  -3  -5  -5   13.85    0.72
   3   5   5   14.97    0.64
  -4  -5  -5   11.00    0.69
   4  -5   5   10.75    0.70
   4   5   5   10.09    0.59
  -5  -5  -5    5.20    0.52
   5  -5   5    4.88    0.57
   5   5   5    5.39    0.49
   6  -5   5    5.71    0.65
  -6  -5  -5    4.66    0.57
   6   5   5    4.34    0.52
  -7  -5  -5    1.03    0.54
   7  -5   5    1.74    0.58
   7   5   5    1.06    0.50
  -8  -5  -5    8.16    0.81
   8  -5   5    9.32    0.97
   8   5   5    8.15    0.85
  -9  -5  -5    1.13    0.72
   9  -5   5    2.82    0.73
   9   5   5    1.93    0.69
  10  -5   5    2.19    0.77
 -10  -5  -5    1.13    0.80
  10   5   5    1.38    0.76
  12   6  -5    3.92    0.98
  11  -6  -5    0.12    0.83
  11   6  -5    1.55    0.83
  10  -6  -5   -0.25    0.72
  10  -6  -5    0.12    0.60
  10   6  -5    0.72    0.69
   9  -6  -5   12.24    0.86
   9  -6  -5   11.37    1.04
   9   6  -5   12.40    0.95
   8  -6  -5   34.43    1.49
   8  -6  -5   34.55    1.34
   8   6  -5   32.61    1.40
   7  -6  -5    1.31    0.54
   7  -6  -5    1.57    0.40
   7   6  -5    0.85    0.42
   6  -6  -5   19.57    0.80
  -6  -6   5   18.24    0.92
   6  -6  -5   18.42    0.97
   6   6  -5   18.66    0.87
   6   6  -5   21.47    0.82
   5  -6  -5   48.92    1.66
  -5  -6   5   46.98    1.64
   5  -6  -5   49.17    1.80
   5   6  -5   48.82    1.73
   5   6  -5   50.93    1.70
   4   6  -5   12.54    0.60
   3  -6  -5    6.33    0.51
   3   6  -5    5.66    0.42
   3   6  -5    7.10    0.44
   2  -6  -5  132.96    4.25
   2   6  -5  128.82    4.22
   2   6  -5  125.71    4.23
   1  -6  -5   80.46    2.69
   0  -6  -5   22.89    0.89
   0  -6  -5   23.23    0.90
   0  -6   5   23.54    0.89
   1  -6   5   64.87    2.22
  -1  -6  -5   66.76    2.24
  -1  -6  -5   66.58    2.20
   1   6   5   64.25    2.14
   2  -6   5  111.34    3.71
  -2  -6  -5  111.00    3.65
  -2  -6  -5  112.97    3.72
   2   6   5  112.19    3.64
   3  -6   5   16.72    0.82
  -3  -6  -5   16.99    0.66
  -3  -6  -5   17.19    0.82
   3   6   5   17.01    0.70
  -4  -6  -5    3.12    0.41
   4  -6   5    4.24    0.50
   4   6   5    3.12    0.37
  -5  -6  -5   16.92    0.93
   5  -6   5   15.41    0.92
   5   6   5   16.00    0.80
  -6  -6  -5    2.33    0.51
   6  -6   5    4.16    0.61
   6   6   5    4.12    0.51
  -7  -6  -5    2.03    0.56
   7  -6   5    2.56    0.63
   7   6   5    1.75    0.53
  -8  -6  -5    3.12    0.68
   8  -6   5    3.39    0.71
   8   6   5    3.33    0.64
  -9  -6  -5    9.31    0.94
   9  -6   5    8.86    0.91
   9   6   5   10.31    0.99
 -10  -6  -5    0.38    0.78
  10  -6   5    2.08    0.76
  10   6   5    0.73    0.77
  12   7  -5    4.83    1.01
  11   7  -5    5.57    0.94
  10  -7  -5    0.27    0.74
  10   7  -5    1.12    0.74
   9  -7  -5    4.02    0.75
   9   7  -5    3.25    0.67
   8  -7  -5   17.46    1.12
   8  -7  -5   19.63    1.06
   8   7  -5   17.20    0.96
   7  -7  -5    9.58    0.87
   7  -7  -5   11.58    0.65
   7   7  -5    8.43    0.71
   6  -7  -5   10.79    0.56
   6  -7  -5   10.19    0.82
   6   7  -5   11.68    0.60
   6   7  -5    9.51    0.64
  -5  -7   5   34.67    1.19
   5  -7  -5   31.54    1.32
   5  -7  -5   32.60    1.14
   5   7  -5   33.10    1.21
   5   7  -5   29.81    1.21
   4  -7  -5   47.85    1.53
   4  -7  -5   46.31    1.69
  -4  -7   5   45.44    1.54
   4   7  -5   45.44    1.62
   4   7  -5   45.42    1.63
  -3  -7   5    6.80    0.32
   3  -7  -5    6.49    0.56
   3   7  -5    8.08    0.47
   3   7  -5    6.57    0.44
   2  -7  -5   15.86    0.75
   2   7  -5   16.16    0.70
  -1  -7   5   86.31    2.82
   1  -7  -5   82.90    2.83
   0  -7   5   10.30    0.51
   0  -7  -5    9.15    0.54
  -1  -7  -5   49.51    1.76
  -1  -7  -5   49.46    1.71
   1  -7   5   50.01    1.75
   1   7   5   51.39    1.66
  -2  -7  -5   11.68    0.68
  -2  -7  -5   12.04    0.57
   2  -7   5   12.85    0.67
   2   7   5   12.59    0.53
   3  -7   5    7.26    0.60
  -3  -7  -5    7.69    0.43
  -3  -7  -5    7.33    0.58
   3   7   5    8.86    0.48
  -4  -7  -5    7.38    0.67
   4  -7   5    7.26    0.71
   4   7   5    7.57    0.54
  -5  -7  -5    9.37    0.80
   5  -7   5    9.61    0.82
   5   7   5    9.54    0.67
  -6  -7  -5    2.88    0.55
   6  -7   5    4.27    0.65
   6   7   5    4.23    0.53
   7  -7   5    1.47    0.63
  -7  -7  -5   -0.04    0.54
   7   7   5    1.43    0.55
   8  -7   5    6.44    0.82
  -8  -7  -5    5.74    0.77
   8   7   5    6.32    0.74
  -9  -7  -5    0.79    0.70
   9  -7   5    2.77    0.77
   9   7   5    1.22    0.71
 -10  -7  -5   -0.75    0.78
  10  -7   5    2.39    0.85
  10   7   5    1.67    0.80
  12   8  -5    3.28    1.06
  11   8  -5    1.60    0.87
  10  -8  -5    2.08    0.81
  10   8  -5    4.09    0.82
   9  -8  -5    5.06    0.81
   9   8  -5    6.06    0.75
   8  -8  -5   13.95    1.02
   8   8  -5   10.94    0.85
   7  -8  -5    7.92    0.75
   7   8  -5    6.96    0.64
   6  -8  -5    9.00    0.81
   6   8  -5    8.81    0.64
   5  -8  -5   36.56    1.42
   5   8  -5   33.92    1.33
   4  -8  -5   17.41    0.88
  -4  -8   5   18.00    0.68
   4   8  -5   17.03    0.77
   3  -8  -5   32.91    1.29
  -3  -8   5   33.34    1.13
   3   8  -5   32.31    1.22
   2  -8  -5   47.38    1.73
   2   8  -5   49.00    1.69
   1  -8  -5   64.16    2.25
  -1  -8   5   67.36    2.25
   0  -8   5   25.58    1.00
   0  -8  -5   26.60    1.02
   1  -8   5   46.71    1.68
  -1  -8  -5   48.58    1.71
  -1  -8  -5   47.12    1.65
  -2  -8  -5   62.57    2.07
   2  -8   5   60.24    2.13
  -2  -8  -5   58.04    2.14
   2   8   5   63.33    2.04
  -3  -8  -5   23.43    1.06
   3  -8   5   24.61    1.07
   3   8   5   27.01    0.97
  -4  -8  -5   33.69    1.42
   4  -8   5   34.43    1.45
   4   8   5   37.87    1.33
  -5  -8  -5   60.29    2.21
   5  -8   5   57.95    2.19
   5   8   5   59.19    2.09
   6  -8   5   17.13    1.08
  -6  -8  -5   17.04    1.09
   6   8   5   18.67    0.94
   7  -8   5    8.25    0.82
  -7  -8  -5    6.50    0.71
   7   8   5    7.49    0.77
  -8  -8  -5    3.41    0.71
   8  -8   5    3.51    0.76
   8   8   5    4.41    0.72
  -9  -8  -5    3.46    0.78
   9  -8   5    4.71    0.84
   9   8   5    3.78    0.78
  11   9  -5    4.00    0.92
  10  -9  -5    2.86    0.85
  10   9  -5    3.35    0.82
   9  -9  -5    1.43    0.77
   9   9  -5    2.74    0.73
   8  -9  -5   13.58    1.09
   8   9  -5   14.52    0.96
   7  -9  -5    3.03    0.65
   7   9  -5    2.98    0.56
   6  -9  -5    6.19    0.69
   6   9  -5    6.37    0.66
   5  -9  -5   15.56    0.93
   5   9  -5   16.00    0.80
   4  -9  -5    6.17    0.58
   4   9  -5    5.21    0.53
   3  -9  -5   24.49    1.06
  -3  -9   5   24.32    0.88
   3   9  -5   23.66    0.97
   2  -9  -5   21.09    0.95
   2   9  -5   20.93    0.87
  -1  -9   5   17.66    0.77
   1  -9  -5   16.51    0.81
   0  -9  -5   14.68    0.72
   0  -9   5   15.13    0.71
  -1  -9  -5   19.79    0.91
   1  -9   5   20.71    0.89
  -1  -9  -5   20.64    0.86
  -2  -9  -5    1.27    0.31
  -2  -9  -5    1.16    0.33
   2  -9   5    1.29    0.36
  -3  -9  -5    7.96    0.66
   3  -9   5    7.23    0.63
  -4  -9  -5   19.59    1.01
   4  -9   5   18.70    1.03
   5  -9   5   16.74    1.05
  -5  -9  -5   17.46    1.04
   5   9   5   18.30    0.92
   6  -9   5    2.71    0.64
  -6  -9  -5    1.39    0.54
   6   9   5    2.67    0.52
  -7  -9  -5    0.74    0.59
   7  -9   5    1.95    0.68
   7   9   5    0.80    0.56
  -8  -9  -5    2.35    0.72
   8  -9   5    3.80    0.76
   8   9   5    4.97    0.73
  -9  -9  -5    0.61    0.73
   9  -9   5    2.18    0.78
   9   9   5    1.40    0.74
  11 -10  -5    1.30    1.00
  11  10  -5    1.23    0.92
  10 -10  -5    2.53    0.89
  10  10  -5    2.77    0.84
   9 -10  -5    3.02    0.82
   9  10  -5    3.30    0.79
   8 -10  -5    4.24    0.78
   8  10  -5    5.02    0.72
   7 -10  -5   10.66    1.01
   7  10  -5   10.20    0.83
   6 -10  -5    8.56    0.90
   6  10  -5    8.67    0.74
   5 -10  -5    2.49    0.54
   5  10  -5    2.06    0.44
   4 -10  -5   19.32    0.98
   4  10  -5   18.01    0.87
   3 -10  -5   20.54    1.02
   3  10  -5   21.02    0.92
   2 -10  -5   14.39    0.80
   2  10  -5   14.50    0.72
  -1 -10   5   27.64    1.11
   1 -10  -5   28.76    1.16
   0 -10  -5   24.29    1.03
   0 -10   5   24.88    1.01
   1 -10   5    8.72    0.62
  -1 -10  -5    9.16    0.61
  -1 -10  -5    8.88    0.66
   2 -10   5    9.45    0.68
  -2 -10  -5   10.57    0.72
  -2 -10  -5   10.70    0.61
  -3 -10  -5    9.47    0.73
   3 -10   5   10.05    0.74
   4 -10   5   17.94    1.01
  -4 -10  -5   17.33    1.00
  -5 -10  -5   12.97    0.97
   5 -10   5   12.65    0.95
  -6 -10  -5    5.05    0.66
   6 -10   5    5.38    0.73
  -7 -10  -5    5.97    0.75
   7 -10   5    6.52    0.83
  -8 -10  -5   -0.16    0.65
   8 -10   5    0.52    0.70
   9 -10   5    3.20    0.83
  -9 -10  -5   -0.18    0.76
  11 -11  -5   -1.01    0.94
  11  11  -5    0.66    0.96
  10 -11  -5    3.78    0.95
  10  11  -5    4.57    0.93
   9 -11  -5    2.80    0.84
   9  11  -5    4.33    0.83
   8 -11  -5    2.21    0.77
   8  11  -5    1.89    0.67
   7 -11  -5    4.27    0.75
   7  11  -5    4.01    0.66
   6 -11  -5   19.34    1.17
   6  11  -5   18.88    1.00
   5 -11  -5    6.58    0.71
   5  11  -5    7.10    0.61
   4 -11  -5    2.73    0.55
   4  11  -5    3.96    0.49
   3 -11  -5   38.57    1.54
   3  11  -5   37.51    1.45
   2 -11  -5   14.08    0.84
   2  11  -5   13.45    0.76
  -1 -11   5    0.88    0.33
   1 -11  -5    0.88    0.41
   0 -11  -5    5.40    0.51
   0 -11   5    5.96    0.50
  -1 -11  -5   14.91    0.77
   1 -11   5   14.34    0.79
  -1 -11  -5   13.87    0.80
  -2 -11  -5    2.81    0.44
   2 -11   5    2.71    0.47
  -2 -11  -5    3.90    0.65
   3 -11   5    3.16    0.52
  -3 -11  -5    2.55    0.47
   4 -11   5    1.57    0.53
  -4 -11  -5    1.46    0.48
   5 -11   5    6.50    0.74
  -5 -11  -5    6.10    0.67
   6 -11   5    4.99    0.77
  -6 -11  -5    4.03    0.67
  -7 -11  -5    1.10    0.65
   7 -11   5    2.39    0.75
   8 -11   5    0.63    0.73
  -8 -11  -5    0.08    0.68
  10 -12  -5    0.85    0.89
  10  12  -5    0.73    0.88
   9 -12  -5    0.28    0.81
   9  12  -5   -0.38    0.76
   8 -12  -5    0.58    0.77
   8  12  -5    0.64    0.70
   7 -12  -5    4.44    0.80
   7  12  -5    4.81    0.71
   6 -12  -5    1.67    0.68
   6  12  -5    1.99    0.58
   5 -12  -5    0.89    0.60
   5  12  -5    0.55    0.49
   4 -12  -5   10.63    0.88
   4  12  -5   10.63    0.76
   3 -12  -5   13.14    0.89
   3  12  -5   13.31    0.80
   2 -12  -5    0.57    0.46
  -1 -12   5    7.11    0.62
   1 -12  -5    6.25    0.68
   0 -12  -5   24.82    1.09
   0 -12   5   24.92    1.08
   1 -12   5   11.56    0.79
  -1 -12  -5   13.37    0.84
  -1 -12  -5   13.45    0.77
  -2 -12  -5    0.29    0.38
   2 -12   5    0.56    0.42
  -3 -12  -5   19.76    1.07
   3 -12   5   18.62    1.04
   4 -12   5    5.72    0.67
  -4 -12  -5    5.86    0.63
  -5 -12  -5   -0.43    0.51
   5 -12   5   -0.23    0.58
   6 -12   5    2.93    0.71
  -6 -12  -5    1.20    0.62
   7 -12   5    7.62    0.91
  -7 -12  -5    5.43    0.79
   8 -12   5    2.68    0.79
   8 -12   5    1.31    0.79
  -8 -12  -5    0.18    0.72
  10 -13  -5    0.49    0.92
  10  13  -5    3.49    0.93
   9 -13  -5    0.92    0.88
   9  13  -5    0.50    0.81
   8 -13  -5    0.82    0.82
   8  13  -5    1.17    0.74
   7 -13  -5    2.22    0.80
   7  13  -5    2.52    0.67
   6 -13  -5    9.76    0.95
   6  13  -5    9.40    0.87
   5 -13  -5    0.57    0.65
   5  13  -5    0.80    0.52
   4 -13  -5    2.24    0.63
   4  13  -5    1.63    0.52
   3 -13  -5    5.18    0.67
   3  13  -5    4.94    0.58
   2 -13  -5    2.13    0.55
   1 -13  -5    0.75    0.47
  -1 -13   5    0.88    0.38
   0 -13   5    1.05    0.41
   0 -13  -5    0.56    0.44
  -1 -13  -5    8.65    0.69
  -1 -13  -5    9.34    0.79
   1 -13   5    8.22    0.74
  -2 -13  -5    1.61    0.45
   2 -13   5    2.69    0.53
   3 -13   5    6.60    0.69
  -3 -13  -5    5.36    0.63
   4 -13   5    5.76    0.72
  -4 -13  -5    6.02    0.68
  -5 -13  -5    0.37    0.57
   5 -13   5    0.10    0.61
  -6 -13  -5    3.45    0.72
   6 -13   5    5.45    0.82
  -7 -13  -5    1.34    0.70
   7 -13   5    1.93    0.81
  -8 -13  -5   -0.30    0.73
   8 -13   5    1.63    0.81
   8 -13   5    1.52    0.82
   9 -14  -5   -0.06    0.90
   9  14  -5   -0.28    0.83
   8 -14  -5    0.63    0.87
   8  14  -5    1.13    0.75
   7 -14  -5    3.69    0.90
   7  14  -5    5.35    0.79
   6 -14  -5   -0.34    0.74
   6  14  -5    0.53    0.61
   5 -14  -5    1.73    0.75
   5  14  -5    2.50    0.63
   4 -14  -5    2.94    0.70
   4  14  -5    3.30    0.60
   3 -14  -5    1.79    0.62
   3  14  -5    1.85    0.52
   2 -14  -5    5.88    0.69
  -2 -14   5    5.31    0.58
  -1 -14   5    8.68    0.73
   1 -14  -5    7.85    0.80
   0 -14   5   15.99    0.91
   0 -14  -5   14.49    0.89
  -1 -14  -5    1.34    0.47
   1 -14   5    1.71    0.50
  -1 -14  -5    1.35    0.48
   2 -14   5    8.19    0.82
  -2 -14  -5    8.02    0.86
  -3 -14  -5   10.75    0.96
   3 -14   5   10.19    0.84
  -4 -14  -5    2.17    0.59
   4 -14   5    2.54    0.64
  -5 -14  -5    5.62    0.74
   5 -14   5    5.97    0.80
  -6 -14  -5    2.21    0.70
   6 -14   5    1.39    0.76
   7 -14   5    3.85    0.88
  -7 -14  -5    2.40    0.77
   9 -15  -5   -0.04    0.97
   9  15  -5    1.71    0.86
   8 -15  -5    2.05    0.95
   8  15  -5    3.45    0.84
   7 -15  -5    1.96    0.89
   7  15  -5    3.00    0.76
   6 -15  -5    3.38    0.90
   6  15  -5    3.97    0.74
   5 -15  -5    1.61    0.81
   5  15  -5    3.15    0.67
   4 -15  -5    1.30    0.74
   4  15  -5    1.79    0.61
   3 -15  -5    0.23    0.64
   3  15  -5    0.08    0.54
   2 -15  -5    0.00    0.57
  -2 -15   5    0.67    0.45
  -1 -15   5    4.55    0.57
   1 -15  -5    4.53    0.66
   0 -15   5    1.12    0.49
   0 -15  -5    0.82    0.51
  -1 -15  -5    2.05    0.53
   1 -15   5    3.68    0.59
  -2 -15  -5    1.79    0.54
   2 -15   5    1.64    0.57
   3 -15   5    4.09    0.68
  -3 -15  -5    3.98    0.65
  -4 -15  -5    2.34    0.63
   4 -15   5    2.77    0.69
   5 -15   5    1.20    0.71
  -5 -15  -5   -0.33    0.62
   6 -15   5    2.07    0.79
  -6 -15  -5    1.10    0.71
   8 -16  -5    0.23    0.96
   8  16  -5    2.37    0.85
   7 -16  -5    0.49    0.91
   7  16  -5    0.62    0.74
   6 -16  -5    0.88    0.89
   6  16  -5    0.27    0.71
   5 -16  -5    5.55    0.95
   5  16  -5    5.60    0.78
   4 -16  -5    0.42    0.77
   4  16  -5    0.65    0.60
   3 -16  -5    0.12    0.70
  -2 -16   5    3.81    0.57
   2 -16  -5    4.47    0.75
  -1 -16   5    5.51    0.63
   1 -16  -5    4.78    0.71
   0 -16   5    2.65    0.58
   0 -16  -5    3.00    0.61
  -1 -16  -5    3.11    0.61
   1 -16   5    3.31    0.62
   2 -16   5    8.41    0.80
  -2 -16  -5    7.53    0.76
  -3 -16  -5    2.37    0.64
   3 -16   5    1.70    0.64
   4 -16   5    1.55    0.68
  -4 -16  -5    0.26    0.62
  -5 -16  -5    3.47    0.75
   5 -16   5    3.43    0.81
  -6 -16  -5    2.13    0.77
   6 -16   5    2.31    0.83
   7 -17  -5   -1.00    0.95
   7  17  -5    0.45    0.80
   6 -17  -5   -0.45    0.93
   6  17  -5    0.53    0.74
   5 -17  -5    1.27    0.91
   5  17  -5    1.15    0.74
   4 -17  -5    0.48    0.83
   4  17  -5    1.82    0.68
   3 -17  -5   -0.82    0.74
  -3 -17   5    0.81    0.53
   2 -17  -5    0.02    0.71
  -2 -17   5    0.69    0.51
   1 -17  -5    4.24    0.76
  -1 -17   5    4.71    0.65
   0 -17   5    1.48    0.58
   0 -17  -5    0.97    0.64
  -1 -17  -5    0.87    0.59
   1 -17   5    0.80    0.57
   2 -17   5    0.78    0.61
  -2 -17  -5    1.21    0.62
  -3 -17  -5    1.00    0.64
   3 -17   5    0.48    0.63
   4 -17   5    0.20    0.69
  -4 -17  -5    0.04    0.66
  -5 -17  -5    0.77    0.72
   5 -17   5    1.26    0.79
   6 -18  -5    1.65    1.02
   6  18  -5    1.49    0.83
   5 -18  -5    5.47    1.07
   5  18  -5    4.56    0.82
   4 -18  -5    0.26    0.87
   3 -18  -5    0.28    0.82
  -3 -18   5    0.97    0.56
   2 -18  -5    6.86    0.92
  -2 -18   5    7.32    0.75
  -1 -18   5    2.85    0.63
   1 -18  -5    2.77    0.77
   0 -18   5   -0.27    0.58
  -1 -18  -5    2.09    0.68
   1 -18   5    2.39    0.65
   2 -18   5    4.93    0.75
  -2 -18  -5    4.88    0.76
   3 -18   5   -0.31    0.64
  -3 -18  -5   -0.12    0.66
   4 -18   5   -1.27    0.79
  -4 -18  -5   -0.19    0.68
   5 -19  -5    0.24    1.03
   5  19  -5    0.12    0.78
   4 -19  -5    0.00    0.92
   3 -19  -5   -0.41    0.85
  -3 -19   5    1.05    0.58
  -2 -19   5    0.26    0.58
   2 -19  -5    0.59    0.82
   1 -19  -5    1.12    0.80
  -1 -19   5    1.26    0.63
   0 -19   5   -0.22    0.67
  -1 -19  -5    1.53    0.68
  -2 -19  -5    0.74    0.69
   2 -20  -5    2.03    0.92
   0 -20  -5    2.86    0.85
  13   0  -6   -0.12    0.90
  12   0  -6    0.27    0.81
  11   0  -6    8.66    0.90
  10   0  -6    7.19    0.80
   9   0  -6   -0.41    0.53
   8   0  -6    7.23    0.66
   8   0  -6    7.15    0.62
   7   0  -6   29.38    1.21
   7   0  -6   28.64    1.15
   6   0  -6    4.51    0.40
   6   0  -6    5.23    0.50
   5   0  -6    3.69    0.35
   5   0  -6    2.46    0.37
   4   0  -6  116.67    3.93
   4   0  -6  121.63    3.88
   3   0  -6  148.20    4.93
   3   0  -6  154.26    4.89
   2   0  -6    1.72    0.26
   2   0  -6    1.70    0.18
   2   0  -6    1.63    0.18
   1   0  -6    4.20    0.27
   1   0  -6    3.07    0.33
   0   0  -6   15.66    0.65
   0   0   6   15.89    0.63
   0   0  -6   16.04    0.63
  -1   0  -6   23.82    0.89
  -1   0  -6   23.56    0.89
   1   0   6   23.79    0.90
  -2   0  -6   17.63    0.72
  -2   0  -6   17.62    0.76
   2   0   6   18.69    0.77
  -3   0  -6   20.95    0.92
  -3   0  -6   20.68    0.82
   3   0   6   22.12    0.92
  -4   0  -6   12.55    0.74
   4   0   6   10.15    0.70
   5   0   6    1.29    0.45
  -5   0  -6    1.59    0.43
  -6   0  -6    8.76    0.87
   6   0   6    9.37    0.80
   7   0   6    6.55    0.70
   8   0   6    2.27    0.65
   9   0   6    4.02    0.75
  10   0   6    3.22    0.83
  13  -1  -6    1.54    0.89
  13   1  -6    0.01    0.95
  12  -1  -6    2.03    0.82
  12   1  -6    1.96    0.88
  11  -1  -6    3.09    0.77
  11   1  -6    3.40    0.81
  10  -1  -6    7.49    0.78
  10   1  -6    8.32    0.84
   9  -1  -6    2.56    0.58
   9   1  -6    3.00    0.61
   8  -1  -6   16.38    0.90
   8  -1  -6   18.81    1.03
   8   1  -6   20.92    0.95
   8   1  -6   17.69    0.92
   7  -1  -6    2.59    0.43
   7  -1  -6    2.77    0.55
   7   1  -6    3.10    0.47
   7   1  -6    3.77    0.45
   6  -1  -6    4.03    0.51
   6  -1  -6    4.07    0.39
   6   1  -6    4.52    0.48
   6   1  -6    4.42    0.43
   5  -1  -6   15.11    0.63
   5  -1  -6   13.84    0.74
   5   1  -6   15.16    0.65
   5   1  -6   15.93    0.72
   4  -1  -6  128.85    4.14
   4  -1  -6  127.13    4.08
   4   1  -6  124.56    4.09
   4   1  -6  121.78    4.12
   3  -1  -6    9.64    0.43
   3  -1  -6    9.95    0.54
   3   1  -6   10.10    0.53
   3   1  -6    9.82    0.45
   2  -1  -6   15.99    0.59
   2  -1  -6   16.06    0.68
   2   1  -6   16.32    0.67
   2   1  -6   16.14    0.61
  -1  -1   6  120.01    3.97
   1  -1  -6  121.67    3.96
   1  -1  -6  122.77    4.00
   1   1  -6  122.14    3.95
  -1   1   6  121.67    3.96
   1   1  -6  125.74    4.01
   0  -1   6    9.84    0.47
   0  -1  -6    9.44    0.47
   0  -1  -6    8.88    0.48
   0   1  -6   10.25    0.50
   0   1   6   10.17    0.45
   0   1  -6   10.56    0.45
   1  -1   6   80.94    2.77
  -1  -1  -6   82.64    2.76
  -1  -1  -6   85.93    2.78
  -1   1  -6   86.85    2.78
   1   1   6   83.06    2.77
  -1   1  -6   82.20    2.76
  -2  -1  -6   96.42    3.13
   2  -1   6   91.00    3.12
  -2  -1  -6   93.41    3.09
  -2   1  -6   93.06    3.12
  -2   1  -6   94.75    3.10
   2   1   6   94.12    3.11
  -3  -1  -6  149.74    4.83
   3  -1   6  144.08    4.81
  -3  -1  -6  145.84    4.75
  -3   1  -6  148.48    4.82
   3   1   6  142.91    4.80
   4  -1   6   17.41    0.86
  -4  -1  -6   17.11    0.88
   4   1   6   16.46    0.83
  -4   1  -6   16.70    0.87
  -5  -1  -6    4.21    0.51
   5  -1   6    4.55    0.55
   5   1   6    4.91    0.53
   6  -1   6   44.21    1.74
  -6  -1  -6   46.33    1.80
   6   1   6   41.86    1.70
   7  -1   6    9.16    0.88
  -7  -1  -6    8.03    0.77
   7   1   6    8.63    0.85
   8  -1   6    1.55    0.62
   8   1   6    1.16    0.60
   9  -1   6    8.93    0.89
   9   1   6    9.28    0.91
  10  -1   6    8.24    0.94
  10   1   6    6.95    0.93
  13  -2  -6    2.09    0.91
  13   2  -6    2.13    0.98
  12  -2  -6    5.08    0.89
  12   2  -6    4.02    0.93
  11  -2  -6    8.36    0.88
  11   2  -6    9.01    0.93
  10  -2  -6    6.63    0.73
  10   2  -6    5.15    0.77
   9  -2  -6    7.69    0.75
   9  -2  -6    8.06    0.78
   9   2  -6    8.26    0.74
   8  -2  -6    9.46    0.85
   8  -2  -6    9.15    0.72
   8   2  -6   11.74    0.83
   8   2  -6   11.82    0.76
   7  -2  -6   28.59    1.24
   7  -2  -6   27.42    1.12
   7   2  -6   28.81    1.15
   7   2  -6   28.34    1.14
   6  -2  -6    0.42    0.44
   6  -2  -6    0.75    0.30
   6   2  -6    0.82    0.35
   6   2  -6    0.54    0.32
   5  -2  -6    9.66    0.65
   5  -2  -6   10.51    0.49
   5   2  -6   11.22    0.60
   5   2  -6    9.87    0.53
   4  -2  -6  116.64    3.74
   4  -2  -6  112.37    3.81
   4   2  -6  120.22    3.77
   4   2  -6  111.12    3.79
   3  -2  -6  127.01    4.05
   3  -2  -6  122.28    3.97
   3   2  -6  122.94    4.01
   3   2  -6  120.31    4.04
   2  -2  -6   11.39    0.56
   2   2  -6   10.48    0.48
   2   2  -6   11.96    0.55
   1  -2  -6  125.67    4.17
  -1  -2   6  133.76    4.16
   1  -2  -6  126.16    4.14
  -1   2   6  134.77    4.12
   1   2  -6  118.90    4.11
   1   2  -6  127.32    4.18
   0  -2  -6  148.41    4.95
   0  -2   6  149.83    4.95
   0  -2  -6  150.51    4.96
   0   2  -6  150.27    4.93
   0   2   6  158.77    4.93
   0   2  -6  158.53    4.98
  -1  -2  -6    8.13    0.43
  -1  -2  -6    8.16    0.48
   1  -2   6    8.44    0.48
  -1   2  -6    8.02    0.43
  -1   2  -6    8.63    0.46
   1   2   6    8.32    0.45
   2  -2   6   50.26    1.75
  -2  -2  -6   48.57    1.69
  -2  -2  -6   51.31    1.75
   2   2   6   50.35    1.72
  -2   2  -6   47.58    1.72
  -2   2  -6   50.65    1.72
  -3  -2  -6   15.02    0.64
   3  -2   6   15.64    0.78
  -3  -2  -6   16.16    0.77
   3   2   6   15.34    0.72
   4  -2   6    8.45    0.68
  -4  -2  -6    9.45    0.48
  -4  -2  -6    9.73    0.72
   4   2   6    9.94    0.65
  -5  -2  -6    8.22    0.79
   5  -2   6    8.01    0.75
   5   2   6    8.76    0.69
  -6  -2  -6    5.92    0.63
   6  -2   6    6.86    0.67
   6   2   6    5.99    0.61
  -7  -2  -6    5.41    0.68
   7  -2   6    5.13    0.68
   7   2   6    4.71    0.64
   8  -2   6    1.00    0.62
   8   2   6    1.61    0.61
   9  -2   6    2.20    0.71
   9   2   6    1.76    0.69
  10  -2   6    2.54    0.80
  10   2   6    2.28    0.78
  12  -3  -6    1.69    0.81
  12   3  -6    1.88    0.89
  11  -3  -6    3.45    0.76
  11   3  -6    3.89    0.84
  10  -3  -6    2.23    0.64
  10   3  -6    2.49    0.71
   9  -3  -6    1.90    0.66
   9  -3  -6    1.78    0.56
   9   3  -6    3.09    0.61
   8  -3  -6   11.31    0.77
   8  -3  -6   12.05    0.93
   8   3  -6   14.48    0.81
   7  -3  -6    1.54    0.56
   7  -3  -6    2.02    0.40
   7   3  -6    3.20    0.44
   7   3  -6    2.60    0.41
   6  -3  -6    7.87    0.49
   6  -3  -6    9.41    0.69
   6   3  -6    8.01    0.55
   6   3  -6    7.94    0.57
   5  -3  -6   26.20    1.12
   5  -3  -6   25.84    0.97
   5   3  -6   27.52    1.03
   5   3  -6   27.83    1.05
   4  -3  -6   71.04    2.31
   4  -3  -6   72.31    2.42
   4   3  -6   68.38    2.38
   4   3  -6   70.10    2.36
   3  -3  -6   47.20    1.60
   3  -3  -6   43.86    1.48
   3   3  -6   45.31    1.58
   3   3  -6   43.77    1.54
   2  -3  -6   58.02    1.98
  -2   3   6   54.73    1.87
   2   3  -6   57.61    1.96
   2   3  -6   60.12    1.94
   1  -3  -6  103.23    3.38
  -1  -3   6  101.56    3.38
   1  -3  -6  100.96    3.40
   1   3  -6  106.74    3.41
  -1   3   6  103.02    3.33
   0  -3  -6   35.84    1.28
   0  -3   6   35.88    1.28
   0  -3  -6   34.40    1.27
   0   3  -6   37.25    1.30
   0   3   6   38.12    1.24
   1  -3   6   97.31    3.27
  -1  -3  -6   99.76    3.25
  -1  -3  -6   99.06    3.27
  -1   3  -6   98.47    3.27
   1   3   6   99.90    3.24
  -2  -3  -6   46.79    1.62
   2  -3   6   47.42    1.69
  -2  -3  -6   48.33    1.70
   2   3   6   48.52    1.65
  -3  -3  -6   54.86    1.85
   3  -3   6   53.90    1.94
  -3  -3  -6   57.93    1.96
   3   3   6   52.54    1.89
   4  -3   6   37.94    1.47
  -4  -3  -6   38.90    1.47
   4   3   6   37.59    1.41
   5  -3   6   19.12    1.01
  -5  -3  -6   20.10    1.03
   5   3   6   19.94    0.94
   6  -3   6   11.28    0.89
  -6  -3  -6   11.96    0.92
   6   3   6   11.15    0.84
  -7  -3  -6    5.24    0.67
   7  -3   6    5.85    0.71
   7   3   6    5.06    0.65
   8  -3   6    8.57    0.83
  -8  -3  -6    6.58    0.81
   8   3   6    7.80    0.79
   9  -3   6    2.12    0.70
   9   3   6    2.00    0.69
  10  -3   6    4.03    0.84
  10   3   6    3.32    0.80
  12  -4  -6    8.87    0.95
  12   4  -6    6.91    1.02
  11  -4  -6    1.99    0.73
  11   4  -6    3.40    0.83
  10  -4  -6    2.45    0.63
  10   4  -6    3.37    0.72
   9  -4  -6   13.49    0.88
   9  -4  -6   14.72    1.07
   9   4  -6   14.81    0.97
   8  -4  -6   13.60    0.81
   8  -4  -6   11.57    1.02
   8   4  -6   16.79    0.87
   7  -4  -6   12.27    0.88
   7  -4  -6   12.22    0.65
   7   4  -6   12.53    0.70
   7   4  -6   11.71    0.72
   6  -4  -6    4.19    0.42
   6  -4  -6    5.42    0.59
   6   4  -6    5.02    0.46
   6   4  -6    4.60    0.51
   5  -4  -6   43.52    1.64
   5  -4  -6   43.03    1.50
   5   4  -6   44.95    1.56
   5   4  -6   43.97    1.56
   4  -4  -6   38.69    1.47
   4  -4  -6   40.58    1.33
   4   4  -6   40.98    1.40
   4   4  -6   37.99    1.41
   3  -4  -6   28.27    0.93
   3  -4  -6   28.96    1.08
   3   4  -6   26.01    1.04
   3   4  -6   27.50    1.02
   2  -4  -6  150.09    4.80
   2   4  -6  144.89    4.79
   2   4  -6  145.16    4.77
   1  -4  -6  110.86    3.59
  -1  -4   6  108.28    3.57
   1   4  -6  107.71    3.59
   0  -4  -6   62.07    2.11
   0  -4   6   63.28    2.11
   0  -4  -6   62.57    2.10
   0   4  -6   62.28    2.12
   0   4   6   62.02    2.05
  -1  -4  -6    8.10    0.44
  -1  -4  -6    8.79    0.50
   1  -4   6    8.98    0.50
  -1   4  -6    8.79    0.49
   1   4   6    8.04    0.41
  -2  -4  -6   55.75    1.95
   2  -4   6   55.79    1.94
  -2  -4  -6   55.41    1.87
   2   4   6   54.74    1.87
   3  -4   6    8.04    0.61
  -3  -4  -6    8.55    0.62
  -3  -4  -6    7.81    0.43
   3   4   6    7.00    0.50
   4  -4   6    9.45    0.70
  -4  -4  -6   10.42    0.75
   4   4   6   11.40    0.65
   5  -4   6   23.67    1.13
  -5  -4  -6   22.52    1.12
   5   4   6   23.93    1.02
  -6  -4  -6    0.95    0.49
   6  -4   6    1.62    0.54
   6   4   6    2.35    0.51
  -7  -4  -6    2.92    0.62
   7  -4   6    4.06    0.66
   7   4   6    3.85    0.61
  -8  -4  -6    0.44    0.64
   8  -4   6    1.60    0.67
   8   4   6    1.66    0.59
  -9  -4  -6    1.88    0.74
   9  -4   6    2.88    0.73
   9   4   6    1.94    0.69
  10  -4   6    1.56    0.82
  10   4   6    1.22    0.76
  12   5  -6    2.64    0.93
  11  -5  -6    3.44    0.97
  11   5  -6    3.26    0.84
  10  -5  -6    0.49    0.58
  10  -5  -6    1.28    0.74
  10   5  -6    2.01    0.71
   9  -5  -6    2.11    0.72
   9  -5  -6    1.54    0.54
   9   5  -6    2.81    0.63
   8  -5  -6    1.23    0.49
   8  -5  -6    1.57    0.68
   8   5  -6    2.91    0.53
   7  -5  -6    2.32    0.41
   7  -5  -6    2.38    0.60
   7   5  -6    3.10    0.41
   7   5  -6    1.17    0.44
   6  -5  -6   21.50    0.88
   6  -5  -6   23.99    1.12
   6   5  -6   24.45    0.96
   6   5  -6   21.79    0.97
   5  -5  -6    1.31    0.48
   5  -5  -6    1.42    0.27
   5   5  -6    2.43    0.35
   4   5  -6    3.19    0.35
   4   5  -6    4.75    0.45
   3  -5  -6   32.18    1.22
   3   5  -6   31.67    1.16
   3   5  -6   31.40    1.18
   2  -5  -6   18.00    0.81
   2   5  -6   19.11    0.74
   2   5  -6   18.18    0.77
   1  -5  -6    6.65    0.51
  -1  -5   6    8.72    0.45
   1   5  -6    8.23    0.47
   0  -5  -6    5.14    0.41
   0  -5   6    5.19    0.41
   0  -5  -6    4.99    0.40
   0   5  -6    5.45    0.41
   0   5   6    5.31    0.27
  -1  -5  -6   91.09    2.99
   1  -5   6   89.65    3.02
  -1  -5  -6   90.16    3.03
   1   5   6   91.31    2.95
  -2  -5  -6   33.99    1.23
  -2  -5  -6   35.13    1.31
   2  -5   6   34.58    1.31
   2   5   6   35.47    1.22
   3  -5   6    1.30    0.37
  -3  -5  -6    1.17    0.32
  -3  -5  -6    1.61    0.25
   3   5   6    1.61    0.30
   4  -5   6   18.56    0.94
  -4  -5  -6   19.49    0.95
   4   5   6   17.63    0.83
  -5  -5  -6   38.09    1.58
   5  -5   6   38.61    1.58
   5   5   6   39.13    1.47
   6  -5   6    2.97    0.60
  -6  -5  -6    1.91    0.53
   6   5   6    2.62    0.50
   7  -5   6    4.62    0.72
  -7  -5  -6    4.43    0.67
   7   5   6    4.20    0.61
   8  -5   6   12.97    1.04
  -8  -5  -6   11.87    1.16
   8   5   6   10.74    0.97
  -9  -5  -6    0.71    0.72
   9  -5   6    2.60    0.74
   9   5   6    0.64    0.67
  10   5   6    1.16    0.77
  12   6  -6    7.98    1.06
  11   6  -6    1.89    0.85
  10  -6  -6    1.11    0.77
  10   6  -6    2.28    0.75
   9  -6  -6   22.61    1.30
   9   6  -6   23.28    1.21
   8  -6  -6   13.33    1.01
   8  -6  -6   12.92    1.05
   8   6  -6   14.63    0.89
   7  -6  -6    3.48    0.65
   7  -6  -6    3.24    0.45
   7   6  -6    3.05    0.51
   6  -6  -6   19.91    1.04
   6  -6  -6   20.76    0.83
   6   6  -6   20.04    0.92
   6   6  -6   21.07    0.91
   5  -6  -6   52.52    2.01
   5  -6  -6   56.27    1.85
   5   6  -6   58.37    1.94
   5   6  -6   54.79    1.95
   4  -6  -6   20.87    0.99
   4  -6  -6   22.15    0.77
   4   6  -6   22.66    0.89
   4   6  -6   21.76    0.90
   3  -6  -6   12.81    0.72
   3   6  -6   12.66    0.64
   3   6  -6   12.10    0.59
   2  -6  -6   72.23    2.44
   2   6  -6   69.62    2.42
   2   6  -6   72.57    2.41
   1  -6  -6   22.21    0.92
  -1  -6   6   23.72    0.90
   1   6  -6   22.16    0.91
   0  -6   6   12.22    0.58
   0  -6  -6   11.73    0.60
   0  -6  -6   11.07    0.61
   1  -6   6   25.24    0.98
  -1  -6  -6   25.02    0.94
  -1  -6  -6   24.33    0.99
   1   6   6   23.60    0.86
  -2  -6  -6   29.23    1.07
  -2  -6  -6   29.26    1.17
   2  -6   6   28.85    1.16
   2   6   6   29.98    1.06
   3  -6   6    3.83    0.46
  -3  -6  -6    3.46    0.41
  -3  -6  -6    4.42    0.36
   3   6   6    4.47    0.42
   4  -6   6   30.07    1.30
  -4  -6  -6   31.58    1.33
   4   6   6   32.46    1.21
  -5  -6  -6   16.56    0.97
   5  -6   6   16.38    0.96
   5   6   6   15.56    0.83
   6  -6   6    1.83    0.59
  -6  -6  -6    1.03    0.49
   6   6   6    1.71    0.47
   7  -6   6    5.58    0.75
  -7  -6  -6    5.56    0.70
   7   6   6    4.98    0.63
   8  -6   6    2.51    0.71
  -8  -6  -6    1.15    0.65
   8   6   6    1.51    0.62
   9  -6   6    1.87    0.75
  -9  -6  -6    1.29    0.74
   9   6   6    1.26    0.69
  12   7  -6    1.95    0.97
  11   7  -6    0.79    0.84
  10  -7  -6    6.08    0.92
  10   7  -6    7.12    0.88
   9  -7  -6    4.34    0.84
   9   7  -6    6.35    0.76
   8  -7  -6    0.29    0.69
   8   7  -6    1.13    0.55
   7  -7  -6    1.85    0.64
   7   7  -6    0.85    0.48
   6  -7  -6   12.98    0.91
   6   7  -6   13.98    0.71
   6   7  -6   12.17    0.75
   5  -7  -6    1.65    0.49
   5   7  -6    2.06    0.37
   5   7  -6    1.32    0.36
   4  -7  -6   17.91    0.92
   4   7  -6   18.93    0.81
   4   7  -6   16.70    0.80
   3  -7  -6   28.54    1.21
   3   7  -6   31.31    1.15
   3   7  -6   29.07    1.12
   2  -7  -6   32.85    1.25
   2   7  -6   31.27    1.20
   2   7  -6   31.56    1.19
   1  -7  -6   14.49    0.76
  -1  -7   6   17.90    0.73
   0  -7  -6   20.20    0.88
   0  -7  -6   19.99    0.85
   0  -7   6   20.98    0.85
   1  -7   6   69.40    2.40
  -1  -7  -6   68.73    2.42
  -1  -7  -6   72.30    2.37
  -2  -7  -6   19.67    0.92
   2  -7   6   20.05    0.90
  -2  -7  -6   20.04    0.82
   2   7   6   21.59    0.79
   3  -7   6    8.58    0.65
  -3  -7  -6    8.73    0.68
   3   7   6    8.21    0.51
  -4  -7  -6   16.93    0.94
   4  -7   6   17.72    0.95
   4   7   6   16.11    0.79
   5  -7   6   26.86    1.26
  -5  -7  -6   27.48    1.25
   5   7   6   26.75    1.12
  -6  -7  -6    4.76    0.62
   6  -7   6    5.05    0.72
   6   7   6    5.08    0.57
  -7  -7  -6    3.00    0.66
   7  -7   6    4.48    0.74
   7   7   6    3.56    0.60
  -8  -7  -6    5.28    0.78
   8  -7   6    4.30    0.80
   8   7   6    5.05    0.73
   9  -7   6    1.36    0.79
  -9  -7  -6    0.54    0.73
   9   7   6    2.59    0.75
  12   8  -6    3.10    1.21
  11   8  -6    1.96    0.89
  10  -8  -6    4.31    0.92
  10   8  -6    5.69    0.87
   9  -8  -6    9.86    1.01
   9   8  -6   11.84    1.00
   8  -8  -6   13.12    1.13
   8   8  -6   13.86    0.95
   7  -8  -6   11.49    0.99
   7   8  -6    9.15    0.73
   6  -8  -6   17.41    1.04
   6   8  -6   19.58    0.86
   6   8  -6   17.15    0.88
   5  -8  -6   20.31    1.04
   5   8  -6   19.41    0.90
   5   8  -6   21.45    0.91
   4  -8  -6   15.03    0.86
   4   8  -6   15.07    0.74
   3  -8  -6   26.80    1.11
   3   8  -6   24.12    1.00
   2  -8  -6   45.56    1.65
   2   8  -6   43.61    1.59
   1  -8  -6   27.76    1.14
  -1  -8   6   29.57    1.11
   0  -8  -6    6.19    0.54
   0  -8  -6    6.03    0.53
   0  -8   6    6.66    0.50
   1  -8   6   13.09    0.70
  -1  -8  -6   13.16    0.73
  -1  -8  -6   14.11    0.69
  -2  -8  -6   12.18    0.61
  -2  -8  -6   11.12    0.72
   2  -8   6   11.25    0.70
  -3  -8  -6   10.49    0.74
   3  -8   6   11.03    0.75
  -4  -8  -6    1.52    0.43
   4  -8   6    2.31    0.52
   5  -8   6    9.15    0.87
  -5  -8  -6    9.02    0.86
   5   8   6    6.95    0.66
   6  -8   6    2.35    0.64
  -6  -8  -6    2.24    0.57
   6   8   6    2.15    0.51
   7  -8   6    7.38    0.87
  -7  -8  -6    6.53    0.76
   7   8   6    8.45    0.82
  -8  -8  -6    0.79    0.68
   8  -8   6    2.22    0.76
   8   8   6    1.10    0.65
  -9  -8  -6    1.96    0.79
   9  -8   6    3.60    0.83
   9   8   6    2.93    0.82
  11  -9  -6    2.79    0.98
  11   9  -6    1.81    0.91
  10  -9  -6    1.36    0.89
  10   9  -6    2.35    0.85
   9  -9  -6    0.75    0.83
   9   9  -6    1.95    0.73
   8  -9  -6   19.89    1.26
   8   9  -6   16.46    1.08
   7  -9  -6    1.93    0.67
   7   9  -6    1.40    0.55
   6  -9  -6    3.57    0.65
   6   9  -6    3.95    0.54
   5  -9  -6    4.01    0.60
   5   9  -6    3.19    0.46
   4  -9  -6   25.53    1.14
   4   9  -6   22.08    0.99
   3  -9  -6   12.91    0.81
   3   9  -6   12.89    0.69
   2  -9  -6   23.54    1.04
   2   9  -6   22.25    0.96
  -1  -9   6   24.81    1.02
   1  -9  -6   25.42    1.08
   0  -9   6    9.61    0.60
   0  -9  -6    9.69    0.63
   0  -9  -6   10.82    0.66
  -1  -9  -6   32.03    1.30
  -1  -9  -6   34.26    1.25
   1  -9   6   32.42    1.28
   2  -9   6   19.88    0.94
  -2  -9  -6   18.18    0.96
  -2  -9  -6   22.23    0.87
  -3  -9  -6   22.20    1.05
   3  -9   6   21.87    1.05
   4  -9   6    8.25    0.83
  -4  -9  -6    8.22    0.81
  -5  -9  -6   10.11    0.90
   5  -9   6    8.82    0.92
  -6  -9  -6    1.63    0.57
   6  -9   6    1.97    0.66
  -7  -9  -6    1.63    0.64
   7  -9   6    2.23    0.74
   8  -9   6    4.12    0.82
  -8  -9  -6    2.81    0.75
  -9  -9  -6    1.20    0.82
   9  -9   6    2.14    0.85
  11 -10  -6    2.68    1.02
  11  10  -6    2.10    0.96
  10 -10  -6    3.10    0.97
  10  10  -6    4.83    0.91
   9 -10  -6    0.79    0.83
   9  10  -6    0.13    0.74
   8 -10  -6    8.05    0.94
   8  10  -6    8.29    0.81
   7 -10  -6   24.93    1.33
   7  10  -6   19.71    1.14
   6 -10  -6    4.23    0.71
   6  10  -6    3.60    0.55
   5 -10  -6    1.48    0.57
   5  10  -6    1.01    0.44
   4 -10  -6   21.38    1.10
   4  10  -6   20.19    0.94
   3 -10  -6   11.42    0.85
   3  10  -6   11.67    0.70
   2 -10  -6    1.05    0.46
  -1 -10   6    6.00    0.54
   1 -10  -6    5.83    0.63
   0 -10   6   13.16    0.74
   0 -10  -6   13.68    0.78
   1 -10   6    3.61    0.45
  -1 -10  -6    3.76    0.45
  -1 -10  -6    2.46    0.40
   2 -10   6    1.70    0.44
  -2 -10  -6    1.22    0.40
  -3 -10  -6   21.75    1.10
   3 -10   6   22.35    1.09
  -4 -10  -6    4.78    0.58
   4 -10   6    6.35    0.67
  -5 -10  -6   -0.20    0.48
   5 -10   6    0.73    0.58
   6 -10   6    0.67    0.65
  -6 -10  -6    0.83    0.57
   7 -10   6    1.93    0.75
  -7 -10  -6    1.67    0.66
  -8 -10  -6    0.05    0.73
   8 -10   6    1.03    0.76
  11 -11  -6    0.76    1.03
  11  11  -6    0.65    1.17
  10 -11  -6    0.08    0.95
  10  11  -6    1.52    0.86
   9 -11  -6   -0.62    0.85
   9  11  -6    0.27    0.74
   8 -11  -6   10.99    1.04
   8  11  -6    8.60    0.88
   7 -11  -6    1.80    0.74
   7  11  -6    0.86    0.60
   6 -11  -6    5.02    0.76
   6  11  -6    5.64    0.65
   5 -11  -6    3.92    0.68
   5  11  -6    3.98    0.55
   4 -11  -6   10.14    0.88
   4  11  -6   10.89    0.75
   3 -11  -6    7.27    0.68
   3  11  -6    6.55    0.66
   2 -11  -6    4.37    0.57
  -1 -11   6   23.33    1.02
   1 -11  -6   23.45    1.09
   0 -11  -6   10.52    0.76
   0 -11   6   10.71    0.73
  -1 -11  -6    5.79    0.64
  -1 -11  -6    5.06    0.52
   1 -11   6    5.87    0.56
  -2 -11  -6    9.61    0.77
   2 -11   6   10.46    0.79
   3 -11   6   26.20    1.24
  -3 -11  -6   26.79    1.24
   4 -11   6    2.55    0.59
  -4 -11  -6    1.97    0.53
  -5 -11  -6    2.63    0.59
   5 -11   6    3.00    0.67
  -6 -11  -6   10.02    1.08
   6 -11   6   10.70    1.10
   7 -11   6    5.33    0.87
  -7 -11  -6    3.04    0.72
  -8 -11  -6   -1.46    0.66
   8 -11   6    0.69    0.79
  10 -12  -6    1.91    1.01
  10  12  -6    3.29    0.91
   9 -12  -6    0.23    0.91
   9  12  -6   -1.20    0.77
   8 -12  -6    0.75    0.83
   8  12  -6    1.55    0.73
   7 -12  -6   13.86    1.21
   7  12  -6   14.10    1.01
   6 -12  -6    2.35    0.73
   6  12  -6    2.96    0.61
   5 -12  -6    0.17    0.62
   5  12  -6    1.30    0.52
   4 -12  -6    8.43    0.92
   4  12  -6    8.22    0.75
   3 -12  -6   13.62    0.94
   3  12  -6   12.76    0.82
   2 -12  -6    2.97    0.56
  -2 -12   6    2.78    0.48
   1 -12  -6    4.59    0.56
  -1 -12   6    2.83    0.46
   0 -12  -6   21.17    1.03
   0 -12   6   21.23    1.03
  -1 -12  -6    2.40    0.47
  -1 -12  -6    1.71    0.44
   1 -12   6    2.21    0.50
   2 -12   6    1.12    0.49
  -2 -12  -6    1.33    0.45
   3 -12   6   11.28    0.90
  -3 -12  -6   10.27    0.89
   4 -12   6    3.95    0.68
  -4 -12  -6    3.19    0.60
   5 -12   6    3.34    0.71
  -5 -12  -6    2.37    0.63
  -6 -12  -6    0.00    0.62
   6 -12   6    1.45    0.72
  -7 -12  -6    1.81    0.73
   7 -12   6    1.92    0.83
  10 -13  -6   -0.62    1.01
  10  13  -6    0.81    0.94
   9 -13  -6   -0.33    0.92
   9  13  -6    0.15    0.82
   8 -13  -6    0.94    0.89
   8  13  -6    1.85    0.75
   7 -13  -6    0.72    0.79
   7  13  -6    0.97    0.65
   6 -13  -6    0.19    0.73
   6  13  -6    0.88    0.62
   5 -13  -6    2.49    0.73
   5  13  -6    3.07    0.62
   4 -13  -6    6.10    0.77
   4  13  -6    6.90    0.69
   3 -13  -6    0.52    0.57
   3  13  -6    0.26    0.48
  -2 -13   6    2.08    0.48
   2 -13  -6    2.19    0.59
   1 -13  -6   14.68    0.95
  -1 -13   6   16.22    0.90
   0 -13   6    8.73    0.79
   0 -13  -6    7.98    0.78
  -1 -13  -6    1.72    0.48
   1 -13   6    1.64    0.51
  -1 -13  -6    0.99    0.46
   2 -13   6    7.76    0.71
  -2 -13  -6    7.17    0.82
  -3 -13  -6   10.02    0.94
   3 -13   6    8.71    0.91
  -4 -13  -6    0.72    0.55
   4 -13   6    0.78    0.61
   5 -13   6    1.76    0.70
  -5 -13  -6    0.87    0.62
  -6 -13  -6    6.04    0.81
   6 -13   6    7.94    0.90
  -7 -13  -6    0.61    0.71
   7 -13   6    1.09    0.81
   9 -14  -6    0.39    0.99
   9  14  -6    0.94    0.84
   8 -14  -6    1.68    0.91
   8  14  -6    1.71    0.78
   7 -14  -6    0.91    0.85
   7  14  -6    1.61    0.73
   6 -14  -6    4.02    0.88
   6  14  -6    3.39    0.70
   5 -14  -6    2.21    0.78
   5  14  -6    3.32    0.68
   4 -14  -6    0.21    0.67
   4  14  -6    0.59    0.57
   3 -14  -6    1.99    0.66
   3  14  -6    3.54    0.60
   2 -14  -6    5.78    0.73
  -2 -14   6    5.72    0.62
  -1 -14   6    4.40    0.58
   1 -14  -6    4.80    0.66
   0 -14   6    5.74    0.63
   0 -14  -6    4.76    0.62
   1 -14   6    2.65    0.57
  -1 -14  -6    1.86    0.52
   2 -14   6    7.39    0.75
  -2 -14  -6    5.22    0.66
   3 -14   6    1.24    0.60
  -3 -14  -6    0.83    0.55
   4 -14   6    1.39    0.68
  -4 -14  -6    1.49    0.61
   5 -14   6    3.50    0.78
  -5 -14  -6    3.11    0.71
   6 -14   6    1.94    0.81
  -6 -14  -6    1.58    0.71
   9 -15  -6   -1.23    1.22
   8 -15  -6    0.38    0.93
   8  15  -6    0.31    0.81
   7 -15  -6   -1.08    0.87
   7  15  -6    0.82    0.75
   6 -15  -6    3.43    0.92
   6  15  -6    2.86    0.76
   5 -15  -6   -0.11    0.78
   5  15  -6   -0.39    0.65
   4 -15  -6    1.60    0.76
   4  15  -6    1.77    0.64
   3 -15  -6    1.71    0.69
   2 -15  -6    4.41    0.73
  -2 -15   6    5.71    0.65
   1 -15  -6    4.60    0.69
  -1 -15   6    4.33    0.61
   0 -15   6    1.30    0.54
   0 -15  -6    1.46    0.57
   1 -15   6   10.09    0.95
  -1 -15  -6    9.96    0.97
   2 -15   6    4.84    0.71
  -2 -15  -6    4.38    0.66
   3 -15   6    3.60    0.70
  -3 -15  -6    2.53    0.64
  -4 -15  -6    4.88    0.73
   4 -15   6    4.79    0.78
   5 -15   6    5.47    0.85
  -5 -15  -6    4.02    0.77
   6 -15   6    3.63    0.87
  -6 -15  -6    2.94    0.77
   8 -16  -6    1.31    1.03
   8  16  -6    2.43    0.86
   7 -16  -6   -0.49    0.93
   7  16  -6    0.53    0.79
   6 -16  -6    1.54    0.93
   6  16  -6    2.86    0.78
   5 -16  -6    5.70    1.00
   5  16  -6    6.24    0.82
   4 -16  -6    0.12    0.79
   4  16  -6    0.12    0.65
  -3 -16   6    1.19    0.55
   3 -16  -6    0.47    0.74
   2 -16  -6    5.39    0.81
  -2 -16   6    4.67    0.65
   1 -16  -6    3.80    0.73
  -1 -16   6    5.45    0.68
   0 -16   6    0.77    0.57
   0 -16  -6    0.22    0.63
  -1 -16  -6    1.41    0.59
   1 -16   6    1.88    0.62
   2 -16   6    6.87    0.79
  -2 -16  -6    5.10    0.75
   3 -16   6    0.80    0.65
  -3 -16  -6    0.55    0.63
   4 -16   6    0.58    0.70
  -4 -16  -6    0.69    0.66
  -5 -16  -6    0.77    0.70
   5 -16   6    1.70    0.79
   7 -17  -6    0.78    1.03
   7  17  -6    0.63    0.83
   6 -17  -6    3.86    1.05
   6  17  -6    3.61    0.85
   5 -17  -6   -0.78    0.89
   5  17  -6    0.27    0.71
   4 -17  -6   -0.38    0.83
   3 -17  -6    1.90    0.81
  -3 -17   6    2.12    0.61
   2 -17  -6    1.88    0.77
  -2 -17   6    2.11    0.60
  -1 -17   6   -0.50    0.55
   1 -17  -6   -0.88    0.65
   0 -17   6    2.04    0.66
   0 -17  -6    2.34    0.62
  -1 -17  -6    7.04    0.79
   1 -17   6    9.09    0.86
   2 -17   6    0.18    0.65
  -2 -17  -6    0.69    0.63
  -3 -17  -6   -0.26    0.64
   3 -17   6   -0.67    0.66
   4 -17   6    1.79    0.78
  -4 -17  -6    1.73    0.73
   6 -18  -6    2.00    1.19
   6  18  -6    1.20    0.83
   5 -18  -6    5.33    1.08
   5  18  -6    4.15    0.85
   4 -18  -6    0.08    0.90
  -3 -18   6    0.62    0.59
   3 -18  -6   -0.34    0.81
   2 -18  -6    3.98    0.88
  -2 -18   6    3.48    0.69
  -1 -18   6    0.64    0.63
   1 -18  -6    0.79    0.75
   0 -18   6   -0.01    0.62
   0 -18  -6    0.84    0.61
   1 -18   6    0.96    0.66
  -1 -18  -6    1.10    0.65
   2 -18   6    2.63    0.75
  -2 -18  -6    2.76    0.73
   3 -18   6   -1.06    0.68
  -3 -18  -6    0.17    0.68
  -4 -19   6    0.32    0.62
   4 -19  -6   -1.45    0.91
  -3 -19   6    2.65    0.69
   3 -19  -6    2.57    0.94
  -2 -19   6    0.57    0.64
   2 -19  -6    0.74    0.85
  -1 -19   6    1.15    0.68
   0 -19  -6    2.52    0.71
   0 -19   6    1.04    0.69
   1 -19   6    0.16    0.68
  -1 -19  -6    1.41    0.69
  13   0  -7    1.67    0.94
  12   0  -7    2.87    0.87
  11   0  -7    4.73    0.82
  10   0  -7    5.45    0.75
   9   0  -7    2.72    0.57
   9   0  -7    2.95    0.86
   8   0  -7    0.57    0.52
   8   0  -7    1.75    0.46
   7   0  -7    6.57    0.62
   7   0  -7    5.64    0.51
   6   0  -7    2.41    0.46
   6   0  -7    2.42    0.36
   5   0  -7   36.51    1.33
   5   0  -7   38.58    1.43
   3   0  -7    1.34    0.30
   3   0  -7    0.99    0.21
   2   0  -7  117.61    3.79
   2   0  -7  114.14    3.71
  -2   0   7  112.42    3.73
   1   0  -7   39.71    1.41
  -1   0   7   38.53    1.36
   1   0  -7   40.03    1.35
   0   0  -7   28.41    1.02
   0   0  -7   27.92    1.05
   0   0   7   28.16    1.03
  -1   0  -7   54.45    1.85
  -1   0  -7   53.91    1.84
   1   0   7   52.66    1.84
   2   0   7  152.41    5.08
  -2   0  -7  159.94    5.09
  -2   0  -7  152.86    5.05
  -3   0  -7    3.49    0.40
  -3   0  -7    3.88    0.41
   3   0   7    3.30    0.45
   4   0   7    5.84    0.55
  -4   0  -7    4.61    0.50
  -5   0  -7   51.55    1.98
   5   0   7   50.97    1.92
   6   0   7   13.53    0.94
   7   0   7    3.67    0.66
   8   0   7    7.19    0.81
   9   0   7    6.45    0.85
  13  -1  -7    0.42    0.90
  13   1  -7   -0.51    0.90
  12  -1  -7    8.01    0.97
  12   1  -7    7.34    0.97
  11  -1  -7    5.96    0.85
  11   1  -7    6.45    0.87
  10  -1  -7    0.75    0.64
  10   1  -7   -0.21    0.64
   9  -1  -7    6.75    0.72
   9  -1  -7    6.70    0.67
   9   1  -7    7.48    0.69
   8  -1  -7   16.89    1.02
   8  -1  -7   16.09    0.89
   8   1  -7   21.29    1.01
   8   1  -7   18.27    0.91
   7  -1  -7    4.90    0.51
   7  -1  -7    7.44    0.66
   7   1  -7    6.78    0.61
   7   1  -7    5.83    0.59
   6  -1  -7    5.28    0.44
   6  -1  -7    6.11    0.64
   6   1  -7    4.91    0.48
   6   1  -7    5.69    0.62
   5  -1  -7   76.01    2.68
   5  -1  -7   77.96    2.60
   5   1  -7   78.03    2.67
   5   1  -7   80.82    2.62
   4  -1  -7  182.21    5.85
   4  -1  -7  179.67    5.92
   4   1  -7  185.74    5.87
   4   1  -7  177.68    5.91
   3  -1  -7   15.77    0.73
   3  -1  -7   15.90    0.62
   3   1  -7   16.39    0.72
   3   1  -7   15.88    0.65
   2  -1  -7   10.67    0.43
   2  -1  -7    9.79    0.54
  -2   1   7    8.82    0.44
   2   1  -7    9.30    0.53
   2   1  -7    9.66    0.39
   1  -1  -7  125.82    4.16
  -1  -1   7  127.18    4.12
   1  -1  -7  128.82    4.12
  -1   1   7  126.88    4.11
   1   1  -7  126.41    4.16
   1   1  -7  124.67    4.10
   0  -1   7   30.26    1.10
   0  -1  -7   29.81    1.11
   0  -1  -7   30.77    1.10
   0   1  -7   29.85    1.07
   0   1   7   31.04    1.09
   0   1  -7   30.26    1.12
  -1  -1  -7    4.10    0.41
  -1  -1  -7    4.08    0.38
   1  -1   7    3.99    0.37
  -1   1  -7    4.10    0.40
  -1   1  -7    4.13    0.37
   1   1   7    4.46    0.37
   2  -1   7   41.35    1.47
  -2  -1  -7   38.95    1.42
  -2  -1  -7   40.20    1.46
  -2   1  -7   39.73    1.43
  -2   1  -7   39.73    1.45
   2   1   7   39.49    1.44
  -3  -1  -7   51.44    1.80
   3  -1   7   48.71    1.78
  -3  -1  -7   47.39    1.69
  -3   1  -7   48.98    1.72
   3   1   7   47.73    1.76
  -3   1  -7   50.12    1.79
   4  -1   7   15.48    0.88
  -4  -1  -7   17.55    0.93
  -4   1  -7   16.99    0.90
   4   1   7   16.16    0.86
  -5  -1  -7   23.95    1.18
   5  -1   7   22.18    1.11
   5   1   7   22.32    1.08
   6  -1   7    8.25    0.86
  -6  -1  -7    9.64    0.97
   6   1   7    8.79    0.85
   7  -1   7    3.18    0.66
   7   1   7    3.53    0.63
   8  -1   7    3.09    0.69
   8   1   7    3.71    0.70
   9  -1   7    3.00    0.77
   9   1   7    3.52    0.77
  12  -2  -7    2.90    0.85
  12   2  -7    2.45    0.87
  11  -2  -7    3.53    0.77
  11   2  -7    4.14    0.82
  10  -2  -7    4.93    0.69
  10   2  -7    3.84    0.73
   9  -2  -7    3.83    0.70
   9  -2  -7    2.65    0.57
   9   2  -7    3.78    0.61
   8  -2  -7    0.21    0.62
   8  -2  -7    1.06    0.46
   8   2  -7    2.54    0.50
   8   2  -7    2.53    0.53
   7  -2  -7    5.68    0.53
   7  -2  -7    6.98    0.69
   7   2  -7    6.79    0.61
   7   2  -7    6.30    0.68
   6  -2  -7    4.74    0.57
   6  -2  -7    4.11    0.41
   6   2  -7    4.77    0.49
   6   2  -7    4.09    0.43
   5  -2  -7   23.21    1.03
   5  -2  -7   23.45    0.87
   5   2  -7   22.36    0.98
   5   2  -7   22.54    0.92
   4  -2  -7   31.18    1.05
   4  -2  -7   29.05    1.18
   4   2  -7   30.23    1.10
   4   2  -7   28.94    1.15
   3  -2  -7   15.22    0.72
   3  -2  -7   14.48    0.57
   3   2  -7   14.86    0.70
   3   2  -7   14.72    0.63
   2  -2  -7   45.88    1.56
   2  -2  -7   48.02    1.64
  -2   2   7   44.25    1.54
   2   2  -7   46.89    1.63
   1  -2  -7    7.93    0.47
  -1  -2   7    7.95    0.44
   1  -2  -7    7.76    0.43
  -1   2   7    8.94    0.41
   1   2  -7    8.30    0.50
   1   2  -7    7.76    0.36
   0  -2  -7   13.25    0.60
   0  -2  -7   13.40    0.59
   0  -2   7   13.41    0.59
   0   2  -7   12.12    0.54
   0   2   7   13.15    0.57
   0   2  -7   12.52    0.62
  -1  -2  -7   49.01    1.71
  -1  -2  -7   48.79    1.69
   1  -2   7   48.30    1.71
   1   2   7   49.48    1.69
  -1   2  -7   48.27    1.68
  -1   2  -7   49.34    1.70
  -2  -2  -7  124.53    4.06
   2  -2   7  123.47    4.10
  -2  -2  -7  128.65    4.12
  -2   2  -7  120.10    4.09
   2   2   7  122.55    4.08
  -2   2  -7  124.62    4.09
   3  -2   7    7.78    0.62
  -3  -2  -7    8.91    0.65
  -3  -2  -7    8.22    0.49
   3   2   7    7.63    0.57
  -4  -2  -7   23.30    1.09
   4  -2   7   22.61    1.08
  -4  -2  -7   25.68    1.03
   4   2   7   20.79    1.01
  -5  -2  -7   36.09    1.50
   5  -2   7   32.97    1.45
   5   2   7   34.62    1.40
  -6  -2  -7    9.20    0.96
   6  -2   7   11.49    0.93
   6   2   7    8.90    0.83
  -7  -2  -7    3.19    0.67
   7  -2   7    4.59    0.70
   7   2   7    4.54    0.66
   8  -2   7    2.87    0.71
   8   2   7    3.17    0.69
   9  -2   7    6.51    0.86
   9   2   7    5.98    0.84
  12  -3  -7    5.53    0.88
  12   3  -7    4.99    0.93
  11  -3  -7    5.57    0.80
  11   3  -7    5.97    0.87
  10  -3  -7    4.35    0.66
  10   3  -7    4.29    0.75
   9  -3  -7    7.51    0.68
   9  -3  -7    9.00    0.86
   9   3  -7    9.04    0.83
   8  -3  -7   15.02    0.84
   8  -3  -7   14.17    1.05
   8   3  -7   18.65    0.90
   8   3  -7   17.30    0.90
   7  -3  -7    4.32    0.66
   7  -3  -7    4.89    0.46
   7   3  -7    4.47    0.51
   7   3  -7    5.41    0.53
   6  -3  -7   12.25    0.59
   6  -3  -7   11.98    0.84
   6   3  -7   12.49    0.73
   6   3  -7   11.65    0.67
   5  -3  -7   36.79    1.44
   5  -3  -7   37.60    1.29
   5   3  -7   36.52    1.39
   5   3  -7   37.32    1.36
   4  -3  -7   62.71    2.04
   4  -3  -7   63.52    2.18
   4   3  -7   58.57    2.14
   4   3  -7   62.66    2.10
   3  -3  -7   92.55    3.04
   3  -3  -7   94.72    3.16
   3   3  -7   92.45    3.14
   3   3  -7   95.89    3.11
   2  -3  -7   41.30    1.49
  -2   3   7   40.34    1.38
   2   3  -7   42.79    1.49
   1  -3  -7   34.81    1.28
   1  -3  -7   34.09    1.31
  -1  -3   7   36.76    1.29
   1   3  -7   36.65    1.33
  -1   3   7   38.81    1.24
   0  -3  -7    4.89    0.40
   0  -3  -7    4.81    0.40
   0  -3   7    4.76    0.41
   0   3  -7    4.59    0.43
   0   3   7    5.62    0.36
   1  -3   7   68.77    2.33
  -1  -3  -7   67.68    2.30
  -1  -3  -7   70.06    2.33
  -1   3  -7   67.23    2.32
   1   3   7   67.78    2.29
  -2  -3  -7   15.18    0.66
   2  -3   7   14.95    0.74
  -2  -3  -7   15.40    0.76
   2   3   7   14.15    0.68
  -2   3  -7   14.29    0.71
  -3  -3  -7   17.58    0.87
  -3  -3  -7   18.61    0.75
   3  -3   7   17.45    0.89
   3   3   7   17.45    0.80
   4  -3   7    4.20    0.53
  -4  -3  -7    3.73    0.48
   4   3   7    3.28    0.44
   5  -3   7   33.93    1.50
  -5  -3  -7   37.69    1.55
   5   3   7   36.78    1.44
   6  -3   7    9.05    0.87
  -6  -3  -7    9.82    0.96
   6   3   7    8.50    0.80
  -7  -3  -7    2.76    0.66
   7  -3   7    2.51    0.66
   7   3   7    2.26    0.59
  -8  -3  -7    4.29    0.76
   8  -3   7    5.22    0.78
   8   3   7    5.03    0.73
   9  -3   7    2.56    0.74
   9   3   7    3.24    0.74
  12   4  -7    2.26    0.91
  11   4  -7    1.12    0.79
  10  -4  -7    2.42    0.62
  10  -4  -7    2.87    0.79
  10   4  -7    2.70    0.73
   9  -4  -7    6.26    0.83
   9  -4  -7    5.19    0.62
   9   4  -7    6.71    0.72
   8  -4  -7   -0.82    0.65
   8  -4  -7   -0.73    0.43
   8   4  -7    1.58    0.51
   7  -4  -7   13.21    0.67
   7  -4  -7   13.26    0.93
   7   4  -7   11.46    0.74
   7   4  -7   13.56    0.77
   6  -4  -7    1.11    0.55
   6  -4  -7    2.65    0.34
   6   4  -7    3.34    0.45
   6   4  -7    2.88    0.41
   5  -4  -7   18.58    1.00
   5  -4  -7   20.07    0.78
   5   4  -7   22.41    0.88
   5   4  -7   21.76    0.93
   4  -4  -7   14.64    0.57
   4  -4  -7   14.32    0.83
   4   4  -7   15.64    0.69
   4   4  -7   15.49    0.75
   3  -4  -7    4.07    0.46
   3   4  -7    4.21    0.41
   3   4  -7    4.03    0.41
   2  -4  -7   58.64    2.05
   2   4  -7   59.69    2.04
  -2   4   7   58.25    1.92
   1  -4  -7   16.26    0.69
   1  -4  -7   16.71    0.74
  -1  -4   7   15.84    0.70
   1   4  -7   16.55    0.73
  -1   4   7   16.53    0.62
   0  -4   7   16.67    0.73
   0  -4  -7   17.58    0.73
   0  -4  -7   17.15    0.73
   0   4  -7   16.66    0.75
   0   4   7   15.96    0.65
  -1  -4  -7   22.52    0.89
   1  -4   7   21.50    0.93
  -1  -4  -7   23.23    0.94
  -1   4  -7   23.37    0.93
   1   4   7   23.07    0.86
  -2  -4  -7   28.11    1.02
  -2  -4  -7   26.71    1.11
   2  -4   7   27.17    1.11
   2   4   7   27.06    1.03
  -3  -4  -7   16.37    0.86
   3  -4   7   16.13    0.85
  -3  -4  -7   16.97    0.70
   3   4   7   17.18    0.77
  -4  -4  -7   28.12    1.24
   4  -4   7   27.20    1.22
   4   4   7   27.95    1.13
  -5  -4  -7   15.55    1.01
   5  -4   7   16.06    0.96
   5   4   7   14.74    0.86
  -6  -4  -7    9.04    0.96
   6  -4   7    9.69    0.83
   6   4   7    8.10    0.76
  -7  -4  -7    7.54    0.80
   7  -4   7    8.75    0.84
   7   4   7    7.64    0.74
  -8  -4  -7    1.15    0.69
   8  -4   7    2.71    0.74
   8   4   7    1.72    0.63
  -9  -4  -7    3.06    0.81
   9  -4   7    2.44    0.78
   9   4   7    2.70    0.73
  12   5  -7    2.32    0.93
  11   5  -7    0.95    0.82
  10  -5  -7    9.87    0.97
  10   5  -7    9.10    0.92
   9  -5  -7    9.38    0.94
   9   5  -7    9.28    0.89
   8  -5  -7    6.69    0.83
   8   5  -7    7.58    0.68
   7  -5  -7   11.41    0.95
   7  -5  -7   10.91    0.78
   7   5  -7   11.53    0.73
   7   5  -7   11.62    0.74
   6  -5  -7   41.29    1.62
   6  -5  -7   39.11    1.43
   6   5  -7   41.95    1.51
   6   5  -7   38.53    1.49
   5  -5  -7    8.13    0.73
   5  -5  -7    8.12    0.45
   5   5  -7    9.45    0.63
   5   5  -7    9.32    0.58
   4  -5  -7   17.28    0.63
   4  -5  -7   17.58    0.87
   4   5  -7   16.62    0.81
   4   5  -7   16.92    0.76
   3  -5  -7   85.27    2.86
   3   5  -7   83.31    2.80
   3   5  -7   82.62    2.83
   2  -5  -7   69.75    2.38
   2   5  -7   68.54    2.37
   1  -5  -7    9.68    0.59
   1  -5  -7    9.96    0.55
   1   5  -7    9.75    0.57
   0  -5   7    7.36    0.50
   0  -5  -7    7.32    0.50
   0  -5  -7    6.79    0.50
   0   5  -7    7.21    0.50
   0   5   7    7.35    0.36
  -1  -5  -7   82.89    2.78
  -1  -5  -7   85.64    2.83
   1  -5   7   83.26    2.82
   1   5   7   82.18    2.74
  -2  -5  -7    8.73    0.50
  -2  -5  -7    9.01    0.64
   2  -5   7    8.33    0.62
   2   5   7    8.59    0.49
   3  -5   7    4.27    0.49
  -3  -5  -7    4.51    0.40
  -3  -5  -7    3.91    0.45
   3   5   7    3.95    0.40
   4  -5   7    7.70    0.75
  -4  -5  -7    7.50    0.74
   4   5   7    8.77    0.62
   5  -5   7   18.70    1.05
  -5  -5  -7   19.02    1.07
   5   5   7   18.49    0.93
   6  -5   7    0.98    0.59
  -6  -5  -7    0.54    0.54
   6   5   7    0.93    0.50
  -7  -5  -7    1.13    0.61
   7  -5   7    1.84    0.67
   7   5   7    1.69    0.56
  -8  -5  -7    3.28    0.74
   8  -5   7    3.79    0.76
   8   5   7    3.20    0.66
  -9  -5  -7    0.68    0.73
   9  -5   7    2.43    0.77
   9   5   7    1.05    0.70
  12   6  -7    3.39    0.98
  11   6  -7    0.51    0.83
  10  -6  -7    1.94    0.85
  10   6  -7    3.65    0.78
   9  -6  -7    5.83    0.89
   9   6  -7    8.18    0.81
   8  -6  -7    3.01    0.77
   8   6  -7    3.15    0.60
   7  -6  -7    8.68    0.96
   7   6  -7    8.92    0.68
   7   6  -7    5.44    0.59
   6  -6  -7    2.39    0.60
   6   6  -7    2.40    0.46
   6   6  -7    2.67    0.46
   5  -6  -7    8.42    0.76
   5   6  -7   10.79    0.69
   5   6  -7    8.97    0.62
   4  -6  -7   17.46    0.90
   4   6  -7   18.10    0.82
   4   6  -7   15.84    0.76
   3  -6  -7    6.26    0.64
   3   6  -7    6.77    0.57
   3   6  -7    7.06    0.51
   2  -6  -7    4.64    0.50
   2   6  -7    4.48    0.44
  -1  -6   7    0.87    0.27
   1  -6  -7    0.65    0.26
   1  -6  -7    0.38    0.34
   1   6  -7    0.92    0.31
   0  -6   7   39.29    1.43
   0  -6  -7   38.91    1.44
   0  -6  -7   38.76    1.42
  -1  -6  -7   10.93    0.59
   1  -6   7   10.67    0.63
  -1  -6  -7   10.47    0.66
   2  -6   7    1.93    0.39
  -2  -6  -7    1.49    0.30
  -2  -6  -7    1.30    0.34
   2   6   7    1.41    0.28
   3  -6   7   15.56    0.87
  -3  -6  -7   15.53    0.87
   3   6   7   15.63    0.73
   4  -6   7   12.96    0.89
  -4  -6  -7   14.26    0.89
   4   6   7   13.03    0.73
   5  -6   7    2.82    0.57
  -5  -6  -7    2.69    0.52
   5   6   7    2.82    0.46
  -6  -6  -7    2.14    0.58
   6  -6   7    3.03    0.67
   6   6   7    2.46    0.51
   7  -6   7   10.96    0.96
  -7  -6  -7    9.70    0.90
   7   6   7   10.51    0.88
   8  -6   7    2.68    0.74
  -8  -6  -7    1.70    0.71
   8   6   7    2.46    0.66
  -9  -6  -7    0.48    0.75
   9  -6   7    1.38    0.78
   9   6   7    1.67    0.72
  12   7  -7    2.97    1.00
  11   7  -7    1.72    0.89
  10  -7  -7    6.79    0.99
  10   7  -7    7.49    0.90
   9  -7  -7   13.97    1.26
   9   7  -7   12.62    1.03
   8  -7  -7    1.29    0.76
   8   7  -7    2.54    0.61
   7  -7  -7   10.99    1.06
   7   7  -7   11.94    0.83
   6  -7  -7   29.28    1.38
   6   7  -7   32.24    1.23
   6   7  -7   29.10    1.24
   5  -7  -7    8.06    0.70
   5   7  -7    7.56    0.62
   5   7  -7    7.36    0.59
   4  -7  -7   11.06    0.80
   4   7  -7   13.51    0.73
   4   7  -7   12.15    0.66
   3  -7  -7   43.41    1.62
   3   7  -7   43.29    1.58
   3   7  -7   41.38    1.54
   2  -7  -7   40.15    1.49
   2   7  -7   37.14    1.44
  -1  -7   7    7.89    0.52
   1  -7  -7    5.97    0.59
   0  -7   7   19.02    0.88
   0  -7  -7   21.38    0.90
   0  -7  -7   20.72    0.91
  -1  -7  -7   42.77    1.49
   1  -7   7   39.72    1.52
  -1  -7  -7   40.50    1.54
   2  -7   7    3.06    0.45
  -2  -7  -7    3.36    0.42
  -2  -7  -7    3.74    0.38
  -3  -7  -7   18.98    0.97
   3  -7   7   18.93    0.95
  -4  -7  -7    5.59    0.57
   4  -7   7    5.85    0.65
   5  -7   7    9.83    0.81
  -5  -7  -7    8.30    0.86
   6  -7   7    5.95    0.77
  -6  -7  -7    5.04    0.67
   6   7   7    5.40    0.69
  -7  -7  -7    1.08    0.63
   7  -7   7    1.76    0.71
   7   7   7    2.25    0.64
   8  -7   7    2.07    0.77
  -8  -7  -7    1.61    0.69
   8   7   7    1.33    0.79
   9   7   7    0.90    1.11
  11  -8  -7    1.94    0.98
  11   8  -7    0.96    0.94
  10  -8  -7    2.11    0.92
  10   8  -7    2.31    0.83
   9  -8  -7    7.81    0.99
   9   8  -7    7.12    0.84
   8  -8  -7    2.29    0.81
   8   8  -7    2.62    0.64
   7  -8  -7    7.56    0.85
   7   8  -7    6.64    0.68
   6  -8  -7    1.09    0.61
   6   8  -7    2.04    0.48
   6   8  -7    1.79    0.46
   5  -8  -7    4.79    0.65
   5   8  -7    4.09    0.49
   5   8  -7    4.81    0.50
   4  -8  -7    5.95    0.64
   4   8  -7    8.11    0.62
   4   8  -7    5.83    0.55
   3  -8  -7    4.13    0.55
   3   8  -7    4.28    0.47
   3   8  -7    4.36    0.45
   2  -8  -7    1.58    0.45
   1  -8  -7    3.07    0.47
  -1  -8   7    2.66    0.35
   0  -8  -7   35.59    1.34
   0  -8  -7   33.27    1.34
   0  -8   7   34.63    1.33
  -1  -8  -7    2.36    0.40
  -1  -8  -7    2.09    0.37
   1  -8   7    1.99    0.39
  -2  -8  -7   11.23    0.62
  -2  -8  -7    9.94    0.76
   2  -8   7    9.95    0.74
   3  -8   7   17.69    0.93
  -3  -8  -7   16.43    0.96
   4  -8   7    8.75    0.84
  -4  -8  -7    7.12    0.81
  -5  -8  -7    4.46    0.61
   5  -8   7    5.05    0.71
   6  -8   7    6.76    0.81
  -6  -8  -7    4.79    0.69
   7  -8   7    9.43    0.95
  -7  -8  -7   10.44    1.13
  -8  -8  -7    2.56    0.76
   8  -8   7    4.45    0.86
  11  -9  -7    5.45    1.07
  11   9  -7    4.98    1.02
  10  -9  -7    3.25    0.99
  10   9  -7    3.84    0.88
   9  -9  -7    5.78    0.97
   9   9  -7    5.51    0.82
   8  -9  -7   10.32    1.02
   8   9  -7    8.79    0.84
   7  -9  -7    4.26    0.81
   7   9  -7    3.71    0.63
   6  -9  -7    5.37    0.77
   6   9  -7    4.79    0.59
   5  -9  -7    5.80    0.68
   5   9  -7    6.16    0.57
   4  -9  -7   21.13    1.10
   4   9  -7   19.72    0.96
   3  -9  -7   10.91    0.87
   3   9  -7   12.53    0.71
   2  -9  -7   15.29    0.89
  -1  -9   7   26.74    1.11
   1  -9  -7   28.27    1.16
   0  -9   7   18.22    0.91
   0  -9  -7   18.31    0.93
   0  -9  -7   19.88    0.91
  -1  -9  -7   28.66    1.11
  -1  -9  -7   25.85    1.17
   1  -9   7   25.97    1.13
  -2  -9  -7    6.60    0.69
   2  -9   7    7.04    0.69
   3  -9   7    5.32    0.60
  -3  -9  -7    4.51    0.55
  -4  -9  -7    5.76    0.63
   4  -9   7    6.32    0.70
  -5  -9  -7    1.48    0.55
   5  -9   7    0.98    0.63
  -6  -9  -7    5.83    0.74
   6  -9   7    7.61    0.86
  -7  -9  -7    1.65    0.66
   7  -9   7    1.34    0.76
   8  -9   7    2.02    0.80
  -8  -9  -7    1.01    0.73
  11 -10  -7    0.43    1.03
  11  10  -7    1.24    0.94
  10 -10  -7    0.23    0.97
  10  10  -7    0.83    0.84
   9 -10  -7    0.38    0.90
   9  10  -7    0.51    0.74
   8 -10  -7    0.82    0.86
   8  10  -7    1.71    0.68
   7 -10  -7    9.35    0.97
   7  10  -7    7.67    0.76
   6 -10  -7    1.61    0.71
   6  10  -7    2.16    0.55
   5 -10  -7    4.62    0.70
   5  10  -7    5.07    0.57
   4 -10  -7    4.27    0.65
   4  10  -7    3.72    0.50
   3 -10  -7   13.04    0.91
   3  10  -7   13.33    0.78
  -2 -10   7    8.13    0.69
   2 -10  -7    9.37    0.81
  -1 -10   7   10.85    0.69
   1 -10  -7   10.76    0.78
   0 -10  -7   28.23    1.19
   0 -10  -7   26.89    1.20
   0 -10   7   28.75    1.19
  -1 -10  -7    9.41    0.69
  -1 -10  -7    8.38    0.76
   1 -10   7    8.86    0.71
  -2 -10  -7    6.93    0.73
   2 -10   7    8.01    0.75
   3 -10   7    3.87    0.58
  -3 -10  -7    3.79    0.55
   4 -10   7    3.00    0.63
  -4 -10  -7    2.20    0.54
  -5 -10  -7    9.47    0.98
   5 -10   7   10.94    0.94
   6 -10   7    6.31    0.85
  -6 -10  -7    5.21    0.73
   7 -10   7    2.52    0.81
  -7 -10  -7    1.10    0.69
  -8 -10  -7    0.76    0.77
   8 -10   7    2.33    0.86
  11 -11  -7    3.34    1.12
  10 -11  -7   -1.25    0.96
  10  11  -7   -1.09    0.85
   9 -11  -7    0.93    0.94
   9  11  -7    0.80    0.80
   8 -11  -7    8.82    1.06
   8  11  -7    9.26    0.89
   7 -11  -7    3.86    0.87
   7  11  -7    3.55    0.69
   6 -11  -7    1.61    0.73
   6  11  -7    1.66    0.60
   5 -11  -7    9.26    1.04
   5  11  -7    8.57    0.76
   4 -11  -7   20.77    1.16
   4  11  -7   18.12    0.99
   3 -11  -7    3.26    0.63
   3  11  -7    2.53    0.50
  -2 -11   7    2.04    0.45
   2 -11  -7    1.58    0.55
  -1 -11   7   24.10    1.09
   1 -11  -7   24.30    1.15
   0 -11  -7    5.96    0.57
   0 -11   7    6.74    0.62
   0 -11  -7    6.56    0.61
   1 -11   7    3.16    0.51
  -1 -11  -7    2.72    0.48
  -1 -11  -7    3.33    0.50
   2 -11   7   22.99    1.15
  -2 -11  -7   23.08    1.17
  -3 -11  -7   10.93    0.94
   3 -11   7   10.85    0.92
  -4 -11  -7    2.15    0.57
   4 -11   7    2.82    0.66
   5 -11   7   -0.49    0.63
  -5 -11  -7    0.48    0.56
  -6 -11  -7    6.19    0.80
   6 -11   7    8.82    0.95
   7 -11   7    0.12    0.79
  -7 -11  -7    0.18    0.68
  10 -12  -7    0.25    1.06
  10  12  -7    0.44    0.91
   9 -12  -7    1.02    0.97
   9  12  -7    2.17    0.84
   8 -12  -7    0.17    0.90
   8  12  -7    1.59    0.74
   7 -12  -7    4.00    0.91
   7  12  -7    4.04    0.73
   6 -12  -7    1.43    0.78
   6  12  -7    0.62    0.61
   5 -12  -7    2.06    0.75
   5  12  -7    2.30    0.60
   4 -12  -7    3.22    0.70
   4  12  -7    4.50    0.62
   3 -12  -7    8.03    0.88
   3  12  -7    6.64    0.65
  -2 -12   7    7.52    0.74
   2 -12  -7    8.09    0.87
  -1 -12   7    2.52    0.47
   1 -12  -7    2.32    0.56
   0 -12  -7    0.69    0.43
   0 -12   7    1.16    0.48
   0 -12  -7    0.96    0.49
  -1 -12  -7    3.89    0.55
   1 -12   7    4.51    0.60
  -1 -12  -7    5.62    0.65
  -2 -12  -7   13.25    0.97
   2 -12   7   12.94    0.96
  -3 -12  -7    0.83    0.51
   3 -12   7    0.66    0.57
  -4 -12  -7   -0.73    0.51
   4 -12   7   -0.45    0.59
   5 -12   7    6.93    0.87
  -5 -12  -7    6.63    0.79
  -6 -12  -7    3.22    0.73
   6 -12   7    4.09    0.85
  -7 -12  -7   -0.19    0.70
   7 -12   7    0.18    0.83
  10 -13  -7   -0.43    1.08
   9 -13  -7    1.97    1.04
   9  13  -7    2.31    0.86
   8 -13  -7    6.37    1.07
   8  13  -7    7.67    0.90
   7 -13  -7    4.03    0.97
   7  13  -7    4.28    0.78
   6 -13  -7    2.06    0.85
   6  13  -7    0.18    0.65
   5 -13  -7    6.61    0.93
   5  13  -7    8.72    0.81
   4 -13  -7    6.44    0.84
   4  13  -7    6.76    0.72
   3 -13  -7    0.81    0.64
   2 -13  -7    5.19    0.71
  -2 -13   7    4.43    0.58
  -1 -13   7   17.30    0.98
   1 -13  -7   15.16    1.03
   0 -13  -7    2.09    0.51
   0 -13  -7    1.73    0.55
   0 -13   7    1.94    0.54
   1 -13   7    2.55    0.57
  -1 -13  -7    1.87    0.51
  -2 -13  -7    6.95    0.70
   2 -13   7    8.54    0.79
  -3 -13  -7    6.29    0.71
   3 -13   7    7.09    0.79
  -4 -13  -7   -0.15    0.57
   4 -13   7    0.11    0.64
   5 -13   7    0.09    0.71
  -5 -13  -7    0.49    0.63
  -6 -13  -7    0.83    0.68
   6 -13   7    1.67    0.81
   9 -14  -7    2.37    1.11
   9  14  -7    3.47    0.91
   8 -14  -7   -0.33    0.98
   8  14  -7    1.13    0.80
   7 -14  -7    0.38    0.94
   7  14  -7    1.75    0.77
   6 -14  -7    0.31    0.89
   6  14  -7    0.39    0.69
   5 -14  -7    6.73    0.96
   5  14  -7    7.09    0.81
   4 -14  -7    4.53    0.83
   4  14  -7    4.37    0.69
   3 -14  -7    1.72    0.71
   2 -14  -7    5.40    0.75
  -2 -14   7    5.41    0.65
  -1 -14   7    2.42    0.57
   1 -14  -7    2.98    0.65
   0 -14   7    3.12    0.63
   0 -14  -7    3.12    0.58
   0 -14  -7    3.71    0.63
  -1 -14  -7    2.02    0.55
   1 -14   7    2.77    0.62
  -2 -14  -7    9.51    0.97
   2 -14   7   10.27    0.88
  -3 -14  -7    1.62    0.60
   3 -14   7    1.85    0.67
   4 -14   7    1.65    0.71
  -4 -14  -7    1.70    0.65
  -5 -14  -7    2.11    0.70
   5 -14   7    1.30    0.77
   6 -14   7    0.50    0.78
  -6 -14  -7    0.60    0.72
   8 -15  -7    1.67    1.06
   8  15  -7    2.35    0.86
   7 -15  -7    0.01    0.97
   7  15  -7    2.06    0.80
   6 -15  -7    3.82    1.01
   6  15  -7    4.81    0.81
   5 -15  -7    3.04    0.92
   5  15  -7    2.95    0.75
   4 -15  -7    1.95    0.82
   4  15  -7    1.51    0.67
   3 -15  -7    4.40    0.82
  -3 -15   7    3.92    0.64
   2 -15  -7    7.38    0.84
  -2 -15   7    7.09    0.74
   1 -15  -7    1.66    0.69
  -1 -15   7    3.06    0.63
   0 -15  -7    3.24    0.72
   0 -15  -7    1.94    0.58
   0 -15   7    2.75    0.64
   1 -15   7    7.73    0.79
  -1 -15  -7    4.90    0.68
  -2 -15  -7    2.61    0.65
   2 -15   7    2.71    0.71
   3 -15   7    1.22    0.68
  -3 -15  -7    1.43    0.63
   4 -15   7    4.08    0.80
  -4 -15  -7    2.84    0.71
  -5 -15  -7    1.03    0.71
   5 -15   7    2.74    0.83
   7 -16  -7   -0.76    1.04
   7  16  -7    0.37    0.82
   6 -16  -7   -0.16    0.99
   6  16  -7    0.76    0.78
   5 -16  -7    0.85    0.94
   5  16  -7    1.55    0.75
   4 -16  -7    2.09    0.88
  -3 -16   7    2.29    0.62
   3 -16  -7    1.95    0.81
   2 -16  -7    0.68    0.73
  -2 -16   7    1.40    0.58
  -1 -16   7    0.05    0.58
   1 -16  -7    1.56    0.70
   0 -16  -7    6.73    0.76
   0 -16   7   10.20    0.87
   1 -16   7    0.63    0.63
  -1 -16  -7    0.73    0.59
   2 -16   7    0.57    0.67
  -2 -16  -7    0.38    0.61
  -3 -16  -7    2.23    0.69
   3 -16   7    2.85    0.76
   4 -16   7    2.04    0.81
  -4 -16  -7    1.86    0.71
   6 -17  -7    4.03    1.14
   6  17  -7    4.23    0.89
   5 -17  -7    2.32    1.03
   5  17  -7    1.81    0.79
   4 -17  -7   -0.34    0.87
   3 -17  -7    3.77    0.92
  -3 -17   7    5.04    0.73
  -2 -17   7    4.15    0.72
   2 -17  -7    5.19    0.90
   1 -17  -7   -0.20    0.73
  -1 -17   7   -0.77    0.60
   0 -17   7    1.36    0.67
   0 -17  -7    2.13    0.65
  -1 -17  -7    6.23    0.78
   1 -17   7    7.24    0.84
  -2 -17  -7   -0.05    0.63
   2 -17   7   -0.77    0.66
  -3 -17  -7    0.10    0.69
   3 -17   7   -0.22    0.71
   5 -18  -7   -1.37    1.02
   4 -18  -7    0.39    0.94
  -4 -18   7    0.98    0.64
  -3 -18   7    1.68    0.66
   3 -18  -7    0.77    0.89
   2 -18  -7    0.33    0.84
  -2 -18   7   -0.08    0.63
  -1 -18   7   -0.09    0.66
   0 -18  -7    2.55    0.69
   0 -18   7    3.21    0.76
  -1 -18  -7    0.56    0.65
   1 -18   7   -0.56    0.67
   2 -18   7   -0.83    0.69
  -2 -18  -7   -0.83    0.72
   3 -19  -7    2.35    1.00
  -3 -19   7    2.82    0.75
  -2 -19   7    1.43    0.72
   2 -19  -7    0.71    0.90
  -1 -19   7    0.16    0.71
   0 -19   7    0.09    0.69
  12   0  -8   11.76    1.13
  11   0  -8    0.01    0.71
  10   0  -8    0.47    0.62
   9   0  -8   12.95    0.97
   9   0  -8    9.73    0.81
   8   0  -8   15.10    0.98
   8   0  -8   15.82    0.86
   7   0  -8    0.72    0.42
   7   0  -8    0.41    0.51
   6   0  -8   37.18    1.46
   6   0  -8   36.62    1.36
   5   0  -8   95.89    3.12
   5   0  -8   92.36    3.19
   4   0  -8   22.05    0.84
   4   0  -8   21.09    0.95
   3   0  -8   10.47    0.44
   3   0  -8   10.37    0.63
   3   0  -8   11.22    0.51
   2   0  -8  118.27    3.80
   2   0  -8  114.75    3.88
  -2   0   8  117.92    3.82
   1   0  -8   29.82    1.17
  -1   0   8   31.90    1.12
   1   0  -8   30.24    1.09
   0   0  -8    7.76    0.53
   0   0  -8    8.38    0.48
   0   0   8    7.93    0.50
  -1   0  -8   45.80    1.65
   1   0   8   46.81    1.66
  -1   0  -8   46.77    1.66
  -2   0  -8  113.43    3.80
   2   0   8  114.29    3.83
  -2   0  -8  116.56    3.83
  -3   0  -8    0.80    0.32
   3   0   8    0.96    0.42
  -3   0  -8    0.66    0.35
   4   0   8    3.46    0.52
  -4   0  -8    2.78    0.48
   5   0   8   52.13    2.08
  -5   0  -8   59.24    2.15
   6   0   8   13.64    1.00
   7   0   8    1.78    0.64
   8   0   8    2.18    0.70
   9   0   8    6.26    0.88
  12  -1  -8    2.97    0.86
  12   1  -8    3.85    0.88
  11  -1  -8    6.16    0.83
  11   1  -8    6.10    0.86
  10  -1  -8    1.23    0.63
  10   1  -8    1.14    0.65
   9  -1  -8    2.04    0.53
   9  -1  -8    0.77    0.64
   9   1  -8    2.21    0.71
   9   1  -8    2.39    0.58
   8  -1  -8    6.53    0.72
   8  -1  -8    7.19    0.67
   8   1  -8    8.24    0.71
   8   1  -8    7.52    0.77
   7  -1  -8    3.66    0.46
   7  -1  -8    3.57    0.61
   7   1  -8    4.20    0.58
   7   1  -8    3.87    0.50
   6  -1  -8   12.95    0.66
   6  -1  -8   13.08    0.84
   6   1  -8   11.34    0.66
   6   1  -8   13.43    0.81
   5  -1  -8   24.43    0.92
   5  -1  -8   22.91    1.08
   5   1  -8   24.77    0.95
   5   1  -8   22.56    1.05
   4  -1  -8   22.98    1.01
   4  -1  -8   23.99    0.88
   4   1  -8   22.52    1.00
   4   1  -8   23.71    0.90
   3  -1  -8   19.92    0.77
   3  -1  -8   19.34    0.74
   3  -1  -8   20.21    0.89
   3   1  -8   21.59    0.88
   3   1  -8   20.43    0.80
  -2  -1   8    9.71    0.52
   2  -1  -8   10.77    0.47
   2  -1  -8   10.17    0.60
   2   1  -8    9.75    0.43
   2   1  -8    9.73    0.62
  -2   1   8   10.27    0.49
   1  -1  -8   14.58    0.61
   1  -1  -8   13.19    0.68
  -1  -1   8   14.65    0.64
   1   1  -8   13.49    0.57
   1   1  -8   13.26    0.69
  -1   1   8   13.81    0.61
   0  -1  -8    8.35    0.54
   0  -1  -8    9.07    0.51
   0  -1   8    8.43    0.52
   0   1  -8    7.80    0.55
   0   1   8    8.82    0.50
   0   1  -8    8.56    0.47
  -1  -1  -8   61.79    2.07
  -1  -1  -8   60.22    2.07
   1  -1   8   58.85    2.07
  -1   1  -8   57.36    2.05
   1   1   8   60.64    2.07
  -1   1  -8   60.22    2.08
  -2  -1  -8   11.98    0.64
   2  -1   8   11.62    0.71
  -2  -1  -8   11.65    0.70
  -2   1  -8   11.15    0.69
  -2   1  -8   11.48    0.65
   2   1   8   11.49    0.68
  -3  -1  -8    3.18    0.38
   3  -1   8    2.92    0.47
  -3  -1  -8    2.66    0.43
  -3   1  -8    2.64    0.40
   3   1   8    2.94    0.46
  -3   1  -8    3.12    0.40
  -4  -1  -8   17.66    0.98
   4  -1   8   17.43    0.96
   4   1   8   17.43    0.92
  -4   1  -8   17.98    0.98
   5  -1   8   30.30    1.35
  -5  -1  -8   29.09    1.40
   5   1   8   30.11    1.31
  -6  -1  -8    3.97    0.67
   6  -1   8    4.98    0.69
   6   1   8    4.34    0.64
   7  -1   8    2.16    0.67
   7   1   8    2.06    0.64
   8  -1   8    9.53    0.92
   8   1   8    8.76    0.88
   9  -1   8    2.68    0.78
   9   1   8    2.11    0.77
  12  -2  -8    6.11    0.94
  12   2  -8    6.14    0.96
  11  -2  -8    2.79    0.73
  11   2  -8    1.50    0.78
  10  -2  -8    1.41    0.61
  10   2  -8    1.82    0.69
   9  -2  -8   12.76    1.07
   9  -2  -8   12.95    0.86
   9   2  -8   13.54    0.90
   8  -2  -8    7.28    0.64
   8  -2  -8    8.34    0.80
   8   2  -8    7.96    0.72
   8   2  -8    9.32    0.81
   7  -2  -8    3.67    0.63
   7  -2  -8    4.13    0.46
   7   2  -8    3.93    0.51
   7   2  -8    4.70    0.58
   6  -2  -8   11.66    0.86
   6  -2  -8   12.32    0.63
   6   2  -8   13.15    0.80
   6   2  -8   12.31    0.69
   5  -2  -8   47.07    1.77
   5  -2  -8   46.81    1.62
   5   2  -8   47.57    1.73
   5   2  -8   47.04    1.66
   4  -2  -8   44.00    1.63
   4  -2  -8   45.48    1.50
   4   2  -8   41.14    1.60
   4   2  -8   44.32    1.54
   3  -2  -8   40.14    1.47
   3   2  -8   39.33    1.39
   3   2  -8   38.50    1.46
   2  -2  -8   69.54    2.31
  -2  -2   8   68.17    2.33
   2  -2  -8   67.67    2.37
   2   2  -8   70.64    2.38
  -2   2   8   70.33    2.29
   1  -2  -8   40.45    1.46
  -1  -2   8   42.17    1.43
   1  -2  -8   40.27    1.41
  -1   2   8   40.82    1.39
   1   2  -8   40.37    1.46
   1   2  -8   36.98    1.36
   0  -2   8   19.84    0.83
   0  -2  -8   19.39    0.83
   0  -2  -8   21.26    0.84
   0   2   8   20.15    0.80
   0   2  -8   20.14    0.86
   0   2  -8   18.94    0.77
  -1  -2  -8   33.00    1.24
  -1  -2  -8   35.06    1.28
   1  -2   8   34.99    1.28
   1   2   8   32.82    1.24
  -1   2  -8   31.68    1.23
  -1   2  -8   33.86    1.27
   2  -2   8   58.98    2.15
  -2  -2  -8   63.64    2.16
  -2  -2  -8   60.84    2.10
   2   2   8   61.17    2.12
  -2   2  -8   60.23    2.13
  -2   2  -8   61.33    2.12
  -3  -2  -8   19.17    0.94
   3  -2   8   17.59    0.93
  -3  -2  -8   20.29    0.82
   3   2   8   16.60    0.88
   4  -2   8    2.02    0.51
  -4  -2  -8    1.46    0.45
   4   2   8    1.11    0.44
  -5  -2  -8   33.59    1.47
   5  -2   8   34.27    1.43
   5   2   8   28.44    1.34
   6  -2   8   11.37    0.99
  -6  -2  -8   11.83    1.07
   6   2   8   10.59    0.90
   7  -2   8    1.02    0.65
  -7  -2  -8    0.74    0.63
   7   2   8    1.04    0.60
   8  -2   8    1.65    0.72
   8   2   8    2.28    0.70
   9  -2   8    6.20    0.89
   9   2   8    5.58    0.86
  12   3  -8    3.57    0.91
  11   3  -8    2.76    0.82
  10  -3  -8    5.29    0.86
  10  -3  -8    5.34    0.74
  10   3  -8    5.48    0.77
   9  -3  -8    3.06    0.79
   9  -3  -8    3.84    0.58
   9   3  -8    5.07    0.68
   8  -3  -8   10.60    0.70
   8  -3  -8    9.24    1.00
   8   3  -8   11.97    0.83
   8   3  -8    9.96    0.79
   7  -3  -8    2.33    0.40
   7  -3  -8    2.01    0.65
   7   3  -8    2.73    0.49
   7   3  -8    2.58    0.52
   6  -3  -8    9.78    0.86
   6  -3  -8   10.58    0.57
   6   3  -8   10.84    0.67
   6   3  -8   11.79    0.75
   5  -3  -8    8.03    0.46
   5  -3  -8    7.49    0.66
   5   3  -8    8.99    0.58
   5   3  -8    7.62    0.67
   4  -3  -8   17.11    0.66
   4  -3  -8   18.44    0.90
   4   3  -8   16.50    0.86
   4   3  -8   16.91    0.76
   3  -3  -8   10.86    0.71
   3   3  -8   12.65    0.60
   3   3  -8   12.73    0.69
  -2  -3   8   25.28    0.96
   2  -3  -8   26.18    1.03
   2  -3  -8   25.30    0.93
   2   3  -8   23.18    1.00
  -2   3   8   23.41    0.88
   1  -3  -8   13.45    0.62
   1  -3  -8   12.50    0.66
  -1  -3   8   14.53    0.65
  -1   3   8   13.73    0.57
   1   3  -8   12.46    0.70
   0  -3  -8    5.04    0.43
   0  -3   8    5.42    0.42
   0  -3  -8    4.18    0.45
   0   3   8    4.62    0.41
   0   3  -8    4.62    0.48
  -1  -3  -8   45.84    1.63
  -1  -3  -8   46.08    1.66
   1  -3   8   45.07    1.66
   1   3   8   46.17    1.62
  -1   3  -8   46.84    1.66
   2  -3   8   14.10    0.79
  -2  -3  -8   14.76    0.70
  -2  -3  -8   15.34    0.80
  -2   3  -8   14.23    0.75
   2   3   8   14.00    0.71
   3  -3   8   16.14    0.91
  -3  -3  -8   17.68    0.91
  -3  -3  -8   16.99    0.76
   3   3   8   17.22    0.84
  -4  -3  -8    5.36    0.56
   4  -3   8    5.44    0.61
   4   3   8    5.81    0.60
   5  -3   8    9.72    0.88
  -5  -3  -8   11.02    0.94
   5   3   8   11.33    0.82
  -6  -3  -8    1.33    0.58
   6  -3   8    1.72    0.64
   6   3   8    2.75    0.57
  -7  -3  -8    1.28    0.67
   7  -3   8    2.16    0.70
   7   3   8    3.24    0.64
   8  -3   8    4.61    0.81
  -8  -3  -8    3.88    0.77
   8   3   8    4.20    0.74
   9  -3   8    0.81    0.77
   9   3   8    1.37    0.73
  12   4  -8    2.19    0.90
  11   4  -8    2.27    0.82
  10  -4  -8    5.43    0.89
  10   4  -8    4.74    0.78
   9  -4  -8    4.28    0.86
   9   4  -8    6.33    0.73
   8  -4  -8    0.12    0.70
   8   4  -8    1.00    0.54
   8   4  -8    1.53    0.50
   7  -4  -8   12.85    1.02
   7   4  -8   12.21    0.78
   7   4  -8   13.39    0.81
   6  -4  -8    8.07    0.74
   6  -4  -8    6.34    0.59
   6   4  -8    7.53    0.62
   6   4  -8    8.53    0.69
   5  -4  -8   11.90    0.54
   5  -4  -8    9.39    0.79
   5   4  -8   11.00    0.64
   5   4  -8   10.83    0.73
   4  -4  -8   42.22    1.41
   4  -4  -8   42.02    1.60
   4   4  -8   43.21    1.51
   4   4  -8   39.31    1.55
   3  -4  -8   22.71    1.02
   3   4  -8   23.12    0.93
   3   4  -8   23.74    1.00
   2  -4  -8    7.27    0.61
  -2  -4   8    8.80    0.54
   2  -4  -8    8.88    0.50
   2   4  -8    8.37    0.58
  -1  -4   8    9.40    0.56
   1  -4  -8    9.75    0.55
   1  -4  -8    8.94    0.60
   1   4  -8    8.20    0.60
  -1   4   8    8.99    0.45
   0  -4   8   59.72    2.04
   0  -4  -8   57.52    2.02
   0  -4  -8   60.50    2.03
   0   4   8   56.50    1.97
   0   4  -8   58.12    2.05
  -1  -4  -8   29.58    1.13
   1  -4   8   28.38    1.17
  -1  -4  -8   30.37    1.17
   1   4   8   28.48    1.08
  -1   4  -8   29.89    1.17
   2  -4   8   19.63    0.95
  -2  -4  -8   21.02    0.96
  -2  -4  -8   21.68    0.86
   2   4   8   19.64    0.86
  -3  -4  -8   23.92    0.92
  -3  -4  -8   22.91    1.07
   3  -4   8   21.95    1.05
   3   4   8   20.89    0.96
   4  -4   8    6.72    0.65
  -4  -4  -8    5.73    0.58
   4   4   8    6.50    0.63
   5  -4   8    8.96    0.79
  -5  -4  -8    9.67    0.92
   5   4   8    8.49    0.76
   6  -4   8    3.18    0.70
  -6  -4  -8    3.09    0.65
   6   4   8    3.21    0.58
  -7  -4  -8    6.84    0.80
   7  -4   8    7.33    0.86
   7   4   8    7.20    0.76
  -8  -4  -8    0.19    0.70
   8  -4   8    1.38    0.73
   8   4   8    0.76    0.65
   9   4   8    1.28    0.71
  12   5  -8    0.69    0.91
  11   5  -8    0.80    0.82
  10  -5  -8    5.53    0.96
  10   5  -8    5.17    0.83
   9  -5  -8    5.80    0.92
   9   5  -8    7.56    0.79
   8  -5  -8    6.16    0.84
   8   5  -8    5.20    0.64
   7  -5  -8    6.50    0.82
   7   5  -8    7.25    0.72
   7   5  -8    6.92    0.69
   6  -5  -8   14.30    0.99
   6   5  -8   14.71    0.80
   6   5  -8   15.18    0.84
   5  -5  -8    3.30    0.58
   5   5  -8    4.01    0.45
   5   5  -8    3.89    0.50
   4  -5  -8    5.34    0.58
   4   5  -8    5.59    0.51
   4   5  -8    6.96    0.58
   3  -5  -8   23.99    1.11
   3   5  -8   26.51    1.01
   3   5  -8   24.96    1.07
  -2  -5   8    9.78    0.60
   2  -5  -8    9.28    0.68
   2   5  -8   10.38    0.64
  -1  -5   8   22.45    0.90
   1  -5  -8   21.04    0.88
   1  -5  -8   21.59    0.93
   1   5  -8   18.76    0.91
   0  -5  -8    1.36    0.35
   0  -5  -8    1.27    0.31
   0  -5   8    1.42    0.33
   0   5  -8    1.39    0.35
  -1  -5  -8    6.21    0.59
   1  -5   8    5.79    0.58
  -1  -5  -8    6.94    0.53
   2  -5   8    2.50    0.44
  -2  -5  -8    2.14    0.39
  -2  -5  -8    2.52    0.35
   2   5   8    2.43    0.35
  -3  -5  -8   15.04    0.89
   3  -5   8   15.57    0.89
   3   5   8   14.17    0.75
  -4  -5  -8    2.25    0.49
   4  -5   8    2.64    0.56
   4   5   8    2.44    0.43
  -5  -5  -8    1.71    0.52
   5  -5   8    1.75    0.61
   5   5   8    2.08    0.49
  -6  -5  -8   10.54    1.04
   6  -5   8    9.90    0.98
   6   5   8   10.33    0.85
  -7  -5  -8    1.91    0.69
   7  -5   8    3.76    0.75
   7   5   8    3.13    0.63
  -8  -5  -8   -0.35    0.68
   8  -5   8    0.59    0.72
   8   5   8    0.71    0.62
  12   6  -8    1.55    0.97
  11   6  -8    5.91    0.96
  10  -6  -8    9.30    1.07
  10   6  -8    8.53    0.93
   9  -6  -8    1.54    0.87
   9   6  -8    2.88    0.70
   8  -6  -8    1.64    0.79
   8   6  -8    2.84    0.60
   7  -6  -8   29.50    1.44
   7   6  -8   30.02    1.26
   7   6  -8   29.17    1.28
   6  -6  -8    3.07    0.67
   6   6  -8    3.62    0.53
   6   6  -8    3.85    0.51
   5  -6  -8    7.39    0.69
   5   6  -8    5.94    0.59
   5   6  -8    7.45    0.67
   4  -6  -8   30.17    1.30
   4   6  -8   29.11    1.15
   4   6  -8   28.88    1.22
   3  -6  -8   40.16    1.52
   3   6  -8   38.84    1.42
   3   6  -8   37.27    1.47
  -2  -6   8    2.24    0.38
   2  -6  -8    3.66    0.48
   2   6  -8    3.01    0.42
  -1  -6   8    8.29    0.57
   1  -6  -8    8.21    0.58
   1  -6  -8    8.56    0.64
   1   6  -8    8.00    0.61
   0  -6  -8   64.76    2.17
   0  -6   8   60.04    2.17
   0  -6  -8   63.76    2.18
   0   6  -8   59.33    2.18
   1  -6   8   19.31    0.92
  -1  -6  -8   19.77    0.85
  -1  -6  -8   19.59    0.93
  -2  -6  -8    2.72    0.38
   2  -6   8    2.63    0.46
  -2  -6  -8    3.15    0.44
  -3  -6  -8    5.61    0.55
   3  -6   8    5.84    0.61
  -4  -6  -8    5.68    0.60
   4  -6   8    6.17    0.67
  -5  -6  -8    0.40    0.51
   5  -6   8    0.48    0.57
   6  -6   8    1.31    0.67
  -6  -6  -8    1.36    0.60
  -7  -6  -8    9.95    1.10
   7  -6   8   11.16    1.11
   8  -6   8    0.38    0.73
  -8  -6  -8   -0.34    0.69
  12   7  -8   -0.54    1.05
  11  -7  -8    1.49    0.96
  11   7  -8    1.31    0.90
  10  -7  -8    4.05    0.99
  10   7  -8    4.51    0.87
   9  -7  -8    7.38    1.01
   9   7  -8    6.69    0.83
   8  -7  -8    0.40    0.80
   8   7  -8    0.68    0.60
   7  -7  -8    3.25    0.77
   7   7  -8    3.70    0.53
   7   7  -8    3.42    0.57
   6  -7  -8    8.22    0.80
   6   7  -8    7.22    0.68
   6   7  -8    7.10    0.62
   5  -7  -8    0.47    0.53
   5   7  -8    0.21    0.39
   5   7  -8    0.96    0.42
   4  -7  -8    4.18    0.60
   4   7  -8    7.04    0.65
   4   7  -8    4.56    0.47
   3  -7  -8    8.43    0.76
   3   7  -8    8.06    0.69
   3   7  -8   10.15    0.63
  -2  -7   8    1.38    0.36
   2  -7  -8    0.97    0.45
   2   7  -8    1.11    0.38
  -1  -7   8   21.41    0.94
   1  -7  -8   23.31    1.02
   1  -7  -8   22.38    0.98
   1   7  -8   20.29    0.96
   0  -7  -8    5.30    0.50
   0  -7   8    5.04    0.49
   0  -7  -8    4.05    0.43
   1  -7   8    6.35    0.62
  -1  -7  -8    6.93    0.66
  -1  -7  -8    6.88    0.59
   2  -7   8    1.56    0.45
  -2  -7  -8    1.38    0.40
  -2  -7  -8    2.03    0.37
   3  -7   8   13.31    0.90
  -3  -7  -8   15.20    0.92
  -4  -7  -8    4.35    0.57
   4  -7   8    5.05    0.67
   5  -7   8    1.05    0.61
  -5  -7  -8    0.70    0.54
  -6  -7  -8   19.85    1.27
   6  -7   8   20.83    1.27
   7  -7   8    2.92    0.78
  -7  -7  -8    1.52    0.68
  -8  -7  -8    0.61    0.71
   8  -7   8    2.51    0.80
  11  -8  -8    2.53    1.04
  11   8  -8    2.52    0.94
  10  -8  -8    0.33    0.93
  10   8  -8    0.62    0.79
   9  -8  -8    3.43    0.94
   9   8  -8    3.81    0.79
   8  -8  -8   -1.44    0.82
   8   8  -8    0.99    0.64
   7  -8  -8   12.98    1.19
   7   8  -8   12.15    0.88
   6  -8  -8    1.86    0.69
   6   8  -8    1.31    0.50
   6   8  -8    2.59    0.50
   5  -8  -8    5.72    0.71
   5   8  -8    6.18    0.65
   5   8  -8    6.97    0.68
   4  -8  -8   11.63    0.89
   4   8  -8   12.35    0.76
   4   8  -8   12.26    0.80
   3  -8  -8   18.57    1.03
   3   8  -8   18.62    0.88
   3   8  -8   20.89    0.98
   2  -8  -8   10.45    0.79
  -2  -8   8    8.78    0.67
   1  -8  -8   16.45    0.85
  -1  -8   8   15.81    0.81
   1  -8  -8   16.51    0.88
   0  -8   8   27.60    1.20
   0  -8  -8   30.45    1.20
   0  -8  -8   27.96    1.21
  -1  -8  -8   13.43    0.83
  -1  -8  -8   13.71    0.78
   1  -8   8   12.81    0.81
  -2  -8  -8   13.46    0.86
   2  -8   8   12.24    0.83
   3  -8   8    7.22    0.69
  -3  -8  -8    6.41    0.63
   4  -8   8   13.14    1.02
  -4  -8  -8   14.41    1.00
   5  -8   8    9.30    0.87
  -5  -8  -8    9.34    0.95
  -6  -8  -8    5.17    0.75
   6  -8   8    5.29    0.80
   7  -8   8    5.62    0.88
  -7  -8  -8    4.57    0.78
  -8  -8  -8    0.38    0.74
   8  -8   8    0.79    0.82
  11  -9  -8    5.75    1.13
  11   9  -8    3.77    0.98
  10  -9  -8    1.06    1.00
  10   9  -8    1.42    0.85
   9  -9  -8    1.01    0.92
   9   9  -8    1.10    0.75
   8  -9  -8    1.62    0.88
   8   9  -8    2.38    0.71
   7  -9  -8    0.08    0.79
   7   9  -8    1.21    0.60
   6  -9  -8    0.47    0.70
   6   9  -8    0.86    0.52
   6   9  -8    0.70    0.47
   5  -9  -8    1.74    0.64
   5   9  -8    2.03    0.50
   5   9  -8    1.64    0.48
   4  -9  -8    1.86    0.60
   4   9  -8    1.48    0.46
   3  -9  -8    1.07    0.55
   3   9  -8    0.74    0.39
   2  -9  -8    1.02    0.51
  -2  -9   8    0.46    0.38
   1  -9  -8   11.90    0.82
  -1  -9   8   11.52    0.74
   1  -9  -8   11.75    0.77
   0  -9  -8    1.63    0.41
   0  -9   8    1.22    0.42
   0  -9  -8    1.44    0.46
   1  -9   8   12.46    0.84
  -1  -9  -8   12.45    0.83
  -1  -9  -8   13.35    0.78
  -2  -9  -8    9.94    0.84
   2  -9   8   11.06    0.84
  -3  -9  -8    7.27    0.83
   3  -9   8    6.58    0.68
   4  -9   8    5.15    0.73
  -4  -9  -8    5.54    0.66
  -5  -9  -8    2.62    0.62
   5  -9   8    3.29    0.71
   6  -9   8    5.32    0.83
  -6  -9  -8    4.53    0.74
   7  -9   8    1.36    0.79
  -7  -9  -8    0.81    0.69
  11 -10  -8    0.60    1.08
  11  10  -8    0.93    1.08
  10 -10  -8    1.71    1.04
  10  10  -8    0.35    0.88
   9 -10  -8    6.94    1.08
   9  10  -8    7.78    0.92
   8 -10  -8    3.28    0.96
   8  10  -8    2.89    0.74
   7 -10  -8    3.15    0.89
   7  10  -8    2.88    0.67
   6 -10  -8   10.17    1.12
   6  10  -8    9.45    0.86
   5 -10  -8   16.17    1.18
   5  10  -8   14.06    0.90
   4 -10  -8    2.30    0.67
   4  10  -8    2.58    0.52
   3 -10  -8    7.67    0.86
   3  10  -8    7.67    0.67
  -2 -10   8   24.51    1.16
   2 -10  -8   27.82    1.24
  -1 -10   8   23.01    1.09
   1 -10  -8   22.68    1.12
   1 -10  -8   24.17    1.10
   0 -10  -8    9.38    0.78
   0 -10   8    9.18    0.77
   0 -10  -8    9.17    0.77
  -1 -10  -8    1.71    0.46
   1 -10   8    2.24    0.51
  -1 -10  -8    2.68    0.47
   2 -10   8   12.31    0.90
  -2 -10  -8   11.41    0.91
  -3 -10  -8    4.92    0.62
   3 -10   8    5.89    0.69
  -4 -10  -8    2.39    0.60
   4 -10   8    3.02    0.66
  -5 -10  -8    7.41    0.78
   5 -10   8    9.37    0.93
  -6 -10  -8    1.34    0.67
   6 -10   8    1.37    0.77
  -7 -10  -8   -0.08    0.66
   7 -10   8    0.97    0.82
  10 -11  -8   -0.31    1.04
  10  11  -8   -1.01    0.87
   9 -11  -8    1.66    1.01
   9  11  -8    1.03    0.79
   8 -11  -8    4.74    1.03
   8  11  -8    4.64    0.80
   7 -11  -8    1.25    0.91
   7  11  -8    1.82    0.68
   6 -11  -8    1.21    0.82
   6  11  -8    2.16    0.64
   5 -11  -8    7.69    0.91
   5  11  -8    6.67    0.71
   4 -11  -8    4.79    0.76
   4  11  -8    4.18    0.62
   3 -11  -8    2.06    0.65
  -2 -11   8    7.58    0.73
   2 -11  -8    7.79    0.74
   1 -11  -8   12.36    0.91
  -1 -11   8   13.70    0.86
   1 -11  -8   12.94    0.87
   0 -11  -8    4.20    0.55
   0 -11  -8    4.56    0.60
   0 -11   8    5.29    0.62
  -1 -11  -8    0.37    0.56
   1 -11   8    0.95    0.50
  -1 -11  -8    0.66    0.46
   2 -11   8    3.53    0.62
  -2 -11  -8    2.34    0.53
   3 -11   8    0.68    0.58
  -3 -11  -8    0.92    0.54
   4 -11   8    4.90    0.76
  -4 -11  -8    5.16    0.70
  -5 -11  -8    3.34    0.68
   5 -11   8    3.07    0.79
  -6 -11  -8    0.00    0.63
   6 -11   8   -0.42    0.74
   7 -11   8    1.44    0.91
  -7 -11  -8    0.46    0.88
  10 -12  -8   -0.54    1.08
  10  12  -8   -0.58    0.89
   9 -12  -8    5.09    1.13
   9  12  -8    5.70    0.93
   8 -12  -8    2.11    1.01
   8  12  -8    4.15    0.83
   7 -12  -8   -0.35    0.89
   7  12  -8    0.43    0.69
   6 -12  -8    4.64    0.92
   6  12  -8    3.88    0.74
   5 -12  -8   21.71    1.36
   5  12  -8   19.79    1.16
   4 -12  -8    1.32    0.74
   4  12  -8    0.32    0.56
   3 -12  -8    4.85    0.76
   2 -12  -8   21.77    1.21
  -2 -12   8   21.98    1.09
   1 -12  -8   12.36    0.94
  -1 -12   8   11.98    0.89
   0 -12   8    3.04    0.60
   0 -12  -8    2.89    0.54
   0 -12  -8    2.47    0.56
  -1 -12  -8   10.63    0.93
   1 -12   8   10.12    0.92
   2 -12   8   13.27    1.03
  -2 -12  -8   12.54    1.01
   3 -12   8   -0.53    0.59
  -3 -12  -8    0.09    0.55
  -4 -12  -8   -0.79    0.57
   4 -12   8   -0.74    0.65
  -5 -12  -8    5.95    0.78
   5 -12   8    6.93    0.94
  -6 -12  -8    1.09    0.70
   6 -12   8    2.15    0.85
   9 -13  -8    1.61    1.14
   9  13  -8    2.16    0.87
   8 -13  -8    0.93    1.02
   8  13  -8    2.37    0.80
   7 -13  -8    0.52    0.95
   7  13  -8    1.23    0.75
   6 -13  -8    3.99    0.98
   6  13  -8    1.76    0.71
   5 -13  -8    1.00    0.84
   5  13  -8    1.69    0.68
   4 -13  -8   15.28    1.24
   4  13  -8   11.08    0.98
  -3 -13   8    3.00    0.61
   3 -13  -8    2.83    0.75
   2 -13  -8    1.79    0.67
  -2 -13   8    0.66    0.50
   1 -13  -8    0.74    0.59
  -1 -13   8    0.73    0.53
   0 -13   8    5.03    0.68
   0 -13  -8    4.97    0.66
   0 -13  -8    4.25    0.62
   1 -13   8    6.31    0.73
  -1 -13  -8    4.75    0.66
   2 -13   8    1.84    0.67
  -2 -13  -8    1.88    0.60
   3 -13   8    1.17    0.68
  -3 -13  -8    0.97    0.59
  -4 -13  -8    3.28    0.69
   4 -13   8    2.10    0.75
   5 -13   8    2.80    0.82
  -5 -13  -8    1.73    0.68
   6 -13   8   -0.03    0.82
  -6 -13  -8    0.10    1.28
   9 -14  -8    1.93    1.22
   9  14  -8    2.19    1.04
   8 -14  -8    0.70    1.08
   8  14  -8    2.94    0.85
   7 -14  -8    1.69    1.03
   7  14  -8    2.14    0.82
   6 -14  -8    2.31    0.99
   6  14  -8    2.41    0.77
   5 -14  -8   12.94    1.33
   5  14  -8    9.33    0.92
   4 -14  -8    1.29    0.80
   4  14  -8    0.66    0.67
  -3 -14   8    4.60    0.67
   3 -14  -8    3.46    0.84
   2 -14  -8    8.57    0.91
  -2 -14   8    8.93    0.82
  -1 -14   8    3.06    0.64
   1 -14  -8    1.97    0.68
   0 -14  -8    6.01    0.71
   0 -14  -8    7.90    0.92
   0 -14   8    7.35    0.80
  -1 -14  -8    7.96    0.80
   1 -14   8    9.99    0.87
   2 -14   8    8.19    0.85
  -2 -14  -8    6.47    0.76
   3 -14   8    3.52    0.76
  -3 -14  -8    2.59    0.67
   4 -14   8    3.11    0.83
  -4 -14  -8    1.65    0.67
  -5 -14  -8    1.02    0.70
   5 -14   8    2.59    0.86
   8 -15  -8    0.18    1.13
   8  15  -8    1.56    0.90
   7 -15  -8    0.51    1.06
   7  15  -8    1.10    0.84
   6 -15  -8    2.23    1.03
   6  15  -8    3.05    0.84
   5 -15  -8   -0.70    0.91
   5  15  -8   -0.79    0.68
   4 -15  -8    3.47    0.90
  -3 -15   8    3.27    0.68
   3 -15  -8    3.14    0.85
   2 -15  -8    0.56    0.76
  -2 -15   8    1.09    0.62
   1 -15  -8    2.12    0.59
  -1 -15   8    2.59    0.67
   1 -15  -8    2.68    0.73
   0 -15   8    2.07    0.69
   0 -15  -8    1.38    0.61
   1 -15   8    3.32    0.72
  -1 -15  -8    1.86    0.64
  -2 -15  -8    0.20    0.62
   2 -15   8    0.67    0.68
   3 -15   8   -0.44    0.68
  -3 -15  -8   -0.03    0.62
   4 -15   8   -0.34    0.76
  -4 -15  -8   -0.10    0.66
   7 -16  -8    4.72    1.20
   7  16  -8    4.83    0.96
   6 -16  -8    0.86    1.06
   6  16  -8    2.25    0.84
   5 -16  -8    1.15    0.98
   5  16  -8    2.35    0.81
   4 -16  -8    3.01    0.96
  -4 -16   8    3.89    0.72
   3 -16  -8    5.21    0.95
  -3 -16   8    6.53    0.80
  -2 -16   8    1.14    0.65
   2 -16  -8    0.71    0.81
   1 -16  -8    2.57    0.80
   1 -16  -8    2.49    0.63
  -1 -16   8    2.51    0.71
   0 -16   8    6.47    0.85
   0 -16  -8    6.45    0.77
  -1 -16  -8    1.99    0.67
   1 -16   8    2.18    0.73
  -2 -16  -8    0.74    0.65
   2 -16   8    0.91    0.72
  -3 -16  -8    3.78    0.75
   3 -16   8    3.63    0.84
   6 -17  -8    0.63    1.13
   6  17  -8    1.14    0.84
   5 -17  -8   -2.08    0.97
   4 -17  -8    0.53    0.94
  -4 -17   8    1.13    0.67
   3 -17  -8    1.92    0.91
  -3 -17   8    0.82    0.67
  -2 -17   8    0.08    0.66
   2 -17  -8   -0.36    0.84
   1 -17  -8    1.86    0.65
  -1 -17   8    1.61    0.71
   0 -17   8   -0.49    0.67
   0 -17  -8    0.17    0.64
  -1 -17  -8    0.53    0.66
   1 -17   8    0.97    0.72
  -2 -17  -8    0.59    0.67
   2 -17   8   -0.11    0.74
  -4 -18   8    1.88    0.70
   4 -18  -8    0.18    0.98
  -3 -18   8    0.52    0.69
   3 -18  -8    1.12    0.94
  -2 -18   8   -0.16    0.68
   2 -18  -8   -0.50    0.89
  -1 -18   8    0.42    0.73
   1 -18  -8    0.72    0.65
   0 -18  -8    1.91    0.71
   0 -18   8    1.20    0.74
   1 -18   8   -0.50    0.74
  12   0  -9    4.96    0.92
  11   0  -9   -0.54    0.70
  10   0  -9    1.98    0.65
   9   0  -9   20.38    1.20
   9   0  -9   18.85    1.05
   8   0  -9    4.37    0.58
   8   0  -9    5.67    0.72
   7   0  -9    4.30    0.50
   7   0  -9    4.33    0.65
   6   0  -9   14.94    0.74
   6   0  -9   11.80    0.88
   5   0  -9   41.60    1.42
   5   0  -9   36.86    1.52
   4   0  -9    3.16    0.46
   4   0  -9    3.19    0.35
   3   0  -9    4.65    0.48
   2   0  -9   25.78    1.04
   2   0  -9   25.17    1.08
  -2   0   9   27.64    1.01
   1   0  -9   22.60    0.88
  -1   0   9   23.27    0.91
   1   0  -9   22.14    0.99
   0   0   9    0.04    0.32
   0   0  -9    0.35    0.24
   0   0  -9    0.56    0.35
   1   0   9    2.89    0.41
  -1   0  -9    2.23    0.42
  -1   0  -9    1.82    0.34
  -2   0  -9    6.58    0.61
   2   0   9    5.73    0.54
  -2   0  -9    6.24    0.57
  -3   0  -9   18.48    0.98
  -3   0  -9   20.76    0.92
   3   0   9   20.96    1.01
  -4   0  -9    2.65    0.51
   4   0   9    3.30    0.54
  -5   0  -9    4.66    0.63
   5   0   9    8.73    0.89
   6   0   9    0.90    0.59
   7   0   9    8.83    0.88
   8   0   9    2.40    0.74
  12  -1  -9    0.40    0.95
  12   1  -9    1.61    0.85
  11  -1  -9    1.32    0.74
  11   1  -9    1.30    0.75
  10  -1  -9   10.40    0.91
  10   1  -9   10.55    0.92
   9  -1  -9   11.67    1.05
   9  -1  -9    9.19    0.81
   9   1  -9   10.24    0.89
   9   1  -9   12.29    0.98
   8  -1  -9    0.30    0.48
   8  -1  -9    0.41    0.63
   8   1  -9    0.39    0.50
   8   1  -9    0.92    0.58
   7  -1  -9    5.69    0.69
   7  -1  -9    5.43    0.53
   7   1  -9    5.37    0.55
   7   1  -9    5.96    0.67
   6  -1  -9   33.04    1.40
   6  -1  -9   33.82    1.27
   6   1  -9   34.69    1.30
   6   1  -9   33.17    1.41
   5  -1  -9    5.69    0.59
   5  -1  -9    6.81    0.47
   5   1  -9    5.44    0.50
   5   1  -9    5.70    0.59
   4  -1  -9    3.32    0.47
   4  -1  -9    3.88    0.35
   4   1  -9    4.47    0.40
   4   1  -9    4.02    0.48
   3  -1  -9   61.22    2.16
   3   1  -9   61.20    2.16
  -3   1   9   61.10    2.06
  -2  -1   9   79.25    2.63
   2  -1  -9   76.96    2.68
   2  -1  -9   78.12    2.59
  -2   1   9   77.81    2.61
   2   1  -9   79.14    2.70
   1  -1  -9    6.09    0.47
  -1  -1   9    8.81    0.54
   1  -1  -9    6.58    0.56
   1   1  -9    5.77    0.42
  -1   1   9    8.51    0.49
   1   1  -9    6.12    0.59
   0  -1  -9   15.30    0.72
   0  -1   9   16.87    0.75
   0  -1  -9   14.82    0.77
   0   1   9   16.02    0.73
   0   1  -9   13.99    0.68
   0   1  -9   15.67    0.78
   1  -1   9   77.91    2.71
  -1  -1  -9   78.71    2.70
  -1  -1  -9   81.30    2.71
   1   1   9   78.43    2.70
  -1   1  -9   79.84    2.69
  -1   1  -9   79.73    2.72
  -2  -1  -9   18.37    0.85
   2  -1   9   17.34    0.90
  -2  -1  -9   17.87    0.91
   2   1   9   17.53    0.89
  -2   1  -9   18.42    0.89
  -2   1  -9   18.21    0.87
  -3  -1  -9    3.78    0.43
  -3  -1  -9    3.34    0.46
   3  -1   9    3.13    0.51
  -3   1  -9    2.63    0.44
   3   1   9    3.28    0.50
  -3   1  -9    3.35    0.45
   4  -1   9    6.99    0.69
  -4  -1  -9    7.51    0.83
  -4   1  -9    8.43    0.78
   4   1   9    7.78    0.77
   5  -1   9   23.34    1.23
  -5  -1  -9   25.46    1.32
   5   1   9   24.15    1.21
  -6  -1  -9    3.23    0.66
   6  -1   9    3.76    0.68
   6   1   9    4.03    0.68
   7  -1   9    1.80    0.72
   7   1   9    2.35    0.68
   8  -1   9    3.11    0.78
   8   1   9    3.62    0.77
  12   2  -9    4.26    0.92
  11   2  -9    3.06    0.82
  10  -2  -9    1.42    0.77
  10  -2  -9    1.13    0.79
  10   2  -9    1.83    0.71
   9  -2  -9    7.94    0.89
   9  -2  -9    7.85    0.74
   9   2  -9    9.02    0.99
   9   2  -9    8.94    0.88
   8  -2  -9    1.94    0.69
   8  -2  -9    1.57    0.49
   8   2  -9    2.34    0.56
   8   2  -9    3.08    0.62
   7  -2  -9    8.56    0.64
   7  -2  -9    8.25    0.93
   7   2  -9   10.20    0.81
   7   2  -9    8.65    0.73
   6  -2  -9    7.49    0.72
   6  -2  -9    7.62    0.54
   6   2  -9    7.49    0.62
   6   2  -9    6.74    0.67
   5  -2  -9   18.53    0.98
   5  -2  -9   19.96    0.79
   5   2  -9   19.32    0.85
   5   2  -9   17.85    0.95
   4  -2  -9   10.46    0.74
   4  -2  -9   11.55    0.54
   4   2  -9   11.50    0.63
   4   2  -9   10.65    0.74
   3  -2  -9    6.40    0.41
   3  -2  -9    5.17    0.56
  -3   2   9    5.67    0.42
   3   2  -9    6.33    0.61
   2  -2  -9   10.43    0.54
  -2  -2   9   11.14    0.61
   2  -2  -9    9.80    0.66
  -2   2   9   11.26    0.54
   2   2  -9    9.08    0.69
  -1  -2   9    2.66    0.36
   1  -2  -9    2.45    0.30
   1  -2  -9    2.20    0.39
  -1   2   9    2.27    0.32
   1   2  -9    1.79    0.39
   0  -2  -9   12.69    0.72
   0  -2   9   13.73    0.71
   0  -2  -9   13.88    0.70
   0   2  -9   14.12    0.75
   0   2  -9   12.47    0.62
   0   2   9   15.04    0.68
  -1  -2  -9    3.30    0.40
  -1  -2  -9    3.16    0.43
   1  -2   9    3.22    0.44
   1   2   9    3.16    0.41
  -1   2  -9    3.38    0.44
  -1   2  -9    2.39    0.34
  -2  -2  -9    6.19    0.65
   2  -2   9    7.30    0.67
  -2  -2  -9    6.06    0.57
   2   2   9    6.70    0.62
  -2   2  -9    5.41    0.60
  -3  -2  -9    8.94    0.78
  -3  -2  -9    9.59    0.62
   3  -2   9    8.68    0.76
   3   2   9    9.38    0.69
  -4  -2  -9    8.88    0.85
   4  -2   9   10.24    0.86
   4   2   9    9.71    0.77
  -5  -2  -9    1.83    0.56
   5  -2   9    3.17    0.62
   5   2   9    2.92    0.56
  -6  -2  -9    0.20    0.61
   6  -2   9    0.42    0.63
   6   2   9    1.25    0.58
  -7  -2  -9    5.17    0.80
   7  -2   9    5.35    0.81
   7   2   9    6.53    0.78
   8  -2   9    1.09    0.74
   8   2   9    1.12    0.70
  12   3  -9    1.72    0.90
  11   3  -9    2.94    0.84
  10  -3  -9    1.26    0.82
  10   3  -9    1.50    0.73
   9  -3  -9    2.47    0.81
   9   3  -9    3.04    0.66
   8  -3  -9    4.79    0.79
   8   3  -9    4.42    0.64
   8   3  -9    3.27    0.58
   7  -3  -9    5.05    0.76
   7   3  -9    5.82    0.60
   7   3  -9    6.26    0.65
   6  -3  -9   12.66    0.80
   6  -3  -9   13.21    0.93
   6   3  -9   12.65    0.85
   6   3  -9   12.08    0.75
   5  -3  -9   13.55    0.88
   5  -3  -9   13.03    0.62
   5   3  -9   12.13    0.69
   5   3  -9   11.31    0.82
   4  -3  -9   28.18    1.01
   4  -3  -9   27.90    1.20
   4   3  -9   25.80    1.17
   4   3  -9   29.93    1.12
   3  -3  -9   37.51    1.47
   3  -3  -9   38.12    1.35
   3   3  -9   38.07    1.46
   2  -3  -9   37.58    1.30
  -2  -3   9   36.56    1.34
   2  -3  -9   35.00    1.36
   2   3  -9   34.05    1.38
  -2   3   9   36.26    1.36
  -1  -3   9   28.21    1.08
   1  -3  -9   26.80    1.05
   1  -3  -9   26.25    1.10
  -1   3   9   27.90    1.01
   1   3  -9   26.36    1.12
   0  -3  -9   26.54    1.07
   0  -3  -9   25.55    1.07
   0  -3   9   26.92    1.07
   0   3  -9   24.99    1.09
   0   3   9   26.56    1.02
  -1  -3  -9   55.15    1.88
  -1  -3  -9   53.81    1.85
   1  -3   9   48.64    1.87
   1   3   9   51.78    1.83
  -1   3  -9   50.18    1.88
   2  -3   9   30.81    1.30
  -2  -3  -9   33.56    1.24
  -2  -3  -9   33.26    1.31
  -2   3  -9   31.26    1.28
   2   3   9   29.86    1.24
  -3  -3  -9   12.49    0.83
   3  -3   9   12.79    0.87
  -3  -3  -9   13.74    0.71
   3   3   9   11.41    0.74
   4  -3   9    5.62    0.65
  -4  -3  -9    4.42    0.58
   4   3   9    5.64    0.56
   5  -3   9   19.70    1.15
  -5  -3  -9   20.14    1.18
   5   3   9   17.93    1.01
  -6  -3  -9    6.11    0.76
   6  -3   9    8.51    0.87
   6   3   9    8.75    0.89
  -7  -3  -9    1.75    0.73
   7  -3   9    2.86    0.74
   7   3   9    3.78    0.69
   8  -3   9    3.80    0.84
  -8  -3  -9    2.82    0.81
   8   3   9    2.81    0.75
  12   4  -9    1.92    0.93
  11   4  -9    6.15    0.94
  10  -4  -9    5.26    0.98
  10   4  -9    5.59    0.82
   9  -4  -9    1.88    0.85
   9   4  -9    2.17    0.66
   8  -4  -9    4.34    0.84
   8   4  -9    4.33    0.62
   8   4  -9    4.13    0.64
   7  -4  -9   25.90    1.36
   7   4  -9   23.65    1.12
   7   4  -9   25.40    1.18
   6  -4  -9    5.91    0.73
   6   4  -9    5.74    0.61
   6   4  -9    5.97    0.55
   5  -4  -9    4.76    0.61
   5   4  -9    5.40    0.50
   5   4  -9    4.93    0.58
   4  -4  -9    4.91    0.59
   4   4  -9    5.54    0.57
   4   4  -9    6.67    0.55
   3  -4  -9   24.21    1.09
   3   4  -9   24.05    1.07
   2  -4  -9    1.11    0.28
   2  -4  -9    1.39    0.41
  -2  -4   9    1.51    0.35
   2   4  -9    1.15    0.38
   1  -4  -9    3.32    0.43
  -1  -4   9    3.87    0.42
   1  -4  -9    3.02    0.36
   1   4  -9    3.09    0.45
   0  -4   9   39.16    1.50
   0  -4  -9   41.61    1.50
   0  -4  -9   41.14    1.51
   0   4  -9   39.56    1.53
  -1  -4  -9    3.70    0.43
  -1  -4  -9    2.63    0.40
   1  -4   9    3.63    0.47
  -1   4  -9    3.54    0.47
  -2  -4  -9    1.68    0.40
   2  -4   9    2.29    0.47
  -2  -4  -9    2.05    0.38
   2   4   9    1.87    0.40
  -3  -4  -9    2.33    0.47
   3  -4   9    2.63    0.55
   3   4   9    2.05    0.41
   4  -4   9    8.13    0.74
  -4  -4  -9    7.14    0.66
   4   4   9    7.79    0.68
   5  -4   9    6.44    0.75
  -5  -4  -9    4.10    0.65
   5   4   9    5.70    0.61
  -6  -4  -9   -0.51    0.59
   6  -4   9    1.57    0.68
   6   4   9    1.23    0.56
   7  -4   9    6.15    0.86
  -7  -4  -9    4.28    0.78
   7   4   9    5.68    0.74
  -8  -4  -9   -0.50    0.71
   8  -4   9    1.26    0.78
   8   4   9    1.82    0.71
  12   5  -9    3.95    1.01
  11   5  -9    2.86    0.88
  10  -5  -9    1.60    0.94
  10   5  -9    1.10    0.75
   9  -5  -9   -0.40    0.86
   9   5  -9    0.27    0.63
   8  -5  -9   10.85    1.15
   8   5  -9    9.18    0.87
   8   5  -9   10.31    0.82
   7  -5  -9   -0.55    0.71
   7   5  -9    2.03    0.52
   7   5  -9    2.13    0.53
   6  -5  -9    3.25    0.68
   6   5  -9    4.01    0.56
   6   5  -9    4.22    0.53
   5  -5  -9    2.85    0.59
   5   5  -9    1.71    0.42
   5   5  -9    2.25    0.51
   4  -5  -9   22.20    1.07
   4   5  -9   20.09    1.02
   4   5  -9   20.19    0.93
   3  -5  -9    1.07    0.46
   3   5  -9    1.50    0.44
   2  -5  -9    5.94    0.63
   2  -5  -9    5.35    0.54
  -2  -5   9    6.39    0.50
   2   5  -9    5.76    0.54
   1  -5  -9   56.75    2.01
  -1  -5   9   54.68    1.99
   1  -5  -9   58.48    1.98
   1   5  -9   54.72    2.02
   0  -5   9   15.84    0.83
   0  -5  -9   17.42    0.82
   0  -5  -9   16.13    0.81
   0   5  -9   14.44    0.85
  -1  -5  -9    4.60    0.47
  -1  -5  -9    6.39    0.57
   1  -5   9    6.02    0.55
  -1   5  -9    5.84    0.62
  -2  -5  -9    6.83    0.70
  -2  -5  -9    6.56    0.57
   2  -5   9    7.14    0.64
   3  -5   9    7.57    0.78
  -3  -5  -9    8.12    0.78
   4  -5   9    3.48    0.65
  -4  -5  -9    4.05    0.58
   5  -5   9    9.08    0.85
  -5  -5  -9    8.05    0.76
   6  -5   9   13.38    1.14
  -6  -5  -9   14.44    1.18
   7  -5   9    1.86    0.75
  -7  -5  -9    1.69    0.70
  -8  -5  -9   -0.21    0.74
   8  -5   9    0.71    0.79
  12   6  -9    1.42    1.00
  11  -6  -9    7.30    1.11
  11   6  -9    5.93    0.97
  10  -6  -9    6.56    1.05
  10   6  -9    5.90    0.87
   9  -6  -9    0.44    0.89
   9   6  -9    1.15    0.71
   8  -6  -9    4.20    0.91
   8   6  -9    6.49    0.73
   7  -6  -9   20.74    1.32
   7   6  -9   20.58    1.07
   7   6  -9   18.87    1.03
   6  -6  -9    7.24    0.81
   6   6  -9    6.58    0.67
   6   6  -9    6.65    0.63
   5  -6  -9    8.73    0.87
   5   6  -9    8.96    0.69
   5   6  -9    8.28    0.78
   4  -6  -9    5.81    0.67
   4   6  -9    8.33    0.65
   4   6  -9    6.72    0.72
   3  -6  -9   16.72    0.96
   3   6  -9   17.64    0.90
   2  -6  -9    2.58    0.38
  -2  -6   9    2.87    0.42
   2  -6  -9    3.61    0.52
   2   6  -9    3.62    0.49
   1  -6  -9    1.40    0.44
  -1  -6   9    1.98    0.39
   1  -6  -9    1.59    0.36
   1   6  -9    1.14    0.41
   0  -6   9   23.56    1.05
   0  -6  -9   25.02    1.04
   0  -6  -9   22.51    1.04
   0   6  -9   22.97    1.08
  -1  -6  -9    1.70    0.41
   1  -6   9    2.21    0.46
  -1  -6  -9    1.35    0.39
  -2  -6  -9   16.46    0.78
  -2  -6  -9   15.16    0.91
   2  -6   9   14.45    0.91
  -3  -6  -9    2.34    0.50
   3  -6   9    2.38    0.55
  -4  -6  -9   -0.20    0.48
   4  -6   9   -0.18    0.55
  -5  -6  -9    8.37    0.97
   5  -6   9   10.14    1.01
  -6  -6  -9    0.99    0.63
   6  -6   9    2.45    0.74
   7  -6   9    0.99    0.76
  -7  -6  -9    0.53    0.68
  11  -7  -9    1.56    1.05
  11   7  -9   -0.12    0.88
  10  -7  -9    0.93    0.98
  10   7  -9    0.41    0.78
   9  -7  -9    1.30    0.94
   9   7  -9    0.99    0.73
   8  -7  -9   13.25    1.29
   8   7  -9   12.15    0.95
   7  -7  -9    3.50    0.84
   7   7  -9    3.26    0.61
   7   7  -9    3.87    0.60
   6  -7  -9    1.34    0.70
   6   7  -9    1.55    0.52
   6   7  -9    1.24    0.50
   5  -7  -9   10.24    0.97
   5   7  -9    9.80    0.76
   5   7  -9   10.79    0.83
   4  -7  -9    4.36    0.66
   4   7  -9    5.34    0.55
   4   7  -9    5.20    0.60
   3  -7  -9    5.18    0.63
   3   7  -9    6.13    0.60
   2  -7  -9    3.45    0.42
   2  -7  -9    4.79    0.58
  -2  -7   9    3.55    0.46
   2   7  -9    5.20    0.55
   1  -7  -9   48.67    1.79
  -1  -7   9   46.08    1.76
   1  -7  -9   49.92    1.78
   1   7  -9   46.99    1.81
   0  -7  -9    3.53    0.48
   0  -7   9    3.57    0.49
   0  -7  -9    3.24    0.44
  -1  -7  -9    2.89    0.45
   1  -7   9    3.43    0.51
  -1  -7  -9    3.03    0.44
  -2  -7  -9   16.43    0.96
   2  -7   9   15.73    0.96
   3  -7   9   25.78    1.31
  -3  -7  -9   29.24    1.32
  -4  -7  -9    0.00    0.49
   4  -7   9    0.15    0.59
   5  -7   9    8.97    0.86
  -5  -7  -9    7.64    0.78
  -6  -7  -9   10.12    1.15
   6  -7   9   10.87    1.00
  -7  -7  -9    0.72    0.71
   7  -7   9    1.20    0.77
  11  -8  -9    1.26    1.07
  11   8  -9    1.14    0.93
  10  -8  -9    1.54    1.01
  10   8  -9    0.92    0.85
   9  -8  -9    1.49    0.96
   9   8  -9    2.28    0.78
   8  -8  -9    0.77    0.92
   8   8  -9    2.51    0.68
   7  -8  -9    5.19    0.91
   7   8  -9    4.84    0.68
   7   8  -9    6.01    0.66
   6  -8  -9    2.12    0.74
   6   8  -9    2.94    0.58
   6   8  -9    2.82    0.57
   5  -8  -9    8.29    0.83
   5   8  -9    7.89    0.72
   5   8  -9    9.52    0.81
   4  -8  -9    7.26    0.76
   4   8  -9    7.47    0.70
   4   8  -9    8.19    0.79
   3  -8  -9    6.78    0.71
   3   8  -9    6.08    0.64
  -2  -8   9    6.18    0.65
   2  -8  -9    7.24    0.68
   2   8  -9    7.04    0.73
   1  -8  -9    3.29    0.45
   1  -8  -9    2.95    0.54
  -1  -8   9    2.83    0.47
   0  -8   9    4.58    0.54
   0  -8  -9    4.50    0.54
   0  -8  -9    3.54    0.47
  -1  -8  -9    0.25    0.41
  -1  -8  -9    0.62    0.40
   1  -8   9    0.40    0.45
  -2  -8  -9    6.57    0.76
   2  -8   9    7.64    0.71
   3  -8   9    1.11    0.57
  -3  -8  -9    1.08    0.50
  -4  -8  -9    0.54    0.54
   4  -8   9   -0.08    0.60
   5  -8   9    5.16    0.79
  -5  -8  -9    5.11    0.72
  -6  -8  -9    1.11    0.64
   6  -8   9    2.40    0.76
   7  -8   9    2.78    0.84
  -7  -8  -9    1.90    0.73
  11  -9  -9    1.08    1.11
  11   9  -9   -0.43    0.95
  10  -9  -9    3.30    1.09
  10   9  -9    2.49    0.90
   9  -9  -9    2.44    1.02
   9   9  -9    4.05    0.82
   8  -9  -9    2.54    0.96
   8   9  -9    3.44    0.74
   7  -9  -9    1.40    0.87
   7   9  -9    2.51    0.67
   6  -9  -9   10.18    1.11
   6   9  -9    9.67    0.87
   6   9  -9   11.35    0.90
   5  -9  -9   12.66    1.16
   5   9  -9   14.25    0.94
   5   9  -9   12.42    0.90
   4  -9  -9    2.25    0.67
   4   9  -9    2.47    0.58
   4   9  -9    1.79    0.50
   3  -9  -9    9.80    0.92
  -2  -9   9   14.17    0.86
   2  -9  -9   14.59    0.98
  -1  -9   9   12.28    0.82
   1  -9  -9   14.61    0.90
   1  -9  -9   12.53    0.90
   0  -9  -9    4.68    0.56
   0  -9  -9    4.40    0.52
   0  -9   9    4.62    0.58
  -1  -9  -9   19.63    0.95
   1  -9   9   18.54    1.04
  -1  -9  -9   19.79    1.06
  -2  -9  -9   11.65    0.92
   2  -9   9   11.33    0.93
  -3  -9  -9   10.07    0.97
   3  -9   9   10.42    0.94
   4  -9   9    4.01    0.73
  -4  -9  -9    3.16    0.62
  -5  -9  -9    7.05    0.78
   5  -9   9    7.29    0.87
  -6  -9  -9    3.29    0.74
   6  -9   9    3.80    0.84
   7  -9   9    2.65    0.95
  -7  -9  -9    1.04    0.76
  10 -10  -9    1.26    1.09
  10  10  -9    1.06    0.88
   9 -10  -9    3.09    1.06
   9  10  -9    5.08    0.88
   8 -10  -9    1.90    0.99
   8  10  -9    2.20    0.76
   7 -10  -9    1.60    0.90
   7  10  -9    1.63    0.68
   6 -10  -9    2.95    0.86
   6  10  -9    3.05    0.67
   5 -10  -9   17.62    1.23
   5  10  -9   16.13    1.04
   4 -10  -9   10.66    1.06
   4  10  -9    7.42    0.78
   3 -10  -9    0.64    0.62
  -3 -10   9    1.21    0.49
   2 -10  -9   10.74    0.96
  -2 -10   9   10.46    0.81
   1 -10  -9    1.19    0.45
  -1 -10   9    2.07    0.51
   1 -10  -9    1.72    0.57
   0 -10  -9    7.36    0.83
   0 -10  -9    8.75    0.79
   0 -10   9    9.09    0.75
  -1 -10  -9    2.34    0.53
   1 -10   9    2.80    0.58
  -2 -10  -9    6.74    0.68
   2 -10   9    7.76    0.77
   3 -10   9    2.10    0.64
  -3 -10  -9    0.65    0.54
  -4 -10  -9    3.29    0.67
   4 -10   9    4.14    0.78
   5 -10   9    2.69    0.78
  -5 -10  -9    1.72    0.66
   6 -10   9    1.13    0.80
  -6 -10  -9    0.27    0.67
  10 -11  -9    1.28    1.10
  10  11  -9    2.01    0.92
   9 -11  -9    2.56    1.10
   9  11  -9    1.83    0.86
   8 -11  -9   -0.34    1.00
   8  11  -9    1.74    0.78
   7 -11  -9    3.63    1.00
   7  11  -9    1.99    0.74
   6 -11  -9   10.55    1.10
   6  11  -9   10.60    0.98
   5 -11  -9    2.18    0.84
   5  11  -9    2.25    0.65
   4 -11  -9    1.71    0.75
   4  11  -9    1.82    0.59
   3 -11  -9   12.06    1.09
  -3 -11   9   11.16    0.91
  -2 -11   9   13.25    0.94
   2 -11  -9   15.24    1.11
   1 -11  -9    2.38    0.53
  -1 -11   9    2.09    0.57
   1 -11  -9    2.21    0.61
   0 -11  -9    0.22    0.51
   0 -11   9    0.07    0.52
   0 -11  -9    0.15    0.49
   1 -11   9   17.68    1.11
  -1 -11  -9   19.60    1.13
  -2 -11  -9    2.05    0.58
   2 -11   9    2.22    0.63
  -3 -11  -9   -0.39    0.54
   3 -11   9    0.03    0.61
   4 -11   9    7.45    0.89
  -4 -11  -9    6.80    0.78
  -5 -11  -9    3.23    0.73
   5 -11   9    4.63    0.90
  -6 -11  -9   -0.34    0.69
   6 -11   9    0.21    0.80
   9 -12  -9    2.96    1.16
   9  12  -9    4.14    0.93
   8 -12  -9    1.69    1.06
   8  12  -9    3.60    0.84
   7 -12  -9   -1.16    0.97
   7  12  -9    0.49    0.75
   6 -12  -9    1.71    0.96
   6  12  -9    3.41    0.74
   5 -12  -9    9.10    1.05
   5  12  -9    7.61    0.84
   4 -12  -9    1.07    0.78
   4  12  -9   -0.44    0.61
  -3 -12   9    6.79    0.72
   3 -12  -9    5.61    0.83
  -2 -12   9   14.09    1.01
   2 -12  -9   15.52    1.13
   1 -12  -9    6.44    0.69
   1 -12  -9    8.63    0.81
  -1 -12   9    7.19    0.75
   0 -12  -9    2.28    0.60
   0 -12   9    1.57    0.62
   0 -12  -9    2.02    0.56
  -1 -12  -9    2.03    0.59
   1 -12   9    2.56    0.66
   2 -12   9    5.78    0.78
  -2 -12  -9    5.23    0.71
  -3 -12  -9    0.68    0.59
   3 -12   9    0.92    0.69
  -4 -12  -9    0.91    0.64
   4 -12   9    1.52    0.75
   5 -12   9    0.29    0.79
  -5 -12  -9    0.44    0.68
   9 -13  -9    1.96    1.17
   9  13  -9    2.03    0.91
   8 -13  -9   -0.74    1.08
   8  13  -9    0.21    0.83
   7 -13  -9    0.05    1.02
   7  13  -9    1.12    0.80
   6 -13  -9    6.87    1.12
   6  13  -9    5.04    0.85
   5 -13  -9    2.32    0.95
   5  13  -9    1.69    0.71
   4 -13  -9    4.34    0.91
  -3 -13   9   14.23    1.05
   3 -13  -9   15.57    1.25
   2 -13  -9   10.94    1.10
  -2 -13   9   11.13    0.96
  -1 -13   9    1.83    0.67
   1 -13  -9    2.37    0.71
   1 -13  -9    2.21    0.60
   0 -13  -9    1.72    1.00
   0 -13   9    1.78    0.68
   0 -13  -9    1.51    0.58
   1 -13   9    9.62    0.87
  -1 -13  -9    7.39    0.76
   2 -13   9    1.42    0.68
  -2 -13  -9    0.09    0.57
  -3 -13  -9    1.58    0.65
   3 -13   9    0.75    0.71
  -4 -13  -9    3.34    0.73
   4 -13   9    4.35    0.87
   5 -13   9    0.45    0.83
  -5 -13  -9    1.45    0.72
   8 -14  -9   -1.31    1.13
   8  14  -9    1.81    0.88
   7 -14  -9    1.54    1.12
   7  14  -9    0.76    0.83
   6 -14  -9   -0.46    1.04
   6  14  -9    0.46    0.78
   5 -14  -9    3.02    1.02
   5  14  -9    3.01    0.78
   4 -14  -9   -0.10    0.85
   3 -14  -9    2.07    0.83
  -3 -14   9    3.04    0.70
  -2 -14   9    1.92    0.66
   2 -14  -9    1.63    0.76
  -1 -14   9    0.91    0.66
   1 -14  -9    0.93    0.70
   1 -14  -9    1.04    0.60
   0 -14  -9    1.61    0.61
   0 -14   9    1.89    0.70
   1 -14   9   -0.11    0.65
  -1 -14  -9    0.83    0.60
   2 -14   9    0.10    0.71
  -2 -14  -9   -0.16    0.61
   3 -14   9    1.29    0.77
  -3 -14  -9    1.25    0.66
   4 -14   9    0.56    0.81
  -4 -14  -9    1.09    0.69
   7 -15  -9    1.12    1.17
   7  15  -9    1.04    0.89
   6 -15  -9    4.09    1.17
   6  15  -9    2.06    0.82
   5 -15  -9    4.64    1.10
   5  15  -9    2.31    0.82
   4 -15  -9    3.38    0.98
  -4 -15   9    2.30    0.70
  -3 -15   9    0.71    0.67
   3 -15  -9    0.39    0.86
   2 -15  -9    0.82    0.80
  -2 -15   9    0.66    0.67
  -1 -15   9    7.03    0.88
   1 -15  -9    5.53    0.76
   1 -15  -9    7.04    0.91
   0 -15  -9    2.22    0.66
   0 -15   9    2.96    0.76
  -1 -15  -9    0.84    0.63
   1 -15   9    2.07    0.72
   2 -15   9    1.44    0.76
  -2 -15  -9    1.72    0.70
   3 -15   9    5.41    0.91
  -3 -15  -9    4.87    0.80
   6 -16  -9    0.60    1.17
   6  16  -9   -0.08    0.85
   5 -16  -9   -0.24    1.05
   4 -16  -9    3.25    1.03
  -4 -16   9    4.00    0.76
   3 -16  -9    2.35    0.94
  -3 -16   9    2.24    0.76
   2 -16  -9    0.73    0.84
  -2 -16   9   -0.83    0.67
   1 -16  -9   -0.25    0.62
  -1 -16   9    0.22    0.73
   0 -16   9    1.63    0.77
   0 -16  -9    0.71    0.65
  -1 -16  -9   -0.36    0.64
   1 -16   9   -0.78    0.72
   2 -16   9   -1.24    0.73
  -2 -16  -9   -0.60    0.67
   5 -17  -9    1.82    1.16
  -4 -17   9    2.11    0.75
   4 -17  -9    1.73    1.04
   3 -17  -9   -0.75    0.94
  -3 -17   9   -0.18    0.71
   2 -17  -9    0.43    0.88
  -2 -17   9   -0.16    0.73
  -1 -17   9    5.26    0.89
   1 -17  -9    5.22    0.79
   0 -17  -9    1.81    0.70
   0 -17   9    1.16    0.78
   1 -17   9   -0.45    0.75
  -1 -17  -9   -0.37    0.81
  11   0 -10    3.61    0.83
  10   0 -10    2.55    0.70
   9   0 -10    2.05    0.76
   9   0 -10    0.85    0.59
   8   0 -10    1.27    0.68
   8   0 -10    0.97    0.52
   7   0 -10    3.87    0.51
   7   0 -10    4.73    0.70
   6   0 -10    1.58    0.41
   6   0 -10    1.43    0.58
   5   0 -10    6.94    0.52
   5   0 -10    5.87    0.65
   4   0 -10   28.68    1.27
   4   0 -10   30.72    1.13
   3   0 -10   22.99    1.07
  -3   0  10   23.50    0.95
   2   0 -10    0.29    0.43
  -2   0  10    0.70    0.32
   1   0 -10    4.23    0.49
  -1   0  10    3.87    0.42
   0   0 -10   35.12    1.34
   0   0 -10   35.19    1.40
   0   0  10   37.05    1.37
   1   0  10   19.04    0.95
  -1   0 -10   20.51    0.94
  -1   0 -10   20.16    0.97
   2   0  10    3.49    0.51
  -2   0 -10    3.42    0.44
  -2   0 -10    3.07    0.47
   3   0  10    9.17    0.80
  -3   0 -10    8.24    0.80
  -3   0 -10    9.24    0.71
  -4   0 -10   15.21    1.03
   4   0  10   16.15    1.01
   5   0  10    8.80    0.92
  -5   0 -10    8.63    0.96
   6   0  10    5.89    0.77
   7   0  10   12.70    1.17
  12   1 -10    1.22    0.87
  11   1 -10    3.24    0.84
  10  -1 -10   11.62    1.14
  10   1 -10   10.02    0.99
   9  -1 -10   10.05    0.85
   9  -1 -10   10.86    1.06
   9   1 -10    9.46    0.87
   9   1 -10    9.64    1.06
   8  -1 -10    0.94    0.50
   8  -1 -10    1.25    0.70
   8   1 -10    1.88    0.68
   8   1 -10    0.96    0.54
   7  -1 -10    7.37    0.81
   7  -1 -10    7.42    0.66
   7   1 -10    8.49    0.69
   7   1 -10    7.48    0.78
   6  -1 -10   30.63    1.37
   6  -1 -10   31.07    1.18
   6   1 -10   29.78    1.20
   6   1 -10   28.15    1.36
   5  -1 -10    1.18    0.51
   5  -1 -10    1.54    0.36
   5   1 -10    0.63    0.37
   5   1 -10    1.23    0.51
   4  -1 -10    7.66    0.73
   4   1 -10    7.52    0.70
   4   1 -10    7.86    0.57
  -3  -1  10   50.13    1.69
   3  -1 -10   45.39    1.76
   3   1 -10   44.37    1.76
  -3   1  10   48.52    1.65
  -2  -1  10   17.82    0.80
   2  -1 -10   15.35    0.86
  -2   1  10   18.05    0.77
   2   1 -10   15.83    0.88
  -1  -1  10    3.95    0.42
   1  -1 -10    1.95    0.32
   1  -1 -10    2.39    0.45
   1   1 -10    2.55    0.46
  -1   1  10    3.87    0.41
   0  -1 -10    4.10    0.42
   0  -1  10    6.10    0.61
   0  -1 -10    5.11    0.53
   0   1  10    5.87    0.58
   0   1 -10    5.46    0.55
   1  -1  10   15.59    0.87
  -1  -1 -10   16.21    0.85
  -1  -1 -10   17.97    0.85
  -1   1 -10   14.73    0.87
  -1   1 -10   15.13    0.81
   1   1  10   16.44    0.84
  -2  -1 -10    1.37    0.42
   2  -1  10    1.76    0.48
  -2  -1 -10    1.26    0.39
   2   1  10    1.06    0.43
  -2   1 -10    1.14    0.44
  -2   1 -10    0.66    0.37
  -3  -1 -10    7.87    0.78
  -3  -1 -10    9.16    0.71
   3  -1  10    9.02    0.79
  -3   1 -10    8.44    0.77
   3   1  10    9.49    0.76
  -3   1 -10    9.91    0.72
   4  -1  10    2.12    0.58
  -4  -1 -10    1.95    0.53
   4   1  10    2.27    0.55
  -5  -1 -10    0.70    0.57
   5  -1  10    1.55    0.62
   5   1  10    1.24    0.56
  -6  -1 -10    1.37    0.64
   6  -1  10    3.10    0.72
   6   1  10    2.64    0.67
   7  -1  10    2.77    0.78
   7   1  10    3.13    0.75
  12   2 -10    1.91    0.91
  11   2 -10    1.74    0.81
  10  -2 -10    4.48    0.89
  10   2 -10    3.52    0.76
   9  -2 -10    4.40    0.84
   9   2 -10    4.30    0.69
   9   2 -10    4.42    0.74
   8  -2 -10    0.90    0.73
   8   2 -10    1.14    0.56
   8   2 -10    1.49    0.64
   7  -2 -10   11.12    1.03
   7   2 -10   11.36    0.91
   7   2 -10    9.96    0.74
   6  -2 -10    1.94    0.57
   6  -2 -10    1.90    0.62
   6   2 -10    2.46    0.46
   6   2 -10    2.27    0.59
   5  -2 -10    7.44    0.69
   5  -2 -10    7.60    0.55
   5   2 -10    6.46    0.59
   5   2 -10    7.04    0.68
   4  -2 -10   17.53    0.92
   4   2 -10   17.05    0.83
   4   2 -10   17.70    0.97
  -3  -2  10   35.91    1.32
   3  -2 -10   34.35    1.40
   3   2 -10   34.38    1.42
   2  -2 -10   17.79    0.87
   2  -2 -10   18.41    0.92
  -2  -2  10   18.28    0.85
  -2   2  10   18.73    0.80
   2   2 -10   17.07    0.95
   1  -2 -10   11.21    0.65
  -1  -2  10   12.06    0.71
   1  -2 -10   10.64    0.73
  -1   2  10   12.06    0.66
   1   2 -10   12.69    0.77
   0  -2 -10   21.02    0.92
   0  -2 -10   20.25    0.96
   0  -2  10   20.37    0.94
   0   2  10   20.38    0.90
   0   2 -10   19.26    0.97
  -1  -2 -10   16.79    0.86
  -1  -2 -10   17.28    0.88
   1  -2  10   16.92    0.90
  -1   2 -10   15.94    0.89
   1   2  10   16.19    0.84
  -1   2 -10   16.45    0.84
   2  -2  10    2.92    0.52
  -2  -2 -10    2.89    0.45
  -2  -2 -10    2.57    0.43
   2   2  10    2.90    0.47
  -2   2 -10    3.26    0.51
  -3  -2 -10    9.04    0.68
   3  -2  10    9.16    0.84
  -3  -2 -10    8.65    0.80
   3   2  10    9.18    0.73
   4  -2  10    6.01    0.71
  -4  -2 -10    4.77    0.62
   4   2  10    5.53    0.62
   5  -2  10    6.17    0.75
  -5  -2 -10    4.54    0.68
   5   2  10    5.38    0.68
  -6  -2 -10    2.93    0.73
   6  -2  10    3.72    0.76
   6   2  10    4.83    0.70
  -7  -2 -10    5.40    0.83
   7  -2  10    5.92    0.86
   7   2  10    5.74    0.81
  12   3 -10    1.21    0.91
  11   3 -10    6.64    0.93
  10  -3 -10    2.07    0.90
  10   3 -10    1.16    0.73
   9  -3 -10    7.07    0.95
   9   3 -10    5.27    0.81
   9   3 -10    5.49    0.74
   8  -3 -10    9.12    0.94
   8   3 -10    6.90    0.71
   8   3 -10   10.35    0.94
   7  -3 -10    6.79    0.85
   7   3 -10    6.29    0.71
   7   3 -10    6.57    0.63
   6  -3 -10   10.91    0.97
   6   3 -10    9.14    0.87
   6   3 -10    9.15    0.73
   5  -3 -10   11.59    0.91
   5   3 -10   10.45    0.87
   5   3 -10   12.25    0.74
   4  -3 -10    4.50    0.58
   4   3 -10    4.42    0.57
   4   3 -10    4.29    0.48
  -3  -3  10   12.86    0.73
   3  -3 -10   12.38    0.79
   3   3 -10   11.20    0.80
   2  -3 -10   14.37    0.81
   2  -3 -10   14.03    0.69
  -2  -3  10   12.90    0.74
   2   3 -10   11.46    0.82
   1  -3 -10   36.74    1.46
  -1  -3  10   38.44    1.43
   1  -3 -10   38.02    1.40
   1   3 -10   36.83    1.47
   0  -3 -10   10.08    0.71
   0  -3 -10   11.24    0.70
   0  -3  10   10.72    0.71
   0   3 -10   10.01    0.76
  -1  -3 -10   10.35    0.72
  -1  -3 -10   10.79    0.69
   1  -3  10    9.95    0.76
  -1   3 -10    9.83    0.77
  -2  -3 -10    5.40    0.52
  -2  -3 -10    4.17    0.49
   2  -3  10    5.07    0.59
  -2   3 -10    4.60    0.55
   2   3  10    3.90    0.59
   3  -3  10    8.07    0.72
  -3  -3 -10    6.95    0.64
   3   3  10    7.11    0.66
  -4  -3 -10    2.36    0.56
   4  -3  10    3.18    0.64
   4   3  10    2.13    0.50
  -5  -3 -10    1.30    0.59
   5  -3  10    1.35    0.65
   5   3  10    2.15    0.56
   6  -3  10    4.46    0.79
  -6  -3 -10    3.27    0.72
   6   3  10    5.37    0.70
   7  -3  10    1.36    0.75
  -7  -3 -10    0.06    0.71
   7   3  10    1.49    0.67
  12   4 -10    2.50    0.94
  11   4 -10    1.77    0.84
  10  -4 -10    0.37    0.91
  10   4 -10   -0.44    0.72
   9  -4 -10    6.34    0.99
   9   4 -10    5.84    0.78
   8  -4 -10    0.89    0.81
   8   4 -10    2.24    0.60
   8   4 -10    1.76    0.64
   7  -4 -10    4.31    0.81
   7   4 -10    6.83    0.73
   7   4 -10    5.17    0.62
   6  -4 -10    0.93    0.63
   6   4 -10    0.80    0.55
   6   4 -10    0.86    0.47
   5  -4 -10    4.17    0.65
   5   4 -10    5.68    0.55
   5   4 -10    5.72    0.64
   4  -4 -10    0.47    0.51
   4   4 -10    0.38    0.46
   4   4 -10    1.04    0.41
   3  -4 -10   10.00    0.61
   3  -4 -10    9.49    0.81
  -3  -4  10    8.80    0.68
   3   4 -10    9.17    0.78
   2  -4 -10   24.40    0.99
   2  -4 -10   23.27    1.06
  -2  -4  10   23.95    1.04
   2   4 -10   21.91    1.08
   1  -4 -10    4.14    0.53
   1  -4 -10    3.68    0.40
  -1  -4  10    4.90    0.50
   1   4 -10    3.61    0.52
   0  -4 -10    8.56    0.67
   0  -4  10    8.41    0.70
   0  -4 -10    8.21    0.67
   0   4 -10    8.70    0.73
   1  -4  10   11.98    0.82
  -1  -4 -10   12.51    0.79
  -1  -4 -10   12.84    0.74
  -1   4 -10   12.50    0.82
   2  -4  10   21.87    1.11
  -2  -4 -10   22.61    1.00
  -2  -4 -10   21.97    1.09
   3  -4  10   13.21    0.95
  -3  -4 -10   12.23    0.91
  -4  -4 -10    1.71    0.55
   4  -4  10    2.86    0.64
   5  -4  10   12.10    1.07
  -5  -4 -10   13.11    1.10
  -6  -4 -10    4.60    0.78
   6  -4  10    5.66    0.85
  -7  -4 -10    1.97    0.78
   7  -4  10    2.71    0.80
  11  -5 -10    5.62    1.09
  11   5 -10    3.85    0.90
  10  -5 -10    1.37    0.98
  10   5 -10   -0.21    0.76
   9  -5 -10    1.65    0.94
   9   5 -10    3.61    0.74
   8  -5 -10   14.68    1.30
   8   5 -10   12.52    0.94
   8   5 -10   13.23    0.99
   7  -5 -10    7.24    0.91
   7   5 -10    6.22    0.68
   7   5 -10    7.36    0.74
   6  -5 -10    0.25    0.64
   6   5 -10    0.95    0.56
   6   5 -10    0.63    0.50
   5  -5 -10   13.32    0.97
   5   5 -10   12.50    0.90
   5   5 -10   12.37    0.80
   4  -5 -10    8.37    0.84
   4   5 -10    9.15    0.70
   4   5 -10    8.84    0.82
  -3  -5  10    3.59    0.49
   3  -5 -10    3.52    0.57
   3  -5 -10    2.80    0.38
   3   5 -10    3.23    0.54
   2  -5 -10    6.39    0.59
  -2  -5  10    6.68    0.57
   2  -5 -10    5.51    0.61
   2   5 -10    5.67    0.60
   1  -5 -10   30.34    1.26
   1  -5 -10   31.76    1.24
  -1  -5  10   31.55    1.27
   1   5 -10   29.01    1.30
   0  -5 -10    3.54    0.44
   0  -5  10    4.55    0.53
   0  -5 -10    4.31    0.51
   0   5 -10    3.71    0.54
  -1  -5 -10    7.18    0.68
   1  -5  10    7.28    0.74
  -1  -5 -10    6.86    0.63
  -1   5 -10    6.90    0.76
  -2  -5 -10    2.43    0.43
  -2  -5 -10    1.59    0.45
   2  -5  10    1.59    0.53
   3  -5  10    4.44    0.66
  -3  -5 -10    3.76    0.57
  -4  -5 -10   -0.02    0.50
   4  -5  10    0.58    0.59
  -5  -5 -10    2.00    0.62
   5  -5  10    2.62    0.69
   6  -5  10    4.54    0.82
  -6  -5 -10    3.53    0.76
   7  -5  10    1.06    0.78
  -7  -5 -10   -0.18    0.70
  11  -6 -10    2.44    1.07
  11   6 -10    1.67    0.88
  10  -6 -10    0.35    1.00
  10   6 -10   -0.84    0.76
   9  -6 -10    5.02    1.04
   9   6 -10    4.32    0.77
   8  -6 -10    1.81    0.94
   8   6 -10    3.40    0.68
   8   6 -10    1.79    0.65
   7  -6 -10    3.58    0.87
   7   6 -10    4.58    0.66
   7   6 -10    3.60    0.67
   6  -6 -10    2.59    0.75
   6   6 -10    2.81    0.57
   6   6 -10    3.42    0.65
   5  -6 -10   18.49    1.15
   5   6 -10   17.48    1.06
   5   6 -10   16.02    0.94
   4  -6 -10    4.81    0.67
   4   6 -10    5.70    0.56
   4   6 -10    5.44    0.67
   3  -6 -10    3.12    0.42
  -3  -6  10    4.13    0.52
   3  -6 -10    4.37    0.61
   3   6 -10    4.63    0.59
  -2  -6  10   24.50    1.09
   2  -6 -10   25.21    1.08
   2  -6 -10   25.23    1.17
   2   6 -10   23.53    1.16
   1  -6 -10   10.41    0.74
   1  -6 -10   10.95    0.80
  -1  -6  10   10.47    0.78
   1   6 -10    9.50    0.80
   0  -6 -10    0.43    0.37
   0  -6  10    0.89    0.45
   0  -6 -10    0.68    0.42
   0   6 -10    0.34    0.47
   1  -6  10   11.58    0.86
  -1  -6 -10   10.72    0.82
  -1  -6 -10   12.99    0.76
  -2  -6 -10   28.77    1.32
   2  -6  10   27.99    1.31
  -3  -6 -10    2.28    0.53
   3  -6  10    2.57    0.63
   4  -6  10    0.67    0.61
  -4  -6 -10   -0.23    0.52
   5  -6  10   18.99    1.26
  -5  -6 -10   20.31    1.27
   6  -6  10    5.32    0.86
  -6  -6 -10    3.39    0.75
  -7  -6 -10    0.18    0.73
   7  -6  10    0.37    0.76
  11  -7 -10    3.31    1.14
  11   7 -10    4.68    0.99
  10  -7 -10    2.19    1.06
  10   7 -10   -0.18    0.82
   9  -7 -10    2.18    1.02
   9   7 -10    1.71    0.74
   8  -7 -10   12.51    1.35
   8   7 -10   11.91    0.98
   7  -7 -10    6.55    0.97
   7   7 -10    6.78    0.78
   7   7 -10    7.70    0.76
   6  -7 -10    1.60    0.75
   6   7 -10    1.58    0.59
   6   7 -10    1.62    0.57
   5  -7 -10   11.96    1.10
   5   7 -10   13.03    0.95
   5   7 -10   13.02    0.89
   4  -7 -10   12.04    1.01
   4   7 -10   12.93    0.94
   4   7 -10   12.97    0.85
  -3  -7  10    3.55    0.54
   3  -7 -10    3.35    0.63
   3   7 -10    3.62    0.60
   2  -7 -10    7.45    0.70
  -2  -7  10    7.10    0.63
   2  -7 -10    6.70    0.69
   2   7 -10    7.17    0.70
   1  -7 -10   15.64    0.88
   1  -7 -10   16.03    0.95
  -1  -7  10   16.59    0.94
   1   7 -10   15.36    0.97
   0  -7 -10    0.68    0.43
   0  -7 -10    0.20    0.40
   0  -7  10    0.56    0.47
  -1  -7 -10    6.07    0.57
   1  -7  10    5.19    0.64
  -1  -7 -10    3.97    0.54
   2  -7  10    7.04    0.73
  -2  -7 -10    5.20    0.60
   3  -7  10    2.59    0.65
  -3  -7 -10    2.04    0.57
   4  -7  10    3.60    0.73
  -4  -7 -10    3.57    0.64
   5  -7  10    2.06    0.72
  -5  -7 -10    0.87    0.61
  -6  -7 -10    1.48    0.69
   6  -7  10    2.05    0.80
  -7  -7 -10   -0.48    0.86
  11  -8 -10    1.53    1.14
  11   8 -10    0.32    0.93
  10  -8 -10    1.26    1.09
  10   8 -10    0.54    0.83
   9  -8 -10    2.38    1.04
   9   8 -10    1.87    0.79
   8  -8 -10    1.71    0.99
   8   8 -10    3.20    0.75
   7  -8 -10    0.46    0.89
   7   8 -10    1.50    0.61
   7   8 -10    0.84    0.65
   6  -8 -10    0.52    0.82
   6   8 -10    1.60    0.61
   6   8 -10    2.87    0.65
   5  -8 -10    8.84    0.93
   5   8 -10    9.37    0.86
   5   8 -10   10.14    0.92
   4  -8 -10    5.55    0.77
   4   8 -10    4.07    0.67
   4   8 -10    4.30    0.61
   3  -8 -10    8.14    0.91
  -3  -8  10    8.47    0.79
   3   8 -10    8.50    0.85
   2  -8 -10   19.10    1.10
  -2  -8  10   18.11    0.99
   2  -8 -10   19.70    1.01
   2   8 -10   18.75    1.11
   1  -8 -10    7.34    0.80
   1  -8 -10    6.96    0.77
  -1  -8  10    8.12    0.71
   0  -8 -10   20.56    1.08
   0  -8 -10   22.45    1.06
   0  -8  10   19.64    1.09
  -1  -8 -10   16.22    0.87
  -1  -8 -10   15.25    0.99
   1  -8  10   14.77    0.97
   2  -8  10   21.58    1.21
  -2  -8 -10   22.18    1.20
  -3  -8 -10    2.89    0.59
   3  -8  10    3.44    0.68
   4  -8  10    1.07    0.68
  -4  -8 -10    1.41    0.59
  -5  -8 -10   10.03    1.12
   5  -8  10   10.24    0.98
  -6  -8 -10    1.03    0.70
   6  -8  10    1.29    0.78
  10  -9 -10    3.70    1.14
  10   9 -10    3.15    0.91
   9  -9 -10    1.69    1.07
   9   9 -10    2.02    0.82
   8  -9 -10    1.94    1.02
   8   9 -10    3.47    0.80
   7  -9 -10    5.60    1.02
   7   9 -10    4.02    0.75
   7   9 -10    4.68    0.73
   6  -9 -10   11.25    1.10
   6   9 -10   12.01    1.01
   6   9 -10   10.29    0.96
   5  -9 -10    4.05    0.86
   5   9 -10    4.58    0.69
   5   9 -10    5.78    0.76
   4  -9 -10    9.10    0.92
   4   9 -10    9.38    0.86
  -3  -9  10    3.88    0.59
   3  -9 -10    4.42    0.73
   2  -9 -10   11.83    0.99
  -2  -9  10   10.79    0.88
   2  -9 -10   11.12    0.85
  -1  -9  10    6.66    0.70
   1  -9 -10    7.18    0.71
   1  -9 -10    5.86    0.61
   0  -9 -10    0.35    0.47
   0  -9 -10    0.86    0.49
   0  -9  10    0.61    0.53
   1  -9  10    9.22    0.88
  -1  -9 -10   11.17    0.92
  -2  -9 -10    3.44    0.60
   2  -9  10    4.31    0.70
  -3  -9 -10    2.84    0.62
   3  -9  10    3.37    0.72
   4  -9  10    3.67    0.78
  -4  -9 -10    2.78    0.65
   5  -9  10    1.43    0.77
  -5  -9 -10    1.24    0.67
   6  -9  10    1.09    0.80
  -6  -9 -10    0.60    0.69
  10 -10 -10    2.29    1.13
  10  10 -10    1.25    0.92
   9 -10 -10    1.24    1.08
   9  10 -10    1.17    0.84
   8 -10 -10    0.31    1.01
   8  10 -10    0.29    0.75
   7 -10 -10    4.08    1.01
   7  10 -10    4.41    0.81
   6 -10 -10    4.84    0.97
   6  10 -10    5.74    0.79
   5 -10 -10    3.45    0.90
   5  10 -10    2.42    0.67
   4 -10 -10    2.13    0.79
   3 -10 -10    9.51    1.02
  -3 -10  10    8.64    0.87
  -2 -10  10   12.20    0.95
   2 -10 -10   12.14    0.94
   2 -10 -10   12.22    1.06
   1 -10 -10    3.15    0.64
  -1 -10  10    2.05    0.61
   1 -10 -10    2.23    0.52
   0 -10  10   11.07    0.95
   0 -10 -10   13.57    0.98
   0 -10 -10   14.78    0.94
   1 -10  10   12.45    1.02
  -1 -10 -10   14.44    1.03
   2 -10  10    7.78    0.81
  -2 -10 -10    5.03    0.68
  -3 -10 -10    6.82    0.75
   3 -10  10    6.99    0.85
  -4 -10 -10    2.99    0.69
   4 -10  10    4.14    0.83
   5 -10  10    1.29    0.79
  -5 -10 -10    2.51    0.71
  10 -11 -10    4.31    1.26
   9 -11 -10    3.17    1.18
   9  11 -10    4.15    0.93
   8 -11 -10    0.62    1.09
   8  11 -10    1.06    0.81
   7 -11 -10    2.84    1.07
   7  11 -10    2.58    0.81
   6 -11 -10   10.74    1.18
   6  11 -10    9.98    0.95
   5 -11 -10    1.48    0.89
   5  11 -10    2.32    0.71
   4 -11 -10    1.67    0.82
  -3 -11  10    7.31    0.76
   3 -11 -10    6.31    0.88
  -2 -11  10    7.53    0.75
   2 -11 -10    5.07    0.64
   2 -11 -10    8.03    0.86
  -1 -11  10    0.29    0.59
   1 -11 -10    0.43    0.51
   1 -11 -10    0.13    0.59
   0 -11 -10    1.55    0.55
   0 -11  10    1.57    0.63
   0 -11 -10    1.88    0.59
  -1 -11 -10    5.99    0.71
   1 -11  10    7.43    0.80
   2 -11  10    0.59    0.63
  -2 -11 -10    0.03    0.56
   3 -11  10    0.76    0.71
  -3 -11 -10    0.09    0.60
  -4 -11 -10    1.50    0.67
   4 -11  10    2.31    0.80
  -5 -11 -10    0.59    0.69
   5 -11  10    1.30    0.83
   9 -12 -10    1.04    1.16
   9  12 -10    0.48    0.89
   8 -12 -10    0.08    1.10
   8  12 -10   -0.31    0.85
   7 -12 -10    4.54    1.12
   7  12 -10    3.91    0.86
   6 -12 -10    0.75    0.99
   6  12 -10   -0.19    0.75
   5 -12 -10    1.04    0.93
   5  12 -10    0.09    0.70
  -4 -12  10    2.13    0.63
   4 -12 -10    1.23    0.83
   3 -12 -10    3.14    0.86
  -3 -12  10    3.33    0.68
   2 -12 -10    0.14    0.72
   2 -12 -10    1.24    0.55
  -2 -12  10    1.37    0.63
   1 -12 -10    2.87    0.71
  -1 -12  10    2.42    0.68
   1 -12 -10    1.94    0.59
   0 -12 -10    3.28    0.63
   0 -12  10    3.56    0.74
   1 -12  10    1.24    0.68
  -1 -12 -10    1.36    0.59
  -2 -12 -10   -0.14    0.59
   2 -12  10    0.00    0.68
  -3 -12 -10    4.41    0.75
   3 -12  10    6.63    0.89
  -4 -12 -10    4.50    0.78
   4 -12  10    4.67    0.91
   8 -13 -10    0.61    1.15
   8  13 -10    0.15    0.88
   7 -13 -10    1.45    1.12
   7  13 -10    0.97    0.83
   6 -13 -10    8.96    1.21
   6  13 -10    8.04    0.96
   5 -13 -10    1.90    0.98
   5  13 -10    0.98    0.75
   4 -13 -10    4.27    0.96
  -4 -13  10    3.26    0.73
  -3 -13  10   11.79    1.08
   3 -13 -10   14.90    1.28
  -2 -13  10    4.04    0.74
   2 -13 -10    4.01    0.65
   2 -13 -10    6.08    0.89
   1 -13 -10    0.31    0.58
  -1 -13  10   -0.32    0.66
   1 -13 -10    1.51    0.70
   0 -13  10   -0.09    0.67
   0 -13 -10    0.05    0.59
   1 -13  10    2.13    0.74
  -1 -13 -10    2.05    0.65
  -2 -13 -10    0.29    0.64
   2 -13  10    0.15    0.73
   3 -13  10    1.16    0.80
  -3 -13 -10    0.85    0.67
   4 -13  10    2.10    0.88
  -4 -13 -10    1.27    0.70
   7 -14 -10    2.07    1.18
   7  14 -10    1.94    0.89
   6 -14 -10    0.63    1.09
   6  14 -10    0.16    0.81
   5 -14 -10    0.57    1.00
   4 -14 -10    6.25    1.05
  -4 -14  10    5.05    0.80
   3 -14 -10    4.00    0.94
  -3 -14  10    3.46    0.78
  -2 -14  10   -0.69    0.67
   2 -14 -10    0.10    0.81
   2 -14 -10    0.42    0.59
  -1 -14  10    1.03    0.72
   1 -14 -10    1.70    0.76
   1 -14 -10    1.10    0.64
   0 -14  10    0.57    0.73
   0 -14 -10    1.15    0.65
   1 -14  10    1.16    0.76
  -1 -14 -10    1.30    0.66
  -2 -14 -10    1.08    0.68
   2 -14  10    1.41    0.79
   3 -14  10    2.54    0.87
  -3 -14 -10    2.57    0.74
   7 -15 -10    0.79    1.88
   7  15 -10   -0.27    1.12
   6 -15 -10    0.16    1.14
   6  15 -10    0.76    0.86
   5 -15 -10    2.14    1.09
  -4 -15  10    3.66    0.80
   4 -15 -10    3.11    1.02
  -3 -15  10    1.30    0.77
   3 -15 -10    0.61    0.93
   2 -15 -10    0.94    0.65
   2 -15 -10    1.45    0.89
  -2 -15  10    1.17    0.77
   1 -15 -10    2.20    0.70
  -1 -15  10    2.13    0.79
   0 -15 -10   -0.08    0.65
   0 -15  10   -0.86    0.72
   1 -15  10    1.04    0.78
  -1 -15 -10    0.04    0.67
  -2 -15 -10    0.88    0.69
   2 -15  10    0.81    0.81
   5 -16 -10    0.87    1.10
  -5 -16  10    1.70    0.78
  -4 -16  10    0.47    0.75
   4 -16 -10    0.10    1.00
  -3 -16  10    0.62    0.76
   3 -16 -10    0.71    0.97
   2 -16 -10    2.31    0.71
   2 -16 -10    2.00    0.93
  -2 -16  10    2.43    0.83
  -1 -16  10    0.82    0.81
   1 -16 -10    1.30    0.70
   0 -16  10    0.55    0.81
   0 -16 -10    0.29    0.69
  -1 -16 -10    2.48    0.84
   1 -16  10    1.42    0.87
  -3 -17  10    0.47    0.84
   3 -17 -10    0.31    1.01
   2 -17 -10    1.48    1.04
  -2 -17  10    0.04    0.85
   2 -17 -10    0.34    0.73
  -1 -17  10    1.37    0.96
  10   0 -11    8.89    1.01
   9   0 -11   -0.02    0.72
   9   0 -11    1.85    0.81
   8   0 -11    2.43    0.56
   8   0 -11    3.87    0.81
   7   0 -11   21.09    1.24
   7   0 -11   19.36    0.98
   6   0 -11    3.69    0.69
   6   0 -11    3.79    0.49
   5   0 -11    3.00    0.43
   5   0 -11    2.37    0.58
  -4   0  11    0.61    0.37
   4   0 -11    1.48    0.52
   3   0 -11   48.29    1.88
  -3   0  11   51.37    1.78
  -2   0  11    8.07    0.65
   2   0 -11    8.69    0.77
   1   0 -11   16.46    0.94
  -1   0  11   17.02    0.87
   0   0  11   17.21    0.89
   0   0 -11   17.47    0.96
   1   0  11    9.92    0.76
  -1   0 -11   11.09    0.80
  -2   0 -11    0.24    0.38
  -2   0 -11   -0.08    0.46
   2   0  11    0.11    0.45
  -3   0 -11    2.87    0.54
  -3   0 -11    2.22    0.52
   3   0  11    2.79    0.59
  -4   0 -11    6.16    0.67
   4   0  11    7.38    0.76
   5   0  11    0.47    0.61
   6   0  11    2.37    0.71
   7   0  11    3.04    0.79
  11   1 -11    1.48    0.87
  10  -1 -11    2.47    0.89
  10   1 -11    1.99    0.75
   9  -1 -11    0.85    0.81
   9   1 -11    0.50    0.62
   9   1 -11    2.39    0.80
   8  -1 -11    2.38    0.80
   8   1 -11    2.08    0.75
   8   1 -11    1.22    0.54
   7  -1 -11    1.45    0.73
   7   1 -11    2.09    0.50
   7   1 -11    1.46    0.69
   6  -1 -11    2.05    0.65
   6   1 -11    1.26    0.46
   6   1 -11    1.55    0.62
   5  -1 -11    3.83    0.63
   5  -1 -11    2.73    0.49
   5   1 -11    2.95    0.45
   5   1 -11    4.00    0.63
  -4  -1  11    9.32    0.67
   4  -1 -11    9.36    0.83
   4   1 -11   10.90    0.86
  -3  -1  11   12.60    0.76
   3  -1 -11   13.54    0.88
   3   1 -11   12.59    0.91
  -2  -1  11    0.54    0.40
   2  -1 -11    0.39    0.47
  -2   1  11    0.70    0.40
   2   1 -11    0.76    0.48
   1  -1 -11    9.23    0.76
  -1  -1  11    6.98    0.65
   1   1 -11    7.92    0.76
  -1   1  11    8.33    0.64
   0  -1 -11    6.87    0.64
   0  -1  11    6.93    0.60
   0   1 -11    7.31    0.66
   0   1  11    6.63    0.67
   1  -1  11    0.25    0.44
  -1  -1 -11    0.51    0.45
  -1  -1 -11    0.17    0.35
  -1   1 -11    0.73    0.47
   1   1  11    0.39    0.42
  -2  -1 -11    9.58    0.79
  -2  -1 -11   10.90    0.79
   2  -1  11   10.29    0.83
  -2   1 -11   10.87    0.81
   2   1  11    9.69    0.77
  -2   1 -11    8.48    0.94
  -3  -1 -11   12.41    0.96
   3  -1  11   13.14    0.97
  -3  -1 -11   14.34    1.10
   3   1  11   14.21    0.92
  -3   1 -11   14.26    0.90
  -3   1 -11   13.70    0.94
  -4  -1 -11    1.13    0.57
   4  -1  11    2.18    0.62
   4   1  11    2.36    0.60
   5  -1  11    3.68    0.72
  -5  -1 -11    2.27    0.65
   5   1  11    3.34    0.66
   6  -1  11   11.12    1.10
   6   1  11   12.47    1.12
   7  -1  11    2.65    0.82
   7   1  11    3.58    0.80
  12   2 -11   -0.20    0.89
  11   2 -11    3.73    0.85
  10  -2 -11    6.74    1.00
  10   2 -11    5.21    0.83
   9  -2 -11    5.29    0.93
   9   2 -11    3.18    0.70
   9   2 -11    4.83    0.81
   8  -2 -11    1.90    0.82
   8   2 -11    3.84    0.75
   8   2 -11    1.96    0.58
   7  -2 -11   15.75    1.17
   7   2 -11   14.90    0.90
   7   2 -11   14.38    1.07
   6  -2 -11    3.50    0.68
   6   2 -11    3.44    0.70
   6   2 -11    4.20    0.54
   5  -2 -11   20.03    1.12
   5   2 -11   20.74    0.98
   5   2 -11   21.82    1.15
   4  -2 -11   10.90    0.89
   4   2 -11   13.80    0.93
   3  -2 -11   40.81    1.60
  -3  -2  11   40.20    1.50
   3   2 -11   37.68    1.59
  -2  -2  11   18.99    0.93
   2  -2 -11   20.74    1.02
   2   2 -11   18.68    1.02
  -1  -2  11    6.13    0.55
   1  -2 -11    5.86    0.60
   1   2 -11    5.67    0.63
   0  -2 -11    8.25    0.75
   0  -2  11    8.07    0.73
   0  -2 -11    8.91    0.66
   0   2 -11    8.00    0.79
   1  -2  11    5.62    0.62
  -1  -2 -11    4.83    0.50
  -1  -2 -11    6.88    0.61
  -1   2 -11    7.04    0.66
  -2  -2 -11    4.74    0.56
   2  -2  11    4.72    0.63
  -2  -2 -11    3.96    0.52
  -2   2 -11    4.67    0.62
   3  -2  11    1.85    0.57
  -3  -2 -11    1.20    0.50
   3   2  11    2.16    0.58
   4  -2  11    1.80    0.64
  -4  -2 -11    1.62    0.56
   4   2  11    2.40    0.58
  -5  -2 -11    0.67    0.64
   5  -2  11    1.50    0.68
   5   2  11    2.60    0.62
  -6  -2 -11   -0.21    0.67
   6  -2  11    1.98    0.76
   6   2  11    1.25    0.68
   7  -2  11    2.63    0.81
   7   2  11    1.62    0.79
  11   3 -11    0.89    0.85
  10  -3 -11    1.73    0.94
  10   3 -11    0.26    0.76
   9  -3 -11    1.46    0.90
   9   3 -11    1.39    0.72
   9   3 -11    1.91    0.67
   8  -3 -11    7.84    1.00
   8   3 -11    7.45    0.76
   8   3 -11   10.08    0.98
   7  -3 -11    1.86    0.78
   7   3 -11    1.91    0.55
   7   3 -11    1.63    0.68
   6  -3 -11    3.90    0.74
   6   3 -11    3.35    0.56
   6   3 -11    3.71    0.69
   5  -3 -11    5.31    0.70
   5   3 -11    6.28    0.65
   5   3 -11    5.48    0.71
   4  -3 -11    4.24    0.63
   4   3 -11    4.06    0.63
   3  -3 -11    7.36    0.78
  -3  -3  11    6.81    0.67
   3   3 -11    7.22    0.69
   2  -3 -11    2.71    0.54
  -2  -3  11    3.56    0.48
   2   3 -11    2.83    0.57
   1  -3 -11   16.64    0.92
  -1  -3  11   17.35    0.89
   1  -3 -11   13.61    0.87
   1   3 -11   16.60    0.95
   0  -3  11    8.29    0.77
   0  -3 -11    7.37    0.68
   0  -3 -11    8.90    0.74
   0   3 -11    9.54    0.81
  -1  -3 -11    3.34    0.48
   1  -3  11    3.85    0.57
  -1  -3 -11    4.95    0.56
  -1   3 -11    5.38    0.64
  -2  -3 -11    7.77    0.73
  -2  -3 -11    7.53    0.79
   2  -3  11    8.28    0.84
  -2   3 -11    8.96    0.83
   3  -3  11    5.02    0.68
  -3  -3 -11    2.99    0.56
   4  -3  11    4.70    0.71
  -4  -3 -11    3.27    0.62
   5  -3  11    5.03    0.79
  -5  -3 -11    4.27    0.72
  -6  -3 -11    3.41    0.78
   6  -3  11    4.93    0.85
  -7  -3 -11    1.82    0.79
  11  -4 -11    2.76    1.04
  11   4 -11    0.19    0.85
  10  -4 -11    2.08    0.99
  10   4 -11    1.07    0.78
   9  -4 -11    8.87    1.08
   9   4 -11    9.03    1.25
   9   4 -11    8.02    0.83
   8  -4 -11    4.29    0.94
   8   4 -11    3.42    0.73
   8   4 -11    3.87    0.68
   7  -4 -11    4.05    0.87
   7   4 -11    5.54    0.77
   7   4 -11    4.85    0.67
   6  -4 -11    7.82    0.87
   6   4 -11    8.49    0.81
   6   4 -11    9.69    0.94
   5  -4 -11   25.61    1.35
   5   4 -11   24.94    1.13
   5   4 -11   25.82    1.28
   4  -4 -11    6.71    0.72
   4   4 -11    7.26    0.82
  -3  -4  11    5.01    0.55
   3  -4 -11    4.72    0.60
   3   4 -11    4.31    0.63
  -2  -4  11   17.78    0.92
   2  -4 -11   17.48    0.98
   2   4 -11   16.52    1.01
   1  -4 -11    6.12    0.63
   1  -4 -11    6.78    0.75
  -1  -4  11    7.66    0.63
   1   4 -11    7.91    0.78
   0  -4 -11   11.88    0.79
   0  -4  11   10.77    0.80
   0  -4 -11    9.06    0.73
   0   4 -11   11.12    0.86
   1  -4  11    9.81    0.84
  -1  -4 -11   10.24    0.76
  -1  -4 -11    9.69    0.76
  -1   4 -11   10.31    0.87
  -2  -4 -11   16.24    0.99
   2  -4  11   18.08    1.05
  -2  -4 -11   18.03    0.95
  -3  -4 -11    2.60    0.54
   3  -4  11    3.51    0.66
   4  -4  11    0.09    0.60
  -4  -4 -11   -0.50    0.53
   5  -4  11    4.86    0.78
  -5  -4 -11    2.45    0.68
  -6  -4 -11    0.28    0.69
   6  -4  11    1.18    0.77
  11  -5 -11    1.76    1.07
  11   5 -11    0.26    0.89
  10  -5 -11    3.12    1.04
  10   5 -11    1.11    0.77
   9  -5 -11    1.42    0.97
   9   5 -11    2.60    0.75
   8  -5 -11    6.72    1.04
   8   5 -11    6.29    0.80
   8   5 -11    6.00    0.78
   7  -5 -11    0.39    0.80
   7   5 -11   -0.45    0.58
   7   5 -11    1.37    0.67
   6  -5 -11    4.33    0.80
   6   5 -11    4.87    0.73
   6   5 -11    4.16    0.63
   5  -5 -11    0.88    0.68
   5   5 -11    2.10    0.53
   5   5 -11    1.41    0.63
   4  -5 -11    3.75    0.69
   4   5 -11    4.77    0.71
   3  -5 -11    8.29    0.75
  -3  -5  11    6.98    0.72
   3   5 -11    7.91    0.84
   2  -5 -11    9.51    0.81
  -2  -5  11    9.97    0.78
   2  -5 -11    9.08    0.71
   2   5 -11    8.93    0.86
   1  -5 -11    0.87    0.51
  -1  -5  11    1.82    0.50
   1  -5 -11    0.67    0.37
   1   5 -11    1.49    0.55
   0  -5  11    4.94    0.60
   0  -5 -11    5.81    0.59
   0  -5 -11    3.90    0.49
   0   5 -11    4.80    0.67
   1  -5  11   18.32    1.05
  -1  -5 -11   18.60    0.96
  -1  -5 -11   18.12    1.01
  -1   5 -11   19.05    1.11
  -2  -5 -11    5.04    0.60
   2  -5  11    6.19    0.70
  -3  -5 -11   -0.11    0.51
   3  -5  11    0.63    0.60
   4  -5  11    5.45    0.76
  -4  -5 -11    5.02    0.69
   5  -5  11    7.43    0.88
  -5  -5 -11    5.48    0.78
   6  -5  11    0.87    0.76
  -6  -5 -11   -0.07    0.68
  11  -6 -11    2.57    1.12
  11   6 -11    0.97    0.89
  10  -6 -11    1.00    1.06
  10   6 -11    0.62    0.80
   9  -6 -11    8.44    1.16
   9   6 -11    7.80    0.88
   8  -6 -11    4.02    1.03
   8   6 -11    5.20    0.79
   8   6 -11    5.89    0.78
   7  -6 -11    0.32    0.84
   7   6 -11   -0.07    0.62
   7   6 -11    0.54    0.67
   6  -6 -11    9.86    1.09
   6   6 -11    9.58    0.86
   6   6 -11    9.73    0.98
   5  -6 -11   15.51    1.18
   5   6 -11   14.02    0.93
   5   6 -11   15.51    1.09
   4  -6 -11    5.80    0.78
   4   6 -11    6.69    0.78
  -3  -6  11    3.26    0.55
   3  -6 -11    3.43    0.64
   3  -6 -11    2.81    0.43
   3   6 -11    3.22    0.63
   2  -6 -11   25.83    1.25
  -2  -6  11   25.96    1.18
   2  -6 -11   23.88    1.12
   2   6 -11   25.05    1.27
   1  -6 -11    9.65    0.77
   1  -6 -11    9.85    0.83
  -1  -6  11    9.70    0.82
   1   6 -11    9.32    0.88
   0  -6 -11    3.58    0.50
   0  -6 -11    5.83    0.61
   0  -6  11    5.15    0.63
   0   6 -11    4.70    0.69
   1  -6  11    8.51    0.88
  -1  -6 -11    9.11    0.76
  -1  -6 -11    8.97    0.84
  -2  -6 -11   13.87    0.98
   2  -6  11   13.65    1.00
  -3  -6 -11    0.09    0.52
   3  -6  11   -0.26    0.61
  -4  -6 -11    0.11    0.55
   4  -6  11    0.81    0.66
   5  -6  11    4.86    0.84
  -5  -6 -11    5.73    0.78
  -6  -6 -11    1.19    0.73
   6  -6  11    2.08    0.82
  11  -7 -11    2.15    1.16
  11   7 -11    1.88    0.92
  10  -7 -11    0.69    1.07
  10   7 -11    0.00    0.83
   9  -7 -11    2.37    1.08
   9   7 -11    0.64    0.77
   8  -7 -11    3.44    1.04
   8   7 -11    4.17    0.77
   8   7 -11    3.43    0.79
   7  -7 -11    1.24    0.91
   7   7 -11    1.73    0.70
   7   7 -11    0.31    0.65
   6  -7 -11    6.54    0.93
   6   7 -11    6.66    0.76
   6   7 -11    6.94    0.82
   5  -7 -11    0.72    0.76
   5   7 -11    1.85    0.68
   5   7 -11    1.87    0.59
   4  -7 -11    2.54    0.72
   4   7 -11    2.68    0.66
   3  -7 -11    3.80    0.49
   3  -7 -11    6.17    0.75
  -3  -7  11    4.80    0.62
   3   7 -11    5.20    0.71
   2  -7 -11   13.01    0.87
   2  -7 -11   13.53    0.98
  -2  -7  11   12.94    0.91
   2   7 -11   12.91    1.00
  -1  -7  11    4.19    0.63
   1  -7 -11    2.84    0.50
   1  -7 -11    3.98    0.63
   1   7 -11    3.31    0.68
   0  -7 -11    6.57    0.62
   0  -7  11    8.49    0.74
   0  -7 -11    8.17    0.80
  -1  -7 -11   25.78    1.28
  -1  -7 -11   27.29    1.21
   1  -7  11   26.66    1.31
  -2  -7 -11    2.00    0.56
   2  -7  11    3.07    0.66
   3  -7  11    1.72    0.68
  -3  -7 -11    0.70    0.55
  -4  -7 -11    5.00    0.72
   4  -7  11    5.97    0.83
  -5  -7 -11    6.23    0.82
   5  -7  11    7.56    0.92
   6  -7  11    0.70    0.83
  -6  -7 -11   -0.43    0.70
  10  -8 -11    1.51    1.13
  10   8 -11    0.57    0.87
   9  -8 -11    4.55    1.15
   9   8 -11    4.47    0.88
   8  -8 -11    0.63    1.01
   8   8 -11    1.31    0.76
   7  -8 -11    4.35    1.01
   7   8 -11    4.08    0.75
   7   8 -11    3.77    0.77
   6  -8 -11    5.68    0.99
   6   8 -11    5.45    0.77
   6   8 -11    5.46    0.80
   5  -8 -11    3.66    0.87
   5   8 -11    4.50    0.78
   5   8 -11    4.53    0.69
  -4  -8  11    1.34    0.57
   4  -8 -11    0.83    0.71
   4   8 -11    1.38    0.67
   3  -8 -11    6.34    0.80
  -3  -8  11    5.21    0.66
   3  -8 -11    4.94    0.56
   3   8 -11    6.25    0.77
   2  -8 -11   13.62    1.05
   2  -8 -11   14.15    0.92
  -2  -8  11   13.16    0.95
   2   8 -11   12.36    1.05
   1  -8 -11    4.36    0.66
  -1  -8  11    4.78    0.67
   1  -8 -11    2.68    0.52
   0  -8 -11    5.65    0.62
   0  -8  11    8.25    0.77
   0  -8 -11    7.62    0.78
  -1  -8 -11   10.45    0.95
   1  -8  11    9.48    0.94
  -2  -8 -11    9.23    0.97
   2  -8  11   10.22    0.89
   3  -8  11    1.64    0.71
  -3  -8 -11    1.08    0.59
   4  -8  11    1.54    0.74
  -4  -8 -11    0.87    0.63
  -5  -8 -11    0.99    0.68
   5  -8  11    1.03    0.77
  10  -9 -11    2.14    1.18
  10   9 -11    1.80    0.93
   9  -9 -11    2.36    1.15
   9   9 -11    2.13    0.86
   8  -9 -11    0.86    1.06
   8   9 -11    1.00    0.79
   7  -9 -11    0.34    0.97
   7   9 -11    0.65    0.75
   7   9 -11    1.18    0.71
   6  -9 -11    6.55    1.06
   6   9 -11    7.11    0.85
   6   9 -11    7.63    0.88
   5  -9 -11    0.42    0.84
   5   9 -11    1.57    0.73
   5   9 -11    0.46    0.64
  -4  -9  11    3.07    0.66
   4  -9 -11    3.77    0.83
   4   9 -11    2.32    0.75
  -3  -9  11    4.41    0.68
   3  -9 -11    4.30    0.56
   3  -9 -11    5.03    0.82
   3   9 -11    6.26    0.82
   2  -9 -11    3.12    0.54
   2  -9 -11    4.10    0.73
  -2  -9  11    4.47    0.68
   1  -9 -11    7.78    0.89
   1  -9 -11   10.41    0.94
  -1  -9  11   10.56    0.87
   0  -9 -11    8.00    0.90
   0  -9  11    9.05    0.82
   0  -9 -11   10.22    0.90
   1  -9  11    9.66    0.86
  -1  -9 -11    8.58    0.94
  -2  -9 -11    2.39    0.62
   2  -9  11    2.09    0.70
   3  -9  11    1.58    0.71
  -3  -9 -11    1.13    0.61
  -4  -9 -11    0.68    0.63
   4  -9  11    1.77    0.76
  -5  -9 -11    3.04    0.76
   5  -9  11    3.44    0.86
  10 -10 -11    3.92    1.32
  10  10 -11    4.15    1.30
   9 -10 -11    1.51    1.18
   9  10 -11    2.86    0.90
   8 -10 -11    1.92    1.11
   8  10 -11    0.41    0.82
   7 -10 -11    8.07    1.18
   7  10 -11    7.28    0.93
   7  10 -11    5.76    0.85
   6 -10 -11    5.08    1.06
   6  10 -11    3.20    0.80
   6  10 -11    3.68    0.81
   5 -10 -11    1.80    0.92
   5  10 -11    1.02    0.72
   4 -10 -11    7.47    0.96
  -4 -10  11    7.21    0.79
  -3 -10  11    9.56    0.98
   3 -10 -11   11.97    1.18
   3 -10 -11   11.01    0.94
   2 -10 -11    4.53    0.63
   2 -10 -11    5.32    0.79
  -2 -10  11    4.26    0.71
   1 -10 -11    2.02    0.64
   1 -10 -11    0.72    0.54
  -1 -10  11    1.19    0.66
   0 -10  11   11.26    0.93
   0 -10 -11   10.86    0.94
   0 -10 -11    9.02    0.95
   1 -10  11    2.40    0.71
  -1 -10 -11    1.95    0.60
   2 -10  11    3.22    0.75
  -2 -10 -11    1.88    0.62
   3 -10  11    2.53    0.77
  -3 -10 -11    2.86    0.69
   4 -10  11    2.55    0.84
  -4 -10 -11    1.62    0.70
  -5 -10 -11    0.39    0.79
   9 -11 -11    1.67    1.19
   9  11 -11    0.72    0.91
   8 -11 -11    2.65    1.16
   8  11 -11    2.09    0.90
   7 -11 -11    0.32    1.07
   7  11 -11    1.16    0.82
   6 -11 -11    3.99    1.09
   6  11 -11    3.17    0.83
   5 -11 -11    0.79    0.94
  -4 -11  11    3.37    0.71
   4 -11 -11    4.44    0.93
  -3 -11  11    3.72    0.73
   3 -11 -11    3.93    0.88
   3 -11 -11    3.06    0.58
   2 -11 -11    0.68    0.55
   2 -11 -11    0.77    0.72
  -2 -11  11    0.04    0.64
   1 -11 -11    5.91    0.78
   1 -11 -11    4.94    0.68
  -1 -11  11    5.45    0.79
   0 -11 -11    1.25    0.59
   0 -11  11    0.42    0.67
   1 -11  11    0.94    0.69
  -1 -11 -11    1.10    0.61
   2 -11  11    3.72    0.79
  -2 -11 -11    1.78    0.66
  -3 -11 -11    5.71    0.79
   3 -11  11    5.92    0.89
  -4 -11 -11    0.67    0.70
   4 -11  11    0.98    0.82
   8 -12 -11    2.14    1.20
   8  12 -11    2.11    0.92
   7 -12 -11    8.50    1.28
   7  12 -11    5.56    0.97
   6 -12 -11    1.91    1.09
   6  12 -11    0.30    0.81
   5 -12 -11   -0.15    0.97
   4 -12 -11    5.97    1.01
  -4 -12  11    4.72    0.76
   3 -12 -11    4.50    0.66
  -3 -12  11    4.94    0.79
   3 -12 -11    6.34    0.95
   2 -12 -11    0.53    0.76
   2 -12 -11    0.19    0.58
  -2 -12  11   -0.42    0.67
  -1 -12  11    1.50    0.73
   1 -12 -11    3.27    0.74
   1 -12 -11    1.77    0.63
   0 -12  11    4.93    0.82
   0 -12 -11    4.52    0.71
   1 -12  11    1.24    0.74
  -1 -12 -11    1.19    0.64
   2 -12  11    0.48    0.75
  -2 -12 -11   -0.66    0.62
  -3 -12 -11    3.47    0.76
   3 -12  11    3.38    0.87
   8 -13 -11    1.55    1.82
   8  13 -11    0.64    1.16
   7 -13 -11    0.69    1.18
   7  13 -11    1.04    0.90
   6 -13 -11   -0.17    1.10
   6  13 -11    0.58    0.84
   5 -13 -11    0.28    1.03
  -4 -13  11    0.61    0.69
   4 -13 -11    0.34    0.94
   3 -13 -11    1.54    0.61
   3 -13 -11    1.58    0.89
  -3 -13  11    0.96    0.72
   2 -13 -11    0.38    0.62
  -2 -13  11   -0.22    0.70
   2 -13 -11    1.34    0.83
  -1 -13  11    3.31    0.84
   1 -13 -11    1.95    0.68
   1 -13 -11    3.76    0.81
   0 -13 -11    0.23    0.64
   0 -13  11    0.83    0.75
  -1 -13 -11   -0.33    0.63
   1 -13  11   -0.21    0.76
   2 -13  11    0.30    0.80
  -2 -13 -11    0.64    0.69
   3 -13  11    3.14    1.10
  -3 -13 -11    2.28    0.77
   7 -14 -11    0.91    1.66
   7  14 -11    1.05    1.09
   6 -14 -11    2.05    1.19
   6  14 -11    1.04    0.89
  -5 -14  11    1.78    0.76
   5 -14 -11    1.90    1.08
  -4 -14  11    4.86    0.87
   4 -14 -11    5.22    1.10
   3 -14 -11    2.01    0.66
   3 -14 -11    2.82    0.97
  -3 -14  11    3.11    0.84
   2 -14 -11    2.02    0.86
  -2 -14  11    0.96    0.81
   2 -14 -11    1.55    0.68
  -1 -14  11    0.63    0.80
   1 -14 -11    0.91    0.67
   0 -14  11    2.89    0.84
   0 -14 -11    2.55    0.72
   1 -14  11    0.07    0.80
  -1 -14 -11   -0.18    0.67
  -2 -14 -11    0.90    0.73
   2 -14  11    2.23    0.97
   6 -15 -11    0.60    1.56
   5 -15 -11    2.92    1.16
  -5 -15  11    1.16    0.79
  -4 -15  11    2.61    0.86
   4 -15 -11    2.67    1.08
   3 -15 -11   -0.07    0.64
  -3 -15  11    1.12    0.81
   3 -15 -11    0.88    0.97
   2 -15 -11    0.63    0.89
  -2 -15  11   -0.97    0.79
   2 -15 -11    0.84    0.69
  -1 -15  11    0.76    0.82
   1 -15 -11    0.78    0.70
   0 -15  11   -0.03    0.83
   0 -15 -11   -0.30    0.68
  -1 -15 -11    0.62    0.81
   3 -16 -11    0.08    1.03
   3 -16 -11    0.95    0.70
  -3 -16  11    0.32    1.01
   2 -16 -11    3.74    1.10
   2 -16 -11    1.86    0.77
  -2 -16  11    1.13    1.04
   1 -16 -11    0.66    0.77
  10   0 -12    3.52    0.97
   9   0 -12    0.42    0.85
   8   0 -12    3.87    0.89
   7   0 -12    3.10    0.84
   6   0 -12    1.80    0.71
   5   0 -12    3.10    0.67
   4   0 -12   23.04    1.19
   3   0 -12    4.18    0.64
   2   0 -12    1.21    0.54
  -2   0  12    0.17    0.46
  -1   0  12    2.32    0.47
   1   0 -12    1.60    0.58
   0   0 -12   -0.28    0.51
   0   0  12   -0.03    0.44
  -1   0 -12    2.68    0.59
   1   0  12    1.48    0.51
  -2   0 -12   11.04    0.92
   2   0  12    9.98    0.86
   3   0  12    1.52    0.59
  -4   0 -12   -0.30    0.52
   4   0  12    0.51    0.61
   5   0  12   11.11    1.10
   6   0  12    3.08    0.79
  10  -1 -12    1.64    0.94
  10   1 -12    1.71    0.86
   9  -1 -12    1.62    0.90
   9   1 -12    2.04    0.83
   8  -1 -12    7.97    1.01
   8   1 -12    9.94    1.09
   8   1 -12    6.62    0.74
   7  -1 -12    6.73    0.90
   7   1 -12    6.13    0.85
   7   1 -12    4.73    0.61
   6  -1 -12    6.66    0.84
   6   1 -12    8.53    0.86
   6   1 -12    6.31    0.63
   5  -1 -12   21.03    1.20
   5   1 -12   20.41    1.22
  -4  -1  12    3.99    0.49
   4  -1 -12    5.40    0.69
   4   1 -12    4.55    0.73
  -3  -1  12    5.11    0.52
   3  -1 -12    5.82    0.69
   3   1 -12    6.10    0.70
  -2  -1  12    5.18    0.54
   2  -1 -12    5.19    0.66
   2   1 -12    5.52    0.68
  -1  -1  12   10.01    0.78
   1  -1 -12   10.51    0.90
   1   1 -12   12.51    0.91
   0  -1 -12    5.69    0.66
   0  -1  12    3.67    0.56
   0   1 -12    5.75    0.69
   1  -1  12    5.75    0.65
  -1  -1 -12    6.33    0.67
  -1   1 -12    7.65    0.74
   2  -1  12    6.67    0.71
  -2  -1 -12    6.74    0.69
  -2   1 -12    8.50    0.86
  -3  -1 -12    6.07    0.66
   3  -1  12    6.20    0.75
  -3   1 -12    7.45    0.73
   4  -1  12    0.00    0.62
  -4  -1 -12    0.19    0.57
  -5  -1 -12    1.88    0.67
   5  -1  12    2.98    0.75
   6  -1  12    6.14    0.88
  10  -2 -12    2.87    0.99
  10   2 -12    1.47    0.75
   9  -2 -12    2.83    0.94
   9   2 -12    1.02    0.67
   9   2 -12    2.01    0.83
   8  -2 -12    2.99    0.91
   8   2 -12    2.91    0.82
   8   2 -12    2.22    0.62
   7  -2 -12    5.23    0.89
   7   2 -12    3.48    0.62
   7   2 -12    4.77    0.84
   6  -2 -12    0.74    0.72
   6   2 -12    0.49    0.51
   6   2 -12    0.76    0.69
   5  -2 -12    3.45    0.71
   5   2 -12    4.21    0.72
  -4  -2  12    3.86    0.52
   4  -2 -12    4.68    0.70
   4   2 -12    3.92    0.70
  -3  -2  12    1.02    0.44
   3  -2 -12    2.03    0.60
   3   2 -12    1.72    0.61
   2  -2 -12   11.50    0.90
  -2  -2  12    9.74    0.76
   2   2 -12   11.06    0.90
   1  -2 -12    7.16    0.72
  -1  -2  12    6.44    0.62
   1   2 -12    8.30    0.76
   0  -2  12    4.28    0.58
   0  -2 -12    5.60    0.66
   0   2 -12    5.51    0.70
   1  -2  12    3.82    0.60
  -1  -2 -12    3.78    0.61
  -1   2 -12    5.24    0.69
   2  -2  12    9.53    0.91
  -2  -2 -12   10.02    0.85
  -2  -2 -12    7.95    0.84
  -2   2 -12    9.67    0.89
   3  -2  12    0.51    0.59
  -3  -2 -12    0.04    0.50
  -4  -2 -12    0.00    0.56
   4  -2  12    1.58    0.67
  -5  -2 -12    6.03    0.83
   5  -2  12    7.93    0.89
  -6  -2 -12    1.64    0.74
   6  -2  12    2.42    0.80
  11  -3 -12    2.93    1.06
  11   3 -12    2.49    0.85
  10  -3 -12    4.26    1.03
  10   3 -12    1.57    0.78
   9  -3 -12    2.54    0.97
   9   3 -12    1.33    0.70
   9   3 -12    2.16    0.80
   8  -3 -12    3.78    0.94
   8   3 -12    3.61    0.69
   8   3 -12    5.08    0.83
   7  -3 -12    7.99    0.97
   7   3 -12    8.58    0.92
   7   3 -12    7.47    0.74
   6  -3 -12   10.33    1.03
   6   3 -12    7.98    0.73
   6   3 -12    9.78    1.04
   5  -3 -12    5.58    0.77
   5   3 -12    7.81    0.83
  -4  -3  12    5.05    0.58
   4  -3 -12    5.51    0.73
   4   3 -12    5.57    0.75
  -3  -3  12    9.07    0.77
   3  -3 -12    9.24    0.92
   3   3 -12   10.22    0.94
   2  -3 -12   19.16    1.07
  -2  -3  12   18.18    0.98
   2   3 -12   19.64    1.12
   1  -3 -12   18.54    1.04
  -1  -3  12   17.06    0.98
   1   3 -12   18.01    1.09
   0  -3 -12    4.51    0.61
   0  -3  12    3.56    0.59
   0   3 -12    4.43    0.68
  -1  -3 -12   17.42    1.05
  -1  -3 -12   20.37    1.07
   1  -3  12   17.43    1.07
  -1   3 -12   21.61    1.14
   2  -3  12   10.20    0.92
  -2  -3 -12    9.85    0.88
  -2  -3 -12    7.90    0.86
  -2   3 -12    9.40    0.97
  -3  -3 -12    0.97    0.54
   3  -3  12    1.22    0.63
   4  -3  12    2.32    0.71
  -4  -3 -12    2.66    0.64
   5  -3  12    4.37    0.81
  -5  -3 -12    3.29    0.74
  -6  -3 -12    1.51    0.79
   6  -3  12    3.45    0.84
  11  -4 -12    2.28    1.09
  11   4 -12    0.80    0.86
  10  -4 -12    2.30    1.03
  10   4 -12    0.69    0.78
   9  -4 -12    1.96    1.01
   9   4 -12    2.16    0.75
   9   4 -12    3.37    0.83
   8  -4 -12    1.60    0.94
   8   4 -12    2.42    0.69
   8   4 -12    2.76    0.79
   7  -4 -12    1.71    0.86
   7   4 -12    0.97    0.75
   7   4 -12    0.59    0.62
   6  -4 -12    3.04    0.82
   6   4 -12    3.45    0.63
   6   4 -12    1.85    0.75
   5  -4 -12    5.01    0.80
   5   4 -12    4.65    0.76
   4  -4 -12    1.12    0.63
  -4  -4  12   -0.10    0.46
   4   4 -12    0.82    0.64
   3  -4 -12    3.94    0.65
  -3  -4  12    3.08    0.55
   3   4 -12    2.29    0.65
   2  -4 -12    8.37    0.87
  -2  -4  12    7.66    0.68
   2   4 -12    9.47    0.87
   1  -4 -12    2.39    0.60
  -1  -4  12    1.87    0.54
   1   4 -12    2.85    0.66
   0  -4  12    8.49    0.87
   0  -4 -12    7.71    0.90
   0  -4 -12   10.06    0.83
   0   4 -12    8.40    0.95
  -1  -4 -12    2.04    0.55
  -1  -4 -12    0.73    0.46
   1  -4  12    1.58    0.57
  -1   4 -12    1.93    0.64
   2  -4  12    1.39    0.61
  -2  -4 -12    1.14    0.50
  -3  -4 -12    1.17    0.55
   3  -4  12    1.26    0.64
   4  -4  12    1.44    0.69
  -4  -4 -12    0.93    0.61
   5  -4  12    0.99    0.75
  -5  -4 -12    0.12    0.66
  11  -5 -12    1.56    1.11
  11   5 -12    0.89    0.89
  10  -5 -12    5.13    1.12
  10   5 -12    4.65    0.89
   9  -5 -12    4.12    1.08
   9   5 -12    4.22    0.82
   8  -5 -12   -0.01    0.93
   8   5 -12    1.37    0.77
   8   5 -12    0.66    0.70
   7  -5 -12    4.53    0.94
   7   5 -12    3.22    0.70
   7   5 -12    4.07    0.82
   6  -5 -12   20.10    1.34
   6   5 -12   20.92    1.30
   6   5 -12   20.29    1.12
   5  -5 -12    2.23    0.78
   5   5 -12    3.02    0.77
  -4  -5  12    2.15    0.56
   4  -5 -12    2.00    0.70
   4   5 -12    2.40    0.72
   3  -5 -12   23.59    1.22
  -3  -5  12   21.78    1.13
   3   5 -12   22.61    1.24
  -2  -5  12   15.01    0.97
   2  -5 -12   16.23    1.07
   2   5 -12   15.84    1.08
  -1  -5  12    0.81    0.52
   1  -5 -12    1.39    0.57
   1   5 -12    2.29    0.66
   0  -5  12    2.20    0.60
   0  -5 -12    3.00    0.57
   0  -5 -12    1.13    0.44
   0   5 -12    2.73    0.69
  -1  -5 -12   14.00    0.98
   1  -5  12   14.92    1.05
  -1  -5 -12   16.14    0.95
  -1   5 -12   16.96    1.11
   2  -5  12    3.90    0.69
  -2  -5 -12    3.57    0.58
   3  -5  12    0.40    0.65
  -3  -5 -12    0.12    0.54
   4  -5  12    5.08    0.81
  -4  -5 -12    4.50    0.72
   5  -5  12    1.56    0.77
  -5  -5 -12    1.68    0.71
  10  -6 -12    0.33    1.10
  10   6 -12    1.44    0.87
   9  -6 -12    5.29    1.14
   9   6 -12    4.81    0.85
   8  -6 -12    2.89    1.02
   8   6 -12    2.48    0.77
   8   6 -12    3.10    0.82
   7  -6 -12    1.68    0.94
   7   6 -12    1.58    0.79
   7   6 -12    0.44    0.68
   6  -6 -12    1.93    0.88
   6   6 -12    2.43    0.82
   6   6 -12    3.56    0.70
   5  -6 -12    6.67    0.91
   5   6 -12    6.72    0.89
   4  -6 -12    1.73    0.72
  -4  -6  12    0.75    0.54
   4   6 -12    1.15    0.69
   3  -6 -12    2.58    0.70
  -3  -6  12    2.72    0.59
   3   6 -12    3.22    0.73
   2  -6 -12    4.40    0.71
  -2  -6  12    4.27    0.66
   2   6 -12    3.84    0.74
   1  -6 -12    0.10    0.41
   1  -6 -12    0.70    0.58
  -1  -6  12    0.93    0.55
   1   6 -12    0.38    0.65
   0  -6  12    6.87    0.74
   0  -6 -12    7.08    0.70
   0  -6 -12    4.82    0.58
   0   6 -12    6.83    0.84
  -1  -6 -12    1.79    0.52
  -1  -6 -12    3.27    0.57
   1  -6  12    3.10    0.67
  -2  -6 -12    0.09    0.51
   2  -6  12    0.41    0.63
  -3  -6 -12    2.25    0.62
   3  -6  12    4.07    0.77
   4  -6  12    1.44    0.74
  -4  -6 -12    1.17    0.64
  -5  -6 -12    0.27    0.67
   5  -6  12    0.52    0.76
  10  -7 -12    5.50    1.22
  10   7 -12    3.70    0.93
   9  -7 -12    4.08    1.15
   9   7 -12    2.53    0.83
   8  -7 -12    1.59    1.04
   8   7 -12    0.81    0.78
   8   7 -12    1.42    0.79
   7  -7 -12    2.21    0.97
   7   7 -12    2.14    0.79
   7   7 -12    2.29    0.75
   6  -7 -12   13.10    1.28
   6   7 -12   14.82    1.16
   6   7 -12   13.51    1.03
   5  -7 -12    3.00    0.85
   5   7 -12    1.97    0.77
   4  -7 -12   -0.33    0.71
  -4  -7  12   -0.62    0.56
   4   7 -12   -0.46    0.68
   3  -7 -12   20.38    1.25
  -3  -7  12   17.31    1.11
   3   7 -12   19.77    1.23
  -2  -7  12    8.56    0.81
   2  -7 -12    9.27    1.00
   2  -7 -12    6.49    0.64
   2   7 -12    8.19    0.88
   1  -7 -12    4.98    0.57
  -1  -7  12    6.72    0.73
   1  -7 -12    7.36    0.75
   1   7 -12    7.41    0.87
   0  -7 -12    7.90    0.85
   0  -7 -12    9.71    0.92
   0  -7  12   10.26    0.86
  -1  -7 -12   15.26    1.04
   1  -7  12   14.67    1.09
  -2  -7 -12    2.22    0.60
   2  -7  12    2.72    0.72
   3  -7  12    0.84    0.72
  -3  -7 -12    0.87    0.60
   4  -7  12    6.01    0.88
  -4  -7 -12    5.71    0.77
  -5  -7 -12   -0.43    0.67
   5  -7  12    0.29    0.79
  10  -8 -12    1.45    1.19
  10   8 -12    1.41    0.91
   9  -8 -12    3.53    1.19
   9   8 -12    2.05    0.88
   8  -8 -12    0.62    1.07
   8   8 -12    0.20    0.87
   8   8 -12    0.60    0.80
   7  -8 -12    4.74    1.08
   7   8 -12    3.77    0.82
   7   8 -12    4.45    0.83
   6  -8 -12    0.51    0.93
   6   8 -12    0.70    0.77
   6   8 -12    0.50    0.69
   5  -8 -12    3.72    0.91
   5   8 -12    2.59    0.82
  -4  -8  12    0.85    0.62
   4  -8 -12    0.63    0.77
   4   8 -12    0.28    0.74
   3  -8 -12    0.98    0.74
   3  -8 -12    1.77    0.71
  -3  -8  12    1.45    0.64
   3   8 -12    1.43    0.76
   2  -8 -12    3.17    0.74
   2  -8 -12    1.47    0.50
  -2  -8  12    2.33    0.67
   2   8 -12    2.99    0.80
   1  -8 -12    3.48    0.57
   1  -8 -12    4.94    0.70
  -1  -8  12    4.32    0.72
   0  -8  12    4.44    0.73
   0  -8 -12    3.84    0.60
   0  -8 -12    5.84    0.70
   1  -8  12    1.68    0.67
  -1  -8 -12    0.88    0.56
   2  -8  12   -0.57    0.67
  -2  -8 -12   -0.72    0.55
   3  -8  12    3.20    0.80
  -3  -8 -12    3.28    0.68
   4  -8  12    1.80    0.80
  -4  -8 -12    2.65    0.71
   9  -9 -12    1.92    1.21
   9   9 -12    0.62    0.90
   8  -9 -12    3.13    1.16
   8   9 -12    2.79    0.88
   7  -9 -12    3.60    1.11
   7   9 -12    3.02    0.84
   7   9 -12    2.86    0.83
   6  -9 -12    5.03    1.09
   6   9 -12    5.19    0.86
   6   9 -12    5.46    0.91
   5  -9 -12    6.76    1.03
   5   9 -12    7.01    0.96
  -4  -9  12    4.23    0.73
   4  -9 -12    5.09    0.91
   4   9 -12    4.62    0.88
   3  -9 -12    7.98    0.93
  -3  -9  12    8.69    0.84
   3  -9 -12    6.62    0.68
   3   9 -12    9.28    1.00
   2  -9 -12    4.32    0.78
   2  -9 -12    2.38    0.57
  -2  -9  12    3.44    0.75
   1  -9 -12   13.73    1.08
   1  -9 -12   10.40    0.97
  -1  -9  12   10.52    0.93
   0  -9 -12    5.12    0.66
   0  -9 -12    8.44    0.91
   0  -9  12    5.77    0.82
  -1  -9 -12    4.24    0.68
   1  -9  12    4.92    0.78
   2  -9  12    2.98    0.76
  -2  -9 -12    3.16    0.68
  -3  -9 -12    2.52    0.69
   3  -9  12    3.11    0.79
   4  -9  12    3.73    0.88
  -4  -9 -12    2.90    0.74
   9 -10 -12    2.22    1.23
   9  10 -12    1.50    0.95
   8 -10 -12    0.07    1.15
   8  10 -12   -0.13    0.87
   7 -10 -12    3.75    1.16
   7  10 -12    2.61    0.88
   7  10 -12    3.87    0.89
   6 -10 -12   -0.22    1.02
   6  10 -12   -0.76    0.79
   6  10 -12   -0.68    0.80
   5 -10 -12    1.41    0.96
   5  10 -12   -0.43    0.82
  -4 -10  12    1.96    0.71
   4 -10 -12    1.22    0.53
   4 -10 -12    1.62    0.87
   3 -10 -12    2.05    0.58
   3 -10 -12    2.96    0.83
  -3 -10  12    3.13    0.75
   2 -10 -12    0.72    0.56
   2 -10 -12    1.22    0.73
  -2 -10  12    1.14    0.71
   1 -10 -12    2.39    0.71
  -1 -10  12    1.14    0.69
   1 -10 -12    1.31    0.59
   0 -10  12    2.16    0.72
   0 -10 -12    1.36    0.60
   1 -10  12    0.30    0.69
  -1 -10 -12    1.02    0.61
  -2 -10 -12    0.89    0.65
   2 -10  12    1.25    0.75
  -3 -10 -12    0.49    0.67
   3 -10  12    0.51    0.79
   8 -11 -12    3.06    1.23
   8  11 -12    2.35    0.96
   7 -11 -12    3.29    1.19
   7  11 -12    2.11    0.90
   6 -11 -12    1.15    1.08
   6  11 -12   -0.53    0.82
  -5 -11  12    3.21    0.76
   5 -11 -12    4.60    1.07
   4 -11 -12    5.87    1.01
  -4 -11  12    5.67    0.85
   3 -11 -12    0.64    0.59
   3 -11 -12    0.61    0.82
  -3 -11  12   -0.43    0.70
   2 -11 -12    1.16    0.74
  -2 -11  12    0.14    0.74
   2 -11 -12    0.98    0.60
  -1 -11  12    7.82    0.91
   1 -11 -12    6.05    0.75
   1 -11 -12    8.95    0.90
   0 -11  12    2.00    0.77
   0 -11 -12    2.24    0.66
  -1 -11 -12   -0.53    0.61
   1 -11  12   -0.81    0.71
  -2 -11 -12    2.88    0.74
   2 -11  12    4.23    0.87
   3 -11  12    1.98    0.85
  -3 -11 -12    0.79    0.71
   8  12 -12   -0.10    1.45
   7 -12 -12    2.31    1.24
   7  12 -12    0.90    0.90
   6 -12 -12   -0.69    1.10
   5 -12 -12   -0.03    1.01
  -5 -12  12    2.55    0.76
  -4 -12  12    1.63    0.76
   4 -12 -12    0.46    0.94
   3 -12 -12    1.32    0.65
  -3 -12  12    2.14    0.78
   3 -12 -12    1.55    0.89
   2 -12 -12    0.61    0.78
   2 -12 -12    0.42    0.62
  -2 -12  12   -0.18    0.76
  -1 -12  12   -0.30    0.75
   1 -12 -12    1.71    0.77
   1 -12 -12   -0.44    0.61
   0 -12  12    1.57    0.79
   0 -12 -12    0.19    0.65
  -1 -12 -12    0.14    0.67
   1 -12  12    0.00    0.77
  -2 -12 -12    0.32    0.70
   2 -12  12    1.66    0.81
   7 -13 -12    1.64    1.83
   7  13 -12    0.96    1.20
   6 -13 -12    1.23    1.19
  -5 -13  12    3.23    0.81
   5 -13 -12    4.50    1.16
  -4 -13  12    3.12    0.85
   4 -13 -12    5.34    1.07
  -3 -13  12    0.85    0.78
   3 -13 -12    1.05    0.67
   3 -13 -12    1.96    0.93
   2 -13 -12    2.67    0.86
   2 -13 -12    0.10    0.66
  -2 -13  12    0.31    0.81
   1 -13 -12    2.34    0.71
  -1 -13  12    3.87    0.88
   0 -13  12    1.27    0.81
   0 -13 -12    1.59    0.71
  -1 -13 -12    1.35    0.73
   1 -13  12    1.25    0.84
  -5 -14  12    1.26    0.82
   5 -14 -12    0.61    1.14
  -4 -14  12    0.33    0.83
   4 -14 -12    1.79    1.03
   3 -14 -12    1.54    0.98
  -3 -14  12   -0.37    0.80
   3 -14 -12    0.37    0.70
  -2 -14  12    0.11    0.83
   2 -14 -12    0.66    0.70
   2 -14 -12    2.22    0.90
  -1 -14  12    0.27    0.85
   1 -14 -12   -0.33    0.68
   0 -14 -12    0.41    0.71
   0 -14  12    0.29    0.97
   3 -15 -12    3.69    1.07
   3 -15 -12    1.80    0.78
   2 -15 -12    2.89    0.79
  10   0 -13    0.31    0.93
   9   0 -13    4.27    0.98
   8   0 -13    4.44    0.95
   7   0 -13    0.25    0.80
   6   0 -13    4.86    0.86
   5   0 -13    2.24    0.77
   4   0 -13    4.60    0.80
   3   0 -13    0.82    0.65
   2   0 -13   14.25    1.06
   1   0 -13    9.05    0.97
   0   0 -13    1.67    0.64
  -1   0 -13   14.96    1.06
  -2   0 -13   13.70    1.06
  10  -1 -13    1.46    1.02
  10   1 -13    1.97    0.92
   9  -1 -13    2.24    0.98
   9   1 -13    1.44    0.89
   8  -1 -13    6.91    1.04
   8   1 -13    6.00    0.97
   7  -1 -13    5.87    0.96
   7   1 -13    4.16    0.91
   6  -1 -13    3.60    0.85
   6   1 -13    5.47    0.89
   5  -1 -13    2.51    0.76
   5   1 -13    2.32    0.78
   4  -1 -13    7.30    0.83
   4   1 -13    6.72    0.84
   3  -1 -13    1.72    0.67
   3   1 -13    2.08    0.69
   2  -1 -13    1.62    0.67
   2   1 -13    2.56    0.70
   1  -1 -13    2.95    0.68
  -1  -1  13    2.20    0.64
   1   1 -13    3.41    0.72
   0  -1  13    0.07    0.51
   0  -1 -13    0.78    0.60
   0   1 -13    0.87    0.64
  -1  -1 -13    6.12    0.75
   1  -1  13    4.81    0.68
  -1   1 -13    7.58    0.80
   2  -1  13    0.82    0.59
  -2  -1 -13    1.19    0.61
  -2   1 -13    0.28    0.63
   3  -1  13    0.46    0.63
   4  -1  13    1.49    0.70
   5  -1  13    3.99    0.85
  11  -2 -13    3.35    1.11
  10  -2 -13    2.46    1.05
  10   2 -13    1.52    0.95
   9  -2 -13    4.05    1.06
   9   2 -13    4.37    0.95
   8  -2 -13    6.22    1.04
   8   2 -13    5.34    0.95
   7  -2 -13    4.11    0.94
   7   2 -13    3.31    0.67
   7   2 -13    4.02    0.89
   6  -2 -13   11.14    1.15
   6   2 -13   13.03    1.11
   6   2 -13   11.14    0.89
   5  -2 -13   10.37    1.13
  -5  -2  13    9.23    0.81
   5   2 -13   11.54    1.12
  -4  -2  13    0.38    0.48
   4  -2 -13    1.80    0.71
   4   2 -13    0.87    0.72
   3  -2 -13   10.20    0.99
  -3  -2  13    8.08    0.79
   3   2 -13   10.00    0.98
   2  -2 -13   21.46    1.18
  -2  -2  13   18.75    1.05
   2   2 -13   22.19    1.25
   1  -2 -13   11.34    0.96
  -1  -2  13    9.09    0.86
   1   2 -13   10.06    1.04
   0  -2 -13    2.60    0.63
   0  -2  13    2.11    0.58
   0   2 -13    3.90    0.72
  -1  -2 -13    9.97    0.95
   1  -2  13    9.01    0.88
  -1   2 -13   10.76    1.01
   2  -2  13    8.99    0.83
  -2   2 -13    9.94    1.01
   3  -2  13    1.41    0.66
   4  -2  13    1.76    0.73
   5  -2  13    4.02    0.84
  -5  -2 -13    2.88    0.77
  10  -3 -13    3.18    1.09
  10   3 -13    1.28    0.97
   9  -3 -13    1.15    1.01
   9   3 -13    1.18    0.88
   9   3 -13    0.64    0.73
   8  -3 -13    3.52    1.00
   8   3 -13    2.35    0.90
   8   3 -13    2.07    0.70
   7  -3 -13    2.67    0.92
   7   3 -13    1.57    0.85
   7   3 -13    1.12    0.64
   6  -3 -13    7.02    0.97
   6   3 -13    5.88    0.72
   6   3 -13    6.83    0.93
  -5  -3  13    2.78    0.56
   5  -3 -13    2.28    0.82
   5   3 -13    2.47    0.80
   4  -3 -13    4.73    0.81
  -4  -3  13    4.34    0.60
   4   3 -13    4.48    0.80
   3  -3 -13    2.72    0.71
  -3  -3  13    2.35    0.56
   3   3 -13    2.45    0.74
   2  -3 -13    4.18    0.73
  -2  -3  13    4.50    0.61
   2   3 -13    4.75    0.80
   1  -3 -13    1.93    0.64
  -1  -3  13    1.47    0.55
   1   3 -13    1.23    0.70
   0  -3  13   -0.06    0.55
   0  -3 -13    0.50    0.59
   0   3 -13    0.40    0.66
  -1  -3 -13    4.08    0.66
   1  -3  13    2.57    0.64
  -1   3 -13    4.99    0.79
   2  -3  13    0.95    0.64
  -2   3 -13    0.28    0.67
   3  -3  13    1.26    0.67
   4  -3  13    2.94    0.78
  -4  -3 -13    2.83    0.70
   5  -3  13    1.68    0.79
  -5  -3 -13    0.24    0.75
  10  -4 -13    4.22    1.14
  10   4 -13    2.91    0.85
   9  -4 -13    2.79    1.06
   9   4 -13    1.47    0.78
   9   4 -13    2.89    0.90
   8  -4 -13    1.59    0.99
   8   4 -13    0.94    0.84
   8   4 -13    0.08    0.72
   7  -4 -13    5.64    1.00
   7   4 -13    4.37    0.90
   7   4 -13    3.89    0.74
   6  -4 -13    5.72    0.95
   6   4 -13    4.84    0.73
   6   4 -13    5.50    0.89
  -5  -4  13    3.43    0.61
   5  -4 -13    2.82    0.83
   5   4 -13    3.35    0.84
  -4  -4  13    0.41    0.53
   4  -4 -13    1.36    0.75
   4   4 -13   -0.23    0.74
  -3  -4  13   11.95    0.93
   3  -4 -13   12.31    1.06
   3   4 -13   11.78    1.13
   2  -4 -13    6.37    0.79
  -2  -4  13    5.79    0.68
   2   4 -13    6.11    0.84
   1  -4 -13    3.77    0.68
  -1  -4  13    3.83    0.63
   1   4 -13    3.74    0.78
   0  -4  13    6.46    0.74
   0  -4 -13    7.84    0.85
   0   4 -13    6.88    0.86
   1  -4  13    8.40    0.83
  -1  -4 -13   11.15    0.91
  -1   4 -13   10.30    1.06
   2  -4  13    1.51    0.67
  -3  -4 -13    4.31    0.67
   3  -4  13    4.71    0.79
   4  -4  13    2.41    0.79
  -4  -4 -13    2.17    0.70
  10  -5 -13    3.08    1.16
  10   5 -13    3.17    0.88
   9  -5 -13    3.58    1.12
   9   5 -13    4.36    0.93
   9   5 -13    2.46    0.84
   8  -5 -13    0.33    1.01
   8   5 -13    0.12    0.74
   8   5 -13    1.47    0.87
   7  -5 -13    3.06    0.98
   7   5 -13    2.65    0.88
   7   5 -13    1.61    0.73
   6  -5 -13    7.72    1.05
   6   5 -13    6.41    0.81
   6   5 -13    8.07    0.99
  -5  -5  13    1.28    0.60
   5  -5 -13    1.09    0.81
   5   5 -13    0.32    0.79
  -4  -5  13    0.13    0.56
   4  -5 -13    0.83    0.75
   4   5 -13    0.61    0.78
   3  -5 -13    4.37    0.82
  -3  -5  13    4.25    0.67
   3   5 -13    5.45    0.86
   2  -5 -13    3.16    0.74
  -2  -5  13    4.39    0.67
   2   5 -13    4.37    0.80
   1  -5 -13    4.01    0.69
  -1  -5  13    3.18    0.65
   1   5 -13    3.51    0.83
   0  -5 -13    0.70    0.59
   0  -5  13    0.17    0.59
   0   5 -13    1.36    0.73
  -1  -5 -13    3.00    0.75
   1  -5  13    1.54    0.66
  -2  -5 -13   -0.13    0.53
   2  -5  13   -0.73    0.63
  -3  -5 -13    1.60    0.63
   3  -5  13    2.33    0.75
   4  -5  13    1.96    0.79
  -4  -5 -13    0.92    0.69
  10  -6 -13    3.66    1.21
  10   6 -13    2.70    0.92
   9  -6 -13    0.96    1.09
   9   6 -13    0.19    0.83
   8  -6 -13    2.47    1.05
   8   6 -13    0.16    0.85
   8   6 -13   -0.18    0.78
   7  -6 -13   14.69    1.41
   7   6 -13    8.33    1.03
   7   6 -13    9.07    0.94
   6  -6 -13    4.11    1.02
   6   6 -13    3.95    0.93
   6   6 -13    3.40    0.76
  -5  -6  13    0.70    0.61
   5  -6 -13    0.68    0.86
   5   6 -13   -0.10    0.81
  -4  -6  13    4.45    0.71
   4  -6 -13    6.06    0.89
   4   6 -13    5.61    0.92
  -3  -6  13   12.83    1.03
   3  -6 -13   14.71    1.15
   3   6 -13   16.01    1.22
   2  -6 -13    0.83    0.70
  -2  -6  13    0.44    0.62
   2   6 -13    1.48    0.78
  -1  -6  13    1.96    0.63
   1  -6 -13    3.27    0.70
   1   6 -13    1.89    0.80
   0  -6  13    8.02    0.82
   0  -6 -13    8.68    0.93
   0   6 -13    9.90    1.10
   1  -6  13    4.23    0.76
  -1  -6 -13    3.32    0.62
  -2  -6 -13   -0.67    0.54
   2  -6  13   -0.53    0.65
  -3  -6 -13    2.93    0.67
   3  -6  13    3.94    0.82
   4  -6  13    4.84    0.86
  -4  -6 -13    3.44    0.75
   9  -7 -13    3.28    1.17
   9   7 -13    1.27    0.89
   8  -7 -13    0.78    1.07
   8   7 -13    1.52    0.86
   8   7 -13    0.02    0.80
   7  -7 -13    0.60    1.05
   7   7 -13    1.00    0.77
   7   7 -13    2.27    0.89
   6  -7 -13    7.57    1.08
   6   7 -13    8.22    1.03
   6   7 -13    5.80    0.86
   5  -7 -13    0.66    0.89
  -5  -7  13    0.89    0.63
   5   7 -13   -0.25    0.81
   4  -7 -13    1.57    0.84
  -4  -7  13    1.38    0.66
   4   7 -13    2.74    0.85
   3  -7 -13    3.62    0.82
  -3  -7  13    3.42    0.72
   3   7 -13    3.68    0.88
   2  -7 -13    3.47    0.78
  -2  -7  13    1.81    0.69
   2   7 -13    3.09    0.84
   1  -7 -13    2.71    0.71
  -1  -7  13    0.98    0.65
   1   7 -13    1.96    0.85
   0  -7  13    1.09    0.68
   0  -7 -13    1.68    0.63
   0  -7 -13    0.32    0.64
  -1  -7 -13    1.46    0.58
   1  -7  13    2.69    0.74
  -2  -7 -13   -0.16    0.57
   2  -7  13   -0.01    0.69
  -3  -7 -13    0.77    0.64
   3  -7  13    2.24    0.79
  -4  -7 -13    0.32    0.68
   4  -7  13    0.90    0.79
   9  -8 -13    1.53    1.19
   9   8 -13   -0.17    0.89
   8  -8 -13    2.19    1.12
   8   8 -13    1.08    0.86
   8   8 -13    1.18    0.87
   7  -8 -13    8.72    1.22
   7   8 -13    7.17    1.00
   7   8 -13    6.46    0.92
   6  -8 -13    1.80    1.03
   6   8 -13    1.54    0.89
   5  -8 -13    4.71    0.99
  -5  -8  13    4.37    0.76
   5   8 -13    3.12    0.90
   4  -8 -13    2.59    0.89
  -4  -8  13    2.14    0.73
   4   8 -13    4.81    0.92
  -3  -8  13    9.96    1.03
   3  -8 -13   10.84    1.18
   3   8 -13    9.25    1.06
   2  -8 -13    7.30    0.86
  -2  -8  13    5.40    0.82
   2   8 -13    7.10    1.01
   1  -8 -13    6.90    0.83
  -1  -8  13    4.68    0.80
   0  -8  13    7.03    0.86
   0  -8 -13    9.61    0.99
   0  -8 -13    6.59    0.72
  -1  -8 -13    3.30    0.67
   1  -8  13    3.44    0.79
   2  -8  13    0.16    0.73
  -2  -8 -13    0.71    0.61
   3  -8  13    2.49    0.83
  -3  -8 -13    1.21    0.67
   9  -9 -13    0.76    1.71
   9   9 -13    0.08    0.93
   8  -9 -13    2.80    1.20
   8   9 -13    0.58    0.89
   7  -9 -13    2.69    1.15
   7   9 -13    2.23    0.88
   7   9 -13    0.60    0.84
   6  -9 -13    3.19    1.08
   6   9 -13    0.55    0.90
   5  -9 -13    1.08    0.95
  -5  -9  13    2.38    0.73
   5   9 -13    1.03    0.89
  -4  -9  13    2.62    0.77
   4  -9 -13    1.75    0.89
   4   9 -13    2.48    0.93
   3  -9 -13    1.49    0.83
  -3  -9  13    0.59    0.72
   3   9 -13    1.14    0.90
   2  -9 -13    0.90    0.77
  -2  -9  13   -0.79    0.69
   1  -9 -13    1.74    0.59
  -1  -9  13    1.29    0.73
   1  -9 -13    2.95    0.75
   0  -9 -13    0.44    0.59
   0  -9  13    0.00    0.71
   1  -9  13    0.46    0.72
  -1  -9 -13   -0.32    0.60
  -2  -9 -13    1.32    0.67
   2  -9  13    0.99    0.79
  -3  -9 -13    0.77    0.68
   3  -9  13    1.48    0.83
   8 -10 -13    1.49    1.23
   8  10 -13   -0.39    0.92
   7 -10 -13    0.97    1.18
   7  10 -13    1.18    0.91
   7  10 -13   -0.22    0.88
   6 -10 -13    2.75    1.12
   6  10 -13    1.88    0.96
  -5 -10  13    4.05    0.81
   5 -10 -13    5.24    1.08
   5  10 -13    4.02    1.01
   4 -10 -13    2.22    0.92
  -4 -10  13    0.08    0.75
  -3 -10  13    2.56    0.80
   3 -10 -13    4.80    0.90
   2 -10 -13    5.63    0.89
  -2 -10  13    4.51    0.85
   2 -10 -13    4.02    0.73
   1 -10 -13    2.77    0.67
  -1 -10  13    3.57    0.83
   1 -10 -13    6.56    0.84
   0 -10  13    0.56    0.77
   0 -10 -13    0.82    0.62
  -1 -10 -13    1.81    0.69
   1 -10  13    1.16    0.77
   2 -10  13    2.96    0.87
  -2 -10 -13    2.27    0.71
   7 -11 -13    0.81    1.21
   7  11 -13    0.71    0.93
   6 -11 -13    1.51    1.13
   5 -11 -13    1.58    1.06
  -5 -11  13    3.05    0.82
  -4 -11  13    2.75    0.83
   4 -11 -13    2.84    0.97
   3 -11 -13    0.96    0.86
  -3 -11  13   -0.36    0.77
  -2 -11  13   -0.38    0.78
   2 -11 -13   -0.10    0.61
   2 -11 -13    0.31    0.81
  -1 -11  13    2.22    0.83
   1 -11 -13    2.07    0.69
   1 -11 -13    4.00    0.90
   0 -11  13   -1.09    0.76
   0 -11 -13    0.27    0.64
  -1 -11 -13    1.30    0.71
   1 -11  13    0.17    0.80
  -6 -12  13    0.69    0.79
   6 -12 -13    2.78    1.21
   5 -12 -13    4.46    1.13
  -5 -12  13    3.02    0.86
  -4 -12  13   -0.16    0.79
   4 -12 -13    1.14    0.98
   3 -12 -13    2.45    0.91
   3 -12 -13    1.67    0.69
  -3 -12  13   -0.14    0.80
   2 -12 -13    1.18    0.68
   2 -12 -13    4.25    0.90
  -2 -12  13    2.80    0.87
  -1 -12  13    0.73    0.83
   1 -12 -13    1.49    0.70
   0 -12  13   -1.04    0.79
   0 -12 -13   -0.76    0.67
  -1 -12 -13    0.37    0.71
   5 -13 -13    2.14    1.17
  -5 -13  13    2.27    1.08
   4 -13 -13    1.22    1.02
  -4 -13  13    0.47    0.87
   4 -13 -13    1.70    1.02
   3 -13 -13    1.39    0.71
  -3 -13  13   -0.57    0.84
   3 -13 -13    1.98    0.96
   2 -13 -13    0.92    0.72
  -2 -13  13    0.70    0.88
   2 -13 -13    2.64    0.92
   1 -13 -13    1.34    0.74
  -1 -13  13    1.75    0.97
  10   0 -14    1.30    1.00
   9   0 -14    6.60    1.08
   8   0 -14    1.69    0.95
   7   0 -14    0.85    0.89
   6   0 -14    2.77    0.90
   5   0 -14    1.01    0.83
   4   0 -14   -0.17    0.76
   3   0 -14    1.71    0.78
   2   0 -14   11.81    1.12
   1   0 -14    0.57    0.69
   0   0 -14    2.26    0.74
  -1   0 -14    1.25    0.72
  -2   0 -14    3.40    0.76
  10  -1 -14    2.48    1.08
  10   1 -14    3.92    1.04
   9  -1 -14    3.52    1.06
   9   1 -14    2.26    0.98
   8  -1 -14    1.43    0.98
   8   1 -14    2.79    0.98
   7  -1 -14    1.06    0.91
   7   1 -14    2.11    0.92
   6  -1 -14    5.66    0.96
   6   1 -14    5.51    0.95
   5  -1 -14    0.67    0.81
   5   1 -14    1.26    0.85
   4  -1 -14    3.55    0.85
   4   1 -14    2.57    0.84
   3  -1 -14   12.02    1.12
   3   1 -14   11.12    1.10
   2  -1 -14   12.35    1.10
   2   1 -14   10.64    1.09
   1  -1 -14    0.97    0.70
   1   1 -14    1.18    0.74
   0  -1 -14    3.72    0.74
   0   1 -14    3.39    0.78
  -1  -1 -14   15.02    1.13
  -1   1 -14   16.12    1.22
  -2   1 -14    3.08    0.77
  10  -2 -14    3.53    1.13
  10   2 -14    2.56    1.00
   9  -2 -14    5.35    1.14
   9   2 -14    4.37    1.01
   8  -2 -14    5.70    1.10
   8   2 -14    2.96    0.96
   7  -2 -14    4.03    1.02
   7   2 -14    3.69    0.96
   6  -2 -14    7.12    1.04
   6   2 -14    7.34    1.01
   5  -2 -14    4.88    0.93
   5   2 -14    6.36    0.97
   4  -2 -14    1.92    0.80
   4   2 -14    1.64    0.82
   3  -2 -14    1.81    0.78
   3   2 -14    1.87    0.81
   2  -2 -14    6.50    0.83
   2   2 -14    5.58    0.91
   1  -2 -14    0.90    0.69
   1   2 -14   -0.08    0.74
   0  -2 -14    3.37    0.73
   0   2 -14    3.79    0.79
  -1  -2 -14    2.23    0.71
   1  -2  14    1.54    0.71
  -1   2 -14    0.52    0.75
   2  -2  14    0.65    0.67
  -2   2 -14    1.80    0.75
   3  -2  14    1.02    0.73
  10  -3 -14    1.72    1.15
  10   3 -14    2.60    1.42
   9  -3 -14    2.48    1.12
   9   3 -14    3.24    1.01
   8  -3 -14    2.32    1.07
   8   3 -14    1.46    0.95
   7  -3 -14    3.14    1.01
   7   3 -14    0.57    1.05
   7   3 -14    3.06    0.95
   6  -3 -14    4.97    1.00
   6   3 -14    5.37    0.96
   5  -3 -14    0.19    0.85
  -5  -3  14    0.13    0.83
   5   3 -14    1.01    0.85
   4  -3 -14    1.57    0.80
  -4  -3  14    1.05    0.58
   4   3 -14    1.35    0.84
  -3  -3  14    6.12    0.71
   3  -3 -14    8.02    0.91
   3   3 -14    9.66    1.02
   2  -3 -14    5.01    0.80
  -2  -3  14    2.90    0.63
   2   3 -14    4.24    0.90
  -1  -3  14    3.68    0.67
   1  -3 -14    5.08    0.77
   1   3 -14    4.46    0.86
   0  -3  14    1.06    0.62
   0  -3 -14    1.78    0.69
   0   3 -14    1.36    0.78
  -1  -3 -14    6.12    0.77
   1  -3  14    3.91    0.74
  -1   3 -14    6.19    0.89
   2  -3  14    1.42    0.69
   3  -3  14    1.57    0.75
   9  -4 -14    1.29    1.09
   9   4 -14    0.31    0.87
   9   4 -14    1.22    0.95
   8  -4 -14    2.06    1.05
   8   4 -14    0.20    0.77
   8   4 -14    1.77    0.93
   7  -4 -14    9.39    1.18
   7   4 -14    9.70    1.09
   7   4 -14    6.86    0.87
  -6  -4  14    5.29    0.72
   6  -4 -14    4.86    1.02
   6   4 -14    5.28    0.99
  -5  -4  14    0.82    0.61
   5  -4 -14    2.21    0.91
   5   4 -14    2.13    0.90
   4  -4 -14    4.95    0.92
  -4  -4  14    3.58    0.68
   4   4 -14    4.85    0.93
   3  -4 -14    6.72    0.90
  -3  -4  14    5.15    0.71
   3   4 -14    8.00    1.01
   2  -4 -14    4.80    0.80
  -2  -4  14    3.13    0.66
   2   4 -14    3.04    0.89
  -1  -4  14    0.87    0.64
   1  -4 -14    2.83    0.71
   1   4 -14    0.39    0.80
   0  -4 -14    4.16    0.74
   0  -4  14    4.19    0.74
   0   4 -14    4.76    0.87
   1  -4  14    1.17    0.66
  -1   4 -14    0.97    0.78
   2  -4  14    0.34    0.69
   3  -4  14    0.47    0.74
   9  -5 -14    2.41    1.14
   9   5 -14    1.71    0.96
   9   5 -14    1.42    0.86
   8  -5 -14    4.85    1.15
   8   5 -14    3.62    0.98
   8   5 -14    2.23    0.85
   7  -5 -14    3.72    1.07
   7   5 -14    2.92    0.82
   7   5 -14    3.18    0.99
  -6  -5  14    2.03    0.66
   6  -5 -14    0.58    0.97
   6   5 -14    1.70    0.94
  -5  -5  14    0.93    0.64
   5  -5 -14    2.81    0.94
   5   5 -14    0.42    0.89
  -4  -5  14    2.53    0.69
   4  -5 -14    2.52    0.90
   4   5 -14    3.07    0.92
  -3  -5  14    1.32    0.65
   3  -5 -14    1.61    0.82
   3   5 -14    1.37    0.86
  -2  -5  14    0.87    0.63
   2  -5 -14    2.60    0.75
   2   5 -14    0.61    0.83
   1  -5 -14    8.32    0.86
  -1  -5  14    8.34    0.85
   1   5 -14    8.57    1.04
   0  -5  14    1.36    0.68
   0  -5 -14    2.43    0.69
   0   5 -14    2.32    0.84
   1  -5  14    0.52    0.70
   2  -5  14    5.55    0.86
   3  -5  14    5.10    0.87
   9  -6 -14    2.07    1.18
   9   6 -14    0.25    0.88
   9   6 -14    0.47    0.98
   8  -6 -14    1.26    1.12
   8   6 -14   -0.80    0.82
   8   6 -14    0.64    0.97
   7  -6 -14    5.90    1.17
   7   6 -14    7.10    0.94
   7   6 -14    6.79    1.08
   6  -6 -14    2.66    1.04
  -6  -6  14    3.79    0.74
   6   6 -14    2.48    0.99
  -5  -6  14    1.52    0.69
   5  -6 -14    0.02    0.91
   5   6 -14    0.54    0.90
   4  -6 -14    5.69    0.98
  -4  -6  14    3.99    0.77
   4   6 -14    4.80    0.98
  -3  -6  14    2.45    0.73
   3  -6 -14    3.50    0.88
   3   6 -14    3.32    0.92
   2  -6 -14    0.60    0.75
  -2  -6  14   -0.96    0.63
   2   6 -14   -0.87    0.82
   1  -6 -14    1.47    0.70
  -1  -6  14   -0.26    0.65
   1   6 -14   -0.37    0.83
   0  -6  14    0.55    0.70
   0  -6 -14    2.23    0.69
   1  -6  14   -0.98    0.67
   2  -6  14   -0.17    0.73
   3  -6  14    0.78    0.79
   9  -7 -14    1.66    1.76
   9   7 -14    0.55    0.92
   8  -7 -14    2.70    1.17
   8   7 -14   -0.41    0.86
   8   7 -14    1.85    0.96
   7  -7 -14    1.91    1.12
   7   7 -14    0.57    0.83
   7   7 -14    1.72    0.96
   6  -7 -14    2.88    1.06
  -6  -7  14    0.78    0.71
   6   7 -14    1.13    0.94
   5  -7 -14    4.68    1.05
  -5  -7  14    2.80    0.76
   5   7 -14    3.17    0.97
   4  -7 -14    3.12    0.93
  -4  -7  14    1.92    0.75
   4   7 -14    2.04    0.94
   3  -7 -14    1.65    0.86
  -3  -7  14    0.31    0.73
   3   7 -14    0.72    0.90
  -2  -7  14    0.00    0.68
   2  -7 -14    1.52    0.79
   2   7 -14    0.69    0.89
   1  -7 -14    5.64    0.82
  -1  -7  14    3.22    0.78
   1   7 -14    4.75    1.01
   0  -7  14    0.74    0.73
   1  -7  14    0.97    0.74
   2  -7  14    2.38    0.82
   8  -8 -14    1.17    1.16
   8   8 -14    0.44    0.88
   8   8 -14    1.56    0.93
   7  -8 -14    3.20    1.15
   7   8 -14    2.38    0.97
   7   8 -14    2.48    0.91
   6  -8 -14    1.90    1.09
  -6  -8  14    1.56    0.76
   6   8 -14    0.85    0.93
   5  -8 -14    3.85    1.07
  -5  -8  14    2.76    0.80
   5   8 -14    2.06    0.96
   4  -8 -14    3.75    0.98
  -4  -8  14    2.99    0.81
   4   8 -14    2.74    0.96
   3  -8 -14    3.29    0.91
  -3  -8  14    2.58    0.83
   3   8 -14    2.56    0.97
  -2  -8  14    1.87    0.78
   2  -8 -14    3.21    0.86
   2   8 -14    3.35    1.00
  -1  -8  14    1.39    0.77
   1  -8 -14    4.52    0.84
   0  -8  14   -0.01    0.76
   1  -8  14    0.18    0.77
   2  -8  14    2.67    0.85
  -2  -8 -14    1.62    0.78
   8   9 -14    0.17    0.93
   7  -9 -14    1.97    1.18
   7   9 -14    0.45    0.95
  -6  -9  14    2.76    0.82
   6  -9 -14    3.46    1.12
   6   9 -14    2.99    1.01
   5  -9 -14    3.41    1.08
  -5  -9  14    3.14    0.83
   5   9 -14    2.42    1.02
  -4  -9  14    2.35    0.84
   4  -9 -14    3.70    1.00
   4   9 -14    1.34    1.00
  -3  -9  14    4.61    0.92
   3  -9 -14    5.90    0.98
   2  -9 -14    3.34    0.87
  -2  -9  14    0.48    0.78
  -1  -9  14   -0.29    0.77
   1  -9 -14    3.69    0.83
   0  -9  14    0.15    0.79
  -1  -9 -14    0.77    0.98
   1  -9  14    0.94    0.82
   7  10 -14    0.26    0.98
   6 -10 -14    2.02    1.14
  -6 -10  14    2.10    0.83
   6  10 -14    1.88    1.04
   5 -10 -14    3.31    1.08
  -5 -10  14    3.33    0.89
   5  10 -14    3.63    1.07
   4 -10 -14    1.38    0.99
  -4 -10  14    0.35    0.81
  -3 -10  14   -0.71    0.83
   3 -10 -14    1.15    0.90
   2 -10 -14    5.90    0.95
  -2 -10  14    2.56    0.85
  -1 -10  14    2.50    0.87
   0 -10  14   -0.07    0.82
   6 -11 -14    0.98    1.51
  -6 -11  14    1.75    0.89
   5 -11 -14    1.83    1.09
  -5 -11  14    1.12    0.87
   4 -11 -14    2.48    0.99
  -4 -11  14    0.95    0.86
  -3 -11  14    2.37    0.93
   3 -11 -14    5.90    1.05
  -2 -11  14    0.20    0.86
   2 -11 -14    2.84    0.94
  -1 -11  14    0.46    0.86
   4 -12 -14    1.60    1.03
  -4 -12  14   -0.69    1.40
   3 -12 -14    1.84    0.98
  -3 -12  14   -0.92    1.05
   9   0 -15    2.74    1.10
   8   0 -15    1.08    1.04
   7   0 -15    5.32    1.07
   6   0 -15    1.67    0.98
   5   0 -15    1.02    0.90
   4   0 -15    1.58    0.89
   3   0 -15    4.35    0.93
   2   0 -15    0.45    0.79
   1   0 -15    2.83    0.82
   0   0 -15    5.36    0.88
  -1   0 -15    2.61    0.80
   9  -1 -15    2.85    1.09
   9   1 -15    2.79    1.09
   8  -1 -15    2.39    1.05
   8   1 -15    1.97    1.04
   7  -1 -15    4.24    1.06
   7   1 -15    3.73    1.03
   6  -1 -15    6.23    1.07
   6   1 -15    5.61    1.04
   5  -1 -15    1.36    0.92
   5   1 -15    0.51    0.92
   4  -1 -15    1.89    0.88
   4   1 -15    1.73    0.91
   3  -1 -15    9.16    1.04
   3   1 -15    9.08    1.08
   2  -1 -15    4.94    0.89
   2   1 -15    3.71    0.91
   1  -1 -15    1.56    0.77
   1   1 -15    1.26    0.83
   0  -1 -15    1.96    0.79
   0   1 -15    1.24    0.82
  -1  -1 -15    4.89    0.85
  -1   1 -15    4.75    0.89
   9  -2 -15    3.92    1.17
   9   2 -15    1.63    1.06
   8  -2 -15    2.70    1.09
   8   2 -15    0.51    1.01
   7  -2 -15    2.58    1.03
   7   2 -15    2.23    1.00
   6  -2 -15    1.47    0.98
   6   2 -15    2.04    0.96
   5  -2 -15    2.38    0.95
   5   2 -15    0.72    0.92
   4  -2 -15    1.89    0.89
   4   2 -15    1.84    0.92
   3  -2 -15    4.89    0.90
   3   2 -15    4.71    0.98
   2  -2 -15    0.75    0.79
   2   2 -15    0.13    0.86
   1  -2 -15    1.94    0.79
   1   2 -15    2.10    0.87
   0  -2 -15    4.34    0.84
   0   2 -15    4.37    0.90
  -1  -2 -15    3.92    0.82
  -1   2 -15    3.32    0.88
  -2   2 -15    2.39    0.82
   9  -3 -15    4.14    1.22
   9   3 -15    3.48    1.07
   8  -3 -15    2.37    1.11
   8   3 -15    1.15    1.01
   7  -3 -15    3.34    1.10
   7   3 -15    3.88    1.04
   6  -3 -15    4.21    1.04
   6   3 -15    3.29    1.00
   5  -3 -15    2.38    0.96
   5   3 -15    1.59    0.97
   4  -3 -15    4.06    0.95
   4   3 -15    5.05    1.01
   3  -3 -15    6.28    0.93
   3   3 -15    4.78    1.00
   2  -3 -15    4.54    0.83
   2   3 -15    4.63    0.98
   1  -3 -15    3.08    0.82
   1   3 -15    3.08    0.90
   0  -3 -15    0.84    0.74
   0   3 -15    0.69    0.83
  -1   3 -15    1.71    0.84
   8  -4 -15    2.58    1.16
   8   4 -15    1.18    1.02
   7  -4 -15    2.17    1.10
   7   4 -15    1.99    1.03
   6  -4 -15    1.18    1.03
   6   4 -15   -0.09    0.96
   5  -4 -15    2.29    1.01
   5   4 -15    1.34    0.97
   4  -4 -15    1.95    0.91
   4   4 -15    1.94    0.96
  -3  -4  15   -0.49    0.69
   3  -4 -15    1.57    0.83
   3   4 -15    0.64    0.93
   2  -4 -15    2.89    0.81
  -2  -4  15    0.67    0.68
   2   4 -15    0.68    0.89
  -1  -4  15   -0.39    0.66
   1  -4 -15    2.09    0.77
   1   4 -15    0.07    0.88
   0  -4  15    0.28    0.69
   0  -4 -15    1.14    0.75
   0   4 -15    1.06    0.85
   1  -4  15    2.86    0.78
  -1   4 -15    1.86    0.88
   2  -4  15    1.98    0.78
   8  -5 -15    4.71    1.20
   8   5 -15    1.44    0.97
   8   5 -15    2.63    1.07
   7  -5 -15    3.43    1.15
   7   5 -15    2.86    1.06
  -6  -5  15    0.74    0.71
   6  -5 -15    2.11    1.08
   6   5 -15    0.99    1.01
   5  -5 -15    4.27    1.07
  -5  -5  15    2.63    0.77
   5   5 -15    3.26    1.05
   4  -5 -15    6.96    1.07
  -4  -5  15    5.89    0.85
   4   5 -15    7.31    1.10
   3  -5 -15    1.67    0.86
  -3  -5  15   -0.64    0.67
   3   5 -15    0.12    0.91
   2  -5 -15    2.45    0.81
  -2  -5  15    0.74    0.69
   2   5 -15    2.62    0.98
   1  -5 -15    3.15    0.80
  -1  -5  15    1.97    0.76
   1   5 -15    3.17    0.97
   0  -5 -15    2.83    0.79
   0  -5  15    0.81    0.76
   0   5 -15    2.48    0.94
   1  -5  15    0.19    0.75
   8  -6 -15    2.82    1.65
   8   6 -15    1.81    1.05
   8   6 -15    0.28    0.90
   7  -6 -15    0.81    1.13
   7   6 -15    1.73    1.05
   6  -6 -15   -0.33    1.07
  -6  -6  15    0.79    0.75
   6   6 -15    1.05    0.99
   5  -6 -15    4.32    1.10
  -5  -6  15    2.75    0.79
   5   6 -15    3.22    1.04
  -4  -6  15    0.36    0.75
   4  -6 -15    1.16    0.96
   4   6 -15    1.32    0.97
  -3  -6  15   -0.44    0.71
   3  -6 -15    0.48    0.87
   3   6 -15    1.08    0.97
  -2  -6  15    1.54    0.75
   2  -6 -15    2.65    0.81
   2   6 -15    3.51    1.01
  -1  -6  15    0.91    0.77
   1  -6 -15    3.13    0.79
   1   6 -15    0.49    0.96
   0  -6  15   -1.06    0.74
   1  -6  15    1.31    0.79
  -7  -7  15    3.12    0.82
   7  -7 -15    2.40    1.21
   7   7 -15    2.23    1.04
  -6  -7  15    0.32    0.75
   6  -7 -15    1.01    1.10
   6   7 -15    0.77    0.99
   5  -7 -15    3.82    1.10
  -5  -7  15    2.16    0.81
   5   7 -15    1.81    1.03
  -4  -7  15    3.89    0.87
   4  -7 -15    5.42    1.08
   4   7 -15    5.97    1.11
   3  -7 -15    1.43    0.91
  -3  -7  15   -0.06    0.77
   3   7 -15    0.25    0.97
  -2  -7  15    1.18    0.77
   2  -7 -15    4.35    0.91
   2   7 -15    2.04    1.02
   1  -7 -15    2.32    0.80
  -1  -7  15    0.53    0.79
   0  -7  15   -0.02    0.78
  -7  -8  15    2.27    0.85
   7   8 -15    2.29    1.05
  -6  -8  15   -0.51    0.79
   6  -8 -15    1.30    1.15
   6   8 -15    0.78    1.02
  -5  -8  15    0.75    0.82
   5  -8 -15    2.16    1.10
   5   8 -15    2.15    1.04
   4  -8 -15    1.55    1.02
  -4  -8  15    0.80    0.83
   4   8 -15   -0.05    1.02
  -3  -8  15    1.07    0.83
   3  -8 -15    1.93    0.94
   3   8 -15    0.23    1.03
   2  -8 -15    1.61    0.89
  -2  -8  15   -0.01    0.77
  -1  -8  15   -1.63    0.78
   1  -8 -15    1.27    0.78
   0  -8  15    0.06    0.79
  -6  -9  15    2.61    0.90
   6   9 -15    2.93    1.10
   5  -9 -15    2.69    1.13
  -5  -9  15    0.81    0.86
   5   9 -15    1.89    1.10
  -4  -9  15    1.44    0.87
   4  -9 -15    3.49    1.05
   4   9 -15    1.80    1.09
   3  -9 -15    0.56    0.95
  -3  -9  15   -0.90    0.83
   2  -9 -15    2.76    0.94
  -2  -9  15    1.46    0.86
  -1  -9  15    0.56    0.86
  -4 -10  15   -0.51    0.87
   4 -10 -15    2.55    1.07
   3 -10 -15    1.85    0.98
  -3 -10  15    0.28    0.90
   8   0 -16    1.58    1.35
   7   0 -16    7.12    1.19
   6   0 -16    1.31    1.02
   5   0 -16    0.54    0.98
   4   0 -16    2.75    1.01
   3   0 -16    4.87    1.03
   2   0 -16    0.65    0.87
   1   0 -16   -0.02    0.86
   0   0 -16    4.36    0.94
   8  -1 -16    2.69    1.64
   8   1 -16    1.86    1.26
   7  -1 -16    1.59    1.09
   7   1 -16    2.14    1.07
   6  -1 -16    1.75    1.04
   6   1 -16    2.76    1.08
   5  -1 -16    1.66    1.00
   5   1 -16    0.54    0.98
   4  -1 -16    0.64    0.97
   4   1 -16    1.81    0.99
   3  -1 -16    0.62    0.91
   3   1 -16    1.30    0.95
   2  -1 -16    0.31    0.86
   2   1 -16    0.70    0.92
   1  -1 -16    4.37    0.92
   1   1 -16    3.54    0.94
   0  -1 -16    0.68    0.85
   0   1 -16    0.25    0.86
   7  -2 -16    7.48    1.20
   7   2 -16    6.57    1.17
   6  -2 -16    3.65    1.08
   6   2 -16    3.37    1.08
   5  -2 -16    4.69    1.09
   5   2 -16    3.72    1.06
   4  -2 -16    5.14    1.03
   4   2 -16    3.85    1.07
   3  -2 -16    6.41    1.03
   3   2 -16    5.31    1.08
   2  -2 -16    3.56    0.91
   2   2 -16    3.48    1.01
   1  -2 -16    0.53    0.83
   1   2 -16    2.15    0.91
   0  -2 -16    5.89    0.95
   0   2 -16    4.84    0.99
   7  -3 -16    2.65    1.19
   7   3 -16    1.81    1.09
   6  -3 -16    2.10    1.05
   6   3 -16    1.22    1.06
   5  -3 -16    1.18    1.02
   5   3 -16    1.69    1.04
   4  -3 -16    2.30    0.98
   4   3 -16    3.41    1.08
   3  -3 -16    2.62    0.92
   3   3 -16    1.45    1.03
   2  -3 -16    0.36    0.84
   2   3 -16    0.44    0.96
   1  -3 -16    2.95    0.88
   1   3 -16    1.30    0.96
   0  -3 -16    1.17    0.83
   0   3 -16    0.20    0.89
   7  -4 -16    1.16    1.57
   7   4 -16    1.85    1.11
   6  -4 -16    3.01    1.10
   6   4 -16    3.26    1.11
   5  -4 -16    4.68    1.10
   5   4 -16    4.42    1.14
   4  -4 -16    3.53    1.01
   4   4 -16    2.28    1.05
   3  -4 -16    2.38    0.90
   3   4 -16    0.19    1.02
   2  -4 -16    6.41    0.95
   2   4 -16    6.55    1.12
   1  -4 -16    2.14    0.86
   1   4 -16    2.82    0.99
   0  -4 -16    2.04    1.00
   0   4 -16    1.26    0.93
   6  -5 -16    2.61    1.19
   6   5 -16    1.68    1.11
   5  -5 -16    1.64    1.08
   5   5 -16    0.54    1.05
   4  -5 -16    3.08    1.02
   4   5 -16    2.41    1.08
   3  -5 -16    2.56    0.92
   3   5 -16    1.62    1.05
   2  -5 -16    1.16    0.85
   2   5 -16    1.12    1.02
   1  -5 -16    0.25    0.82
  -1  -5  16   -0.91    1.07
   1   5 -16    0.17    0.98
   6   6 -16    2.41    1.25
   5  -6 -16    3.70    1.17
  -5  -6  16    1.28    0.86
   5   6 -16    4.26    1.13
   4  -6 -16    1.51    1.04
  -4  -6  16   -0.02    0.81
   4   6 -16    2.03    1.09
   3  -6 -16    1.84    0.89
  -3  -6  16   -1.51    0.74
   3   6 -16    0.71    1.06
   2  -6 -16    4.23    0.92
  -2  -6  16    2.18    0.84
   2   6 -16    3.99    1.16
  -1  -6  16    1.12    0.83
   1   6 -16    2.89    1.30
  -5  -7  16    0.07    0.84
   5  -7 -16    1.09    1.44
   5   7 -16    1.05    1.76
   4  -7 -16    2.68    1.08
  -4  -7  16   -0.61    0.82
   4   7 -16   -0.32    1.40
  -3  -7  16   -0.75    0.81
   3  -7 -16    1.81    0.95
   3   7 -16    0.34    1.66
  -2  -7  16    0.20    0.83
   4   0 -17    2.04    1.44
   3   0 -17    1.13    1.11
   4  -1 -17    3.14    1.26
   3  -1 -17    1.02    1.04
   3   1 -17    0.18    1.22
   4  -2 -17    3.35    1.41
   3  -2 -17    1.37    1.03
   0   0   0    0.00    0.00
;
_shelx_hkl_checksum              36431
_shelx_fab_file
;
-13 0 3 -0.2740 -0.2659
-13 0 4 1.2051 0.2613
-13 0 5 -3.5436 0.0082
-13 0 6 -3.4027 -0.2994
-13 0 7 3.0971 0.0570
-13 1 3 0.1565 2.3827
-13 1 4 1.5870 1.8827
-13 1 5 2.8554 0.7642
-13 1 6 -0.4819 1.0734
-13 1 7 -0.1281 1.1776
-13 2 4 0.8650 2.8890
-13 2 5 2.0281 2.9325
-13 2 6 0.8115 -0.2810
-12 -6 0 2.9097 -6.8643
-12 -5 0 -2.0166 -2.9772
-12 -4 -1 3.1170 -2.4829
-12 -4 0 5.2971 1.7242
-12 -3 -1 -1.1057 -2.3117
-12 -3 0 0.5554 -0.6041
-12 -2 -1 -1.0075 3.2045
-12 -2 0 -3.5168 5.4999
-12 -1 -1 2.0757 1.4755
-12 -1 0 3.0892 2.7025
-12 0 1 1.8044 0.4208
-12 0 2 -2.5499 -0.0470
-12 0 3 -0.4241 -0.3747
-12 0 4 4.8626 0.3344
-12 0 5 -1.8474 0.0359
-12 0 6 -3.8408 -0.4245
-12 0 7 4.5415 0.2125
-12 0 8 1.5768 0.2672
-12 0 9 -2.4024 -0.3049
-12 1 1 0.3445 2.5512
-12 1 2 4.3668 1.8203
-12 1 3 0.5730 2.7882
-12 1 4 2.3795 -1.0276
-12 1 5 6.9063 -1.8129
-12 1 6 1.1587 0.8134
-12 1 7 -0.7898 1.2565
-12 1 8 2.4531 -0.9421
-12 1 9 -1.0371 0.3705
-12 1 10 -2.5524 1.2438
-12 2 1 -1.6287 -4.0124
-12 2 2 0.8976 -6.6820
-12 2 3 1.5345 -3.9263
-12 2 4 -2.4388 -0.1920
-12 2 5 -2.9819 -0.1638
-12 2 6 -1.3850 -0.7932
-12 2 7 -1.6105 1.8138
-12 2 8 -0.3626 3.1541
-12 2 9 0.0834 0.6334
-12 2 10 -0.5261 -1.2367
-12 2 11 1.5213 -2.6955
-12 3 1 -1.5442 3.7255
-12 3 2 -0.0722 2.2634
-12 3 3 -0.8170 -0.3488
-12 3 4 1.6749 -0.3358
-12 3 5 1.3593 1.6999
-12 3 6 0.0905 2.7460
-12 3 7 -2.3566 -0.2430
-12 3 8 -1.0850 -2.2132
-12 3 9 -0.8666 -0.7128
-12 3 10 -1.7026 0.9858
-12 4 1 1.5683 -0.7021
-12 4 2 2.9137 -0.8698
-12 4 3 1.9437 -2.9094
-12 4 4 -1.4051 -0.7996
-12 4 5 -3.7849 -0.2996
-12 4 6 -1.3615 -1.4034
-12 4 7 0.7144 1.3322
-12 4 8 -1.5717 0.2520
-12 4 9 -1.6177 -1.4136
-12 4 10 -2.6854 -0.7089
-12 5 1 3.8619 -5.6925
-12 5 2 4.1832 0.0080
-12 5 3 0.8858 1.6143
-12 5 4 -3.6696 1.6201
-12 5 5 -4.1234 5.5525
-12 5 6 -3.2838 6.5978
-12 5 7 -1.1912 2.4567
-12 5 8 0.7390 0.0217
-12 5 9 2.4755 -4.2820
-12 6 1 3.8995 5.4088
-12 6 2 0.6940 -0.5012
-12 6 3 -1.3413 -3.0041
-12 6 4 -1.2579 -4.2360
-12 6 5 -1.0889 -5.2054
-12 6 6 -1.1478 -1.5055
-12 6 7 -2.4188 0.7636
-12 6 8 0.9354 1.6382
-12 6 9 1.9020 3.3519
-12 7 1 1.8571 -0.5491
-12 7 2 0.7079 -5.2342
-12 7 3 -3.7831 -5.8787
-12 7 4 -5.8227 -0.8553
-12 7 5 -5.1885 -0.6106
-12 7 6 -2.8882 -2.4077
-12 7 7 -0.5828 1.4117
-12 7 8 -0.3425 3.6060
-12 8 3 -2.5240 -1.9545
-12 8 4 -3.8318 0.5491
-12 8 5 -1.4753 4.9067
-12 8 6 0.3815 2.7926
-11 -10 0 2.1793 1.2558
-11 -9 -1 -1.3328 -1.6114
-11 -9 0 -1.2669 -0.8004
-11 -8 -2 -0.8621 0.8775
-11 -8 -1 -0.9879 -0.4734
-11 -8 0 -1.0361 1.0852
-11 -7 -2 5.5529 -0.2670
-11 -7 -1 3.8523 0.6788
-11 -7 0 0.5953 -0.0915
-11 -6 -3 0.1984 4.3108
-11 -6 -2 0.6043 0.2584
-11 -6 -1 2.0776 -4.9013
-11 -6 0 2.0557 -8.9217
-11 -5 -3 -2.9996 0.5224
-11 -5 -2 -5.6504 -2.0112
-11 -5 -1 -2.2842 -1.9250
-11 -5 0 -3.4299 -3.8063
-11 -4 -4 0.6077 -3.5868
-11 -4 -3 2.6183 -5.9464
-11 -4 -2 1.6508 -3.0917
-11 -4 -1 0.9080 2.9468
-11 -4 0 3.6749 7.9592
-11 -3 -4 -1.4289 -0.0122
-11 -3 -3 -2.9446 -1.3508
-11 -3 -2 -0.0952 -4.5269
-11 -3 -1 -2.4745 -1.4198
-11 -3 0 -0.2937 3.3397
-11 -2 -4 -0.5584 -0.5182
-11 -2 -3 -0.4761 3.5721
-11 -2 -2 -0.4867 3.8490
-11 -2 -1 -1.0526 1.9107
-11 -2 0 -0.4454 0.9501
-11 -1 -4 2.3224 -3.1376
-11 -1 -3 3.4896 -3.7323
-11 -1 -2 6.1423 1.3379
-11 -1 -1 4.1890 2.5523
-11 -1 0 3.1760 4.7124
-11 0 1 1.6440 1.1764
-11 0 2 -2.5390 0.0887
-11 0 3 -3.1020 -0.4836
-11 0 4 -0.0637 0.3534
-11 0 5 -2.4206 0.0450
-11 0 6 -1.8836 -0.4867
-11 0 7 2.5368 0.3133
-11 0 8 -0.4355 0.3391
-11 0 9 -0.1613 -0.4489
-11 0 10 2.8013 -0.0300
-11 1 1 3.0475 1.0249
-11 1 2 6.1774 0.9339
-11 1 3 2.1962 0.2790
-11 1 4 2.6606 -2.8556
-11 1 5 8.2052 -0.2317
-11 1 6 5.2387 1.0986
-11 1 7 3.2507 -0.5885
-11 1 8 3.8973 2.5117
-11 1 9 -2.0442 4.2603
-11 1 10 -5.0137 0.8514
-11 1 11 -4.5637 1.4035
-11 2 1 2.1509 -4.2767
-11 2 2 0.4385 -10.8945
-11 2 3 0.0714 -5.3915
-11 2 4 -3.5009 -1.4918
-11 2 5 -3.4621 -0.1756
-11 2 6 -0.1598 3.6884
-11 2 7 -1.4811 3.9714
-11 2 8 -1.1823 3.6144
-11 2 9 3.2744 4.2753
-11 2 10 2.9313 0.3779
-11 2 11 1.9295 -4.0915
-11 3 1 1.7755 6.8110
-11 3 2 0.0450 -0.1963
-11 3 3 -1.4948 0.2389
-11 3 4 1.5234 5.9317
-11 3 5 -1.2316 4.7967
-11 3 6 -3.7146 2.4864
-11 3 7 -2.6720 0.1424
-11 3 8 -3.5414 -1.1485
-11 3 9 -3.1604 0.2252
-11 3 10 -1.2297 2.3853
-11 3 11 0.0317 -0.7032
-11 3 12 -0.3579 -2.6204
-11 4 1 5.2998 -4.5889
-11 4 2 8.1770 -4.2943
-11 4 3 1.1695 -6.6271
-11 4 4 -2.6356 -3.0541
-11 4 5 0.9734 0.1953
-11 4 6 2.2172 1.4817
-11 4 7 0.5257 5.0547
-11 4 8 -2.4105 0.9611
-11 4 9 -2.7089 -1.5702
-11 4 10 -2.3566 -0.0853
-11 4 11 1.6673 3.8400
-11 4 12 3.6941 1.0318
-11 5 1 3.9369 -2.7654
-11 5 2 2.6998 0.8525
-11 5 3 -2.2982 2.8551
-11 5 4 -7.3861 4.6004
-11 5 5 -7.2954 8.8149
-11 5 6 -5.4010 7.1152
-11 5 7 -0.9271 4.2599
-11 5 8 3.0961 -0.0204
-11 5 9 6.2398 -5.9013
-11 5 10 3.4492 -4.6516
-11 5 11 -2.7192 2.1005
-11 5 12 -3.6445 4.5217
-11 6 1 2.1298 2.2566
-11 6 2 -1.1467 -5.3721
-11 6 3 -2.3776 -6.5834
-11 6 4 -0.1543 -5.6073
-11 6 5 -2.2363 -5.5692
-11 6 6 -5.3478 -2.1538
-11 6 7 -2.0182 3.4093
-11 6 8 6.4851 8.5001
-11 6 9 2.5995 6.8448
-11 6 10 -1.1062 -0.6416
-11 6 11 -2.8458 -1.6240
-11 7 1 -2.0033 -1.9019
-11 7 2 -2.9647 -5.2039
-11 7 3 -7.4821 -4.2251
-11 7 4 -7.9315 -0.4540
-11 7 5 -5.3012 -2.8869
-11 7 6 -4.1612 -3.6833
-11 7 7 -6.6608 2.2777
-11 7 8 -1.3310 3.0169
-11 7 9 5.6615 0.9686
-11 7 10 4.4541 0.6108
-11 7 11 3.3454 0.6341
-11 8 1 -0.7221 1.1154
-11 8 2 -2.5390 5.7437
-11 8 3 -1.4538 4.4085
-11 8 4 0.5013 4.9456
-11 8 5 3.3929 5.3697
-11 8 6 3.4627 -0.6782
-11 8 7 1.2088 -3.9982
-11 8 8 -1.4911 1.3408
-11 8 9 0.7023 0.4461
-11 8 10 0.0034 -0.6407
-11 9 1 0.4226 -4.9303
-11 9 2 1.9662 -2.6300
-11 9 3 2.0228 1.0795
-11 9 4 2.1119 0.3976
-11 9 5 3.8103 0.7584
-11 9 6 4.0701 2.7657
-11 9 7 2.2585 -0.6994
-11 9 8 -0.5688 -0.4042
-11 9 9 -1.5802 2.5858
-11 10 1 1.9691 0.5900
-11 10 2 0.0014 -2.4484
-11 10 3 0.0504 -1.1650
-11 10 4 -1.3239 1.2456
-11 10 5 0.4463 1.3335
-11 10 6 2.6625 0.1078
-11 10 7 2.8537 -0.9177
-11 10 8 -0.0500 -4.4517
-11 11 2 0.4237 0.1868
-11 11 3 0.4597 -2.4444
-11 11 4 -0.4288 -1.0883
-11 11 5 0.0163 0.8656
-11 11 6 2.2649 -0.6749
-10 -12 -1 1.5274 -0.0658
-10 -12 0 1.6380 -3.0017
-10 -11 -2 -0.5416 -2.6810
-10 -11 -1 1.1923 -0.4673
-10 -11 0 3.5994 -0.1619
-10 -10 -3 1.7819 0.4562
-10 -10 -2 1.9715 0.7478
-10 -10 -1 -0.9642 0.2940
-10 -10 0 2.7950 0.4010
-10 -9 -4 0.7906 -2.9238
-10 -9 -3 -2.7488 -1.9165
-10 -9 -2 -1.1543 -0.2558
-10 -9 -1 -1.1921 -1.1979
-10 -9 0 0.4755 -2.7528
-10 -8 -4 1.7756 -4.5862
-10 -8 -3 1.7369 -7.1581
-10 -8 -2 0.3124 -1.6080
-10 -8 -1 0.0970 2.0328
-10 -8 0 0.6695 4.9752
-10 -7 -5 4.2636 -1.0703
-10 -7 -4 4.6503 2.4522
-10 -7 -3 5.2803 -2.4152
-10 -7 -2 3.6375 -1.1796
-10 -7 -1 -0.0505 0.5810
-10 -7 0 1.0445 2.3716
-10 -6 -5 -0.9218 -1.0863
-10 -6 -4 0.0892 4.2269
-10 -6 -3 -0.8236 4.4219
-10 -6 -2 -0.7003 -1.1224
-10 -6 -1 1.6846 -4.9281
-10 -6 0 -0.5919 -1.3013
-10 -5 -5 -0.6372 -1.4816
-10 -5 -4 -2.8179 -4.2001
-10 -5 -3 -3.7460 -1.1433
-10 -5 -2 -6.7737 -0.8271
-10 -5 -1 -2.6811 -0.1105
-10 -5 0 -2.1690 -0.5176
-10 -4 -6 -1.2969 0.4416
-10 -4 -5 -0.1371 -0.2971
-10 -4 -4 -1.9014 -5.7214
-10 -4 -3 3.0129 -6.7619
-10 -4 -2 -0.1581 -0.2005
-10 -4 -1 -2.9711 5.1566
-10 -4 0 -2.3515 4.8492
-10 -3 -6 1.0208 -2.1099
-10 -3 -5 0.2823 0.4012
-10 -3 -4 -0.1246 3.6085
-10 -3 -3 0.1239 0.7560
-10 -3 -2 2.1046 -4.0010
-10 -3 -1 -2.5203 -1.1059
-10 -3 0 -2.5708 2.0590
-10 -2 -6 0.0669 -4.5938
-10 -2 -5 -1.2416 -2.0024
-10 -2 -4 -0.7742 -1.1198
-10 -2 -3 -0.7780 3.1685
-10 -2 -2 -1.3666 -3.7800
-10 -2 -1 -0.0160 -5.5598
-10 -2 0 2.9400 -1.9798
-10 -1 -6 -3.5349 -0.7454
-10 -1 -5 1.6934 -0.1462
-10 -1 -4 4.6605 -1.8924
-10 -1 -3 4.9587 -1.6496
-10 -1 -2 3.6245 2.6161
-10 -1 -1 -3.3192 1.3765
-10 -1 0 -6.1486 1.3479
-10 0 1 -1.3926 0.9726
-10 0 2 -0.2727 0.0045
-10 0 3 -1.9019 -0.4717
-10 0 4 -1.1114 0.4272
-10 0 5 -0.9867 0.1054
-10 0 6 -1.3198 -0.6317
-10 0 7 -1.3645 0.2788
-10 0 8 0.7404 0.4536
-10 0 9 3.5056 -0.4497
-10 0 10 0.5096 -0.0375
-10 0 11 0.5580 0.3996
-10 0 12 1.7688 -0.2838
-10 0 13 0.6530 -0.2252
-10 0 14 -0.4245 0.2788
-10 1 1 2.8589 -0.1419
-10 1 2 -1.4148 2.9539
-10 1 3 -0.1199 3.8489
-10 1 5 4.8806 2.0389
-10 1 6 3.8464 0.1799
-10 1 7 1.8978 -1.3071
-10 1 8 0.7688 2.9446
-10 1 9 -2.3679 0.8274
-10 1 10 -5.6751 -2.0520
-10 1 11 -8.0361 1.3137
-10 1 12 -3.8592 4.3912
-10 1 13 -1.3243 3.5996
-10 1 14 -1.0882 3.5429
-10 2 1 3.8233 -6.8954
-10 2 2 -3.0108 -8.0653
-10 2 3 -2.4593 -1.7336
-10 2 4 0.4374 0.2706
-10 2 5 -0.0731 -1.3117
-10 2 6 0.1201 2.4256
-10 2 7 -0.6090 1.7091
-10 2 8 1.2560 2.2255
-10 2 9 4.0556 2.5426
-10 2 10 2.2300 -2.0057
-10 2 11 0.4470 -1.8317
-10 2 12 0.6047 0.3968
-10 2 13 1.8500 -1.1444
-10 2 14 -0.5015 -3.2143
-10 3 1 3.5550 1.8956
-10 3 2 0.7961 -3.1884
-10 3 3 -1.8981 1.1372
-10 3 4 0.1623 4.9541
-10 3 5 -0.1402 0.4959
-10 3 6 -1.3558 2.1871
-10 3 7 0.8385 4.0927
-10 3 8 0.0624 1.1116
-10 3 9 2.4811 -1.4794
-10 3 10 1.5463 0.0212
-10 3 11 2.2482 -2.2209
-10 3 12 3.3053 -3.4518
-10 3 13 2.8142 -4.9912
-10 3 14 -2.3629 -2.7967
-10 4 1 3.0770 -0.1991
-10 4 2 3.3581 -0.9524
-10 4 3 -0.2048 -3.7321
-10 4 4 -0.3320 -0.4478
-10 4 5 3.7221 0.6756
-10 4 6 0.6734 1.1786
-10 4 7 0.7937 3.9174
-10 4 8 -0.5788 1.6577
-10 4 9 -0.5618 -0.3412
-10 4 10 1.3797 0.2561
-10 4 11 2.4660 3.4561
-10 4 12 2.5263 1.1599
-10 4 13 1.0502 -1.8379
-10 5 1 2.4998 -0.4560
-10 5 2 1.7349 -0.4064
-10 5 3 -0.7530 2.1738
-10 5 4 -2.0774 3.4491
-10 5 5 -2.5575 3.6656
-10 5 6 -6.2260 0.9515
-10 5 7 -2.5865 2.0756
-10 5 8 2.6662 -0.6468
-10 5 9 3.7909 -0.2099
-10 5 10 -0.3940 1.3933
-10 5 11 -2.5244 2.3356
-10 5 12 -1.8567 1.1782
-10 5 13 0.1211 -0.0203
-10 6 1 -0.8929 -2.7961
-10 6 2 -2.7837 -7.3072
-10 6 3 -2.4236 -5.5246
-10 6 4 -1.2944 -4.0817
-10 6 5 -2.2878 -3.6679
-10 6 6 -3.8012 -3.2359
-10 6 7 0.2765 4.4510
-10 6 8 4.8201 6.5304
-10 6 9 -0.2299 0.9494
-10 6 10 1.7252 -0.4587
-10 6 11 4.8239 1.9485
-10 6 12 4.5685 1.8327
-10 6 13 1.6970 -0.6909
-10 7 1 -5.5631 2.4905
-10 7 2 -2.8354 2.0097
-10 7 3 -4.3441 0.4505
-10 7 4 -3.1121 -0.0162
-10 7 5 -0.6932 0.2992
-10 7 6 -1.8641 -0.7204
-10 7 7 -6.7236 -0.8523
-10 7 8 0.5136 -1.3942
-10 7 9 3.3867 0.0580
-10 7 10 0.3725 0.5578
-10 7 11 3.0323 -0.6138
-10 7 12 1.6381 -2.7100
-10 8 1 -1.9712 2.7290
-10 8 2 -1.2056 8.8616
-10 8 3 1.1806 7.6171
-10 8 4 2.6027 3.8099
-10 8 5 4.1858 1.5998
-10 8 6 5.5588 -0.8352
-10 8 7 1.0180 -1.1766
-10 8 8 -2.3454 0.7860
-10 8 9 0.9346 -1.5341
-10 8 10 -1.8051 -0.3641
-10 8 11 -2.1076 -2.4808
-10 8 12 0.3094 -3.7791
-10 9 1 -2.1468 -6.7916
-10 9 2 0.2360 -2.2009
-10 9 3 2.7247 0.3434
-10 9 4 1.7211 1.1620
-10 9 5 1.8139 -0.3213
-10 9 6 3.5102 -0.9979
-10 9 7 2.6182 -2.8263
-10 9 8 -2.9218 0.0046
-10 9 9 -4.5845 -0.5359
-10 9 10 -1.3282 -2.8414
-10 9 11 -0.3298 1.5296
-10 10 1 0.4091 0.1913
-10 10 2 -2.6185 -1.1205
-10 10 3 -0.6945 0.5032
-10 10 4 -0.3325 2.6751
-10 10 5 0.8769 3.2702
-10 10 6 2.5819 -0.5564
-10 10 7 3.8419 -4.3193
-10 10 8 3.6357 -3.6142
-10 10 9 4.8240 3.3120
-10 10 10 3.8578 3.0455
-10 10 11 1.6719 2.4984
-10 11 1 0.5413 -1.7254
-10 11 2 -1.1084 -1.0580
-10 11 3 0.9462 -1.1737
-10 11 4 2.3765 -1.3186
-10 11 5 1.7662 -1.0208
-10 11 6 1.0582 -0.7216
-10 11 7 -0.0547 -0.1392
-10 11 8 -1.1181 -1.7718
-10 11 9 -0.1503 -1.1111
-10 12 1 1.5258 2.4863
-10 12 2 1.8794 1.6777
-10 12 3 -1.4214 2.3759
-10 12 4 1.3193 0.1352
-10 12 5 0.6022 -0.1175
-10 12 6 -1.1345 -0.9268
-10 12 7 -0.7693 -0.1444
-10 12 8 1.0362 -0.4538
-10 13 1 2.3455 2.7577
-10 13 2 3.7369 1.2870
-10 13 3 2.4496 1.6588
-10 13 4 0.1247 1.1450
-10 13 5 0.9311 0.0648
-10 13 6 -0.1943 0.3008
-9 -14 -1 -1.3355 -2.5226
-9 -14 0 -0.9335 -2.3424
-9 -13 -2 2.8829 -2.3652
-9 -13 -1 2.2895 -1.6191
-9 -13 0 -3.2388 -0.2299
-9 -12 -4 -0.3239 2.4748
-9 -12 -3 -0.3186 1.4925
-9 -12 -2 -2.2612 -0.2940
-9 -12 -1 0.5334 -0.5657
-9 -12 0 1.9623 -3.1176
-9 -11 -4 -0.3419 2.2883
-9 -11 -3 1.9910 3.1838
-9 -11 -2 0.5993 -0.2097
-9 -11 -1 0.9558 0.8150
-9 -11 0 4.4323 0.1259
-9 -10 -5 1.5342 1.1878
-9 -10 -4 -0.4442 0.1098
-9 -10 -3 0.9829 0.6784
-9 -10 -2 1.8207 0.4971
-9 -10 -1 -2.2186 0.5812
-9 -10 0 0.0752 -1.0251
-9 -9 -6 -0.8967 -1.9883
-9 -9 -5 -2.1952 -5.4008
-9 -9 -4 -2.1752 -4.3923
-9 -9 -3 -4.3888 -2.5238
-9 -9 -2 0.8694 -3.8157
-9 -9 -1 3.5115 -0.5417
-9 -9 0 4.8730 -0.5388
-9 -8 -6 3.5282 1.2706
-9 -8 -5 -1.3143 0.3768
-9 -8 -4 -1.3657 -3.7772
-9 -8 -3 0.2687 -1.2701
-9 -8 -2 -0.4499 1.5287
-9 -8 -1 -2.0224 4.2631
-9 -8 0 0.3979 7.4505
-9 -7 -6 -1.5207 0.4542
-9 -7 -5 2.7184 0.1870
-9 -7 -4 1.5644 1.1543
-9 -7 -3 0.1164 -1.4694
-9 -7 -2 0.6037 -1.1104
-9 -7 -1 -3.4425 -2.1634
-9 -7 0 1.2160 1.9431
-9 -6 -7 1.0801 0.7971
-9 -6 -6 -1.8642 5.4958
-9 -6 -5 -2.1221 1.7734
-9 -6 -4 0.5686 1.4881
-9 -6 -3 0.3785 -0.4609
-9 -6 -2 3.0561 -1.1646
-9 -6 -1 3.4770 -2.7829
-9 -6 0 -1.8755 1.6813
-9 -5 -7 -3.2585 -1.9190
-9 -5 -6 -0.2073 -1.2394
-9 -5 -5 2.1349 -1.5961
-9 -5 -4 0.9545 -3.9467
-9 -5 -3 -0.4304 -4.2209
-9 -5 -2 1.2505 -0.6440
-9 -5 -1 1.1934 0.4444
-9 -5 0 -1.2629 -0.5327
-9 -4 -7 -0.1677 -0.0436
-9 -4 -6 -4.1045 1.1257
-9 -4 -5 -1.3308 1.6177
-9 -4 -4 1.1807 -1.4137
-9 -4 -3 2.6763 -2.7655
-9 -4 -2 -1.3865 -0.0024
-9 -4 -1 -2.0290 2.3350
-9 -4 0 -3.9963 2.8246
-9 -3 -8 -3.6901 0.0361
-9 -3 -7 -2.9230 -0.9535
-9 -3 -6 -3.7597 -0.0125
-9 -3 -5 0.8799 2.1194
-9 -3 -4 6.4576 6.2830
-9 -3 -3 3.6183 3.2580
-9 -3 -2 -4.9384 1.1263
-9 -3 -1 -4.0763 -1.3263
-9 -3 0 1.7342 1.6163
-9 -2 -8 -3.1556 -3.5761
-9 -2 -7 -2.5712 -3.2008
-9 -2 -6 0.2057 0.5035
-9 -2 -5 -2.2342 1.6595
-9 -2 -4 -1.5182 -3.5893
-9 -2 -3 2.0572 -5.2075
-9 -2 -2 1.0152 -4.1401
-9 -2 -1 -0.7523 1.1678
-9 -2 0 1.8841 0.9511
-9 -1 -8 -4.5586 -0.5681
-9 -1 -7 -9.1172 1.9919
-9 -1 -6 -5.4454 0.7903
-9 -1 -5 5.2612 2.6378
-9 -1 -4 3.9124 1.6339
-9 -1 -3 1.9370 1.2423
-9 -1 -2 -0.6659 0.9363
-9 -1 -1 -3.9943 1.9602
-9 -1 0 -7.1029 1.9271
-9 0 1 -7.3343 0.4826
-9 0 2 -2.9204 0.0807
-9 0 3 -0.1939 -0.5549
-9 0 4 -1.0835 0.3560
-9 0 5 -5.7691 0.2497
-9 0 6 -2.2239 -0.6743
-9 0 7 1.2177 0.1810
-9 0 8 0.1011 0.5136
-9 0 9 -0.8765 -0.4832
-9 0 10 -4.7838 -0.1148
-9 0 11 -0.5536 0.5037
-9 0 12 3.4190 -0.2463
-9 0 13 4.4187 -0.2556
-9 0 14 1.8144 0.4111
-9 0 15 1.3939 0.0272
-9 1 1 -1.8079 3.1417
-9 1 2 -7.1558 5.0585
-9 1 3 -3.1694 7.4435
-9 1 4 1.2340 4.7169
-9 1 5 0.6254 3.6043
-9 1 6 -0.2857 2.5008
-9 1 7 1.1587 -2.6052
-9 1 8 1.1229 -4.1350
-9 1 9 0.4496 -4.8733
-9 1 10 -1.4614 -2.5809
-9 1 11 -5.8002 -0.4134
-9 1 12 -4.4654 1.1158
-9 1 13 -5.4510 0.8896
-9 1 14 -6.4309 1.4080
-9 1 15 -6.0520 0.4011
-9 2 1 5.6438 -1.6571
-9 2 2 -1.1861 0.2631
-9 2 3 -2.9182 0.4274
-9 2 4 1.2218 1.9500
-9 2 5 1.5657 -0.2732
-9 2 6 3.5556 2.6160
-9 2 7 3.0775 2.3511
-9 2 8 1.2046 -0.0837
-9 2 9 -1.3661 -2.0626
-9 2 10 2.2395 -0.6505
-9 2 11 4.3320 4.5676
-9 2 12 5.0273 0.6419
-9 2 13 3.3360 -3.9202
-9 2 14 0.0438 -3.0639
-9 2 15 -0.4554 2.9130
-9 3 1 -0.1332 0.4566
-9 3 2 5.4652 -1.1633
-9 3 3 0.4264 -1.7697
-9 3 4 -2.0710 -1.4267
-9 3 5 -3.2200 -0.3002
-9 3 6 -2.4392 4.0021
-9 3 7 2.5526 0.3969
-9 3 8 3.6575 -2.1767
-9 3 9 3.0152 -1.4198
-9 3 10 0.0088 -0.1903
-9 3 11 4.6937 -2.2785
-9 3 12 4.7981 -2.0209
-9 3 13 1.9313 -5.4947
-9 3 14 -2.8559 -4.5695
-9 3 15 -0.8332 -2.5835
-9 4 1 -2.4898 0.1566
-9 4 2 -3.3435 -1.3906
-9 4 3 0.4470 -3.7375
-9 4 4 -1.0627 -4.4901
-9 4 5 -0.1549 -7.6320
-9 4 6 -1.5515 -0.9377
-9 4 7 1.9054 1.8209
-9 4 8 -0.8445 -0.7211
-9 4 9 -0.5534 -2.1005
-9 4 10 1.5477 -0.7722
-9 4 11 -1.9330 -2.6511
-9 4 12 -5.3873 -1.9614
-9 4 13 -5.4637 -0.8262
-9 4 14 -1.5468 -0.9039
-9 5 1 3.1561 -3.7163
-9 5 2 -0.2870 -0.6394
-9 5 3 2.3632 0.5309
-9 5 4 5.3672 3.2440
-9 5 5 0.9621 0.6383
-9 5 6 -7.5031 -0.3896
-9 5 7 -0.8131 3.0696
-9 5 8 3.7255 0.4190
-9 5 9 1.4631 2.8085
-9 5 10 -0.0579 2.5708
-9 5 11 3.6816 -1.3598
-9 5 12 2.0010 -3.5830
-9 5 13 -1.3965 1.2801
-9 5 14 -3.3174 2.6278
-9 6 1 -3.1467 -5.3369
-9 6 2 -4.2040 -8.5738
-9 6 3 -6.1211 -3.2285
-9 6 4 -5.9790 -2.4167
-9 6 5 -0.3730 0.1540
-9 6 6 -1.3091 -1.3574
-9 6 7 0.4050 3.8442
-9 6 8 2.1371 0.9523
-9 6 9 2.0146 -1.9533
-9 6 10 4.4574 3.3714
-9 6 11 4.5000 3.5487
-9 6 12 -0.0568 -2.9197
-9 6 13 -2.3646 -4.8503
-9 6 14 -2.1176 -0.7205
-9 7 1 -3.3826 6.4114
-9 7 2 -1.0019 3.7825
-9 7 3 0.5430 1.7252
-9 7 4 0.4021 2.0008
-9 7 5 3.8634 4.1954
-9 7 6 2.7651 1.0811
-9 7 7 -1.9814 -0.8212
-9 7 8 0.7281 -0.4942
-9 7 9 -0.6710 0.6716
-9 7 10 -0.4312 -1.9813
-9 7 11 2.7135 -2.9720
-9 7 12 0.0113 -1.6456
-9 7 13 -0.6855 0.6447
-9 7 14 2.1118 0.8539
-9 8 1 -0.6374 1.5807
-9 8 2 3.2425 5.7224
-9 8 3 2.1473 3.4710
-9 8 4 0.5001 -0.6078
-9 8 5 -0.5289 -0.3443
-9 8 6 2.4246 0.4083
-9 8 7 0.7126 1.8152
-9 8 8 1.0986 0.1797
-9 8 9 2.4054 -1.4348
-9 8 10 0.1114 1.1657
-9 8 11 1.7533 -1.4975
-9 8 12 2.6297 -2.5698
-9 8 13 0.4283 1.5364
-9 9 1 -4.7242 -0.6541
-9 9 2 -0.5858 1.4600
-9 9 3 3.1814 0.9551
-9 9 4 -0.9133 0.8173
-9 9 5 -3.4138 -0.4510
-9 9 6 -0.3265 -1.0039
-9 9 7 0.5449 1.0499
-9 9 8 -1.0661 3.3215
-9 9 9 -2.0467 -0.3299
-9 9 10 -0.3556 0.1542
-9 9 11 1.0897 5.4436
-9 9 12 0.8873 0.9154
-9 9 13 0.1638 -0.6393
-9 10 1 0.7714 1.9073
-9 10 2 1.6561 3.6257
-9 10 3 4.1826 1.9533
-9 10 4 3.9885 1.3263
-9 10 5 -0.4016 2.2656
-9 10 6 -0.9072 -0.8594
-9 10 7 2.0758 -2.5166
-9 10 8 4.4132 1.4809
-9 10 9 5.2620 5.3161
-9 10 10 1.6156 2.7824
-9 10 11 1.1248 3.1613
-9 10 12 1.6420 2.7385
-9 11 1 -0.8548 0.4625
-9 11 2 1.2921 1.3497
-9 11 3 3.9731 -0.0138
-9 11 4 4.6907 -4.4560
-9 11 5 2.2464 -3.6110
-9 11 6 -2.0149 -0.5446
-9 11 7 -2.7741 -2.8098
-9 11 8 -0.6030 -5.7922
-9 11 9 0.7262 -3.6339
-9 11 10 1.5005 -1.9576
-9 11 11 -0.3722 -2.7272
-9 12 1 0.9248 2.1718
-9 12 2 1.8255 1.1807
-9 12 3 -0.9677 0.2414
-9 12 4 -0.2385 -0.9248
-9 12 5 0.1008 -0.1365
-9 12 6 0.3768 2.0215
-9 12 7 -1.0376 5.0576
-9 12 8 -0.7059 2.3272
-9 12 9 -0.2608 0.9317
-9 12 10 0.1496 1.8531
-9 13 1 3.0876 2.7681
-9 13 2 2.2844 0.7605
-9 13 3 0.4636 1.3665
-9 13 4 -2.8894 1.3994
-9 13 5 -1.1986 1.4530
-9 13 6 0.5236 -0.9344
-9 13 7 0.1071 -1.4241
-9 13 8 -1.1972 1.5485
-9 13 9 -1.5258 -1.0186
-9 14 1 1.2388 0.1606
-9 14 2 0.8283 -0.4944
-9 14 3 0.7312 -2.5272
-9 14 4 -1.4802 -1.4855
-9 14 5 -2.4284 -1.3901
-9 14 6 1.8979 -0.3693
-9 14 7 2.3266 -0.9595
-9 14 8 1.3619 1.5246
-9 15 1 -0.4602 0.8683
-9 15 2 -0.6508 0.3799
-9 15 3 -2.0754 0.0162
-9 15 4 -0.9270 -1.0678
-9 15 5 -1.0992 -0.0413
-8 -16 0 -3.2706 -0.9679
-8 -15 -2 -0.1530 -2.0048
-8 -15 -1 0.6559 -3.6865
-8 -15 0 1.6462 -2.2346
-8 -14 -4 -1.6570 2.1756
-8 -14 -3 0.2544 2.1306
-8 -14 -2 3.4230 0.9469
-8 -14 -1 1.5781 -0.2615
-8 -14 0 1.3958 0.4989
-8 -13 -5 1.8736 0.0299
-8 -13 -4 2.9702 1.9723
-8 -13 -3 2.5313 2.9531
-8 -13 -2 1.8433 1.6550
-8 -13 -1 1.5974 1.8223
-8 -13 0 -2.0543 1.1953
-8 -12 -5 -2.2357 4.0673
-8 -12 -4 -3.6952 4.4549
-8 -12 -3 -3.9051 4.4526
-8 -12 -2 -4.8428 3.6760
-8 -12 -1 -2.1366 1.4666
-8 -12 0 -0.3764 0.3620
-8 -11 -6 0.0406 0.1190
-8 -11 -5 2.4732 4.4733
-8 -11 -4 3.3268 4.0951
-8 -11 -3 2.6754 3.5729
-8 -11 -2 1.0340 2.5887
-8 -11 -1 0.3733 1.7422
-8 -11 0 4.0890 2.1746
-8 -10 -7 1.2220 2.5116
-8 -10 -6 -1.2304 0.7814
-8 -10 -5 -0.2841 1.7443
-8 -10 -4 1.0256 0.1391
-8 -10 -3 2.5419 -3.9810
-8 -10 -2 1.8865 -3.0907
-8 -10 -1 -0.0071 -0.4935
-8 -10 0 -0.3140 -2.9262
-8 -9 -7 0.4582 1.6130
-8 -9 -6 -1.4537 -0.2719
-8 -9 -5 -3.4506 -0.8713
-8 -9 -4 0.3432 2.7179
-8 -9 -3 2.9133 0.1377
-8 -9 -2 4.7223 -5.6892
-8 -9 -1 6.2044 1.4953
-8 -9 0 3.5786 4.7337
-8 -8 -8 -2.4490 1.1073
-8 -8 -7 -0.6633 3.1936
-8 -8 -6 1.1876 4.0251
-8 -8 -5 -4.7413 3.1967
-8 -8 -4 -3.6087 1.6519
-8 -8 -3 -0.0144 5.7637
-8 -8 -2 -5.3965 2.2186
-8 -8 -1 -7.4384 0.0741
-8 -8 0 -0.0894 1.8934
-8 -7 -8 -2.7125 2.6935
-8 -7 -7 -5.6947 5.0688
-8 -7 -6 0.2292 1.7785
-8 -7 -5 3.1986 1.1040
-8 -7 -4 -0.7475 0.7967
-8 -7 -3 -0.4808 -0.3588
-8 -7 -2 3.1073 -1.0118
-8 -7 -1 -2.7597 -1.4760
-8 -7 0 -1.9953 0.5043
-8 -6 -8 1.7869 -2.7766
-8 -6 -7 0.1212 2.6303
-8 -6 -6 0.0640 5.6234
-8 -6 -5 2.3034 -1.2947
-8 -6 -4 2.7339 -3.2144
-8 -6 -3 2.6266 -1.7397
-8 -6 -2 7.1393 -3.0496
-8 -6 -1 6.5715 -2.2810
-8 -6 0 1.1107 2.1413
-8 -5 -9 -0.9606 -2.0381
-8 -5 -8 -2.8824 -1.3779
-8 -5 -7 -1.9807 -2.9686
-8 -5 -6 2.2683 1.5935
-8 -5 -5 2.2043 3.0326
-8 -5 -4 -0.8806 -0.0236
-8 -5 -3 -0.7978 -1.2491
-8 -5 -2 5.5344 0.0765
-8 -5 -1 1.5947 -1.2543
-8 -5 0 2.4270 -5.9847
-8 -4 -9 -3.5069 -3.2207
-8 -4 -8 -4.9727 0.9904
-8 -4 -7 -6.2852 4.0174
-8 -4 -6 -5.9458 1.2396
-8 -4 -5 -0.7499 -0.3286
-8 -4 -4 5.0067 -1.8938
-8 -4 -3 1.2963 -0.0529
-8 -4 -2 1.0864 -1.7530
-8 -4 -1 2.4621 -2.9025
-8 -4 0 3.4039 2.4823
-8 -3 -9 -0.8795 -0.8326
-8 -3 -8 -3.5816 1.4244
-8 -3 -7 -0.3589 4.9879
-8 -3 -6 2.4392 3.4366
-8 -3 -5 3.8543 1.4101
-8 -3 -4 2.0829 1.5077
-8 -3 -3 -3.7440 -0.1350
-8 -3 -2 -4.4952 2.6899
-8 -3 -1 0.8441 -2.2840
-8 -3 0 -0.5223 1.8523
-8 -2 -9 -2.4812 -3.5542
-8 -2 -8 -3.9520 -1.6833
-8 -2 -7 0.9257 1.9029
-8 -2 -6 3.6771 5.3338
-8 -2 -5 -0.5514 -0.7573
-8 -2 -4 1.1292 -3.2439
-8 -2 -3 4.5553 0.2192
-8 -2 -2 3.4503 9.0833
-8 -2 -1 1.8001 4.4115
-8 -2 0 -0.0588 -0.8357
-8 -1 -9 -1.4605 0.8467
-8 -1 -8 -7.9525 4.4864
-8 -1 -7 -8.7512 3.8163
-8 -1 -6 -0.2284 -0.2031
-8 -1 -5 4.4298 0.5023
-8 -1 -4 -1.2521 0.6922
-8 -1 -3 -1.9364 -1.8054
-8 -1 -2 0.4728 -0.1694
-8 -1 -1 0.2911 3.0768
-8 -1 0 -4.6493 0.7010
-8 0 1 -4.6933 1.4379
-8 0 3 -0.8174 -0.7979
-8 0 4 1.2600 0.3008
-8 0 5 -0.8424 0.3308
-8 0 6 3.3389 -0.6942
-8 0 7 4.7600 0.1408
-8 0 8 -1.5050 0.6047
-8 0 9 2.1268 -0.4934
-8 0 10 0.6742 -0.2123
-8 0 11 1.5931 0.5622
-8 0 12 1.9153 -0.2418
-8 0 13 0.5342 -0.3451
-8 0 14 -2.1888 0.4176
-8 0 15 0.0790 0.0137
-8 0 16 1.3227 -0.3784
-8 1 1 1.1831 1.9642
-8 1 2 -0.9620 3.1639
-8 1 3 -4.9055 4.5079
-8 1 4 -3.5154 2.1126
-8 1 5 -1.9160 0.5227
-8 1 6 -3.5097 -0.7703
-8 1 7 -0.5147 -2.6184
-8 1 8 0.2373 -0.9123
-8 1 9 1.3428 -1.2004
-8 1 10 1.1917 -2.5365
-8 1 11 -4.3359 -2.7589
-8 1 12 -4.6029 -1.0539
-8 1 13 -7.0220 -1.7120
-8 1 14 -8.9695 -1.2591
-8 1 15 -5.8774 -0.5273
-8 1 16 1.2134 -1.6655
-8 2 1 -0.6939 -0.9207
-8 2 2 -1.8831 -3.2336
-8 2 3 -1.2149 -1.0345
-8 2 4 -0.5651 4.0886
-8 2 5 -1.0559 4.0328
-8 2 6 -0.8322 2.2006
-8 2 7 -4.3175 2.9443
-8 2 8 -1.6149 3.0172
-8 2 9 -1.9418 2.4582
-8 2 10 3.7979 1.9725
-8 2 11 2.7291 4.8700
-8 2 12 3.7704 1.7485
-8 2 13 3.8069 0.6821
-8 2 14 1.0676 1.8225
-8 2 15 -1.8244 5.4364
-8 3 1 3.7957 1.4331
-8 3 2 7.1363 1.8328
-8 3 3 1.2311 -0.8765
-8 3 4 0.6249 -1.8298
-8 3 5 0.3439 0.5780
-8 3 6 2.7685 2.2322
-8 3 7 1.0748 -2.1362
-8 3 8 -0.5717 0.6822
-8 3 9 -0.0518 2.8752
-8 3 10 -0.1102 -1.6075
-8 3 11 1.3895 -5.5485
-8 3 12 -4.0299 -1.9888
-8 3 13 -2.6430 -2.4408
-8 3 14 0.4339 -2.5686
-8 3 15 1.6178 -1.7203
-8 4 1 -0.9405 -0.4929
-8 4 2 -4.5919 -2.2878
-8 4 3 -1.6640 -4.8041
-8 4 4 -0.0492 -4.4760
-8 4 5 1.3460 -5.4154
-8 4 6 2.0136 2.4492
-8 4 7 3.0608 -2.2376
-8 4 8 0.0040 -3.6068
-8 4 9 2.8763 -2.1210
-8 4 10 4.0960 0.4655
-8 4 11 -2.0626 -5.7445
-8 4 12 -7.2863 -1.1337
-8 4 13 -7.1571 2.4577
-8 4 14 -2.6990 0.9969
-8 4 15 -3.0704 -4.5013
-8 5 1 -2.8066 -10.6533
-8 5 2 -6.6374 -0.7530
-8 5 3 -2.8984 -2.3034
-8 5 4 -2.3443 3.3180
-8 5 5 -3.2121 1.3263
-8 5 6 -3.9364 3.6224
-8 5 7 2.4202 3.1546
-8 5 8 0.0108 -2.0486
-8 5 9 -2.1457 -1.3131
-8 5 10 0.6038 0.2264
-8 5 11 5.5560 -1.5928
-8 5 12 2.7618 -1.7490
-8 5 13 -2.1538 4.1390
-8 5 14 -1.3770 3.9549
-8 5 15 -0.2633 2.8255
-8 6 1 -4.0394 -11.1394
-8 6 2 -1.6203 -9.2974
-8 6 3 -1.6411 -1.9378
-8 6 4 -4.6175 -0.8574
-8 6 5 -1.3384 2.8907
-8 6 6 -1.9982 -0.0405
-8 6 7 2.9356 2.1910
-8 6 8 0.7463 0.9692
-8 6 9 0.7580 0.6584
-8 6 10 -0.0345 4.0114
-8 6 11 -1.4123 1.7488
-8 6 12 -3.4954 -4.3261
-8 6 13 -0.6824 -2.5137
-8 6 14 1.1593 -0.0560
-8 6 15 4.6841 -2.5824
-8 7 1 0.8547 5.5362
-8 7 2 -2.2144 2.4012
-8 7 3 6.6068 2.0598
-8 7 4 4.8513 -1.8722
-8 7 5 5.5941 0.5219
-8 7 6 -0.1538 2.0422
-8 7 7 0.4746 1.0326
-8 7 8 5.1467 -0.7164
-8 7 9 4.4293 -0.8041
-8 7 10 4.4028 -3.6861
-8 7 11 4.9899 -0.9015
-8 7 12 2.4554 1.9422
-8 7 13 3.1597 0.8261
-8 7 14 3.6627 1.5970
-8 8 1 4.6695 0.5508
-8 8 2 5.1083 4.3211
-8 8 3 4.3831 3.8872
-8 8 4 1.4664 -0.4331
-8 8 5 -4.4050 -2.0097
-8 8 6 -1.8620 0.7785
-8 8 7 0.7916 5.1916
-8 8 8 3.3688 0.1246
-8 8 9 2.6662 -1.2466
-8 8 10 0.3217 1.7891
-8 8 11 1.2438 1.2407
-8 8 12 2.0113 -0.1986
-8 8 13 -0.5436 -1.5542
-8 8 14 -0.9459 -4.0479
-8 9 1 0.0138 4.5373
-8 9 2 0.4238 1.0377
-8 9 3 1.5964 2.3284
-8 9 4 1.6852 0.1671
-8 9 5 -1.1281 -0.0970
-8 9 6 -1.0856 -1.2162
-8 9 7 0.2247 2.6878
-8 9 8 0.9727 3.8017
-8 9 9 -2.0306 1.4638
-8 9 10 -0.8675 0.8410
-8 9 11 0.8888 2.8010
-8 9 12 0.2533 0.0446
-8 9 13 1.0501 0.4303
-8 9 14 0.6486 1.7188
-8 10 1 6.8647 4.2997
-8 10 2 8.6008 3.9989
-8 10 3 4.3707 2.0457
-8 10 4 2.5403 1.0098
-8 10 5 -0.4555 0.8002
-8 10 6 -2.0635 -1.3768
-8 10 7 -1.5392 -1.8652
-8 10 8 0.6203 -1.9952
-8 10 9 1.6475 0.4079
-8 10 10 -0.6067 1.3613
-8 10 11 0.7807 -0.7721
-8 10 12 -0.1838 -0.3736
-8 10 13 -2.3408 0.1411
-8 11 1 -4.0558 5.1059
-8 11 2 1.0621 1.7835
-8 11 3 -0.4777 -1.4835
-8 11 4 -2.1792 -3.1140
-8 11 5 -1.0871 -0.4162
-8 11 6 -1.5165 0.4130
-8 11 7 -1.1734 -0.5917
-8 11 8 0.6439 0.7414
-8 11 9 -0.4436 0.2753
-8 11 10 1.2180 2.0339
-8 11 11 1.7441 -0.8996
-8 11 12 2.0006 -3.8566
-8 12 1 -3.3685 0.6967
-8 12 2 -2.3621 -0.8164
-8 12 3 -2.0049 -3.5589
-8 12 4 -2.8196 -2.6580
-8 12 5 -1.4321 -0.0308
-8 12 6 0.7005 0.6237
-8 12 7 -3.7631 1.2973
-8 12 8 -0.7269 1.9117
-8 12 9 2.5554 2.0721
-8 12 10 0.5203 1.5901
-8 12 11 0.6412 2.6247
-8 12 12 0.0453 0.9615
-8 13 1 -0.4077 0.6732
-8 13 2 -2.8855 -0.2829
-8 13 3 -3.0620 1.0322
-8 13 4 -2.8518 -0.2709
-8 13 5 -0.7305 -1.7739
-8 13 6 4.4811 -5.5105
-8 13 7 4.3547 -5.5626
-8 13 8 -0.6030 0.5998
-8 13 9 1.7234 -0.2030
-8 13 10 1.3785 -0.7478
-8 13 11 -0.3536 1.0335
-8 14 1 4.0567 -2.4894
-8 14 2 1.3857 -2.8921
-8 14 3 -0.7219 -2.1768
-8 14 4 0.2942 0.4650
-8 14 5 1.6785 1.0495
-8 14 6 3.6426 4.3573
-8 14 7 2.8119 1.8473
-8 14 8 0.1944 2.7247
-8 14 9 -0.9392 3.4642
-8 15 1 0.4432 -1.7243
-8 15 2 1.4412 -2.1104
-8 15 3 -2.0011 -1.7118
-8 15 4 -1.0288 1.2346
-8 15 5 -1.0407 2.1295
-8 15 6 -2.0937 1.8973
-8 15 7 -1.6542 2.4380
-8 15 8 -1.3735 -0.5548
-8 16 2 0.6269 0.7923
-8 16 3 2.4005 0.1348
-8 16 4 1.8824 0.7342
-8 16 5 2.4859 0.7735
-8 16 6 0.3394 -1.0044
-7 -17 -1 0.7404 0.0782
-7 -17 0 0.7788 -0.3867
-7 -16 -3 -1.3974 0.0981
-7 -16 -2 -0.7510 -0.2425
-7 -16 -1 -1.1640 -1.2141
-7 -16 0 -3.3462 -3.4075
-7 -15 -4 -0.6825 1.1788
-7 -15 -3 -0.5751 1.7969
-7 -15 -2 -0.1953 0.0072
-7 -15 -1 1.9812 -2.4452
-7 -15 0 1.3185 -1.7357
-7 -14 -5 -2.7239 2.2871
-7 -14 -4 -0.1012 4.5147
-7 -14 -3 4.5927 2.6323
-7 -14 -2 5.0452 2.7187
-7 -14 -1 2.0675 4.6027
-7 -14 0 0.1428 3.0406
-7 -13 -6 1.1027 -0.4095
-7 -13 -5 -0.0260 0.4571
-7 -13 -4 -1.4326 4.6807
-7 -13 -3 0.4109 4.2486
-7 -13 -2 -1.1403 -2.5954
-7 -13 -1 -1.2227 -0.6127
-7 -13 0 -2.4440 -0.5715
-7 -12 -7 -0.8277 -0.8736
-7 -12 -6 -1.9817 3.3046
-7 -12 -5 -1.7534 0.4665
-7 -12 -4 -3.0481 1.1338
-7 -12 -3 0.2671 5.0992
-7 -12 -2 1.3918 2.7409
-7 -12 -1 -1.1624 -2.3228
-7 -12 0 0.0886 0.7909
-7 -11 -8 -0.3854 0.9646
-7 -11 -7 -0.3263 -0.9035
-7 -11 -6 3.0469 2.7450
-7 -11 -5 5.2006 4.1395
-7 -11 -4 3.8095 -0.2647
-7 -11 -3 -0.1488 -0.2033
-7 -11 -2 2.4906 0.2699
-7 -11 -1 1.2408 -0.5817
-7 -11 0 2.9721 1.1175
-7 -10 -8 1.4067 1.7703
-7 -10 -7 0.8801 2.3199
-7 -10 -6 -0.9788 -1.2472
-7 -10 -5 1.1434 0.5757
-7 -10 -4 2.3196 -0.9784
-7 -10 -3 2.5205 -3.4247
-7 -10 -2 -0.7172 -1.2741
-7 -10 -1 -1.0372 1.4268
-7 -10 0 -1.9325 1.6916
-7 -9 -9 -1.1610 0.7189
-7 -9 -8 -0.7030 1.1462
-7 -9 -7 2.8871 0.9899
-7 -9 -6 1.3476 -1.4508
-7 -9 -5 2.4569 -1.7036
-7 -9 -4 6.7896 2.2020
-7 -9 -3 10.4276 0.7789
-7 -9 -2 7.1705 -2.4233
-7 -9 -1 -0.0190 -0.2578
-7 -9 0 -4.1947 1.2194
-7 -8 -9 -1.6083 -0.7067
-7 -8 -8 -2.5133 0.1129
-7 -8 -7 -0.2670 1.1471
-7 -8 -6 0.4430 0.4081
-7 -8 -5 -2.4070 0.1449
-7 -8 -4 -2.2922 0.3836
-7 -8 -3 -1.3056 3.8690
-7 -8 -2 -2.0282 -1.5008
-7 -8 -1 0.4617 -5.2999
-7 -8 0 0.0538 -0.4405
-7 -7 -10 1.3096 -2.2423
-7 -7 -9 0.2150 -1.0636
-7 -7 -8 -2.4339 0.8162
-7 -7 -7 -1.4683 2.4063
-7 -7 -6 2.4009 1.5111
-7 -7 -5 2.3762 3.2614
-7 -7 -4 -1.4890 3.4073
-7 -7 -3 -1.1048 3.7572
-7 -7 -2 2.3951 4.1552
-7 -7 -1 0.3526 1.4245
-7 -7 0 -3.4510 -2.1670
-7 -6 -10 0.5055 -1.1883
-7 -6 -9 -0.0293 -2.9716
-7 -6 -8 0.3094 -1.8023
-7 -6 -7 0.3209 -0.7954
-7 -6 -6 0.1988 -0.6598
-7 -6 -5 0.7165 -1.3532
-7 -6 -4 0.9022 -1.6129
-7 -6 -3 1.3617 -1.5791
-7 -6 -2 2.9460 -6.4257
-7 -6 -1 4.8959 -4.5328
-7 -6 0 1.0528 -3.8671
-7 -5 -10 0.6470 -3.1061
-7 -5 -9 -1.2131 -3.0935
-7 -5 -8 -1.1524 -0.8616
-7 -5 -7 0.9712 0.1428
-7 -5 -6 -1.2263 2.3964
-7 -5 -5 -2.6643 6.7705
-7 -5 -4 -0.5682 3.3134
-7 -5 -3 1.2831 -1.5069
-7 -5 -2 1.6551 -3.6258
-7 -5 -1 -3.3877 -4.4296
-7 -5 0 5.0466 -15.2570
-7 -4 -10 -0.9296 -1.6511
-7 -4 -9 -4.1333 -2.0440
-7 -4 -8 -4.1866 1.3387
-7 -4 -7 -1.8517 1.3727
-7 -4 -6 -2.4428 -4.1579
-7 -4 -5 -2.9474 -2.0667
-7 -4 -4 3.5805 1.2153
-7 -4 -3 -0.3026 0.9101
-7 -4 -2 0.9280 -6.7220
-7 -4 -1 4.7074 -2.6686
-7 -4 0 7.4911 6.1514
-7 -3 -11 0.7094 -0.0411
-7 -3 -10 4.0536 -1.0184
-7 -3 -9 2.5667 1.6349
-7 -3 -8 4.9597 3.3727
-7 -3 -7 7.6714 5.4003
-7 -3 -6 6.4006 0.7308
-7 -3 -5 -4.5857 0.3110
-7 -3 -4 -5.8690 -0.7928
-7 -3 -3 0.6983 -0.5581
-7 -3 -2 3.9049 3.8337
-7 -3 -1 -3.5351 -1.0657
-7 -3 0 -5.1797 0.7782
-7 -2 -11 -1.9156 2.1168
-7 -2 -10 -1.6272 -1.5972
-7 -2 -9 -1.8985 -2.9677
-7 -2 -8 -1.3293 -1.2817
-7 -2 -7 1.1672 -0.0358
-7 -2 -6 2.2444 0.2241
-7 -2 -5 1.8147 -1.0546
-7 -2 -4 2.1185 4.0109
-7 -2 -3 -0.1271 2.0244
-7 -2 -2 2.7410 0.9341
-7 -2 -1 6.0068 -0.0482
-7 -2 0 4.8121 3.9056
-7 -1 -11 1.2767 -0.3393
-7 -1 -10 2.2291 2.2859
-7 -1 -9 -1.0987 0.8781
-7 -1 -8 -3.1139 2.5465
-7 -1 -7 -3.5215 -0.9693
-7 -1 -6 2.2646 -1.6359
-7 -1 -5 2.8975 -3.5996
-7 -1 -4 5.0539 -2.9080
-7 -1 -3 2.7315 -4.0433
-7 -1 -2 -2.1927 0.9881
-7 -1 -1 -6.8547 2.0577
-7 -1 0 -3.1508 1.3308
-7 0 1 0.6978 2.0526
-7 0 2 -3.5670 0.3952
-7 0 3 -5.6197 -0.8376
-7 0 4 0.4845 0.4193
-7 0 5 -0.1688 0.3837
-7 0 6 -3.0113 -0.8188
-7 0 7 -1.7343 0.1086
-7 0 8 -6.1952 0.7239
-7 0 9 1.1132 -0.4811
-7 0 10 0.2765 -0.2513
-7 0 11 -0.1061 0.6021
-7 0 12 0.8545 -0.2000
-7 0 13 -1.1795 -0.3964
-7 0 14 -4.1026 0.4259
-7 0 15 -0.6315 0.0445
-7 0 16 -0.6535 -0.5730
-7 1 1 2.1786 -2.4191
-7 1 2 1.7630 -1.6670
-7 1 3 -3.8043 -3.5449
-7 1 4 -5.1419 -4.4611
-7 1 5 1.4284 -7.1694
-7 1 6 -1.6188 -4.6895
-7 1 7 3.4235 0.5166
-7 1 8 3.1198 5.1615
-7 1 9 -0.6349 2.5225
-7 1 10 -3.9507 -1.0734
-7 1 11 -6.3907 0.3864
-7 1 12 -2.9572 2.4754
-7 1 13 -2.8506 -0.3023
-7 1 14 -5.1662 -1.2094
-7 1 15 -0.6093 0.4481
-7 1 16 4.6252 -0.4634
-7 2 1 2.1437 -5.5974
-7 2 2 5.5379 -0.2722
-7 2 3 8.2032 6.3904
-7 2 4 5.0319 2.5490
-7 2 5 1.0187 1.1755
-7 2 6 -0.5359 0.9147
-7 2 7 -2.1572 3.7599
-7 2 8 5.5747 1.8988
-7 2 9 1.7857 1.0497
-7 2 10 2.6568 0.1397
-7 2 11 -1.2308 3.2752
-7 2 12 0.2508 3.1345
-7 2 13 2.7001 3.6408
-7 2 14 2.0647 3.8078
-7 2 15 -1.2670 6.1508
-7 2 16 0.2529 4.7516
-7 3 1 0.3738 2.5263
-7 3 2 -3.0760 1.0942
-7 3 3 0.4612 3.6516
-7 3 4 6.5868 0.5323
-7 3 5 4.9091 -2.0279
-7 3 6 4.6866 -0.8172
-7 3 7 -0.9078 -1.5882
-7 3 8 1.1994 -2.5107
-7 3 9 3.4736 -0.1827
-7 3 10 1.3518 -1.7959
-7 3 11 -0.6689 -3.3943
-7 3 12 -4.7861 -0.8371
-7 3 13 -1.3563 0.5874
-7 3 14 1.7635 -0.3233
-7 3 15 -1.2161 -0.5088
-7 3 16 -3.8272 -0.4691
-7 4 1 -1.4923 1.3340
-7 4 2 -6.1219 -0.9379
-7 4 3 -6.2254 -4.7331
-7 4 4 3.5279 2.8546
-7 4 5 3.0786 0.6107
-7 4 6 1.3771 0.0525
-7 4 7 -0.1663 -4.4343
-7 4 8 -1.9145 -1.2164
-7 4 9 0.8529 -3.5467
-7 4 10 1.4784 -0.5771
-7 4 11 -0.6351 -4.0028
-7 4 12 -0.8361 0.7229
-7 4 13 -1.4109 1.3596
-7 4 14 -0.9181 -0.8591
-7 4 15 -1.2663 -4.2161
-7 4 16 1.2829 -1.1228
-7 5 1 -5.9350 -16.8433
-7 5 2 -2.2658 -2.6040
-7 5 3 -2.7702 -5.5060
-7 5 4 -4.0660 2.7039
-7 5 5 2.0245 3.2579
-7 5 6 1.3206 5.6838
-7 5 7 -1.3375 1.5382
-7 5 8 -4.5067 -0.7324
-7 5 9 -3.4733 -2.6434
-7 5 10 0.6257 -0.8776
-7 5 11 1.9734 0.3328
-7 5 12 -0.1806 0.8873
-7 5 13 -3.2531 2.8948
-7 5 14 -0.0036 2.2309
-7 5 15 -2.0589 3.1290
-7 6 1 -7.8488 -4.4351
-7 6 2 0.0717 6.3891
-7 6 3 2.6097 9.9544
-7 6 4 -3.4361 7.8462
-7 6 5 -0.4293 4.1986
-7 6 6 1.8890 -0.0366
-7 6 7 5.5762 1.8615
-7 6 8 0.1598 3.4179
-7 6 9 0.4951 0.8889
-7 6 10 -0.4340 0.0853
-7 6 11 0.7699 -0.6890
-7 6 12 -0.2203 -1.8227
-7 6 13 0.1472 2.4079
-7 6 14 -0.1437 0.6275
-7 6 15 2.3369 -4.3363
-7 7 1 -0.6475 3.7433
-7 7 2 -6.0384 2.5573
-7 7 3 7.9481 0.8839
-7 7 4 3.0589 -4.7948
-7 7 5 0.8959 -1.3334
-7 7 6 -4.8004 0.4626
-7 7 7 3.2442 -2.3816
-7 7 8 8.4362 -2.4670
-7 7 9 5.5989 -0.1122
-7 7 10 0.9529 0.5950
-7 7 11 2.5990 3.2897
-7 7 12 2.5023 0.8343
-7 7 13 1.2253 -2.7163
-7 7 14 -1.4635 3.3638
-7 7 15 -2.6589 0.0393
-7 8 1 2.2927 -4.0171
-7 8 2 -2.2361 4.2305
-7 8 3 2.8226 4.2819
-7 8 4 0.9551 0.8409
-7 8 5 -2.5330 -0.3109
-7 8 6 -0.4000 2.2831
-7 8 7 1.5592 3.2661
-7 8 8 0.9090 -3.4948
-7 8 9 -0.7242 -2.9797
-7 8 10 -4.1419 0.3045
-7 8 11 -3.5520 1.8434
-7 8 12 -1.0301 -1.1650
-7 8 13 -3.7346 -6.2408
-7 8 14 -1.6516 -3.4332
-7 8 15 1.4578 4.3649
-7 9 1 0.9033 -1.1181
-7 9 2 -2.9618 -3.0157
-7 9 3 -0.4656 1.8068
-7 9 4 4.9439 -3.2047
-7 9 5 3.6262 -3.0163
-7 9 6 0.5667 -4.9256
-7 9 7 -1.4698 -0.5787
-7 9 8 -1.6667 0.4065
-7 9 9 -1.9354 1.4870
-7 9 10 0.7810 -0.3566
-7 9 11 0.1548 0.5119
-7 9 12 -0.2494 2.4448
-7 9 13 0.4622 3.7572
-7 9 14 -0.8710 2.1812
-7 10 1 5.0895 1.2598
-7 10 2 2.3475 1.0623
-7 10 3 -2.5232 3.0711
-7 10 4 -2.8641 2.5438
-7 10 5 -0.1323 3.0308
-7 10 6 0.5723 0.6961
-7 10 7 -0.3863 1.6482
-7 10 8 0.1089 -0.3213
-7 10 9 1.8624 1.6807
-7 10 10 2.0848 2.8839
-7 10 11 1.7267 -1.7852
-7 10 12 -0.6203 -0.7960
-7 10 13 -1.2586 1.5054
-7 10 14 -0.2274 1.8913
-7 11 1 -4.8723 3.6247
-7 11 2 -1.2552 0.5135
-7 11 3 -3.4318 0.0889
-7 11 4 -5.3442 1.1427
-7 11 5 -2.2616 4.1206
-7 11 6 0.4556 1.4929
-7 11 7 0.3119 0.2909
-7 11 8 0.5278 3.8223
-7 11 9 -1.0466 0.3922
-7 11 10 2.1194 2.2341
-7 11 11 3.5626 1.1785
-7 11 12 3.1715 -1.3610
-7 11 13 1.4144 -0.5217
-7 12 1 -2.8053 -1.9225
-7 12 2 -3.5027 -4.1017
-7 12 3 -0.4737 -3.7974
-7 12 4 -1.4022 -2.2669
-7 12 5 -3.0378 -0.6616
-7 12 6 1.0086 -2.0121
-7 12 7 -1.4358 -3.6686
-7 12 8 3.3859 -0.0465
-7 12 9 3.6499 1.0745
-7 12 10 -1.5546 -1.8511
-7 12 11 -1.7300 0.5858
-7 12 12 -0.9138 0.3401
-7 13 1 2.8174 -1.8453
-7 13 2 -0.5134 -0.5065
-7 13 3 -2.8771 2.2268
-7 13 4 0.5870 -0.0998
-7 13 5 1.2345 -0.5914
-7 13 6 5.6614 -1.5035
-7 13 7 4.5705 -1.8485
-7 13 8 -2.1881 0.6417
-7 13 9 1.1304 0.9802
-7 13 10 -0.0847 1.2419
-7 13 11 -1.3398 2.1918
-7 13 12 -2.0489 2.6349
-7 14 1 -0.0098 -3.1790
-7 14 2 -0.7807 -3.8759
-7 14 3 -2.2678 -1.7094
-7 14 4 0.2388 0.8562
-7 14 5 0.7575 1.7589
-7 14 6 -1.6664 5.8019
-7 14 7 -2.4125 0.7491
-7 14 8 -3.7232 -0.0117
-7 14 9 -2.0258 1.0306
-7 14 10 1.7894 -0.1287
-7 14 11 1.5111 -0.6471
-7 15 1 -0.2403 0.2883
-7 15 2 0.4427 1.7738
-7 15 3 -1.0495 1.4119
-7 15 4 -0.3406 1.5556
-7 15 5 -1.3076 -0.8919
-7 15 6 -0.8567 1.0706
-7 15 7 0.0915 3.6823
-7 15 8 -1.4600 0.6662
-7 15 9 -2.2118 1.1248
-7 15 10 -2.9408 -0.7972
-7 16 2 0.2595 0.8201
-7 16 3 2.9985 0.5860
-7 16 4 3.1921 -0.5175
-7 16 5 1.1054 -1.2329
-7 16 6 -2.3311 -0.7945
-7 16 7 1.0210 2.1768
-7 16 8 0.6971 2.6798
-7 17 3 0.0900 -0.4164
-7 17 4 0.8531 -0.3466
-7 17 5 1.2345 -0.6738
-7 17 6 -2.1272 0.0765
-6 -18 -1 0.9668 -0.1071
-6 -18 0 -0.2404 0.7763
-6 -17 -3 0.0625 3.5510
-6 -17 -2 1.1424 2.7825
-6 -17 -1 0.8751 -0.6597
-6 -17 0 -0.3979 -1.4845
-6 -16 -5 0.1064 0.8502
-6 -16 -4 -3.4696 0.3152
-6 -16 -3 -3.3599 0.6056
-6 -16 -2 0.3541 -0.0254
-6 -16 -1 -0.2433 -2.5549
-6 -16 0 -2.9236 -2.1455
-6 -15 -6 -3.5591 0.0312
-6 -15 -5 -1.5601 0.9909
-6 -15 -4 1.4596 1.3736
-6 -15 -3 0.7469 1.0640
-6 -15 -2 -0.3440 1.0244
-6 -15 -1 1.1964 -0.5219
-6 -15 0 -2.4075 2.2366
-6 -14 -7 -0.3364 -1.7835
-6 -14 -6 -1.4190 -0.6104
-6 -14 -5 -3.6770 1.8395
-6 -14 -4 -0.0853 0.1102
-6 -14 -3 3.1007 -5.1691
-6 -14 -2 0.7821 -1.6920
-6 -14 -1 -0.5492 0.9702
-6 -14 0 -3.0502 -0.9330
-6 -13 -8 1.2896 -0.9617
-6 -13 -7 -0.7143 -0.0265
-6 -13 -6 -0.6675 -1.5199
-6 -13 -5 -0.2729 0.4720
-6 -13 -4 -0.0339 1.6343
-6 -13 -3 0.1180 -1.0959
-6 -13 -2 -3.6259 -6.7642
-6 -13 -1 -4.4931 -2.4202
-6 -13 0 -5.4720 -2.3933
-6 -12 -8 -0.6126 -1.5469
-6 -12 -7 1.5697 -0.8929
-6 -12 -6 1.0789 -0.8566
-6 -12 -5 3.1878 -2.6275
-6 -12 -4 3.0496 0.2601
-6 -12 -3 5.2246 1.7934
-6 -12 -2 2.2449 -2.0925
-6 -12 -1 -0.2813 -4.2577
-6 -12 0 0.1181 1.8832
-6 -11 -9 0.5687 -1.2146
-6 -11 -8 1.6767 1.5683
-6 -11 -7 3.4014 0.4213
-6 -11 -6 3.4181 1.4892
-6 -11 -5 -1.9574 -0.0160
-6 -11 -4 -1.8314 0.8539
-6 -11 -3 -1.1872 1.4943
-6 -11 -2 2.0669 0.8149
-6 -11 -1 -0.6021 1.0082
-6 -11 0 0.7405 0.4681
-6 -10 -9 -1.0682 -1.7216
-6 -10 -8 0.0069 -0.5199
-6 -10 -7 0.9969 -1.8042
-6 -10 -6 2.8010 -4.3977
-6 -10 -5 0.9500 0.1555
-6 -10 -4 1.1004 1.2743
-6 -10 -3 5.1669 1.8498
-6 -10 -2 0.1546 0.4919
-6 -10 -1 -1.5980 2.6224
-6 -10 0 -1.2435 3.9251
-6 -9 -10 0.1281 -1.1710
-6 -9 -9 0.4445 -1.0997
-6 -9 -8 0.4473 -0.9077
-6 -9 -7 2.0035 -2.0926
-6 -9 -6 1.2062 -5.8767
-6 -9 -5 5.1311 -4.6274
-6 -9 -4 4.1850 0.3457
-6 -9 -3 7.0459 -1.9953
-6 -9 -2 2.2224 -5.0225
-6 -9 -1 -5.3180 -7.3456
-6 -9 0 -0.0046 -3.3463
-6 -8 -10 1.1040 0.0600
-6 -8 -9 -1.3521 -1.5086
-6 -8 -8 -2.5718 -1.3605
-6 -8 -7 -3.0201 0.7835
-6 -8 -6 -4.4971 1.1662
-6 -8 -5 -2.1282 -1.7109
-6 -8 -4 -0.4284 0.0295
-6 -8 -3 1.8255 0.6842
-6 -8 -2 7.2008 -4.0764
-6 -8 -1 5.2917 -0.7097
-6 -8 0 -6.8890 4.5507
-6 -7 -11 -0.1570 -0.1094
-6 -7 -10 2.8921 -0.2113
-6 -7 -9 1.1734 0.6864
-6 -7 -8 -2.0254 -0.1022
-6 -7 -7 -0.5387 -0.0381
-6 -7 -6 -0.6247 1.9926
-6 -7 -5 -2.0362 0.6735
-6 -7 -4 -3.9925 -2.7975
-6 -7 -3 -4.1102 1.0783
-6 -7 -2 -1.4933 -1.7673
-6 -7 -1 2.3044 -5.1629
-6 -7 0 -0.2179 -1.0390
-6 -6 -11 -0.9243 -0.0605
-6 -6 -10 -0.5763 0.0227
-6 -6 -9 1.0896 -3.4304
-6 -6 -8 -1.4355 -1.6295
-6 -6 -7 -1.3543 -3.1050
-6 -6 -6 -0.8048 0.1334
-6 -6 -5 0.3418 4.3559
-6 -6 -4 0.0134 -1.5319
-6 -6 -3 0.4135 2.3076
-6 -6 -2 -1.6658 5.2345
-6 -6 -1 -1.8436 2.8043
-6 -6 0 -1.3637 -6.8771
-6 -5 -11 1.1344 -1.8157
-6 -5 -10 -0.2560 0.1529
-6 -5 -9 -1.4761 0.0181
-6 -5 -8 -2.0358 3.0379
-6 -5 -7 -1.6313 6.3348
-6 -5 -6 -0.9916 4.1761
-6 -5 -5 5.3491 8.8924
-6 -5 -4 7.4598 2.0350
-6 -5 -3 1.3112 -4.0497
-6 -5 -2 1.9921 2.3084
-6 -5 -1 3.2245 7.0676
-6 -5 0 5.8235 -3.8772
-6 -4 -11 1.8113 0.9214
-6 -4 -10 -0.7504 -2.1199
-6 -4 -9 -0.2689 -3.5011
-6 -4 -8 0.3116 -4.4285
-6 -4 -7 3.6303 -0.8256
-6 -4 -6 -0.1555 -1.9540
-6 -4 -5 -2.0026 1.9685
-6 -4 -4 1.8630 1.9897
-6 -4 -3 -5.9314 -2.0760
-6 -4 -2 -4.3733 -5.3671
-6 -4 -1 5.8110 -0.8320
-6 -4 0 2.6296 -1.4570
-6 -3 -12 -1.0034 0.2873
-6 -3 -11 0.4738 0.6883
-6 -3 -10 2.5433 0.1451
-6 -3 -9 0.7913 1.5589
-6 -3 -8 0.2356 -0.6906
-6 -3 -7 -1.2311 0.4076
-6 -3 -6 0.7017 -1.9651
-6 -3 -5 -1.2461 -1.2791
-6 -3 -4 4.5514 0.1579
-6 -3 -3 3.9650 2.4831
-6 -3 -2 -2.8651 5.2421
-6 -3 -1 0.0361 -1.3837
-6 -3 0 8.5327 -2.5475
-6 -2 -12 -0.6170 -0.2855
-6 -2 -11 -2.8997 1.2980
-6 -2 -10 -1.1490 -5.2804
-6 -2 -9 0.4159 -5.2816
-6 -2 -8 -0.3133 -5.4946
-6 -2 -7 0.1420 0.8316
-6 -2 -6 2.7711 3.6358
-6 -2 -5 0.4614 1.8004
-6 -2 -4 -1.6834 -1.7002
-6 -2 -3 -3.9198 -0.3959
-6 -2 -2 -2.0344 5.8758
-6 -2 -1 0.9946 12.8485
-6 -2 0 10.7066 -0.0940
-6 -1 -12 2.6715 -0.8543
-6 -1 -11 4.2298 0.6727
-6 -1 -10 3.1703 -0.3393
-6 -1 -9 -1.5869 -4.6401
-6 -1 -8 -3.5803 -1.0209
-6 -1 -7 -3.6738 -1.9472
-6 -1 -6 5.6523 -1.5998
-6 -1 -5 5.1907 -3.2319
-6 -1 -4 1.0870 -0.3376
-6 -1 -3 -2.8106 0.6858
-6 -1 -2 -1.1392 5.3852
-6 -1 -1 -2.2171 6.4306
-6 -1 0 -0.6526 0.3166
-6 0 1 -3.0569 0.9511
-6 0 3 6.8525 -0.7818
-6 0 4 2.6549 0.3703
-6 0 5 1.5474 0.5399
-6 0 6 2.7418 -0.8881
-6 0 7 0.3075 -0.0064
-6 0 8 -3.6686 0.7752
-6 0 9 0.7379 -0.4810
-6 0 10 -0.9233 -0.3136
-6 0 11 -0.5527 0.6369
-6 0 12 3.5770 -0.1457
-6 0 13 1.6463 -0.4382
-6 0 14 -3.4985 0.4328
-6 0 15 -1.1411 0.0748
-6 0 16 -0.6469 -0.5284
-6 1 1 -6.6867 -9.1191
-6 1 2 -17.1907 -2.2045
-6 1 3 -6.7861 -6.9580
-6 1 4 -5.4368 -6.6417
-6 1 5 -0.4386 -6.2776
-6 1 6 -1.0869 -4.9927
-6 1 7 4.5303 -3.5907
-6 1 8 1.9646 0.9409
-6 1 9 1.0553 -0.5322
-6 1 10 -0.3141 -2.2271
-6 1 11 -2.2813 0.6461
-6 1 12 -3.2154 1.9055
-6 1 13 -1.5702 -1.4681
-6 1 14 0.0025 0.2866
-6 1 15 5.0636 3.6408
-6 1 16 4.7840 2.6731
-6 2 1 11.2300 4.0404
-6 2 2 2.3411 12.5756
-6 2 3 -1.3078 8.6421
-6 2 4 0.4298 -6.0989
-6 2 5 -3.0608 -2.4152
-6 2 6 -0.7542 0.4880
-6 2 7 0.2391 -8.8541
-6 2 8 3.7588 -12.1885
-6 2 9 -0.3954 -4.5172
-6 2 10 2.5960 0.0383
-6 2 11 1.2312 -0.0777
-6 2 12 0.4596 -1.4651
-6 2 13 0.4898 -0.0686
-6 2 14 0.2426 2.2971
-6 2 15 0.1519 5.0473
-6 2 16 1.5795 2.7076
-6 3 1 -2.4513 1.8856
-6 3 2 0.6123 -4.5945
-6 3 3 2.9788 4.4034
-6 3 4 1.3614 0.5488
-6 3 5 -2.4136 -1.6990
-6 3 6 3.8871 2.1715
-6 3 7 3.5087 -0.9706
-6 3 8 2.5674 -7.8410
-6 3 9 -0.2094 0.0106
-6 3 10 -1.8000 2.5973
-6 3 11 0.4723 1.8958
-6 3 12 1.3330 0.0000
-6 3 13 0.5938 0.7096
-6 3 14 -2.1083 -2.0101
-6 3 15 -4.2423 -0.8727
-6 3 16 -2.1471 -2.5023
-6 4 1 -3.3153 8.4326
-6 4 2 -1.1115 3.9516
-6 4 3 1.6295 0.7370
-6 4 4 12.7854 11.9977
-6 4 5 6.0443 6.6680
-6 4 6 2.8440 4.8932
-6 4 7 4.0447 3.9410
-6 4 8 -1.0656 1.1373
-6 4 9 -4.0158 -7.5480
-6 4 10 -4.9746 -3.8432
-6 4 11 -2.8789 -0.9482
-6 4 12 2.0919 1.9241
-6 4 13 2.0870 1.3093
-6 4 14 -0.8056 0.7610
-6 4 15 -1.8315 2.0031
-6 4 16 1.4757 3.1142
-6 5 1 -2.2982 -8.7610
-6 5 2 4.6935 -1.1132
-6 5 3 -0.4004 0.1384
-6 5 4 0.3600 5.1651
-6 5 5 5.6755 0.8038
-6 5 6 2.4001 3.4889
-6 5 7 2.0088 1.7551
-6 5 8 5.4667 1.2424
-6 5 9 2.9954 -2.9565
-6 5 10 2.3696 -1.0859
-6 5 11 -2.4404 1.8594
-6 5 12 -2.7120 2.4264
-6 5 13 -3.4328 1.2266
-6 5 14 -0.4130 1.8255
-6 5 15 -5.1658 3.9277
-6 5 16 -3.4684 4.2157
-6 6 1 -6.1617 5.7177
-6 6 2 -7.1034 15.1925
-6 6 3 -7.5497 11.1845
-6 6 4 -5.1018 9.7333
-6 6 5 1.2774 3.0337
-6 6 6 2.5345 2.4739
-6 6 7 5.1396 3.9111
-6 6 8 3.4204 2.5404
-6 6 9 2.5625 -2.6083
-6 6 10 1.1260 -4.9947
-6 6 11 1.4274 -2.7134
-6 6 12 0.0939 0.8680
-6 6 13 -0.7282 2.9228
-6 6 14 -0.9124 -2.3309
-6 6 15 -0.1190 -6.0187
-6 6 16 -1.2164 -0.7105
-6 7 1 -0.9458 4.9403
-6 7 2 -1.6209 2.9388
-6 7 3 4.3219 3.0177
-6 7 4 -1.5204 0.8706
-6 7 5 -0.2144 0.5115
-6 7 6 -3.6592 0.0204
-6 7 7 3.6521 -2.2040
-6 7 8 4.2338 -0.6978
-6 7 9 0.3174 2.8491
-6 7 10 -3.9624 5.2063
-6 7 11 -1.0733 3.2396
-6 7 12 -1.3132 1.0884
-6 7 13 -1.8158 -0.0548
-6 7 14 -1.6674 5.2173
-6 7 15 -0.7456 0.9737
-6 8 1 -4.5623 -4.5557
-6 8 2 -6.3698 1.2523
-6 8 3 2.0314 -0.3947
-6 8 4 0.0847 3.2577
-6 8 5 2.0504 2.4210
-6 8 6 1.5888 2.1715
-6 8 7 2.2285 1.9310
-6 8 8 -0.1758 -2.6355
-6 8 9 -0.6146 -2.7601
-6 8 10 0.0528 0.2738
-6 8 11 1.0045 -0.0474
-6 8 12 0.6930 -2.2142
-6 8 13 -2.2909 -2.4329
-6 8 14 1.0397 1.6263
-6 8 15 1.9977 3.2574
-6 9 1 -6.8941 -1.7860
-6 9 2 -5.9763 -0.4452
-6 9 3 -3.5821 -0.9837
-6 9 4 0.3710 -6.0816
-6 9 5 1.8713 -3.7420
-6 9 6 -1.6067 -4.7419
-6 9 7 -2.5485 -0.7022
-6 9 8 0.9715 0.3615
-6 9 9 -0.1609 2.6126
-6 9 10 -1.1034 1.7571
-6 9 11 -0.4478 1.4794
-6 9 12 0.3344 1.2858
-6 9 13 0.4562 0.9560
-6 9 14 1.1972 -0.8639
-6 9 15 2.3178 -1.5193
-6 10 1 2.7204 1.0050
-6 10 2 0.1851 -0.7993
-6 10 3 -1.2593 0.9196
-6 10 4 -4.0325 1.2984
-6 10 5 1.1254 4.7471
-6 10 6 3.5783 3.2092
-6 10 7 -0.3478 4.8748
-6 10 8 -1.7490 -0.1702
-6 10 9 0.6396 -1.4119
-6 10 10 0.0135 1.8365
-6 10 11 0.8952 0.8445
-6 10 12 2.3945 -0.0355
-6 10 13 -0.0424 0.8100
-6 10 14 -2.6457 1.4291
-6 11 1 -0.6269 1.5351
-6 11 2 0.7157 0.4077
-6 11 3 1.2819 -0.2249
-6 11 4 -1.6503 1.5779
-6 11 5 -1.9107 4.7876
-6 11 6 0.8737 -2.5711
-6 11 7 2.7181 -6.3050
-6 11 8 1.3525 -1.3423
-6 11 9 -0.9819 -3.7036
-6 11 10 0.0255 -0.6601
-6 11 11 0.0452 3.1332
-6 11 12 0.9153 0.4435
-6 12 1 -0.9370 -4.0832
-6 12 2 -0.8802 -2.5270
-6 12 3 1.7982 1.1135
-6 12 4 0.2692 0.3299
-6 12 5 -1.6588 2.6414
-6 12 6 2.3229 4.8188
-6 12 7 -0.3211 1.5375
-6 12 8 1.1123 1.8926
-6 12 9 -0.8349 1.0734
-6 12 10 -2.2706 -3.6630
-6 12 11 -0.3638 -1.7391
-6 13 1 6.0862 -1.0914
-6 13 2 1.0046 0.7222
-6 13 3 -4.3154 3.0283
-6 13 4 -1.6588 0.2236
-6 13 5 -2.8998 0.9997
-6 13 6 0.0199 1.5314
-6 13 7 -1.4861 1.5225
-6 13 8 -6.1849 0.4345
-6 13 9 -1.4183 2.7011
-6 13 10 -0.4084 3.4149
-6 13 11 -0.6895 0.0430
-6 14 1 -3.1947 -0.6891
-6 14 2 0.4899 -4.6363
-6 14 3 -1.1946 -3.5978
-6 14 4 -3.1641 -2.4392
-6 14 5 -4.0114 -1.0627
-6 14 6 -5.6461 0.7822
-6 14 7 -2.9585 -2.9759
-6 14 8 -2.6417 1.0418
-6 14 9 -0.5829 4.2977
-6 14 10 2.5746 4.2836
-6 14 11 3.0947 0.2440
-6 15 1 1.5143 6.4240
-6 15 2 2.1428 4.4306
-6 15 3 3.0501 -1.3887
-6 15 4 1.6376 -1.9103
-6 15 5 -0.5113 -0.8726
-6 15 6 2.2557 4.6699
-6 15 7 1.2234 4.4482
-6 15 8 -1.9410 0.6488
-6 15 9 -2.7374 1.1411
-6 15 10 -0.4470 -0.0397
-6 16 2 0.7279 -1.4989
-6 16 3 1.3346 -2.6291
-6 16 4 -0.3577 -2.7564
-6 16 5 -4.1927 -0.2464
-6 16 6 -3.8371 0.9805
-6 16 7 2.1093 1.2977
-6 16 8 0.0900 0.1144
-6 16 9 -1.2097 1.5628
-6 17 3 0.4055 -0.7242
-6 17 4 0.9510 -0.1459
-6 17 5 1.3383 1.1270
-6 17 6 -1.1231 3.3748
-6 17 7 0.2259 2.3531
-6 17 8 0.9623 0.7028
-6 18 4 -2.5216 0.5170
-6 18 5 -2.6789 0.1035
-6 18 6 -1.8044 0.2632
-5 -19 -1 0.6539 0.1832
-5 -19 0 0.1729 1.9870
-5 -18 -3 2.7466 0.9031
-5 -18 -2 1.3410 0.7779
-5 -18 -1 -1.4009 0.3905
-5 -18 0 -2.0114 0.4943
-5 -17 -5 -0.3456 0.0408
-5 -17 -4 -0.6743 2.6784
-5 -17 -3 0.6643 1.4741
-5 -17 -2 0.2448 -3.6463
-5 -17 -1 -1.0176 -5.1388
-5 -17 0 0.4658 -2.5647
-5 -16 -6 -1.2385 -0.4314
-5 -16 -5 -1.2198 -0.9179
-5 -16 -4 -0.7028 -0.6590
-5 -16 -3 2.1730 -1.1586
-5 -16 -2 3.1406 -2.4295
-5 -16 -1 -2.2011 -2.7427
-5 -16 0 -5.6202 0.9600
-5 -15 -7 0.1167 2.2026
-5 -15 -6 -1.1079 2.1525
-5 -15 -5 -0.6547 1.5104
-5 -15 -4 -0.5714 0.5458
-5 -15 -3 1.7063 -0.9223
-5 -15 -2 3.5006 -2.1518
-5 -15 -1 3.1607 -3.3348
-5 -15 0 0.1549 1.2138
-5 -14 -8 -0.7999 -0.7180
-5 -14 -7 -0.6514 -0.9545
-5 -14 -6 -1.4586 0.0900
-5 -14 -5 -1.1966 -2.9256
-5 -14 -4 -2.5759 -1.3445
-5 -14 -3 -1.4999 0.3572
-5 -14 -2 0.8283 3.0357
-5 -14 -1 1.5561 -0.5015
-5 -14 0 -0.2983 -0.7425
-5 -13 -9 0.0555 -1.8862
-5 -13 -8 0.0974 -1.9224
-5 -13 -7 -0.2312 -1.6144
-5 -13 -6 1.1503 -1.0554
-5 -13 -5 0.9536 -1.9416
-5 -13 -4 0.2334 -3.2389
-5 -13 -3 -3.3681 0.1625
-5 -13 -2 -4.1538 -0.4815
-5 -13 -1 -2.9558 -1.6850
-5 -13 0 -2.5236 -0.8978
-5 -12 -9 -0.9338 -1.0598
-5 -12 -8 -0.4075 -1.2656
-5 -12 -7 2.6211 -1.8568
-5 -12 -6 1.2139 -3.1681
-5 -12 -5 1.0546 1.0779
-5 -12 -4 -1.2687 1.0122
-5 -12 -3 0.5396 -1.6739
-5 -12 -2 -1.1393 -1.0010
-5 -12 -1 0.2258 -0.4541
-5 -12 0 -0.9057 0.8222
-5 -11 -10 0.3905 -1.3625
-5 -11 -9 1.3114 -0.3973
-5 -11 -8 1.5112 3.8248
-5 -11 -7 2.7244 -0.0209
-5 -11 -6 0.1678 -1.1074
-5 -11 -5 -1.2436 0.7654
-5 -11 -4 3.1323 6.8681
-5 -11 -3 3.2267 4.1677
-5 -11 -2 2.2138 4.0294
-5 -11 -1 0.2707 4.8144
-5 -11 0 1.1210 3.0512
-5 -10 -11 0.2301 -1.1688
-5 -10 -10 -1.6858 -0.3747
-5 -10 -9 -4.4667 -2.3973
-5 -10 -8 -1.0192 -0.4185
-5 -10 -7 -0.1819 0.2064
-5 -10 -6 0.4456 -0.2829
-5 -10 -5 -2.6854 3.5283
-5 -10 -4 0.4068 2.3843
-5 -10 -3 3.3736 -0.1217
-5 -10 -2 -0.8344 -1.3268
-5 -10 -1 1.4701 0.9861
-5 -10 0 1.6864 2.2093
-5 -9 -11 0.7013 -0.1768
-5 -9 -10 2.2861 -1.5747
-5 -9 -9 0.4848 -0.5338
-5 -9 -8 -1.0917 -1.7998
-5 -9 -7 0.3408 1.4991
-5 -9 -6 -1.1966 -1.2687
-5 -9 -5 1.2304 -3.3650
-5 -9 -4 -2.9547 -2.1735
-5 -9 -3 -2.7763 -7.2819
-5 -9 -2 -6.0369 -6.3313
-5 -9 -1 -1.4693 -3.6550
-5 -9 0 6.3900 2.0932
-5 -8 -11 1.7033 3.5035
-5 -8 -10 0.9912 0.1448
-5 -8 -9 -2.0318 -0.1012
-5 -8 -8 -4.9479 0.7405
-5 -8 -7 -3.1108 -0.9075
-5 -8 -6 -1.1667 1.2708
-5 -8 -5 3.5145 -3.4009
-5 -8 -4 3.5574 -0.0019
-5 -8 -3 5.5195 2.4234
-5 -8 -2 1.9382 1.7156
-5 -8 -1 -0.4789 7.8680
-5 -8 0 -3.0840 4.3386
-5 -7 -12 -0.3140 -2.2147
-5 -7 -11 2.3941 0.5547
-5 -7 -10 6.3225 -1.0126
-5 -7 -9 1.7312 -0.5046
-5 -7 -8 1.5382 3.4919
-5 -7 -7 2.7593 1.7381
-5 -7 -6 -0.4790 1.6335
-5 -7 -5 -2.4440 -1.3232
-5 -7 -4 -2.9289 -8.0173
-5 -7 -3 3.6444 -5.6798
-5 -7 -2 6.8274 -7.2831
-5 -7 -1 4.2425 -0.6924
-5 -7 0 3.4712 5.7130
-5 -6 -12 -1.3104 0.5980
-5 -6 -11 -2.6103 1.6108
-5 -6 -10 -0.4822 0.6763
-5 -6 -9 -1.6685 -0.4519
-5 -6 -8 -4.8714 7.4818
-5 -6 -7 1.8268 5.8702
-5 -6 -6 1.0658 1.9664
-5 -6 -5 0.9792 4.7196
-5 -6 -4 0.2586 -0.0208
-5 -6 -3 -0.8650 9.9428
-5 -6 -2 -2.4313 7.7622
-5 -6 -1 -1.3990 2.0808
-5 -6 0 6.3869 -5.9527
-5 -5 -12 2.3605 1.4933
-5 -5 -11 1.7357 0.4507
-5 -5 -10 -1.7143 3.4355
-5 -5 -9 -4.2146 0.7366
-5 -5 -8 -2.8196 6.9992
-5 -5 -7 2.9431 9.2425
-5 -5 -6 7.2710 -0.5337
-5 -5 -5 8.4449 2.8437
-5 -5 -4 4.8652 -0.8263
-5 -5 -3 3.9938 -1.2488
-5 -5 -2 13.2865 9.8585
-5 -5 -1 9.6421 13.2081
-5 -5 0 -3.3110 8.5512
-5 -4 -12 0.9454 0.7992
-5 -4 -11 2.4218 -1.9869
-5 -4 -10 1.1886 -3.4462
-5 -4 -9 0.6354 -2.7229
-5 -4 -8 -1.0218 -3.9785
-5 -4 -7 3.4160 4.0849
-5 -4 -6 0.9275 -0.2121
-5 -4 -5 1.0840 -1.2118
-5 -4 -4 2.1272 2.3097
-5 -4 -3 -6.3717 3.1460
-5 -4 -2 -3.0547 -4.7706
-5 -4 -1 2.0852 -14.4550
-5 -4 0 -1.9678 -4.5471
-5 -3 -13 1.6040 0.1931
-5 -3 -12 0.1650 0.0705
-5 -3 -11 0.1187 -0.6064
-5 -3 -10 -1.9195 -0.9026
-5 -3 -9 -2.2025 0.3936
-5 -3 -8 -6.9808 -0.2097
-5 -3 -7 -3.5968 -0.8345
-5 -3 -6 3.8695 -1.8813
-5 -3 -5 3.6761 -1.0414
-5 -3 -4 3.0017 4.0538
-5 -3 -3 -0.1876 6.2638
-5 -3 -2 -0.6354 8.3574
-5 -3 -1 3.6373 1.1212
-5 -3 0 -5.3361 1.8784
-5 -2 -13 0.8178 -0.5186
-5 -2 -12 0.7335 -1.0459
-5 -2 -11 0.4271 -1.6691
-5 -2 -10 -0.5893 -7.2977
-5 -2 -9 -0.5746 -3.9120
-5 -2 -8 1.4419 -0.7669
-5 -2 -7 3.0764 5.4005
-5 -2 -6 2.2665 -0.2758
-5 -2 -5 -4.8567 -0.5098
-5 -2 -4 3.5103 5.3082
-5 -2 -3 9.3851 13.2830
-5 -2 -2 7.8034 4.7499
-5 -2 -1 6.8584 -7.9127
-5 -2 0 8.8151 -27.9953
-5 -1 -13 1.1472 2.4237
-5 -1 -12 1.6745 2.0338
-5 -1 -11 5.2321 2.4127
-5 -1 -10 -0.1814 -1.8361
-5 -1 -9 -7.3196 -1.7877
-5 -1 -8 -5.8734 -0.2839
-5 -1 -7 3.2066 -2.0333
-5 -1 -6 8.6394 -2.2079
-5 -1 -5 -5.3866 2.8163
-5 -1 -4 -10.3952 4.9326
-5 -1 -3 10.9299 2.2703
-5 -1 -1 5.9008 -5.6828
-5 -1 0 -7.3823 -14.3535
-5 0 2 4.6685 0.6982
-5 0 3 2.4322 -0.9264
-5 0 4 -10.3816 0.1527
-5 0 5 -3.2733 0.6814
-5 0 6 2.7418 -0.8528
-5 0 7 -6.2264 -0.1080
-5 0 8 1.1060 0.8515
-5 0 9 2.3310 -0.4256
-5 0 10 -0.0686 -0.4375
-5 0 11 -0.4750 0.6684
-5 0 12 1.5711 -0.0943
-5 0 13 0.6405 -0.5037
-5 0 14 0.5924 0.4229
-5 0 15 1.6775 0.1226
-5 0 16 -0.0412 -0.4501
-5 1 1 -14.0584 -6.6452
-5 1 2 -34.0807 1.5837
-5 1 3 -7.7318 -6.2177
-5 1 4 -5.4665 -3.2390
-5 1 5 -13.6750 2.7973
-5 1 6 -14.1052 -1.9830
-5 1 7 -11.2876 -3.6403
-5 1 8 -3.8740 -3.9255
-5 1 9 4.6699 -6.7216
-5 1 10 -1.1189 -5.1733
-5 1 11 -5.9994 -1.2122
-5 1 12 -7.5601 0.6009
-5 1 13 -3.2922 -1.1395
-5 1 14 1.9856 1.1477
-5 1 15 7.4107 0.8764
-5 1 16 2.1595 -0.8245
-5 2 1 10.9535 16.1423
-5 2 2 1.4611 18.2772
-5 2 3 -9.7722 6.5919
-5 2 4 -6.1432 -0.3360
-5 2 5 -6.9166 6.5904
-5 2 6 3.5059 3.5408
-5 2 7 5.6998 -11.7418
-5 2 8 0.7822 -5.9682
-5 2 9 -1.0040 -2.0993
-5 2 10 0.9859 0.2595
-5 2 11 -0.2902 -0.7971
-5 2 12 -1.0654 -2.0250
-5 2 13 -0.4028 -1.8125
-5 2 14 -1.9262 0.7335
-5 2 15 0.2764 2.5660
-5 2 16 0.4649 -0.4349
-5 3 1 7.9624 8.9312
-5 3 2 8.8110 -3.2915
-5 3 3 2.3815 0.0896
-5 3 4 -1.5482 0.7605
-5 3 5 -1.9025 7.8590
-5 3 6 5.4987 10.6164
-5 3 7 1.5528 0.2883
-5 3 8 -1.8374 -2.7617
-5 3 9 -3.5541 4.8408
-5 3 10 -2.6709 0.3052
-5 3 11 1.5645 1.3496
-5 3 12 3.8792 1.0305
-5 3 13 1.7377 1.8845
-5 3 14 -0.9768 -2.5808
-5 3 15 0.3138 -0.2699
-5 3 16 2.2686 -2.2718
-5 4 1 -0.9899 -7.7680
-5 4 2 -1.0340 0.1002
-5 4 3 -0.0597 4.1978
-5 4 4 2.4568 5.0292
-5 4 5 -3.1708 -5.0025
-5 4 6 0.6409 0.3791
-5 4 7 7.1931 4.0614
-5 4 8 1.8983 -0.8834
-5 4 9 0.0188 -4.3939
-5 4 10 -4.2805 -1.6847
-5 4 11 -3.1312 1.9441
-5 4 12 1.9587 -0.1630
-5 4 13 1.9580 1.0308
-5 4 14 -0.9685 2.2606
-5 4 15 -1.0353 3.0479
-5 4 16 1.8357 0.7844
-5 5 1 3.5743 -8.1268
-5 5 2 0.1874 -5.1982
-5 5 3 -5.5505 4.1197
-5 5 4 0.7278 4.3790
-5 5 5 2.5067 -4.4442
-5 5 6 -0.2928 1.9261
-5 5 7 2.3881 2.5599
-5 5 8 6.2016 0.7412
-5 5 9 2.9023 -3.1906
-5 5 10 2.1205 -1.7926
-5 5 11 -2.9925 1.2873
-5 5 12 -0.6919 0.2594
-5 5 13 -3.0112 -3.4377
-5 5 14 -1.7304 -0.0983
-5 5 15 -4.3493 3.7304
-5 5 16 -1.3754 3.6780
-5 6 1 5.2107 4.4341
-5 6 2 -5.6571 5.5703
-5 6 3 -3.5872 2.8537
-5 6 4 4.2832 11.0610
-5 6 5 4.6520 6.9299
-5 6 6 2.5911 6.1812
-5 6 7 4.7800 6.2387
-5 6 8 4.7556 4.0651
-5 6 9 2.3869 -1.2080
-5 6 10 0.7672 -6.8057
-5 6 11 -2.6321 -3.0207
-5 6 12 1.7650 2.2123
-5 6 13 3.0295 0.4047
-5 6 14 0.8283 -4.4671
-5 6 15 -1.1805 -4.2096
-5 6 16 0.4504 -0.7495
-5 7 1 -2.1532 0.9584
-5 7 2 -1.3229 -0.0565
-5 7 3 -1.2658 1.1836
-5 7 4 -1.1299 -0.1571
-5 7 5 2.6934 -0.5042
-5 7 6 -1.2328 0.4442
-5 7 7 2.0969 -1.6602
-5 7 8 0.7717 -1.2328
-5 7 9 2.0683 0.8635
-5 7 10 3.2526 1.8938
-5 7 11 0.9604 0.9796
-5 7 12 -2.1036 4.4465
-5 7 13 -0.3894 2.1228
-5 7 14 -0.3572 2.6800
-5 7 15 -2.5838 1.8952
-5 7 16 -3.2475 1.8714
-5 8 1 3.6602 -1.2025
-5 8 2 2.2371 -1.3239
-5 8 3 6.1368 0.4593
-5 8 4 -0.6766 3.4384
-5 8 5 1.2780 -1.4364
-5 8 6 -0.6252 -0.1323
-5 8 7 1.8034 1.2083
-5 8 8 0.5961 1.3762
-5 8 9 -0.8493 1.7113
-5 8 10 2.4263 0.8436
-5 8 11 2.5998 -4.3964
-5 8 12 1.0367 -1.9109
-5 8 13 -0.2286 0.5345
-5 8 14 1.1872 -0.8852
-5 8 15 0.3989 -2.5716
-5 9 1 -6.0038 7.1180
-5 9 2 -5.4493 6.2152
-5 9 3 -4.8401 -0.7300
-5 9 4 -2.5945 -2.6013
-5 9 5 -1.0122 0.4147
-5 9 6 -1.3924 2.2405
-5 9 7 -0.6446 2.8600
-5 9 8 1.3157 -0.6154
-5 9 9 -2.5136 0.7031
-5 9 10 -4.1380 1.0669
-5 9 11 -1.6596 -2.2820
-5 9 12 -0.0306 -4.1207
-5 9 13 1.8683 -2.5415
-5 9 14 2.5372 -1.9366
-5 9 15 0.4811 -1.3608
-5 10 1 2.3254 0.0987
-5 10 2 0.7066 0.1372
-5 10 3 1.4114 1.5891
-5 10 4 -0.0193 0.8884
-5 10 5 0.3426 3.3894
-5 10 6 0.2139 0.5297
-5 10 7 -0.8692 -0.8148
-5 10 8 -1.6899 -5.1714
-5 10 9 -0.0164 -3.6054
-5 10 10 0.2634 2.1110
-5 10 11 1.6447 1.5330
-5 10 12 0.5481 -1.1483
-5 10 13 -3.7503 -0.9457
-5 10 14 -3.7770 0.0694
-5 11 1 -0.1346 0.9769
-5 11 2 0.0381 -1.0143
-5 11 3 2.2844 -0.4918
-5 11 4 0.2286 -0.3339
-5 11 5 -2.3632 1.1339
-5 11 6 -1.9519 -0.3942
-5 11 7 1.8780 0.3019
-5 11 8 1.0204 2.5293
-5 11 9 0.7981 -0.2894
-5 11 10 1.6329 1.5463
-5 12 1 3.3503 0.7628
-5 12 2 4.8318 4.2713
-5 12 3 3.9995 4.7171
-5 12 4 1.1833 0.0790
-5 12 5 -0.3244 0.9927
-5 12 6 -1.1531 7.0154
-5 12 7 -2.7988 5.3607
-5 12 8 -3.2316 2.6156
-5 12 9 -3.4547 -1.6245
-5 12 10 -0.3084 -4.6790
-5 13 1 0.3239 2.1092
-5 13 2 -1.0741 1.1558
-5 13 3 -1.2514 1.3040
-5 13 4 0.6496 -1.1132
-5 13 5 -2.2968 -1.6071
-5 13 6 -2.6182 -0.6604
-5 13 7 -2.7276 0.6300
-5 13 8 -2.0673 0.6584
-5 13 9 0.7324 4.9519
-5 13 10 0.9928 1.7827
-5 14 1 1.6978 -0.8765
-5 14 2 2.8556 -4.1751
-5 14 3 0.6465 -0.6473
-5 14 4 -1.1946 0.0904
-5 14 5 -0.2453 0.5790
-5 14 6 -0.3631 0.7934
-5 14 7 2.7403 1.9818
-5 14 8 0.8489 4.8586
-5 14 9 0.7783 5.4098
-5 15 1 -0.0940 3.7468
-5 15 2 1.6450 -1.7872
-5 15 3 3.5089 -4.2825
-5 15 4 2.7213 1.3693
-5 15 5 0.1630 2.7271
-5 15 6 -0.4528 4.2552
-5 15 7 -2.5790 1.2721
-5 15 8 -2.1701 -0.6667
-5 15 9 -1.7450 0.9766
-5 16 2 -1.4621 1.3713
-5 16 3 -3.1576 -2.1664
-5 16 4 -1.5177 -1.3874
-5 16 5 -1.7506 0.9709
-5 16 6 -0.9697 -0.6573
-5 16 7 -0.1967 -0.0533
-5 16 8 -2.7436 -0.0269
-5 17 3 4.0105 4.7105
-5 17 4 1.8209 3.4404
-5 17 5 2.8909 3.8431
-5 17 6 0.9513 3.6536
-5 17 7 0.7686 0.4292
-5 18 4 -2.5917 -1.9462
-5 18 5 -4.1317 -3.1358
-5 18 6 -2.4195 -1.6211
-5 19 5 2.0229 0.3560
-4 -20 0 -1.2788 -0.0396
-4 -19 -3 1.4147 -1.8679
-4 -19 -2 2.6745 -0.0196
-4 -19 -1 1.2547 0.1249
-4 -19 0 0.0780 1.3518
-4 -18 -5 0.1490 1.6472
-4 -18 -4 1.9490 3.8726
-4 -18 -3 -0.4899 0.4876
-4 -18 -2 -3.2553 -0.8420
-4 -18 -1 -3.6661 -1.5181
-4 -18 0 -0.1307 -5.5935
-4 -17 -6 0.2081 -1.0098
-4 -17 -5 -0.5408 -0.7213
-4 -17 -4 1.3626 -0.0279
-4 -17 -3 1.0238 -1.9417
-4 -17 -2 -0.1927 -4.8891
-4 -17 -1 0.1256 -2.4542
-4 -17 0 1.4448 1.3517
-4 -16 -7 1.8401 -0.2158
-4 -16 -6 0.9537 1.2503
-4 -16 -5 -0.6996 1.8943
-4 -16 -4 1.8866 1.1371
-4 -16 -3 5.0928 -1.1989
-4 -16 -2 3.7939 -1.6699
-4 -16 -1 -3.1041 -1.8156
-4 -16 0 -7.4510 0.7136
-4 -15 -8 0.1807 3.0127
-4 -15 -7 -0.5485 2.4510
-4 -15 -6 -1.9088 0.2769
-4 -15 -5 -5.2305 1.4337
-4 -15 -4 -3.6580 4.3933
-4 -15 -3 2.4273 3.2658
-4 -15 -2 6.5499 -1.8178
-4 -15 -1 5.6501 -6.4710
-4 -15 0 7.0753 -3.9006
-4 -14 -9 -0.1841 -1.5619
-4 -14 -8 -0.6418 -1.0931
-4 -14 -7 -0.3124 -0.5305
-4 -14 -6 -1.5238 -1.8036
-4 -14 -5 -1.8146 -2.3106
-4 -14 -4 -4.1301 6.3175
-4 -14 -3 -1.4178 7.2438
-4 -14 -2 3.0914 3.4537
-4 -14 -1 1.9250 -0.5888
-4 -14 0 0.8640 0.5840
-4 -13 -10 -0.9041 -3.3198
-4 -13 -9 -2.1876 -3.3894
-4 -13 -8 -1.2306 -2.0748
-4 -13 -7 -0.5530 -3.0348
-4 -13 -6 -2.2826 -1.7020
-4 -13 -5 -6.6168 -5.7586
-4 -13 -4 -3.1909 -4.5775
-4 -13 -3 -2.3881 0.4907
-4 -13 -2 -0.0153 -0.7201
-4 -13 -1 0.7451 -3.6262
-4 -13 0 3.3961 0.8810
-4 -12 -10 1.8922 -1.2377
-4 -12 -9 -0.1673 0.8293
-4 -12 -8 0.2448 1.5980
-4 -12 -7 -0.4622 -0.7139
-4 -12 -6 -0.6780 0.6583
-4 -12 -5 -3.4629 9.2795
-4 -12 -4 -7.7999 6.2100
-4 -12 -3 -2.4677 3.3118
-4 -12 -2 0.4824 3.8462
-4 -12 -1 1.2993 0.4790
-4 -12 0 -0.4263 -0.0879
-4 -11 -11 1.0284 1.7158
-4 -11 -10 1.3568 2.2943
-4 -11 -9 0.7268 2.9511
-4 -11 -8 0.4041 3.0552
-4 -11 -7 1.5960 -0.3175
-4 -11 -6 -1.3207 -0.9882
-4 -11 -5 4.2979 1.1394
-4 -11 -4 4.8189 5.9436
-4 -11 -3 -0.4078 2.3977
-4 -11 -2 0.4771 6.3881
-4 -11 -1 -0.2688 5.0390
-4 -11 0 -1.1438 4.2306
-4 -10 -11 -0.0187 0.2494
-4 -10 -10 0.0241 0.0413
-4 -10 -9 1.2735 -2.5104
-4 -10 -8 1.7215 1.6758
-4 -10 -7 -0.0647 2.3044
-4 -10 -6 -3.7409 2.5215
-4 -10 -5 -8.3304 1.0945
-4 -10 -4 -1.1569 -0.0729
-4 -10 -3 -0.6889 -2.5627
-4 -10 -2 -0.9172 -0.1815
-4 -10 -1 4.7614 0.2570
-4 -10 0 -1.8451 4.1512
-4 -9 -12 0.4825 1.3153
-4 -9 -11 1.9917 0.8517
-4 -9 -10 0.8437 0.5164
-4 -9 -9 -2.2061 -0.8503
-4 -9 -8 -1.5191 -3.2308
-4 -9 -7 0.0709 0.6587
-4 -9 -6 2.2305 -4.2397
-4 -9 -5 3.7544 -6.8080
-4 -9 -4 2.2318 -1.5750
-4 -9 -3 3.8770 -5.2017
-4 -9 -2 -0.5757 -2.0145
-4 -9 -1 2.3410 -2.4117
-4 -9 0 3.5812 -0.3558
-4 -8 -12 0.0448 0.2161
-4 -8 -11 0.7108 -0.0330
-4 -8 -10 -0.7367 -1.8853
-4 -8 -9 -0.7224 1.8621
-4 -8 -8 -1.7214 -0.9980
-4 -8 -7 4.3707 -3.7372
-4 -8 -6 3.8488 4.8964
-4 -8 -5 3.7042 -0.1785
-4 -8 -4 -0.3758 1.0491
-4 -8 -3 3.3453 1.4539
-4 -8 -2 -4.0948 -1.3171
-4 -8 -1 4.0491 3.7601
-4 -8 0 9.2050 -5.0112
-4 -7 -13 1.8922 0.6473
-4 -7 -12 3.2763 -0.5230
-4 -7 -11 3.8264 -0.0127
-4 -7 -10 3.5162 -1.1127
-4 -7 -9 2.4376 1.1248
-4 -7 -8 3.4103 8.1752
-4 -7 -7 0.0496 -0.3776
-4 -7 -6 -1.8594 -1.1452
-4 -7 -5 0.6587 -1.2734
-4 -7 -4 0.0609 -9.3404
-4 -7 -3 10.0025 -10.3235
-4 -7 -2 3.3887 -3.8861
-4 -7 -1 -5.7139 3.6860
-4 -7 0 1.5598 1.9853
-4 -6 -13 -1.6051 2.4395
-4 -6 -12 -0.0959 2.1689
-4 -6 -11 0.2777 1.1635
-4 -6 -10 -0.4420 1.0145
-4 -6 -9 -3.7185 1.7141
-4 -6 -8 -1.7190 5.0839
-4 -6 -7 2.5139 4.4856
-4 -6 -6 -4.3416 -3.4239
-4 -6 -5 -0.2799 0.6384
-4 -6 -4 -1.7998 -0.4511
-4 -6 -3 -7.7850 0.7680
-4 -6 -2 -1.9239 -14.6775
-4 -6 -1 2.3918 -3.8059
-4 -6 0 3.6589 2.0892
-4 -5 -13 0.6500 0.2127
-4 -5 -12 2.7029 1.2579
-4 -5 -11 1.7344 -0.1698
-4 -5 -10 -0.2031 1.3439
-4 -5 -9 1.8086 0.7214
-4 -5 -8 2.2314 2.8986
-4 -5 -7 3.4136 2.0116
-4 -5 -6 2.7536 0.1051
-4 -5 -5 5.5974 5.4292
-4 -5 -4 12.7043 2.9039
-4 -5 -3 23.0057 10.9222
-4 -5 -2 16.2744 12.4548
-4 -5 -1 2.7345 4.9481
-4 -5 0 -6.0725 6.6957
-4 -4 -13 0.0977 -0.6074
-4 -4 -12 0.8225 -1.1219
-4 -4 -11 1.3899 -1.6851
-4 -4 -10 3.0321 0.3198
-4 -4 -9 1.9689 1.3166
-4 -4 -8 0.9375 -0.5968
-4 -4 -7 -2.6874 3.8073
-4 -4 -6 -5.7113 -0.5292
-4 -4 -5 1.1743 4.6414
-4 -4 -4 2.6099 8.8021
-4 -4 -3 2.2456 -0.8197
-4 -4 -2 10.4117 -15.1370
-4 -4 -1 -2.8277 -18.0956
-4 -4 0 7.1977 11.2538
-4 -3 -13 -0.2827 0.5269
-4 -3 -12 -1.6715 -0.3832
-4 -3 -11 -1.2377 -2.2768
-4 -3 -10 -0.2123 -2.2904
-4 -3 -9 0.9165 0.0805
-4 -3 -8 -2.9813 -2.8852
-4 -3 -7 5.0391 -6.0785
-4 -3 -6 -0.2802 -2.4081
-4 -3 -5 -3.5382 -3.7951
-4 -3 -4 4.3282 -3.1030
-4 -3 -3 4.3236 -0.3038
-4 -3 -2 2.5138 -1.2762
-4 -3 -1 -17.7954 -5.5206
-4 -2 -13 -0.0202 -0.7660
-4 -2 -12 1.3968 -0.0343
-4 -2 -11 1.4391 -0.2767
-4 -2 -10 -2.0710 -2.2817
-4 -2 -9 0.6584 0.1863
-4 -2 -8 3.0467 0.7045
-4 -2 -7 2.4858 -5.2167
-4 -2 -6 4.5600 -1.9499
-4 -2 -5 -0.6224 16.1653
-4 -2 -4 11.5158 11.3575
-4 -2 -3 12.6028 -5.2663
-4 -2 -2 9.4828 -21.5165
-4 -2 -1 11.4914 -31.5569
-4 -2 0 -13.3362 -27.8138
-4 -1 -13 -0.1809 2.0402
-4 -1 -12 1.7099 0.5774
-4 -1 -11 4.6006 1.9873
-4 -1 -10 -2.7406 1.1330
-4 -1 -9 -5.6202 0.8580
-4 -1 -8 1.9414 -0.3465
-4 -1 -7 1.0432 3.0387
-4 -1 -6 -5.9082 2.1687
-4 -1 -5 -1.3833 13.2120
-4 -1 -4 7.1954 11.5542
-4 -1 -3 11.5010 1.0513
-4 -1 -2 -18.9523 -9.2199
-4 -1 -1 -22.0948 -9.8667
-4 -1 0 -17.1555 -17.7366
-4 0 1 -17.3636 2.4417
-4 0 2 -14.3477 0.9402
-4 0 3 -7.4601 -1.0583
-4 0 4 -1.8086 0.2203
-4 0 5 4.2605 0.7576
-4 0 6 0.1269 -0.9139
-4 0 8 1.8566 0.9512
-4 0 9 -2.2498 -0.3627
-4 0 10 -0.6316 -0.5287
-4 0 11 -0.0240 0.6927
-4 0 12 -0.9045 -0.0376
-4 0 13 -0.0048 -0.5554
-4 0 14 3.9343 0.4085
-4 0 15 1.7557 0.1861
-4 0 16 -2.4123 -0.4857
-4 0 17 -0.3658 0.0267
-4 1 1 8.4021 -1.3675
-4 1 2 -2.5171 -3.8618
-4 1 3 5.4401 -1.0020
-4 1 4 -1.0333 -0.3074
-4 1 5 -23.4397 7.3527
-4 1 6 -15.3270 -0.4684
-4 1 7 -6.9469 0.3208
-4 1 8 4.3876 -2.5979
-4 1 9 0.9289 -1.0982
-4 1 10 -10.8624 0.8478
-4 1 11 -6.3449 1.2331
-4 1 12 -1.1275 2.3464
-4 1 13 0.5413 -0.5197
-4 1 14 3.0165 -1.1634
-4 1 15 7.7700 -2.8055
-4 1 16 0.5458 -2.1965
-4 2 1 -8.3761 6.5594
-4 2 3 -20.5299 -5.4920
-4 2 4 -14.8932 1.0967
-4 2 5 -5.0467 6.8970
-4 2 6 5.7175 7.0106
-4 2 7 2.2455 -2.1022
-4 2 8 -6.0132 -0.5389
-4 2 9 -0.4068 -6.1545
-4 2 10 -0.9849 1.3285
-4 2 11 -3.5873 2.4638
-4 2 12 -0.7782 -1.2919
-4 2 13 3.3749 -2.5899
-4 2 14 -1.6027 -0.3848
-4 2 15 -0.9193 0.4936
-4 2 16 -0.7911 -0.3712
-4 3 1 5.7472 10.7251
-4 3 2 6.1378 -4.4515
-4 3 3 -0.8790 -2.6686
-4 3 4 0.1059 8.8772
-4 3 5 -3.1239 7.2778
-4 3 6 -0.3926 -0.1555
-4 3 7 -2.4112 -2.8443
-4 3 8 0.3970 6.7977
-4 3 9 -1.6053 4.1471
-4 3 10 -1.3664 -7.1407
-4 3 11 1.1619 -1.5135
-4 3 12 1.2875 1.9853
-4 3 13 1.6933 1.8981
-4 3 14 1.7031 -3.0303
-4 3 15 2.5599 -1.6057
-4 3 16 1.4592 -2.8639
-4 4 1 12.8813 -18.6646
-4 4 2 3.9273 2.1430
-4 4 3 -5.5212 -0.6460
-4 4 4 -8.7119 -8.5632
-4 4 5 -7.8897 -6.3635
-4 4 6 -3.8543 9.6612
-4 4 7 1.4717 12.8156
-4 4 8 3.3015 5.5265
-4 4 9 5.9102 4.9660
-4 4 10 -1.1974 1.1547
-4 4 11 -2.0633 1.0144
-4 4 12 -0.7121 -3.4937
-4 4 13 -0.7010 -0.3004
-4 4 14 -0.8993 -0.8663
-4 4 15 -0.0302 -1.5490
-4 4 16 0.6011 -2.9825
-4 5 1 1.4133 -7.0637
-4 5 2 0.0843 -2.0344
-4 5 3 0.8646 -0.1579
-4 5 4 5.2253 0.7663
-4 5 5 0.4601 -3.4900
-4 5 6 -2.0753 5.3556
-4 5 7 -0.9489 5.4208
-4 5 8 -0.7736 2.5986
-4 5 9 0.1755 -0.7545
-4 5 10 1.7782 -2.7511
-4 5 11 -0.8116 -2.0429
-4 5 12 0.4799 -2.9308
-4 5 13 -2.1444 -3.5733
-4 5 14 -1.1549 0.1931
-4 5 15 -3.1684 3.5675
-4 5 16 -1.6852 2.8963
-4 6 2 -0.5112 -0.6641
-4 6 3 7.0537 0.1233
-4 6 4 9.9781 7.3909
-4 6 5 4.0495 1.6008
-4 6 6 -0.0414 -0.7591
-4 6 7 0.0054 0.7650
-4 6 8 0.9689 0.0011
-4 6 9 -0.1721 -3.9241
-4 6 10 0.3850 -6.9298
-4 6 11 -3.9171 0.1122
-4 6 12 2.4989 5.2771
-4 6 13 2.2379 3.7616
-4 6 14 1.1520 -0.1506
-4 6 15 -1.4042 -0.5900
-4 6 16 -0.5419 0.1212
-4 7 1 -7.0171 -8.8722
-4 7 2 -6.9661 -4.0935
-4 7 3 -3.3478 0.5403
-4 7 4 -1.3390 0.5757
-4 7 5 2.0748 -0.1645
-4 7 6 0.3469 -0.3408
-4 7 7 2.0776 -2.9764
-4 7 8 2.4710 -4.0941
-4 7 9 4.6756 -2.6296
-4 7 10 5.7429 -0.9759
-4 7 11 1.2715 -0.6133
-4 7 12 -0.0190 0.0468
-4 7 13 0.2548 -1.4608
-4 7 14 -0.6674 0.0703
-4 7 15 -2.0787 0.8234
-4 7 16 -2.9497 1.1352
-4 8 1 14.9052 9.3599
-4 8 2 6.6404 9.5462
-4 8 3 4.4768 11.8871
-4 8 4 -1.6485 9.1096
-4 8 5 1.0648 0.9569
-4 8 6 -0.0356 0.7328
-4 8 7 3.0776 0.8826
-4 8 8 1.4270 4.1781
-4 8 9 -3.6083 2.3702
-4 8 10 -1.5241 -2.0200
-4 8 11 -0.7020 -5.5997
-4 8 12 -0.9847 -2.4042
-4 8 13 -1.9896 -2.8686
-4 8 14 -1.3209 -2.6753
-4 8 15 0.0193 -2.4516
-4 9 1 -2.6781 7.3691
-4 9 2 -5.9616 3.3060
-4 9 3 -3.1965 -3.8896
-4 9 4 -0.1626 1.0868
-4 9 5 1.1154 5.9350
-4 9 6 0.5239 7.1472
-4 9 7 -1.8814 1.8513
-4 9 8 1.2971 -3.5962
-4 9 9 1.2373 -0.1781
-4 9 10 -1.3357 0.8899
-4 9 11 -1.0877 -2.5257
-4 9 12 1.9003 -1.6671
-4 9 13 1.9844 -0.6760
-4 9 14 0.5950 -0.2267
-4 9 15 -0.1981 1.2997
-4 10 1 -2.1808 -1.7368
-4 10 2 -0.7815 4.9366
-4 10 3 0.8048 4.6091
-4 10 4 -0.6190 -0.0359
-4 10 5 -2.9856 -0.7008
-4 10 6 1.9208 -4.6768
-4 10 7 4.6988 -3.6945
-4 10 8 0.7295 -2.6765
-4 10 9 1.6785 -2.0683
-4 11 1 -0.0441 1.8302
-4 11 2 2.1610 0.6927
-4 11 3 2.9680 1.7483
-4 11 4 1.9160 -1.2079
-4 11 5 -2.2521 3.5957
-4 11 6 -4.0073 10.5769
-4 11 7 -0.7916 7.5687
-4 11 8 -0.8615 3.2270
-4 11 9 -0.3057 -0.2663
-4 12 1 4.0344 3.3964
-4 12 2 4.4429 4.1983
-4 12 3 2.1617 1.7165
-4 12 4 -1.0130 -1.2838
-4 12 5 -0.5156 -1.2326
-4 12 6 -0.2986 6.4013
-4 12 7 3.2668 4.0639
-4 12 8 -0.0566 0.3894
-4 12 9 -2.6399 -2.2160
-4 13 1 -5.7958 1.1683
-4 13 2 0.0880 1.0506
-4 13 3 6.2988 1.0923
-4 13 4 4.6159 2.8487
-4 13 5 -0.1464 -0.1336
-4 13 6 -2.0073 0.3211
-4 13 7 0.4795 0.8558
-4 13 8 2.3193 1.7043
-4 14 1 1.8356 1.9233
-4 14 2 -1.4792 1.0460
-4 14 3 -0.1263 2.0565
-4 14 4 1.9007 0.0729
-4 14 5 2.4677 1.2715
-4 14 6 0.0804 1.2361
-4 14 7 -0.0001 4.9414
-4 14 8 -2.4638 2.1067
-4 15 1 -3.7630 0.3924
-4 15 2 -0.7605 0.0487
-4 15 3 1.1917 1.1480
-4 15 4 0.1307 3.1297
-4 15 5 -1.3753 1.0381
-4 15 6 -3.2813 0.0723
-4 15 7 -2.9709 -1.2839
-4 16 2 -0.1372 2.4828
-4 16 3 1.1094 -2.3854
-4 16 4 2.7138 -2.9706
-4 16 5 -0.1225 -1.6946
-4 16 6 -0.8652 -1.6374
-4 17 3 2.9963 6.1759
-4 17 4 -0.8653 0.6434
-4 17 5 0.0548 -0.1698
-4 18 4 0.6945 -2.7486
-3 -20 -2 0.2420 -1.3123
-3 -20 -1 -0.6628 -3.0389
-3 -20 0 -1.2997 -0.3303
-3 -19 -4 0.2414 -0.0740
-3 -19 -3 0.2346 -0.3389
-3 -19 -2 -0.3549 2.7247
-3 -19 -1 -3.1899 3.0207
-3 -19 0 -2.0265 -1.7190
-3 -18 -6 0.4818 0.8804
-3 -18 -5 -0.5861 3.3596
-3 -18 -4 -0.7116 6.4549
-3 -18 -3 -2.9339 3.1770
-3 -18 -2 -2.3923 -1.0531
-3 -18 -1 1.7041 0.0787
-3 -18 0 6.6585 -1.8004
-3 -17 -7 -1.4373 -0.5701
-3 -17 -6 0.5102 -1.3242
-3 -17 -5 0.6880 -2.3548
-3 -17 -4 1.8281 -1.0845
-3 -17 -3 3.7053 1.9229
-3 -17 -2 3.3371 -1.0090
-3 -17 -1 -1.4135 0.3407
-3 -17 0 -2.5534 5.9957
-3 -16 -8 2.2755 0.0944
-3 -16 -7 2.6518 1.7579
-3 -16 -6 -0.7389 3.7023
-3 -16 -5 -3.3783 2.4806
-3 -16 -4 -2.9584 -0.1823
-3 -16 -3 -0.2374 1.0161
-3 -16 -2 -0.0075 0.4455
-3 -16 -1 -6.5045 -3.6069
-3 -16 0 -9.0889 -0.2519
-3 -15 -9 -0.5583 -0.0071
-3 -15 -8 -4.0177 1.2191
-3 -15 -7 -5.3156 -2.1183
-3 -15 -6 -5.0403 -4.3892
-3 -15 -5 -5.5329 1.1625
-3 -15 -4 -2.6575 5.5637
-3 -15 -3 -2.2288 2.7517
-3 -15 -2 1.8946 -1.8900
-3 -15 -1 2.0093 -4.9114
-3 -15 0 5.1236 -2.9947
-3 -14 -10 -0.4607 -0.4858
-3 -14 -9 0.0324 -3.2579
-3 -14 -8 -0.6714 -1.7884
-3 -14 -7 -0.7496 1.6638
-3 -14 -6 -1.9515 1.1291
-3 -14 -5 -2.8817 -0.5690
-3 -14 -4 -0.1983 0.7852
-3 -14 -3 1.5099 -0.8660
-3 -14 -2 2.2104 -1.6859
-3 -14 -1 0.1805 1.4193
-3 -14 0 0.9186 0.9811
-3 -13 -11 -0.9780 -1.3465
-3 -13 -10 -1.0874 -1.1050
-3 -13 -9 -0.6987 -0.6518
-3 -13 -8 -1.6305 -1.2812
-3 -13 -7 -3.2231 -2.8937
-3 -13 -6 -1.2015 2.1419
-3 -13 -5 -3.8001 2.7977
-3 -13 -4 -2.5598 3.3577
-3 -13 -3 -2.3913 1.5101
-3 -13 -2 -0.8430 -2.1121
-3 -13 -1 -3.0157 -4.9409
-3 -13 0 -0.2806 -0.2251
-3 -12 -11 3.4856 0.3871
-3 -12 -10 3.4139 0.5567
-3 -12 -9 2.6461 -0.1615
-3 -12 -8 3.5790 0.5397
-3 -12 -7 -2.2106 1.3968
-3 -12 -6 -3.0595 4.1102
-3 -12 -5 -4.5368 10.0998
-3 -12 -4 -5.9172 7.1659
-3 -12 -3 -1.8531 3.4320
-3 -12 -2 3.2387 -0.7756
-3 -12 -1 0.4406 -3.4961
-3 -12 0 -3.4661 1.6314
-3 -11 -12 -0.0115 0.8823
-3 -11 -11 0.7609 1.1330
-3 -11 -10 2.7022 1.0957
-3 -11 -9 1.2865 -1.4196
-3 -11 -8 1.8823 -2.6184
-3 -11 -7 2.0727 1.2523
-3 -11 -6 -3.0231 1.0431
-3 -11 -5 1.4813 -0.3928
-3 -11 -4 3.2157 1.8864
-3 -11 -3 1.2881 0.2878
-3 -11 -2 3.0249 2.9725
-3 -11 -1 0.2893 -2.2247
-3 -11 0 1.7084 3.1420
-3 -10 -12 0.8110 0.0600
-3 -10 -11 1.5864 -0.5633
-3 -10 -10 4.1471 -0.2867
-3 -10 -9 4.3383 0.2607
-3 -10 -8 -0.5433 2.3888
-3 -10 -7 -0.9428 1.2362
-3 -10 -6 -3.2343 3.4942
-3 -10 -5 -5.2410 -2.4745
-3 -10 -4 3.0841 -1.6649
-3 -10 -3 0.9722 -4.4542
-3 -10 -2 -0.1227 -2.8712
-3 -10 -1 -0.8034 -4.8643
-3 -10 0 -3.1633 0.4124
-3 -9 -13 -0.2026 -0.0962
-3 -9 -12 -1.0229 1.0142
-3 -9 -11 -2.0842 2.1406
-3 -9 -10 -3.5133 1.7818
-3 -9 -9 -4.5258 -0.6946
-3 -9 -8 -4.0610 -2.4233
-3 -9 -7 -4.7658 -5.7521
-3 -9 -6 3.1347 -4.4128
-3 -9 -5 2.1154 -3.2140
-3 -9 -4 2.6198 -2.4077
-3 -9 -3 3.9280 -8.9950
-3 -9 -2 0.4917 -3.5715
-3 -9 -1 -2.9938 -7.2613
-3 -9 0 -2.0087 -4.5580
-3 -8 -13 1.2608 -1.8689
-3 -8 -12 -0.2030 -2.2993
-3 -8 -11 -0.2450 -0.0391
-3 -8 -10 1.1696 0.2190
-3 -8 -9 2.2690 2.1005
-3 -8 -8 0.3511 2.5506
-3 -8 -7 0.0629 1.3979
-3 -8 -6 -4.1168 1.8456
-3 -8 -5 -0.8217 -4.0014
-3 -8 -4 -4.1739 -3.3447
-3 -8 -3 -3.3800 -4.2325
-3 -8 -2 -6.7679 -3.1255
-3 -8 -1 6.6943 4.6349
-3 -8 0 5.1324 0.9412
-3 -7 -13 2.4441 -0.6436
-3 -7 -12 2.0037 -0.3327
-3 -7 -11 0.6309 1.0145
-3 -7 -10 -2.7199 0.6194
-3 -7 -9 -5.4872 -3.7926
-3 -7 -8 -6.3434 0.8032
-3 -7 -7 1.0279 -4.9517
-3 -7 -6 1.6397 -3.9594
-3 -7 -5 0.7866 -5.5112
-3 -7 -4 -3.2842 -2.3720
-3 -7 -3 7.7452 1.0279
-3 -7 -2 -1.5563 11.6946
-3 -7 -1 -2.4409 8.4667
-3 -7 0 -4.6530 9.2837
-3 -6 -14 -1.5634 0.2289
-3 -6 -13 -1.8474 0.8175
-3 -6 -12 1.2502 -0.3723
-3 -6 -11 1.7878 -0.6768
-3 -6 -10 1.5111 -1.3267
-3 -6 -9 -0.5353 -5.2370
-3 -6 -8 -3.5864 -3.6966
-3 -6 -7 -5.3048 2.1019
-3 -6 -6 -4.2241 -6.6193
-3 -6 -5 2.3549 -8.4281
-3 -6 -4 1.0327 -4.8587
-3 -6 -3 3.0015 -6.1679
-3 -6 -2 12.3278 -19.7441
-3 -6 -1 8.2627 -6.3743
-3 -6 0 -0.4859 2.7596
-3 -5 -14 0.1906 -0.6252
-3 -5 -13 -0.0899 0.3275
-3 -5 -12 -1.1040 -0.7328
-3 -5 -11 -0.6818 -1.2076
-3 -5 -10 2.2789 0.7000
-3 -5 -9 5.1120 0.9933
-3 -5 -8 -2.5277 -3.5700
-3 -5 -7 -1.8340 0.6634
-3 -5 -6 6.2222 4.9433
-3 -5 -5 17.8111 4.5021
-3 -5 -4 17.9786 1.8354
-3 -5 -3 25.7552 13.8692
-3 -5 -2 5.2039 5.1737
-3 -5 -1 -1.9275 3.4798
-3 -5 0 -0.5529 8.5670
-3 -4 -14 -0.0361 0.4461
-3 -4 -13 -0.9697 1.2092
-3 -4 -12 -1.7246 0.9471
-3 -4 -11 -1.4512 -1.4533
-3 -4 -10 3.4159 -3.2892
-3 -4 -9 5.2024 -3.0461
-3 -4 -8 4.0439 -0.9861
-3 -4 -7 -2.2185 2.7104
-3 -4 -6 -6.8775 2.8205
-3 -4 -5 -4.7368 6.5582
-3 -4 -4 -12.8400 4.7961
-3 -4 -3 -7.7086 -7.0164
-3 -4 -2 -0.3893 -15.6666
-3 -4 -1 -26.6316 -11.6182
-3 -4 0 -5.0505 7.1266
-3 -3 -14 -2.9910 0.5786
-3 -3 -13 -2.8339 0.4163
-3 -3 -12 0.3728 -1.8147
-3 -3 -11 3.3331 -3.0762
-3 -3 -10 2.4080 -3.3508
-3 -3 -9 -0.5196 -4.4761
-3 -3 -8 -1.7440 -6.8821
-3 -3 -7 6.6276 -1.2223
-3 -3 -6 -3.0149 1.6854
-3 -3 -5 -4.5452 -5.7488
-3 -3 -4 2.4501 -2.8263
-3 -3 -3 -9.3353 11.1160
-3 -3 -2 -7.1285 3.2731
-3 -3 -1 -32.7593 3.0451
-3 -3 0 -54.8855 14.5762
-3 -2 -14 -2.2978 -0.6544
-3 -2 -13 -0.4193 -0.7611
-3 -2 -12 0.7341 0.9982
-3 -2 -11 -0.0397 1.1776
-3 -2 -10 -0.5680 2.6193
-3 -2 -9 4.5878 4.1312
-3 -2 -8 0.5013 2.1170
-3 -2 -7 0.8683 3.0632
-3 -2 -6 15.4445 20.1632
-3 -2 -5 4.8702 21.4527
-3 -2 -4 0.2478 -2.6210
-3 -2 -3 -2.4064 0.3931
-3 -2 -2 2.5282 4.7162
-3 -2 -1 22.2505 -16.3249
-3 -2 0 -6.3498 -12.5815
-3 -1 -13 0.7669 -1.1557
-3 -1 -12 1.9007 -2.3068
-3 -1 -11 0.5990 1.6284
-3 -1 -10 -4.4492 2.2813
-3 -1 -9 -0.3496 1.6671
-3 -1 -8 3.9631 2.7527
-3 -1 -7 -10.3737 5.3377
-3 -1 -6 2.9908 3.4918
-3 -1 -5 31.5917 15.3335
-3 -1 -4 4.9477 8.1550
-3 -1 -3 -20.8701 3.0526
-3 -1 -2 -36.1028 5.3942
-3 -1 -1 -12.5044 -5.2385
-3 -1 0 2.1855 -19.2944
-3 0 1 -5.8619 1.8150
-3 0 3 13.9916 -0.9717
-3 0 4 14.2097 0.2926
-3 0 5 5.8948 0.8551
-3 0 6 4.6721 -0.9531
-3 0 7 -4.2946 -0.3188
-3 0 8 1.9330 0.9953
-3 0 9 -2.6542 -0.3494
-3 0 10 0.0269 -0.5644
-3 0 11 2.8845 0.6907
-3 0 12 1.5315 0.0256
-3 0 13 1.3859 -0.5886
-3 0 14 2.5519 0.3769
-3 0 15 -0.0661 0.2383
-3 0 16 -2.1684 -0.4825
-3 0 17 -0.9886 0.0806
-3 1 1 27.7791 -9.0701
-3 1 2 14.1242 -11.1886
-3 1 3 -13.8907 -3.1774
-3 1 4 -21.2376 -13.3958
-3 1 5 -38.3092 3.1614
-3 1 6 -4.8760 -2.4440
-3 1 7 7.1045 -3.0759
-3 1 8 3.4348 -2.8859
-3 1 9 -4.8221 3.2701
-3 1 10 -6.6709 0.8493
-3 1 11 2.5926 -1.8420
-3 1 12 5.5003 -0.7246
-3 1 13 3.3067 -2.6218
-3 1 14 2.9254 -0.6056
-3 1 15 3.4209 0.3360
-3 1 16 -3.3318 1.4153
-3 1 17 -3.1250 -0.1694
-3 2 1 2.2521 -4.9136
-3 2 2 13.3330 -24.3623
-3 2 3 -10.5699 -3.3096
-3 2 4 -2.6336 1.6124
-3 2 5 2.2861 3.6730
-3 2 6 -2.5614 6.6819
-3 2 7 -3.8521 -3.8225
-3 2 8 -6.9300 -8.0459
-3 2 9 1.6555 -4.0816
-3 2 10 -1.2424 4.2069
-3 2 11 -5.0727 0.1731
-3 2 12 -1.7668 -4.0199
-3 2 13 1.3348 -3.3279
-3 2 14 -2.2959 -1.9356
-3 2 15 0.3420 -2.1894
-3 2 16 0.7512 -0.0321
-3 3 1 21.7219 21.1211
-3 3 2 17.4370 2.4182
-3 3 3 -1.3639 8.6111
-3 3 4 6.6196 15.6404
-3 3 5 6.1212 -4.7329
-3 3 6 5.9375 -3.5446
-3 3 7 3.8659 8.6100
-3 3 8 2.9356 10.8931
-3 3 9 -4.3266 -0.9526
-3 3 10 -3.0697 -5.2352
-3 3 11 -0.0125 0.6402
-3 3 12 -0.6616 2.0151
-3 3 13 0.1099 0.2462
-3 3 14 -1.9552 -1.5630
-3 3 15 -0.8557 -0.6768
-3 3 16 -1.5641 -2.1079
-3 4 1 9.3818 -1.0077
-3 4 2 14.1306 -6.5283
-3 4 3 -5.7550 -13.1927
-3 4 4 -10.6291 1.6333
-3 4 5 -4.2118 17.3250
-3 4 6 1.7456 19.5056
-3 4 7 5.1146 12.1773
-3 4 8 5.9784 3.6751
-3 4 9 3.0812 3.3035
-3 4 10 -0.8528 -0.3298
-3 4 11 -0.8877 1.1893
-3 4 12 -1.4221 -2.4905
-3 4 13 0.2399 -0.9150
-3 4 14 -0.5661 -2.0052
-3 4 15 -0.3111 -0.4818
-3 4 16 0.7678 -1.0889
-3 5 1 -10.4238 10.3595
-3 5 2 -7.9178 0.7097
-3 5 3 -6.0896 -22.6027
-3 5 4 -4.8882 -11.1272
-3 5 5 -3.4447 -3.8025
-3 5 6 3.3349 -0.3760
-3 5 7 3.0701 -2.6013
-3 5 8 0.4367 -0.9781
-3 5 9 1.6882 0.3054
-3 5 10 2.7207 -5.2090
-3 5 11 2.3970 -3.5597
-3 5 12 1.7899 -0.5375
-3 5 13 2.3130 0.5881
-3 5 14 1.5102 -0.2893
-3 5 15 -3.1372 2.4231
-3 5 16 -2.9079 1.5724
-3 6 1 -4.1894 -15.6658
-3 6 2 3.6277 7.6347
-3 6 3 0.7744 8.7575
-3 6 4 -1.2187 6.9823
-3 6 5 -5.0939 3.5426
-3 6 6 -5.3453 2.6292
-3 6 7 -5.4801 -0.8022
-3 6 8 -2.5080 -6.5604
-3 6 9 -0.9358 -7.1486
-3 6 10 0.2096 -3.2031
-3 6 11 -3.8098 1.4317
-3 6 12 -0.5081 3.1960
-3 6 13 -0.8746 2.7732
-3 6 14 1.5389 -0.7676
-3 6 15 0.0899 -0.7641
-3 6 16 -0.0704 0.5258
-3 7 1 2.1934 -2.7105
-3 7 2 1.0958 -1.4803
-3 7 3 1.5990 6.4025
-3 7 4 2.2410 6.6277
-3 7 5 3.2480 2.9287
-3 7 6 3.3580 3.5797
-3 7 7 5.1279 -0.4350
-3 7 8 4.3513 -2.1139
-3 7 9 1.0215 0.2178
-3 7 10 3.4295 0.9095
-3 7 11 4.5904 -1.1904
-3 7 12 4.7992 -3.0350
-3 7 13 -0.0396 0.1682
-3 7 14 -1.2231 0.1880
-3 7 15 -0.6062 -1.1377
-3 7 16 -0.8193 -0.0350
-3 8 1 8.6238 1.2366
-3 8 2 -1.0551 2.0768
-3 8 3 -1.3415 4.4683
-3 8 4 -0.1629 5.9372
-3 8 5 3.0094 -1.5376
-3 8 6 -0.1138 -0.1373
-3 8 7 2.8215 0.0770
-3 8 8 2.8005 0.4715
-3 8 9 0.1234 -0.0026
-3 8 10 1.3150 -0.1450
-3 8 11 -0.0099 -0.8588
-3 8 12 -1.1273 -2.2914
-3 8 13 -1.4658 -2.9612
-3 8 14 -0.9149 0.7071
-3 8 15 -0.3066 0.4806
-3 9 1 -6.6123 -3.0951
-3 9 2 -10.5677 -6.6805
-3 9 3 -3.5717 -7.1112
-3 9 4 -1.8344 3.1708
-3 9 5 -1.7360 2.1916
-3 9 6 -2.7114 -1.4606
-3 9 7 -2.8311 -1.8608
-3 9 8 0.6081 -2.0643
-3 9 11 1.6422 0.8219
-3 9 12 3.4072 1.3410
-3 9 13 0.8878 0.1769
-3 10 1 7.0717 1.4434
-3 10 2 2.5267 6.2755
-3 10 3 -2.2975 3.7437
-3 10 4 -1.0411 -2.6199
-3 10 5 1.1636 0.3212
-3 10 6 4.0855 -0.1467
-3 10 7 1.1173 0.2606
-3 10 8 -3.0935 -0.9653
-3 11 1 0.4266 2.1053
-3 11 2 6.5115 -2.6745
-3 11 3 3.3797 2.9877
-3 11 4 3.2544 4.9065
-3 11 5 -0.3753 6.7496
-3 11 6 0.9846 9.9883
-3 11 7 3.0095 2.2454
-3 12 1 -1.6210 2.3578
-3 12 2 0.7587 -1.4996
-3 12 3 -2.9772 -2.8832
-3 12 4 -2.2926 2.9815
-3 12 5 1.4141 2.6277
-3 12 6 2.7817 5.0912
-3 12 7 8.5907 2.6206
-3 13 1 -0.3744 -1.3863
-3 13 2 3.6085 1.4216
-3 13 3 2.8531 -1.5124
-3 13 4 -2.5119 2.7716
-3 13 5 -0.2520 -1.2846
-3 13 6 -2.2499 1.2608
-3 14 1 0.8399 1.9642
-3 14 2 -1.6311 -0.9664
-3 14 3 0.3045 -3.4933
-3 14 4 0.8942 -2.5487
-3 14 5 -1.3489 -1.1252
-3 14 6 -3.6889 -3.1750
-3 15 1 -0.1832 1.9412
-3 15 2 -0.2227 1.4109
-3 15 3 -2.0861 0.8717
-3 15 4 -3.1925 1.0099
-3 15 5 0.9449 2.0386
-3 16 2 4.8361 -1.2777
-3 16 3 2.3418 -3.2952
-3 16 4 -1.4527 -2.5461
-3 17 3 -1.9447 1.8664
-2 -20 -3 -2.1045 2.5345
-2 -20 -2 -0.9576 -0.6439
-2 -20 -1 0.8763 -1.5279
-2 -20 0 -0.7150 -0.9280
-2 -19 -5 0.6797 3.8482
-2 -19 -4 0.8575 0.9678
-2 -19 -3 -1.6434 1.3641
-2 -19 -2 -4.2907 5.4753
-2 -19 -1 -4.1184 4.5826
-2 -19 0 -0.1634 -3.3763
-2 -18 -7 0.4754 0.6581
-2 -18 -6 0.6928 -0.6575
-2 -18 -5 0.5557 0.8289
-2 -18 -4 1.2205 2.3665
-2 -18 -3 1.3382 -0.2237
-2 -18 -2 2.2790 -3.0422
-2 -18 -1 5.1709 2.9734
-2 -18 0 6.9033 4.0390
-2 -17 -8 -1.5841 -0.1010
-2 -17 -7 -1.1215 0.1483
-2 -17 -6 0.5818 -0.9502
-2 -17 -5 -0.0692 -1.6022
-2 -17 -4 -1.2270 -0.5958
-2 -17 -3 1.7638 1.9607
-2 -17 -2 0.4488 -1.4990
-2 -17 -1 -6.8504 0.2407
-2 -17 0 -4.6126 6.4445
-2 -16 -9 -0.7483 1.6017
-2 -16 -8 -0.3583 1.9940
-2 -16 -7 -1.3197 1.7299
-2 -16 -6 -5.3059 -0.2579
-2 -16 -5 -4.4123 -1.7378
-2 -16 -4 -3.7670 -0.8115
-2 -16 -3 -4.1772 2.9425
-2 -16 -2 -3.2416 0.7682
-2 -16 -1 -3.6804 -2.4291
-2 -16 0 -0.9745 -0.0848
-2 -15 -10 1.3483 -1.4722
-2 -15 -9 -0.2909 0.0978
-2 -15 -8 -3.7668 1.1722
-2 -15 -7 -3.1578 -1.1979
-2 -15 -6 -2.0337 -2.3761
-2 -15 -5 -2.7744 0.7806
-2 -15 -4 -0.7234 0.8194
-2 -15 -3 -1.6309 -0.6102
-2 -15 -2 1.3363 1.4269
-2 -15 -1 0.5710 3.6164
-2 -15 0 2.7052 2.1888
-2 -14 -11 0.5857 1.3765
-2 -14 -10 -0.9226 0.4024
-2 -14 -9 -1.4918 -2.9076
-2 -14 -8 -2.0199 -0.4301
-2 -14 -7 0.0094 3.8638
-2 -14 -6 1.6141 2.9678
-2 -14 -5 0.4632 -1.1465
-2 -14 -4 1.9082 -3.0964
-2 -14 -3 0.5785 0.7169
-2 -14 -2 1.8899 -1.0133
-2 -14 -1 0.1444 2.0356
-2 -14 0 1.7416 0.7828
-2 -13 -11 -2.3610 -0.7692
-2 -13 -10 0.0195 0.8292
-2 -13 -9 -1.3396 -1.2052
-2 -13 -8 -1.7612 -1.6303
-2 -13 -7 0.9391 -0.9873
-2 -13 -6 5.6669 5.8620
-2 -13 -5 -0.3230 8.6678
-2 -13 -4 -5.2299 1.1938
-2 -13 -3 -4.6490 -3.5558
-2 -13 -2 -0.7963 -6.2075
-2 -13 -1 -4.1543 -9.1974
-2 -13 0 -3.6841 -2.9957
-2 -12 -12 2.2421 0.8754
-2 -12 -11 -0.3041 1.4260
-2 -12 -10 1.3784 -1.3414
-2 -12 -9 2.5303 -3.6306
-2 -12 -8 2.7035 0.5218
-2 -12 -7 -1.8723 1.7301
-2 -12 -6 -0.5445 -5.4723
-2 -12 -5 2.1840 -3.3727
-2 -12 -4 3.8978 -1.8207
-2 -12 -3 0.4502 -4.6845
-2 -12 -2 1.6693 -3.0653
-2 -12 -1 -1.0115 -0.8783
-2 -12 0 0.0688 1.6327
-2 -11 -12 -2.0259 -2.8739
-2 -11 -11 -0.7976 -2.2000
-2 -11 -10 0.1830 -1.0419
-2 -11 -9 -0.0300 -2.4178
-2 -11 -8 1.5913 0.1600
-2 -11 -7 3.7657 10.1674
-2 -11 -6 1.0630 7.2971
-2 -11 -5 -0.1506 0.9121
-2 -11 -4 3.3621 2.6943
-2 -11 -3 2.1915 0.6878
-2 -11 -2 0.2742 0.4815
-2 -11 -1 -2.4677 0.2367
-2 -11 0 4.0875 4.8179
-2 -10 -13 -0.4944 -0.3871
-2 -10 -12 -1.1897 0.2539
-2 -10 -11 -0.0386 0.6046
-2 -10 -10 0.4407 3.0973
-2 -10 -9 -0.0971 4.5957
-2 -10 -8 -4.9064 2.8752
-2 -10 -7 -3.0939 1.9020
-2 -10 -6 1.2976 1.9423
-2 -10 -5 -0.1155 -7.8478
-2 -10 -4 -1.0028 -4.2294
-2 -10 -3 -4.6221 -0.4098
-2 -10 -2 -2.2982 0.0991
-2 -10 -1 -4.3513 -1.2742
-2 -10 0 6.4452 3.6276
-2 -9 -13 -0.7432 0.5223
-2 -9 -12 -1.8313 0.8379
-2 -9 -11 -0.6643 -0.3610
-2 -9 -10 0.5802 0.6611
-2 -9 -9 -0.7379 -0.5513
-2 -9 -8 -2.1445 -1.1753
-2 -9 -7 -4.0838 -4.9131
-2 -9 -6 3.2957 2.5945
-2 -9 -5 -2.6546 -2.3887
-2 -9 -4 -4.4656 -4.6161
-2 -9 -3 -5.7564 -3.2821
-2 -9 -2 2.5512 6.4808
-2 -9 -1 0.6515 2.7066
-2 -9 0 2.3396 3.4589
-2 -8 -14 -1.2787 -3.7154
-2 -8 -13 -0.4875 -1.9965
-2 -8 -12 -0.8046 2.9397
-2 -8 -11 -0.0803 5.0676
-2 -8 -10 0.8935 3.9253
-2 -8 -9 -1.5693 4.8812
-2 -8 -8 -3.2510 5.1103
-2 -8 -7 -3.6629 -3.1590
-2 -8 -6 1.9174 -8.9580
-2 -8 -5 3.7513 -6.2438
-2 -8 -4 -1.0400 -0.3053
-2 -8 -3 -8.1568 3.2003
-2 -8 -2 -9.5343 0.9558
-2 -8 -1 -0.9315 5.2860
-2 -8 0 -5.8532 18.8134
-2 -7 -14 -1.8236 -1.1527
-2 -7 -13 -1.4749 -2.5189
-2 -7 -12 -0.8993 -0.6190
-2 -7 -11 -2.3422 -1.0065
-2 -7 -10 -11.9157 -2.8624
-2 -7 -9 -10.4189 -6.9272
-2 -7 -8 -1.9341 -0.7279
-2 -7 -7 3.8864 -0.5502
-2 -7 -6 -7.5990 -2.5396
-2 -7 -5 -7.0975 -7.1394
-2 -7 -4 0.4788 4.0057
-2 -7 -3 26.7630 7.8565
-2 -7 -2 16.9335 17.3629
-2 -7 -1 0.2957 -2.9370
-2 -7 0 -12.0870 8.4787
-2 -6 -14 -1.2898 0.2863
-2 -6 -13 -2.3936 -1.0330
-2 -6 -12 -1.6744 -0.3799
-2 -6 -11 -0.4315 -0.9372
-2 -6 -10 1.0035 0.2313
-2 -6 -9 -0.8276 2.0721
-2 -6 -8 -4.4930 -1.5157
-2 -6 -7 -4.2032 -11.2997
-2 -6 -6 1.8395 -16.0538
-2 -6 -5 4.6545 -17.7971
-2 -6 -4 1.1831 -7.3643
-2 -6 -3 2.6082 -16.4157
-2 -6 -2 10.7374 -19.8108
-2 -6 -1 1.6680 -9.7155
-2 -6 0 -8.5071 11.4525
-2 -5 -14 2.1505 -0.3397
-2 -5 -13 0.4084 0.7675
-2 -5 -12 -3.5792 -3.1053
-2 -5 -11 -0.8834 -1.0975
-2 -5 -10 1.2364 -4.1937
-2 -5 -9 1.5216 -3.2098
-2 -5 -8 2.3017 -2.1766
-2 -5 -7 10.4306 0.5131
-2 -5 -6 14.1029 4.3347
-2 -5 -5 12.5633 8.8243
-2 -5 -4 -6.8358 7.5298
-2 -5 -3 -0.6425 13.9868
-2 -5 -2 -13.6323 11.6342
-2 -5 -1 -8.1858 29.4618
-2 -5 0 -5.9228 21.7683
-2 -4 -15 -0.5730 1.0817
-2 -4 -14 -0.6459 2.0976
-2 -4 -13 1.0749 1.6711
-2 -4 -12 -1.8879 -2.4200
-2 -4 -11 -1.6067 -5.2589
-2 -4 -10 1.9438 -4.8958
-2 -4 -9 2.0739 -0.8748
-2 -4 -8 6.9671 8.9640
-2 -4 -7 8.8475 11.6418
-2 -4 -6 -10.9718 6.1029
-2 -4 -5 -8.5376 1.4501
-2 -4 -4 -14.0868 6.3861
-2 -4 -3 -15.8168 3.3265
-2 -4 -2 -16.3055 -15.4661
-2 -4 -1 -25.3258 -19.4402
-2 -4 0 -12.6817 -6.1469
-2 -3 -14 -3.2867 0.9342
-2 -3 -13 -0.1470 -0.3986
-2 -3 -12 6.0184 -1.9410
-2 -3 -11 3.7161 0.1448
-2 -3 -10 1.6729 -0.4519
-2 -3 -9 0.2456 -1.6771
-2 -3 -8 -1.5325 1.0175
-2 -3 -7 10.2886 4.3737
-2 -3 -6 5.1403 4.5724
-2 -3 -5 -1.0796 4.0925
-2 -3 -4 10.3421 4.5845
-2 -3 -3 2.9684 24.9179
-2 -3 -2 4.7433 19.2926
-2 -3 -1 -11.0232 9.3356
-2 -3 0 -23.6007 16.4588
-2 -2 -14 -0.8449 0.0743
-2 -2 -13 -1.1081 0.1786
-2 -2 -12 -3.0025 -1.4384
-2 -2 -11 -2.1995 -0.0510
-2 -2 -10 1.7527 3.4875
-2 -2 -9 5.3703 2.9327
-2 -2 -8 -0.0584 6.7941
-2 -2 -7 4.7822 13.5580
-2 -2 -6 22.0566 12.3490
-2 -2 -5 4.0906 12.3778
-2 -2 -4 -6.0588 11.3512
-2 -2 -3 6.9809 23.1084
-2 -2 -2 11.3002 16.1768
-2 -2 -1 27.9505 -12.3628
-2 -2 0 12.6520 -22.6214
-2 -1 -13 1.8661 -1.5453
-2 -1 -12 0.8406 -0.1381
-2 -1 -11 -2.5731 2.9345
-2 -1 -10 1.7535 4.2637
-2 -1 -9 6.2742 1.4056
-2 -1 -8 4.8139 -1.7388
-2 -1 -7 -0.4232 1.8475
-2 -1 -6 10.5641 -3.1066
-2 -1 -5 9.0132 0.2206
-2 -1 -4 -32.0928 2.4331
-2 -1 -3 -19.3417 7.8967
-2 -1 -2 -2.4187 7.2941
-2 -1 -1 -4.5021 1.8182
-2 -1 0 -5.9532 6.1947
-2 0 1 26.8200 0.6853
-2 0 2 15.5411 0.7593
-2 0 3 50.2189 -0.9083
-2 0 4 9.6565 0.0346
-2 0 5 5.8813 0.9408
-2 0 6 14.9914 -0.8238
-2 0 7 0.6155 -0.4105
-2 0 8 1.4744 0.9716
-2 0 9 1.0324 -0.2782
-2 0 10 -3.7294 -0.6133
-2 0 11 1.0210 0.6589
-2 0 12 -0.5540 0.0964
-2 0 13 -1.0187 -0.6369
-2 0 14 -1.4248 0.3229
-2 0 15 -2.6376 0.2954
-2 0 16 -1.2385 -0.4009
-2 1 1 45.0016 -1.9047
-2 1 2 9.5404 -13.7558
-2 1 3 -29.1693 -16.8246
-2 1 4 -23.6858 -12.6473
-2 1 5 -22.4387 16.3748
-2 1 6 15.9636 3.6482
-2 1 7 11.7738 -6.8731
-2 1 8 -3.7112 -5.8287
-2 1 9 3.5377 -1.9642
-2 1 10 2.6515 -3.5125
-2 1 11 1.0669 -3.1820
-2 1 12 1.0407 -0.6352
-2 1 13 0.2302 -2.5479
-2 1 14 0.2653 0.2352
-2 1 15 -1.8062 0.9975
-2 1 16 -4.2165 1.2334
-2 2 1 26.3228 6.9616
-2 2 2 27.0809 -14.2112
-2 2 3 -5.8839 18.9513
-2 2 4 -9.1521 2.7146
-2 2 5 -4.3250 1.2609
-2 2 6 -3.8885 2.0335
-2 2 7 7.1160 -2.8982
-2 2 8 -1.1072 -0.1295
-2 2 9 -0.0632 6.3485
-2 2 10 -0.0544 1.0205
-2 2 11 -4.2474 -4.1983
-2 2 12 -1.5444 -3.1222
-2 2 13 -0.0591 -2.1450
-2 2 14 0.3067 -2.3603
-2 2 15 3.6552 -1.1083
-2 2 16 1.9413 2.3938
-2 3 1 15.5981 29.2684
-2 3 2 8.1167 -9.2755
-2 3 3 -3.0379 -14.5003
-2 3 4 6.0417 -7.0498
-2 3 5 2.0010 -9.4175
-2 3 6 -3.5597 1.8456
-2 3 7 -2.0600 1.1686
-2 3 8 -2.6304 -7.4600
-2 3 9 -8.1002 -5.1597
-2 3 10 -3.6300 -1.1167
-2 3 11 0.4458 -2.4793
-2 3 12 -1.5042 -2.2194
-2 3 13 0.4110 -0.5636
-2 3 14 -2.7835 0.1667
-2 3 15 -0.7908 -0.2737
-2 3 16 -1.3966 -1.5326
-2 4 1 -0.5385 15.6837
-2 4 2 11.8524 -1.4187
-2 4 3 -22.1252 -0.8833
-2 4 4 -29.3729 10.0735
-2 4 5 -6.9182 9.0478
-2 4 6 15.3728 -1.9773
-2 4 7 14.5939 -3.8959
-2 4 8 5.2093 -4.4317
-2 4 9 -0.2726 -0.4052
-2 4 10 3.2038 0.7613
-2 4 11 2.2590 0.2329
-2 4 12 -1.8360 -3.8039
-2 4 13 0.1928 -2.6464
-2 4 14 -0.0837 -2.1282
-2 4 15 1.0734 -1.3873
-2 4 16 2.2416 -1.0855
-2 5 1 -20.1239 23.4424
-2 5 2 -21.0285 -3.4889
-2 5 3 -9.0476 -27.4300
-2 5 4 -3.7502 -6.6613
-2 5 5 -4.5797 2.2780
-2 5 6 4.5464 -3.1607
-2 5 7 5.3824 -3.4308
-2 5 8 7.6354 -2.2527
-2 5 9 5.6670 -0.1214
-2 5 10 2.9335 -4.8660
-2 5 11 2.4066 -0.4123
-2 5 12 0.6440 0.5215
-2 5 13 2.4335 1.1678
-2 5 14 0.8619 0.7859
-2 5 15 -3.0974 2.4989
-2 5 16 -2.8845 -0.7254
-2 6 1 3.7221 -32.6708
-2 6 2 8.0909 -0.4615
-2 6 3 -8.5929 1.5279
-2 6 4 -1.9845 -3.7850
-2 6 5 -3.8691 8.5216
-2 6 6 -2.5763 14.1965
-2 6 7 -2.6055 6.0501
-2 6 8 -0.1610 -5.8908
-2 6 9 -0.2123 -5.1281
-2 6 10 -0.4570 1.0463
-2 6 11 2.7680 0.8541
-2 6 12 3.9219 -0.2053
-2 6 13 0.3459 -0.0150
-2 6 14 0.9222 -0.8111
-2 6 15 1.5260 1.3144
-2 6 16 0.5653 1.4607
-2 7 1 -3.1963 1.4245
-2 7 2 2.3724 -10.9678
-2 7 3 0.0661 -2.5833
-2 7 4 0.8114 2.4348
-2 7 5 -4.8077 -0.0340
-2 7 6 -2.1935 3.2301
-2 7 7 3.1545 -1.6410
-2 7 8 1.0390 0.5765
-2 7 9 -3.4558 2.3542
-2 7 10 2.2731 3.6161
-2 7 11 5.3900 2.5427
-2 7 12 3.9387 -0.1183
-2 7 13 -3.8145 2.6642
-2 7 14 -3.8743 0.7397
-2 7 15 -0.7702 -0.0643
-2 8 1 -6.0684 -8.2879
-2 8 2 -4.3279 0.2657
-2 8 3 -2.6259 -4.5413
-2 8 4 -1.3974 -2.0202
-2 8 5 1.3240 -5.0547
-2 8 6 -2.1451 3.9609
-2 8 9 1.3469 1.4156
-2 8 10 0.7206 0.1251
-2 8 11 -0.3511 0.9830
-2 8 12 2.0378 -2.0147
-2 8 13 3.1559 -1.1325
-2 8 14 2.0929 2.4277
-2 9 1 -14.2567 -5.0399
-2 9 2 -9.2723 2.4690
-2 9 3 2.6970 2.2380
-2 9 4 -4.2044 5.9023
-2 9 5 -4.4312 -1.1792
-2 9 6 -1.2944 -1.0486
-2 10 1 17.4662 -4.8902
-2 10 2 3.1291 -2.3935
-2 10 3 3.4051 -1.5203
-2 10 4 7.8539 -1.4172
-2 10 5 0.3407 7.9455
-2 11 1 3.3043 -2.3030
-2 11 2 6.9738 -7.1875
-2 11 3 -1.4968 3.0953
-2 11 4 -0.6781 2.5099
-2 11 5 -1.2157 -4.2065
-2 12 1 1.2612 4.9878
-2 12 2 4.2723 -0.6680
-2 12 3 -1.6490 -2.9094
-2 12 4 2.2905 3.6624
-2 13 1 1.2658 -2.3580
-2 13 2 -0.9389 1.3449
-2 13 3 -3.5046 -3.4894
-2 13 4 -4.6243 -1.0139
-2 14 1 0.6160 -1.7691
-2 14 2 -0.8626 -1.3670
-2 14 3 0.1031 0.3249
-2 15 1 0.8681 0.5691
-2 15 2 -2.1811 -2.2596
-1 -21 -1 -2.2854 1.0286
-1 -21 0 -2.4769 0.3273
-1 -20 -4 0.2853 0.6354
-1 -20 -3 -0.6805 2.7688
-1 -20 -2 -1.2374 -1.1892
-1 -20 -1 1.5479 -0.4617
-1 -20 0 0.1169 -0.1053
-1 -19 -6 3.2529 1.3214
-1 -19 -5 2.1974 -0.2833
-1 -19 -4 0.0536 -4.7276
-1 -19 -3 -0.1434 -1.8615
-1 -19 -2 -2.0172 1.2643
-1 -19 -1 -1.8337 -0.8206
-1 -19 0 0.5025 -3.1180
-1 -18 -8 -0.7104 1.6218
-1 -18 -7 -2.3409 0.2784
-1 -18 -6 0.8642 -1.3297
-1 -18 -5 2.2434 -0.4374
-1 -18 -4 -0.5039 -0.9111
-1 -18 -2 3.6399 -2.4373
-1 -18 -1 2.5790 0.5725
-1 -18 0 0.4375 0.4567
-1 -17 -9 -0.4552 -0.4894
-1 -17 -8 -0.2393 -0.1755
-1 -17 -7 -0.7122 2.6590
-1 -17 -6 -0.9753 1.3059
-1 -17 -5 0.2767 1.0595
-1 -17 -4 -0.6292 0.4348
-1 -17 -3 0.4772 2.4420
-1 -17 -2 2.4033 2.6748
-1 -17 -1 -0.3131 2.4685
-1 -17 0 -0.4097 2.8806
-1 -16 -10 0.9173 1.5018
-1 -16 -9 0.0389 1.4609
-1 -16 -8 -3.2539 -0.6070
-1 -16 -7 -4.2242 -1.8664
-1 -16 -6 -4.3419 -2.7286
-1 -16 -5 0.0225 -1.7373
-1 -16 -4 1.3951 1.2202
-1 -16 -3 -0.2557 1.9968
-1 -16 -2 2.7599 0.9778
-1 -16 -1 8.0493 1.9238
-1 -16 0 8.4632 -0.1064
-1 -15 -11 -0.9414 0.2436
-1 -15 -10 0.5557 -0.0313
-1 -15 -9 0.0276 1.8065
-1 -15 -8 -1.0920 2.7334
-1 -15 -7 -2.9321 3.6459
-1 -15 -6 -2.1604 3.8790
-1 -15 -5 -1.9352 -0.5685
-1 -15 -4 -0.6348 -2.3212
-1 -15 -3 -0.9364 -0.0177
-1 -15 -2 -1.3939 -0.4077
-1 -15 -1 -0.5771 0.8212
-1 -15 0 1.4461 -0.1076
-1 -14 -11 -0.7488 1.8969
-1 -14 -10 -3.5335 0.0934
-1 -14 -9 -3.8013 -1.0865
-1 -14 -8 -1.0639 -1.4545
-1 -14 -7 1.8830 -0.1029
-1 -14 -6 2.8728 2.7116
-1 -14 -5 0.2208 0.3050
-1 -14 -4 -1.1668 -4.5287
-1 -14 -3 0.6424 3.2164
-1 -14 -2 4.2177 -2.0932
-1 -14 -1 -0.2172 -2.5196
-1 -14 0 1.4203 -2.9026
-1 -13 -12 -2.4682 -0.2907
-1 -13 -11 -3.1528 -1.8686
-1 -13 -10 -2.8647 0.3801
-1 -13 -9 -3.2193 -1.4029
-1 -13 -8 1.4249 1.2712
-1 -13 -7 2.3807 0.0602
-1 -13 -6 1.1818 0.0150
-1 -13 -5 -1.9054 2.1879
-1 -13 -4 -2.9925 -6.4630
-1 -13 -3 1.2997 -5.4914
-1 -13 -2 8.1157 -2.6808
-1 -13 -1 3.8729 -3.5042
-1 -13 0 2.4337 0.6949
-1 -12 -13 -0.2086 0.0500
-1 -12 -12 0.2620 2.9588
-1 -12 -11 -3.9108 0.2926
-1 -12 -10 0.0114 -1.2076
-1 -12 -9 -1.2825 -0.1508
-1 -12 -8 0.9965 0.3471
-1 -12 -7 4.0475 -2.9170
-1 -12 -6 5.4898 -10.5615
-1 -12 -5 4.5075 -5.4653
-1 -12 -4 1.2520 -0.4049
-1 -12 -3 -7.6154 1.5071
-1 -12 -2 -5.0435 7.4059
-1 -12 -1 -1.0004 4.8414
-1 -12 0 4.2873 -0.5198
-1 -11 -13 -2.2071 -2.4168
-1 -11 -12 0.2698 -3.2658
-1 -11 -11 0.2374 -0.9499
-1 -11 -10 0.3944 -1.5528
-1 -11 -9 1.0651 -0.9832
-1 -11 -8 -0.2212 3.1602
-1 -11 -7 -0.2187 6.7054
-1 -11 -6 -0.7722 1.0388
-1 -11 -5 -2.3036 -2.7779
-1 -11 -4 -0.5621 1.5198
-1 -11 -3 -1.7067 3.9173
-1 -11 -2 -0.7293 7.1985
-1 -11 -1 -5.1230 6.9158
-1 -11 0 2.5316 3.9714
-1 -10 -13 -1.8019 0.9444
-1 -10 -12 -2.2180 0.8463
-1 -10 -11 -0.7270 0.5284
-1 -10 -10 0.1852 2.5893
-1 -10 -9 0.7576 2.5331
-1 -10 -8 -0.7747 1.6736
-1 -10 -7 2.9325 -1.0783
-1 -10 -6 8.0188 -5.2052
-1 -10 -5 7.0831 -7.1008
-1 -10 -4 5.0306 1.5474
-1 -10 -3 0.3583 7.6568
-1 -10 -2 6.4368 1.9703
-1 -10 -1 -1.8221 4.4326
-1 -10 0 -5.5321 8.4093
-1 -9 -14 -0.7145 1.3189
-1 -9 -13 0.2754 1.4680
-1 -9 -12 3.1051 0.9959
-1 -9 -11 5.6021 -1.6833
-1 -9 -10 4.2919 -0.4816
-1 -9 -9 0.6796 -5.2430
-1 -9 -8 0.9637 -2.3841
-1 -9 -7 4.7895 -0.9084
-1 -9 -6 6.7917 1.9518
-1 -9 -5 -4.6478 -2.9192
-1 -9 -4 -4.8395 -0.9723
-1 -9 -3 -6.1277 1.6788
-1 -9 -2 4.1993 1.1401
-1 -9 -1 7.4096 -3.3807
-1 -9 0 4.1981 -2.7849
-1 -8 -14 -0.3714 -0.7893
-1 -8 -13 -1.5552 1.7252
-1 -8 -12 -1.6702 5.5046
-1 -8 -11 -3.9076 3.6546
-1 -8 -10 -3.9590 5.1168
-1 -8 -9 -5.4540 1.8163
-1 -8 -8 -4.1397 -1.3189
-1 -8 -7 -1.8188 -1.2739
-1 -8 -6 6.5232 -3.5365
-1 -8 -5 -2.7775 -2.7991
-1 -8 -4 -1.0545 0.7393
-1 -8 -3 -7.8874 4.1440
-1 -8 -2 -12.3442 -6.1874
-1 -8 -1 -10.5656 -3.0170
-1 -8 0 -0.3261 19.9769
-1 -7 -14 -1.4654 -0.2605
-1 -7 -13 1.7530 -1.0933
-1 -7 -12 1.9888 -0.2755
-1 -7 -11 -1.9605 -1.5787
-1 -7 -10 -5.8442 2.5286
-1 -7 -9 6.0499 3.6521
-1 -7 -8 2.1929 -0.3533
-1 -7 -7 -11.7971 0.8197
-1 -7 -6 -11.4516 -0.4398
-1 -7 -5 1.2851 -6.3264
-1 -7 -4 8.6647 -3.3265
-1 -7 -3 24.8626 -1.9732
-1 -7 -2 0.4825 5.9873
-1 -7 -1 -31.8534 -22.3560
-1 -7 0 -6.7556 9.8116
-1 -6 -15 1.6580 -0.5413
-1 -6 -14 0.6537 0.5883
-1 -6 -13 -0.3227 -1.9138
-1 -6 -12 -2.9490 0.0080
-1 -6 -11 -0.8460 -1.7828
-1 -6 -10 -0.0047 3.6987
-1 -6 -9 2.7709 6.3811
-1 -6 -8 3.9115 -7.9186
-1 -6 -7 2.4385 -17.6718
-1 -6 -6 9.5708 -1.7585
-1 -6 -5 5.9056 -10.2631
-1 -6 -4 -13.0996 -11.7669
-1 -6 -3 -18.2595 -36.6477
-1 -6 -2 2.9122 -16.0973
-1 -6 -1 -14.7232 -2.6058
-1 -6 0 -41.8456 10.0468
-1 -5 -15 0.0113 0.1218
-1 -5 -14 1.5741 0.9043
-1 -5 -13 -1.5392 -0.3781
-1 -5 -12 -1.7500 -2.5395
-1 -5 -11 2.1694 -0.7279
-1 -5 -10 -0.4376 -10.1993
-1 -5 -9 0.6583 -4.9587
-1 -5 -8 11.1118 4.0737
-1 -5 -7 12.8247 2.9535
-1 -5 -6 11.1256 10.5522
-1 -5 -5 11.5407 10.3934
-1 -5 -4 1.8756 9.8419
-1 -5 -3 12.6976 9.2556
-1 -5 -2 18.5620 2.3278
-1 -5 -1 34.6378 17.7694
-1 -5 0 12.8989 -1.2530
-1 -4 -15 -1.1790 1.8205
-1 -4 -14 -0.9745 0.7129
-1 -4 -13 2.1516 0.1176
-1 -4 -12 -1.4207 -3.4735
-1 -4 -11 1.5680 0.2997
-1 -4 -10 -1.0957 2.8940
-1 -4 -9 -1.3823 3.2622
-1 -4 -8 4.7574 11.1451
-1 -4 -7 0.5381 9.6074
-1 -4 -6 -15.8617 -0.9998
-1 -4 -5 10.6087 -16.2591
-1 -4 -4 4.2955 -4.8221
-1 -4 -3 -9.7262 6.1403
-1 -4 -2 -9.6039 -22.8048
-1 -4 -1 7.4385 -27.2461
-1 -4 0 -0.3796 0.4714
-1 -3 -14 -0.8779 0.2426
-1 -3 -13 1.5041 -0.7791
-1 -3 -12 0.6291 -0.0841
-1 -3 -11 -0.8714 0.0459
-1 -3 -10 5.6995 0.5070
-1 -3 -9 5.5251 0.3746
-1 -3 -8 0.5968 -4.1348
-1 -3 -7 8.1538 -3.9933
-1 -3 -6 1.6723 16.3163
-1 -3 -5 -1.1848 12.5434
-1 -3 -4 5.7371 -11.8006
-1 -3 -3 -2.0817 18.7861
-1 -3 -2 -7.8907 28.5897
-1 -3 -1 -4.8156 -11.1225
-1 -3 0 1.4935 8.4195
-1 -2 -15 0.2758 0.8605
-1 -2 -14 -0.2101 -0.3227
-1 -2 -13 -1.9129 -0.7102
-1 -2 -12 -2.3708 -4.1905
-1 -2 -11 -1.1531 -1.6816
-1 -2 -10 2.0639 -5.7613
-1 -2 -9 1.9937 -5.1378
-1 -2 -8 1.4701 4.4006
-1 -2 -7 1.7917 1.3882
-1 -2 -6 3.9491 3.7174
-1 -2 -5 -3.2523 30.3562
-1 -2 -4 -8.2278 12.2165
-1 -2 -3 5.4145 -10.7161
-1 -2 -2 1.1329 4.5410
-1 -2 -1 -6.6286 -2.7190
-1 -2 0 -21.9682 -47.8179
-1 -1 -15 -1.4953 -0.1620
-1 -1 -14 -0.2018 -0.3773
-1 -1 -13 1.9357 0.6181
-1 -1 -12 1.6166 1.4716
-1 -1 -11 2.2006 3.3185
-1 -1 -10 9.5874 3.7503
-1 -1 -9 6.9661 -1.3564
-1 -1 -8 6.3900 -1.4798
-1 -1 -7 6.4801 0.1874
-1 -1 -6 -13.3305 -16.7141
-1 -1 -5 -9.7057 -3.2688
-1 -1 -4 -6.7242 14.9810
-1 -1 -3 5.1337 8.5005
-1 -1 -2 7.7364 6.4618
-1 -1 -1 8.0007 38.2101
-1 0 1 83.4991 1.2218
-1 0 2 46.7798 1.1931
-1 0 3 55.1464 -0.9154
-1 0 4 25.3836 -0.0557
-1 0 5 16.9885 0.9759
-1 0 6 9.4341 -0.7275
-1 0 7 -1.1160 -0.5184
-1 0 8 1.8233 0.9714
-1 0 9 3.2295 -0.1551
-1 0 10 -5.5037 -0.7070
-1 0 11 -1.3233 0.6433
-1 0 12 -3.4841 0.1836
-1 0 13 -4.3031 -0.6556
-1 0 14 -2.2321 0.2907
-1 0 15 -0.9534 0.3422
-1 0 16 1.3924 -0.4398
-1 1 1 35.5724 -18.7912
-1 1 2 -13.6240 -30.5170
-1 1 3 -42.3030 -21.1963
-1 1 4 -7.9273 -1.5893
-1 1 5 12.4468 12.8373
-1 1 6 17.9673 7.1100
-1 1 7 4.9476 0.8008
-1 1 8 -3.5679 -2.1554
-1 1 9 8.0350 -3.8519
-1 1 10 -0.4980 -1.4562
-1 1 11 -3.8834 0.8858
-1 1 12 -0.9946 2.5260
-1 1 13 -2.0970 -3.0429
-1 1 14 -1.4885 -1.2972
-1 1 15 -0.8031 -0.2477
-1 1 16 -0.3531 -0.2704
-1 2 1 3.4204 20.4290
-1 2 2 7.2570 -10.8167
-1 2 3 -29.2684 20.1303
-1 2 4 -30.9416 4.7289
-1 2 5 -3.7340 -5.4669
-1 2 6 0.6140 -7.2120
-1 2 7 8.6190 3.5658
-1 2 8 0.1789 7.1666
-1 2 9 -0.5154 4.0322
-1 2 10 1.7462 -2.0655
-1 2 11 -3.1393 -2.9847
-1 2 12 2.3511 -0.4394
-1 2 13 2.3173 -1.4713
-1 2 14 -0.3349 -0.7073
-1 2 15 0.4441 2.7139
-1 2 16 -0.2664 3.8169
-1 3 1 7.2769 43.6484
-1 3 2 13.3997 -23.0237
-1 3 3 8.4669 -35.4206
-1 3 4 -13.1784 -2.5437
-1 3 5 -17.5982 2.5261
-1 3 6 -14.1505 -16.0462
-1 3 7 -4.6501 -22.2211
-1 3 8 -2.1507 -12.5271
-1 3 9 -3.8192 -0.7604
-1 3 10 -1.0770 -3.3013
-1 3 11 -2.6782 -4.9750
-1 3 12 -7.0773 -2.0490
-1 3 13 0.5750 0.3197
-1 3 14 -0.5913 -1.2209
-1 3 15 0.9942 -1.8514
-1 3 16 0.6410 -1.4700
-1 4 1 -5.7934 27.0072
-1 4 2 -16.3049 23.5448
-1 4 3 -49.5124 -1.3574
-1 4 4 -50.5131 -9.3066
-1 4 5 -10.4678 -2.1542
-1 4 6 12.0931 -7.1620
-1 4 7 2.9979 -5.8992
-1 4 8 -3.0274 -2.0542
-1 4 9 2.0209 5.2240
-1 4 10 5.9335 3.8266
-1 4 11 2.8739 -1.3536
-1 4 12 -3.9080 -2.3775
-1 4 13 -0.7663 -2.3835
-1 4 14 0.7321 -1.7033
-1 4 15 1.5353 -1.7954
-1 4 16 1.8805 0.3444
-1 5 1 -4.8772 -2.8614
-1 5 3 23.7419 -16.6964
-1 5 4 16.1337 -7.7135
-1 5 5 -0.2153 5.5570
-1 5 6 4.8111 2.8850
-1 5 7 4.1211 2.5792
-1 5 8 7.4609 -4.8282
-1 5 9 0.8029 -0.0578
-1 5 10 -2.3239 1.5374
-1 5 11 0.4129 1.5139
-1 5 12 0.8753 -1.0288
-1 5 13 -0.6656 2.4780
-1 5 14 -3.0258 3.6525
-1 5 15 -3.7775 3.1746
-1 5 16 -1.4641 -0.3434
-1 6 1 -3.2797 -24.2296
-1 6 2 15.1995 -10.6358
-1 6 3 0.4275 -2.3242
-1 6 4 9.3475 -6.3964
-1 6 6 6.2167 12.1523
-1 6 7 3.6562 2.8610
-1 6 8 -0.9039 -4.9680
-1 6 9 -3.0784 -0.0120
-1 6 10 0.4472 7.0763
-1 6 11 9.2375 5.7149
-1 6 12 5.1395 1.7824
-1 6 13 0.7710 1.7363
-1 6 14 0.1923 0.4660
-1 6 15 1.0768 1.3499
-1 6 16 -0.4423 0.6341
-1 7 1 -37.3061 27.6964
-1 7 2 -15.5105 7.1483
-1 7 3 -16.1277 14.2245
-1 7 4 -13.4190 15.9649
-1 7 8 -5.2576 5.8679
-1 7 9 -5.1574 1.9740
-1 7 10 0.9815 0.0461
-1 7 11 1.4206 -1.8875
-1 7 12 -1.1899 -4.5686
-1 7 13 -4.1722 -0.8994
-1 7 14 -0.5873 -0.1283
-1 8 1 -7.2094 8.5151
-1 8 2 1.3135 12.2352
-1 8 3 1.1846 -6.6974
-1 9 1 -1.8722 -5.7885
-1 9 2 5.6638 8.5802
-1 9 3 9.1905 2.2605
-1 10 1 -0.5770 -8.3327
-1 10 2 0.1416 -1.4331
-1 10 3 6.3736 1.2291
-1 11 1 -0.0544 1.4358
-1 11 2 1.4702 -0.7358
-1 12 1 3.0082 8.4192
0 -21 -1 -1.6978 -0.0965
0 -20 -5 1.6774 -0.9343
0 -20 -3 1.6030 2.3553
0 -20 -2 -1.2396 -0.9428
0 -20 -1 1.4565 0.8102
0 -20 0 1.2438 0.9697
0 -19 -7 0.3017 -1.2694
0 -19 -6 0.4012 -0.6607
0 -19 -5 0.0842 -2.7731
0 -19 -3 1.5112 -2.0034
0 -19 -2 0.6922 -2.1227
0 -19 -1 -0.8549 -3.4062
0 -18 -8 -2.1068 1.9394
0 -18 -7 -1.1274 -0.1659
0 -18 -6 0.0064 -0.2366
0 -18 -5 0.0929 2.4987
0 -18 -4 -2.4100 0.9519
0 -18 -3 0.5668 1.1163
0 -18 -2 6.5205 -0.9557
0 -18 -1 1.0136 -1.5574
0 -18 0 -2.1809 -2.3021
0 -17 -9 -1.4058 -0.8165
0 -17 -8 -1.7924 1.2224
0 -17 -7 -1.2832 4.0153
0 -17 -6 -0.5276 -0.9894
0 -17 -5 1.6948 1.3017
0 -17 -4 3.0966 2.0955
0 -17 -3 2.0463 2.5900
0 -17 -2 6.0108 3.7893
0 -17 -1 5.3330 2.3051
0 -16 -10 0.2606 0.2727
0 -16 -9 -0.2832 0.4279
0 -16 -8 -4.4425 -2.4238
0 -16 -7 -2.1772 0.2348
0 -16 -6 -1.4380 0.5278
0 -16 -5 -1.5838 -0.7086
0 -16 -4 -0.0402 1.0507
0 -16 -3 0.7462 0.5716
0 -16 -2 2.0319 0.4532
0 -16 -1 7.8654 2.0112
0 -16 0 8.0540 -0.3318
0 -15 -11 -1.4825 0.8958
0 -15 -10 -1.4516 0.1540
0 -15 -9 -1.0349 1.0030
0 -15 -8 -2.7943 4.2430
0 -15 -7 -4.7763 5.8367
0 -15 -6 -0.5985 4.6676
0 -15 -5 0.0896 -1.9577
0 -15 -4 -2.7841 -1.3222
0 -15 -3 -2.3686 -0.4064
0 -15 -2 -2.8833 -5.8266
0 -15 -1 -0.0821 -4.0033
0 -14 -12 -0.0795 -1.5706
0 -14 -11 -2.5695 1.9404
0 -14 -10 -2.5026 1.4678
0 -14 -9 -0.9099 -0.7859
0 -14 -8 1.7755 -2.5832
0 -14 -7 1.9334 0.1869
0 -14 -6 0.6446 1.1653
0 -14 -5 -1.3927 -2.3983
0 -14 -4 1.1870 -5.8295
0 -14 -3 5.4352 4.3379
0 -14 -2 4.4444 -1.1419
0 -14 -1 -0.7764 -2.9200
0 -14 0 2.0619 -4.2252
0 -13 -12 -0.7612 -1.5774
0 -13 -11 -2.2880 -2.5309
0 -13 -10 -2.5399 -0.6161
0 -13 -9 -0.1865 -1.9752
0 -13 -8 1.5041 -0.8527
0 -13 -7 -1.7804 -0.1423
0 -13 -6 -1.1018 -0.2034
0 -13 -5 -0.5577 4.6905
0 -13 -4 -1.6503 0.1131
0 -13 -3 6.1175 0.6365
0 -13 -2 9.3785 1.5017
0 -13 -1 1.1406 1.0666
0 -12 -13 -0.2121 -0.7368
0 -12 -12 1.1936 -0.1376
0 -12 -11 -0.2587 -2.5972
0 -12 -10 2.4977 -0.5066
0 -12 -9 -1.1589 1.0607
0 -12 -8 1.5763 -3.8068
0 -12 -7 1.9182 -3.1042
0 -12 -6 1.6785 -1.7727
0 -12 -5 1.4084 -0.7156
0 -12 -4 -3.0263 2.3324
0 -12 -3 -6.4529 5.0248
0 -12 -2 1.5319 2.0227
0 -12 -1 1.2872 -3.0172
0 -12 0 3.7055 -2.9473
0 -11 -13 -0.7904 3.3984
0 -11 -12 3.1005 1.9860
0 -11 -11 2.6586 1.1639
0 -11 -10 4.0053 -1.9194
0 -11 -9 1.5005 -0.3534
0 -11 -8 -4.8547 -1.1938
0 -11 -7 -8.6174 -7.1435
0 -11 -6 -5.0291 -7.0836
0 -11 -5 1.3356 -3.1391
0 -11 -4 1.4685 1.2212
0 -11 -3 -1.3772 5.5879
0 -11 -2 1.6623 3.6412
0 -11 -1 -4.6182 -1.5038
0 -10 -14 -1.0725 -1.7355
0 -10 -13 -0.4971 0.7622
0 -10 -12 0.3211 -0.1100
0 -10 -11 -1.3813 -0.0269
0 -10 -10 -1.8076 2.4957
0 -10 -9 -1.9132 2.1204
0 -10 -8 1.6475 2.7205
0 -10 -7 6.2510 -0.7169
0 -10 -6 5.8627 -1.5712
0 -10 -5 6.1165 1.3394
0 -10 -4 9.3599 1.1682
0 -10 -3 3.9058 -0.8295
0 -10 -2 3.9750 -6.2706
0 -10 -1 -13.0055 1.4215
0 -10 0 -26.9982 4.1058
0 -9 -14 -0.7546 1.6902
0 -9 -13 0.4727 1.5804
0 -9 -12 4.3165 1.9490
0 -9 -11 2.8785 -1.2507
0 -9 -10 -0.6861 -3.4094
0 -9 -9 -0.9478 -9.0830
0 -9 -8 2.3705 -2.0742
0 -9 -7 5.8392 -0.4894
0 -9 -6 0.0232 -3.1001
0 -9 -5 -10.0257 -3.6384
0 -9 -4 -5.5294 -4.3571
0 -9 -3 -0.8581 -2.4962
0 -9 -2 5.4608 -9.9015
0 -9 -1 9.6006 -4.2595
0 -8 -15 3.1103 0.1634
0 -8 -14 4.1151 -0.2295
0 -8 -13 1.3082 -1.7161
0 -8 -12 1.1735 -0.3902
0 -8 -11 -1.5755 -2.9977
0 -8 -10 -1.0112 1.8894
0 -8 -9 -1.9241 -1.6231
0 -8 -8 -1.1618 1.1907
0 -8 -7 -0.3628 5.7867
0 -8 -6 5.9626 -2.6348
0 -8 -5 -0.1469 -2.8964
0 -8 -4 5.1803 1.9888
0 -8 -3 -0.5516 9.0285
0 -8 -2 -3.9189 -5.7130
0 -7 -15 0.4449 -1.0266
0 -7 -14 3.1791 0.0651
0 -7 -13 3.2640 0.9638
0 -7 -12 1.0811 4.1134
0 -7 -11 0.8529 4.9477
0 -7 -10 4.3722 8.1758
0 -7 -9 6.4328 4.5333
0 -7 -8 -6.6564 -6.7996
0 -7 -7 -7.9959 0.1270
0 -7 -6 7.6062 -1.0489
0 -7 -5 5.3615 -7.3930
0 -7 -4 -6.0366 -16.8435
0 -7 -3 -11.0070 -19.6791
0 -7 -2 -25.8976 -14.4712
0 -7 -1 -53.8561 -39.3718
0 -6 -15 1.2958 -0.0095
0 -6 -14 0.8133 0.5697
0 -6 -13 0.6434 -2.4825
0 -6 -12 -0.8604 -1.5575
0 -6 -11 4.1000 -5.5821
0 -6 -10 1.4012 -4.4869
0 -6 -9 1.3166 -2.4808
0 -6 -8 1.9105 -4.3790
0 -6 -7 5.7410 -1.9361
0 -6 -6 14.3463 4.9317
0 -6 -5 5.4428 -16.7396
0 -6 -4 -4.1217 -15.4773
0 -6 -3 -4.7712 -31.9942
0 -6 -2 16.7663 -7.0270
0 -6 -1 -14.5667 -6.4574
0 -5 -15 -2.4198 -0.7429
0 -5 -14 -3.9060 -0.9469
0 -5 -13 -3.6732 -1.7980
0 -5 -12 1.3228 0.7244
0 -5 -11 2.3353 -0.5048
0 -5 -10 -3.6316 -8.5909
0 -5 -9 -3.0098 -3.0039
0 -5 -8 5.8962 6.9670
0 -5 -7 4.6117 0.7898
0 -5 -6 11.1684 0.8713
0 -5 -5 15.5715 -5.3488
0 -5 -4 26.9238 7.4836
0 -5 -3 44.6818 4.6003
0 -5 -2 50.9265 -6.3308
0 -5 -1 48.2784 5.6129
0 -4 -16 0.8057 -0.8549
0 -4 -15 -0.0419 0.2437
0 -4 -14 -0.1849 -0.2637
0 -4 -13 0.8287 1.2858
0 -4 -12 -2.0935 -0.4032
0 -4 -11 3.0258 3.1953
0 -4 -10 1.1107 0.1697
0 -4 -9 1.1826 -4.6693
0 -4 -8 -4.8974 1.3570
0 -4 -7 -12.2441 3.0501
0 -4 -6 -6.8065 -3.8555
0 -4 -5 4.6893 -17.0330
0 -4 -4 -28.0145 5.4622
0 -4 -3 -41.1122 17.9670
0 -4 -2 -28.4220 -19.3613
0 -4 -1 -4.3689 -20.7534
0 -3 -16 1.8241 0.9523
0 -3 -15 2.2899 0.6356
0 -3 -14 0.5095 0.5335
0 -3 -13 0.6848 -0.9899
0 -3 -12 -7.4679 -0.9249
0 -3 -11 -3.6479 -1.1186
0 -3 -10 4.0795 1.8034
0 -3 -9 2.6685 -2.5962
0 -3 -8 -0.5254 -4.5259
0 -3 -7 -1.0457 11.8751
0 -3 -6 -9.5177 33.0356
0 -3 -5 -16.3815 3.6569
0 -3 -4 -25.4734 -20.2985
0 -3 -3 -10.1900 24.8958
0 -3 -2 -1.5003 29.0084
0 -3 -1 1.2852 -40.8429
0 -2 -16 -0.5353 -1.4694
0 -2 -15 -1.3939 -2.1735
0 -2 -14 -2.3641 -1.3143
0 -2 -13 0.4522 -0.3966
0 -2 -12 2.6571 -2.5330
0 -2 -11 -1.5934 -1.7415
0 -2 -10 1.1111 -6.5183
0 -2 -9 0.5749 -3.2122
0 -2 -8 2.3996 -1.5908
0 -2 -7 0.7394 -5.7243
0 -2 -6 -3.2371 12.7325
0 -2 -5 3.6382 24.3351
0 -2 -4 -15.4095 -12.1506
0 -2 -3 -15.4206 -29.0329
0 -2 -2 -0.3045 12.9702
0 -1 -16 -0.5871 -0.1917
0 -1 -15 -0.8174 -0.7262
0 -1 -14 -1.8145 0.1751
0 -1 -13 -1.1370 3.0637
0 -1 -12 1.2123 -0.8136
0 -1 -11 1.0252 0.1291
0 -1 -10 2.3446 0.6147
0 -1 -9 4.7683 1.3200
0 -1 -8 3.2310 0.9263
0 -1 -7 3.2202 -7.1119
0 -1 -6 -4.8732 -17.0776
0 -1 -5 21.8133 3.8733
0 -1 -4 19.1076 13.4905
0 -1 -3 -19.8168 11.1176
0 -1 -2 -12.4507 27.3825
0 0 2 1.3681 0.9318
0 0 3 24.6167 -0.9383
0 0 4 30.1648 -0.0160
0 0 5 2.5571 1.0276
0 0 6 0.0526 -0.7108
0 0 7 6.6152 -0.6015
0 0 8 -1.7030 0.9717
0 0 9 2.5918 -0.1077
0 0 10 -0.6668 -0.7365
0 0 11 -1.3192 0.6027
0 0 12 -1.6232 0.2201
0 0 13 -4.8465 -0.6347
0 0 14 -0.9872 0.2234
0 0 15 1.1305 0.3588
0 0 16 1.9062 -0.3949
0 1 2 -12.4507 -27.3825
0 1 3 -19.8168 -11.1176
0 1 4 19.1076 -13.4905
0 1 5 21.8133 -3.8733
0 1 6 -4.8732 17.0776
0 1 7 3.2202 7.1119
0 1 8 3.2310 -0.9263
0 1 9 4.7683 -1.3200
0 1 10 2.3446 -0.6147
0 1 11 1.0252 -0.1291
0 1 12 1.2123 0.8136
0 1 13 -1.1370 -3.0637
0 1 14 -1.8145 -0.1751
0 1 15 -0.8174 0.7262
0 1 16 -0.5871 0.1917
0 2 0 -40.8217 69.2855
0 2 1 -14.3065 10.6531
0 2 2 -0.3045 -12.9702
0 2 3 -15.4206 29.0329
0 2 4 -15.4095 12.1506
0 2 5 3.6382 -24.3351
0 2 6 -3.2371 -12.7325
0 2 7 0.7394 5.7243
0 2 8 2.3996 1.5908
0 2 9 0.5749 3.2122
0 2 10 1.1111 6.5183
0 2 11 -1.5934 1.7415
0 2 12 2.6571 2.5330
0 2 13 0.4522 0.3966
0 2 14 -2.3641 1.3143
0 2 15 -1.3939 2.1735
0 2 16 -0.5353 1.4694
0 3 1 1.2852 40.8429
0 3 3 -10.1900 -24.8958
0 3 4 -25.4734 20.2985
0 3 5 -16.3815 -3.6569
0 3 6 -9.5177 -33.0356
0 3 7 -1.0457 -11.8751
0 3 8 -0.5254 4.5259
0 3 9 2.6685 2.5962
0 3 10 4.0795 -1.8034
0 3 11 -3.6479 1.1186
0 3 12 -7.4679 0.9249
0 3 13 0.6848 0.9899
0 3 14 0.5095 -0.5335
0 3 15 2.2899 -0.6356
0 3 16 1.8241 -0.9523
0 4 0 -6.4640 -17.5056
0 4 1 -4.3689 20.7534
0 4 2 -28.4220 19.3613
0 4 4 -28.0145 -5.4622
0 4 5 4.6893 17.0330
0 4 6 -6.8065 3.8555
0 4 7 -12.2441 -3.0501
0 4 8 -4.8974 -1.3570
0 4 9 1.1826 4.6693
0 4 10 1.1107 -0.1697
0 4 11 3.0258 -3.1953
0 4 12 -2.0935 0.4032
0 4 13 0.8287 -1.2858
0 4 14 -0.1849 0.2637
0 4 15 -0.0419 -0.2437
0 4 16 0.8057 0.8549
0 5 1 48.2784 -5.6129
0 5 2 50.9265 6.3308
0 5 5 15.5715 5.3488
0 5 6 11.1684 -0.8713
0 5 7 4.6117 -0.7898
0 5 8 5.8962 -6.9670
0 5 9 -3.0098 3.0039
0 5 10 -3.6316 8.5909
0 5 11 2.3353 0.5048
0 5 12 1.3228 -0.7244
0 5 13 -3.6732 1.7980
0 5 14 -3.9060 0.9469
0 5 15 -2.4198 0.7429
0 6 0 -62.2880 15.2058
0 6 1 -14.5667 6.4574
0 6 2 16.7663 7.0270
0 6 8 1.9105 4.3790
0 6 9 1.3166 2.4808
0 6 10 1.4012 4.4869
0 6 11 4.1000 5.5821
0 6 12 -0.8604 1.5575
0 6 13 0.6434 2.4825
0 7 1 -53.8561 39.3718
0 7 2 -25.8976 14.4712
0 8 1 -6.3303 6.9412
0 8 2 -3.9189 5.7130
0 8 3 -0.5516 -9.0285
0 9 1 9.6006 4.2595
0 9 2 5.4608 9.9015
0 9 3 -0.8581 2.4962
1 -21 -1 0.6939 -1.5024
1 -20 -4 -1.5093 0.1784
1 -20 -3 0.5506 1.9758
1 -20 -2 -0.7557 0.4203
1 -20 -1 0.2417 1.2857
1 -19 -7 -0.9247 -1.6081
1 -19 -6 -2.8089 -2.5021
1 -19 -5 -0.3451 -2.7473
1 -19 -4 -4.4620 -3.1602
1 -19 -3 0.4333 -0.2719
1 -19 -2 1.4950 -1.8305
1 -19 -1 0.8453 0.1242
1 -18 -8 -0.9398 0.6520
1 -18 -7 1.9165 -1.3260
1 -18 -6 -2.2809 0.0118
1 -18 -5 -0.6106 1.3910
1 -18 -4 -0.1237 -1.5793
1 -18 -3 0.3761 -0.1349
1 -18 -2 2.7269 -0.2178
1 -18 -1 -0.8207 -0.7353
1 -17 -10 0.1439 1.3669
1 -17 -9 -0.7743 2.1612
1 -17 -8 -0.2940 2.3653
1 -17 -7 -0.1689 1.1508
1 -17 -6 -0.3558 -0.9822
1 -17 -5 -0.6564 2.5188
1 -17 -4 1.7569 -0.2005
1 -17 -3 0.0170 -0.8951
1 -17 -2 2.7422 1.6570
1 -17 -1 2.4640 0.0377
1 -16 -11 -0.7315 0.9772
1 -16 -10 -0.4877 -0.4682
1 -16 -9 -0.3474 1.8309
1 -16 -8 0.6003 0.2488
1 -16 -7 1.6391 2.1703
1 -16 -6 0.3973 0.9945
1 -16 -5 0.7132 0.4126
1 -16 -4 0.6860 0.5965
1 -16 -3 -1.0165 0.7580
1 -16 -2 -0.5272 -0.1879
1 -16 -1 7.1251 0.1055
1 -15 -11 -0.2874 0.4532
1 -15 -10 0.4553 -1.0384
1 -15 -9 -0.7633 0.7862
1 -15 -8 -2.5402 4.1138
1 -15 -7 -0.7715 1.6837
1 -15 -6 0.6182 0.7105
1 -15 -5 2.6211 -1.2815
1 -15 -4 0.8678 -0.7895
1 -15 -3 0.6377 -1.0590
1 -15 -2 -1.2639 -1.0779
1 -15 -1 0.8009 0.0765
1 -14 -12 -0.1044 -1.2145
1 -14 -11 -2.5136 1.6902
1 -14 -10 -1.0051 -1.3206
1 -14 -9 1.3252 -4.4230
1 -14 -8 2.1424 -2.2808
1 -14 -7 0.9455 -0.8184
1 -14 -6 -0.9656 -3.0266
1 -14 -5 -2.7757 -2.0241
1 -14 -4 2.0308 -3.6907
1 -14 -3 3.1709 -0.6936
1 -14 -2 -0.4146 -2.7066
1 -14 -1 -1.5613 -0.7640
1 -13 -13 0.3843 0.8363
1 -13 -12 -0.0275 -1.5876
1 -13 -11 1.3361 -2.2290
1 -13 -10 0.7674 -1.5370
1 -13 -9 0.6364 -2.8093
1 -13 -8 1.5116 -2.7168
1 -13 -7 0.2292 3.0911
1 -13 -6 1.4459 2.9423
1 -13 -5 1.4969 5.7878
1 -13 -4 -2.0998 2.2481
1 -13 -3 2.2602 0.5236
1 -13 -2 -0.5432 -2.8247
1 -13 -1 -4.9423 -0.3543
1 -12 -13 0.2613 -1.5700
1 -12 -12 2.2921 -0.4951
1 -12 -11 2.7243 0.0610
1 -12 -10 5.6075 2.1066
1 -12 -9 -0.3126 5.1123
1 -12 -8 -3.2652 0.9528
1 -12 -7 -4.3835 1.6964
1 -12 -6 -1.0198 4.2181
1 -12 -5 4.3788 0.7310
1 -12 -4 3.4266 -0.6451
1 -12 -3 1.6400 0.9942
1 -12 -2 7.8521 -5.4316
1 -12 -1 3.0082 -8.4192
1 -11 -14 -0.3205 5.1432
1 -11 -13 -1.6286 6.7274
1 -11 -12 0.9985 3.2191
1 -11 -11 1.0245 3.9500
1 -11 -10 1.4985 1.0269
1 -11 -9 -1.6026 -0.7473
1 -11 -8 -3.5795 -2.0661
1 -11 -7 -4.4762 -5.0885
1 -11 -6 -1.6753 -0.6990
1 -11 -5 0.4109 6.9489
1 -11 -4 -2.1222 4.3433
1 -11 -3 -5.9339 1.1241
1 -11 -2 1.4702 0.7358
1 -11 -1 -0.0544 -1.4358
1 -10 -14 1.1625 -3.1507
1 -10 -13 3.1750 -2.1378
1 -10 -12 0.8404 -1.5071
1 -10 -11 -3.9527 -0.7040
1 -10 -10 -3.9849 0.6903
1 -10 -9 -5.3748 -0.6905
1 -10 -8 -0.9181 0.9112
1 -10 -7 0.2615 1.7442
1 -10 -6 -5.3398 -0.1935
1 -10 -5 -4.2568 -3.9412
1 -10 -4 7.6679 -2.9369
1 -10 -3 6.3736 -1.2291
1 -10 -2 0.1416 1.4331
1 -10 -1 -0.5770 8.3327
1 -9 -15 0.1956 -0.0617
1 -9 -14 -1.4977 0.0856
1 -9 -13 -1.8089 0.4882
1 -9 -12 1.0975 0.4276
1 -9 -11 -0.1906 -1.6596
1 -9 -10 2.0177 -3.8734
1 -9 -9 4.1872 -5.2251
1 -9 -8 2.7365 -1.2954
1 -9 -7 1.2547 -4.9733
1 -9 -6 -1.2192 -5.7877
1 -9 -5 -5.7204 -2.7837
1 -9 -4 -3.0446 -5.2265
1 -9 -3 9.1905 -2.2605
1 -9 -2 5.6638 -8.5802
1 -9 -1 -1.8722 5.7885
1 -8 -15 4.1670 -1.3953
1 -8 -14 4.8440 -3.1261
1 -8 -13 4.3950 -2.5472
1 -8 -12 4.8552 -0.6480
1 -8 -11 1.3232 -3.0976
1 -8 -10 0.1461 2.1055
1 -8 -9 -0.2862 -0.1611
1 -8 -8 1.7870 0.6279
1 -8 -7 2.0170 -3.2912
1 -8 -6 5.0753 -9.9442
1 -8 -5 5.5438 -0.7037
1 -8 -4 3.7339 3.2393
1 -8 -3 1.1846 6.6974
1 -8 -2 1.3135 -12.2352
1 -8 -1 -7.2094 -8.5151
1 -7 -15 0.7432 -0.8092
1 -7 -14 -0.5873 0.1283
1 -7 -13 -4.1722 0.8994
1 -7 -12 -1.1899 4.5686
1 -7 -11 1.4206 1.8875
1 -7 -10 0.9815 -0.0461
1 -7 -9 -5.1574 -1.9740
1 -7 -8 -5.2576 -5.8679
1 -7 -7 2.4743 1.2097
1 -7 -6 2.5227 -4.0274
1 -7 -5 -10.2262 -6.3964
1 -7 -4 -13.4190 -15.9649
1 -7 -3 -16.1277 -14.2245
1 -7 -2 -15.5105 -7.1483
1 -7 -1 -37.3061 -27.6964
1 -6 -16 -0.4423 -0.6341
1 -6 -15 1.0768 -1.3499
1 -6 -14 0.1923 -0.4660
1 -6 -13 0.7710 -1.7363
1 -6 -12 5.1395 -1.7824
1 -6 -11 9.2375 -5.7149
1 -6 -10 0.4472 -7.0763
1 -6 -9 -3.0784 0.0120
1 -6 -8 -0.9039 4.9680
1 -6 -7 3.6562 -2.8610
1 -6 -6 6.2167 -12.1523
1 -6 -5 2.9791 -15.5442
1 -6 -4 9.3475 6.3964
1 -6 -3 0.4275 2.3242
1 -6 -2 15.1995 10.6358
1 -6 -1 -3.2797 24.2296
1 -5 -16 -1.4641 0.3434
1 -5 -15 -3.7775 -3.1746
1 -5 -14 -3.0258 -3.6525
1 -5 -13 -0.6656 -2.4780
1 -5 -12 0.8753 1.0288
1 -5 -11 0.4129 -1.5139
1 -5 -10 -2.3239 -1.5374
1 -5 -9 0.8029 0.0578
1 -5 -8 7.4609 4.8282
1 -5 -7 4.1211 -2.5792
1 -5 -6 4.8111 -2.8850
1 -5 -5 -0.2153 -5.5570
1 -5 -4 16.1337 7.7135
1 -5 -3 23.7419 16.6964
1 -5 -2 8.0771 9.8704
1 -5 -1 -4.8772 2.8614
1 -4 -16 1.8805 -0.3444
1 -4 -15 1.5353 1.7954
1 -4 -14 0.7321 1.7033
1 -4 -13 -0.7663 2.3835
1 -4 -12 -3.9080 2.3775
1 -4 -11 2.8739 1.3536
1 -4 -10 5.9335 -3.8266
1 -4 -9 2.0209 -5.2240
1 -4 -8 -3.0274 2.0542
1 -4 -7 2.9979 5.8992
1 -4 -6 12.0931 7.1620
1 -4 -5 -10.4678 2.1542
1 -4 -4 -50.5131 9.3066
1 -4 -3 -49.5124 1.3574
1 -4 -2 -16.3049 -23.5448
1 -4 -1 -5.7934 -27.0072
1 -3 -16 0.6410 1.4700
1 -3 -15 0.9942 1.8514
1 -3 -14 -0.5913 1.2209
1 -3 -13 0.5750 -0.3197
1 -3 -12 -7.0773 2.0490
1 -3 -11 -2.6782 4.9750
1 -3 -10 -1.0770 3.3013
1 -3 -9 -3.8192 0.7604
1 -3 -8 -2.1507 12.5271
1 -3 -7 -4.6501 22.2211
1 -3 -6 -14.1505 16.0462
1 -3 -5 -17.5982 -2.5261
1 -3 -4 -13.1784 2.5437
1 -3 -3 8.4669 35.4206
1 -3 -2 13.3997 23.0237
1 -3 -1 7.2769 -43.6484
1 -2 -16 -0.2664 -3.8169
1 -2 -15 0.4441 -2.7139
1 -2 -14 -0.3349 0.7073
1 -2 -13 2.3173 1.4713
1 -2 -12 2.3511 0.4394
1 -2 -11 -3.1393 2.9847
1 -2 -10 1.7462 2.0655
1 -2 -9 -0.5154 -4.0322
1 -2 -8 0.1789 -7.1666
1 -2 -7 8.6190 -3.5658
1 -2 -6 0.6140 7.2120
1 -2 -5 -3.7340 5.4669
1 -2 -4 -30.9416 -4.7289
1 -2 -3 -29.2684 -20.1303
1 -2 -2 7.2570 10.8167
1 -2 -1 3.4204 -20.4290
1 -1 -16 -0.3531 0.2704
1 -1 -15 -0.8031 0.2477
1 -1 -14 -1.4885 1.2972
1 -1 -13 -2.0970 3.0429
1 -1 -12 -0.9946 -2.5260
1 -1 -11 -3.8834 -0.8858
1 -1 -10 -0.4980 1.4562
1 -1 -9 8.0350 3.8519
1 -1 -8 -3.5679 2.1554
1 -1 -7 4.9476 -0.8008
1 -1 -6 17.9673 -7.1100
1 -1 -5 12.4468 -12.8373
1 -1 -4 -7.9273 1.5893
1 -1 -3 -42.3030 21.1963
1 -1 -2 -13.6240 30.5170
1 -1 -1 35.5724 18.7912
1 0 1 -6.0404 0.2947
1 0 2 -5.3113 0.7978
1 0 3 -1.9281 -0.8655
1 0 4 6.6152 -0.1345
1 0 5 -2.7491 1.1042
1 0 6 2.1603 -0.6117
1 0 7 4.9989 -0.6589
1 0 8 -4.2695 0.9011
1 0 9 5.7960 -0.0377
1 0 10 3.8200 -0.6983
1 0 11 0.4516 0.4996
1 0 12 2.3999 0.2590
1 0 13 -2.5326 -0.6045
1 0 14 -0.8677 0.1878
1 0 15 -1.5019 0.4971
1 1 0 -0.2215 -35.3500
1 1 1 8.0007 -38.2101
1 1 2 7.7364 -6.4618
1 1 3 5.1337 -8.5005
1 1 4 -6.7242 -14.9810
1 1 5 -9.7057 3.2688
1 1 6 -13.3305 16.7141
1 1 7 6.4801 -0.1874
1 1 8 6.3900 1.4798
1 1 9 6.9661 1.3564
1 1 10 9.5874 -3.7503
1 1 11 2.2006 -3.3185
1 1 12 1.6166 -1.4716
1 1 13 1.9357 -0.6181
1 1 14 -0.2018 0.3773
1 1 15 -1.4953 0.1620
1 2 0 -21.9682 47.8179
1 2 1 -6.6286 2.7190
1 2 2 1.1329 -4.5410
1 2 3 5.4145 10.7161
1 2 4 -8.2278 -12.2165
1 2 5 -3.2523 -30.3562
1 2 6 3.9491 -3.7174
1 2 7 1.7917 -1.3882
1 2 8 1.4701 -4.4006
1 2 9 1.9937 5.1378
1 2 10 2.0639 5.7613
1 2 11 -1.1531 1.6816
1 2 12 -2.3708 4.1905
1 2 13 -1.9129 0.7102
1 2 14 -0.2101 0.3227
1 2 15 0.2758 -0.8605
1 3 0 1.4935 -8.4195
1 3 1 -4.8156 11.1225
1 3 2 -7.8907 -28.5897
1 3 3 -2.0817 -18.7861
1 3 4 5.7371 11.8006
1 3 5 -1.1848 -12.5434
1 3 6 1.6723 -16.3163
1 3 7 8.1538 3.9933
1 3 8 0.5968 4.1348
1 3 9 5.5251 -0.3746
1 3 10 5.6995 -0.5070
1 3 11 -0.8714 -0.0459
1 3 12 0.6291 0.0841
1 3 13 1.5041 0.7791
1 3 14 -0.8779 -0.2426
1 3 15 -0.0867 -0.4370
1 4 0 -0.3796 -0.4714
1 4 1 7.4385 27.2461
1 4 2 -9.6039 22.8048
1 4 3 -9.7262 -6.1403
1 4 4 4.2955 4.8221
1 4 5 10.6087 16.2591
1 4 6 -15.8617 0.9998
1 4 7 0.5381 -9.6074
1 4 8 4.7574 -11.1451
1 4 9 -1.3823 -3.2622
1 4 10 -1.0957 -2.8940
1 4 11 1.5680 -0.2997
1 4 12 -1.4207 3.4735
1 4 13 2.1516 -0.1176
1 4 14 -0.9745 -0.7129
1 4 15 -1.1790 -1.8205
1 5 0 12.8989 1.2530
1 5 1 34.6378 -17.7694
1 5 2 18.5620 -2.3278
1 5 3 12.6976 -9.2556
1 5 4 1.8756 -9.8419
1 5 5 11.5407 -10.3934
1 5 6 11.1256 -10.5522
1 5 7 12.8247 -2.9535
1 5 9 0.6583 4.9587
1 5 10 -0.4376 10.1993
1 5 11 2.1694 0.7279
1 5 12 -1.7500 2.5395
1 6 0 -41.8456 -10.0468
1 6 1 -14.7232 2.6058
1 6 2 2.9122 16.0973
1 6 3 -18.2595 36.6477
1 6 4 -13.0996 11.7669
1 6 5 5.9056 10.2631
1 6 6 9.5708 1.7585
1 7 0 -6.7556 -9.8116
1 7 1 -31.8534 22.3560
1 7 2 0.4825 -5.9873
1 7 3 24.8626 1.9732
1 7 4 8.6647 3.3265
1 7 5 1.2851 6.3264
1 8 0 -0.3261 -19.9769
1 8 1 -10.5656 3.0170
1 8 2 -12.3442 6.1874
1 8 3 -7.8874 -4.1440
1 8 4 -1.0545 -0.7393
1 9 0 4.1981 2.7849
1 9 1 7.4096 3.3807
1 9 2 4.1993 -1.1401
1 9 3 -6.1277 -1.6788
1 10 0 -5.5321 -8.4093
1 10 1 -1.8221 -4.4326
1 10 2 6.4368 -1.9703
1 10 3 0.3583 -7.6568
1 11 0 2.5316 -3.9714
1 11 1 -5.1230 -6.9158
1 11 2 -0.7293 -7.1985
1 12 0 4.2873 0.5198
1 12 1 -1.0004 -4.8414
1 13 0 2.4337 -0.6949
2 -20 -5 -1.6762 -1.9481
2 -20 -4 -2.2376 -0.4201
2 -20 -3 0.6094 -1.1309
2 -20 -2 -0.2909 -0.1574
2 -20 -1 -1.2368 1.0681
2 -19 -7 0.0719 -2.7276
2 -19 -6 -1.3664 -3.1475
2 -19 -5 -0.3603 -0.9309
2 -19 -4 -3.9562 0.5014
2 -19 -3 -0.7585 1.2807
2 -19 -2 0.3875 0.2017
2 -19 -1 1.2221 4.6709
2 -18 -8 -0.4195 0.9064
2 -18 -7 1.2972 1.7118
2 -18 -6 -1.7636 0.3076
2 -18 -5 1.7774 -2.1700
2 -18 -4 1.9330 -4.0353
2 -18 -3 -0.1567 -0.6616
2 -18 -2 -1.3783 -0.1051
2 -18 -1 1.6627 -0.0524
2 -17 -10 0.6115 0.7465
2 -17 -9 2.4880 -0.0372
2 -17 -8 1.9332 -1.7276
2 -17 -7 0.7254 -0.2367
2 -17 -6 0.8698 1.3988
2 -17 -5 -0.3819 -0.6114
2 -17 -4 0.2516 -3.4556
2 -17 -3 -1.0788 -1.0891
2 -17 -2 -0.9510 -0.0013
2 -17 -1 -0.2418 -4.4676
2 -16 -11 0.1278 0.3141
2 -16 -10 0.1569 -1.1809
2 -16 -9 -0.3668 0.7920
2 -16 -8 0.5240 -0.9512
2 -16 -7 -0.1356 -0.1081
2 -16 -6 4.0877 0.3993
2 -16 -5 4.9457 1.6318
2 -16 -4 -1.0693 -0.2009
2 -16 -3 -1.9120 0.8530
2 -16 -2 3.2006 0.4309
2 -16 -1 4.9239 1.2905
2 -15 -12 -1.0021 -0.1666
2 -15 -11 -0.1164 1.4905
2 -15 -10 1.0927 0.4955
2 -15 -9 0.6310 0.9830
2 -15 -8 0.1004 0.4109
2 -15 -7 0.8024 -0.4002
2 -15 -6 -1.0915 -0.5494
2 -15 -5 3.7981 -2.9067
2 -15 -4 -0.1051 -2.3765
2 -15 -3 -2.6425 -0.2855
2 -15 -2 -2.1811 2.2596
2 -15 -1 0.8681 -0.5691
2 -14 -12 -0.4600 -0.8336
2 -14 -11 -1.9816 -1.1542
2 -14 -10 -0.5736 -3.5680
2 -14 -9 2.2668 -2.6491
2 -14 -8 1.2234 -1.7299
2 -14 -7 -1.1283 -3.3666
2 -14 -6 -2.8123 0.7722
2 -14 -5 -3.8646 1.2171
2 -14 -4 -0.3055 -2.0452
2 -14 -3 0.1031 -0.3249
2 -14 -2 -0.8626 1.3670
2 -14 -1 0.6160 1.7691
2 -13 -13 -0.8004 1.4659
2 -13 -12 0.1752 -0.1063
2 -13 -11 1.6726 -0.0543
2 -13 -10 -0.7482 0.0202
2 -13 -9 -1.2599 0.9960
2 -13 -8 2.1655 1.5043
2 -13 -7 -0.7549 2.7309
2 -13 -6 -0.5959 0.3064
2 -13 -5 2.4630 3.5037
2 -13 -4 -4.6243 1.0139
2 -13 -3 -3.5046 3.4894
2 -13 -2 -0.9389 -1.3449
2 -13 -1 1.2658 2.3580
2 -12 -13 -1.4914 0.3423
2 -12 -12 1.6666 2.1396
2 -12 -11 3.4146 2.5160
2 -12 -10 4.3376 2.0865
2 -12 -9 -2.4617 3.8173
2 -12 -8 -2.9581 0.5882
2 -12 -7 1.8549 0.3078
2 -12 -6 1.0887 2.0231
2 -12 -5 4.1087 -0.1326
2 -12 -4 2.2905 -3.6624
2 -12 -3 -1.6490 2.9094
2 -12 -2 4.2723 0.6680
2 -12 -1 1.2612 -4.9878
2 -11 -14 0.3682 0.5668
2 -11 -13 -2.3551 -0.2434
2 -11 -12 0.2167 -0.8979
2 -11 -11 -0.2086 0.5201
2 -11 -10 -1.9267 -3.4534
2 -11 -9 -1.2143 -3.7539
2 -11 -8 3.2464 0.3244
2 -11 -7 4.8162 0.8631
2 -11 -6 3.1278 -0.1279
2 -11 -5 -1.2157 4.2065
2 -11 -4 -0.6781 -2.5099
2 -11 -3 -1.4968 -3.0953
2 -11 -2 6.9738 7.1875
2 -11 -1 3.3043 2.3030
2 -10 -14 3.2923 -2.4029
2 -10 -13 2.8384 -2.3233
2 -10 -12 0.2318 -0.6417
2 -10 -11 -0.4452 -2.4542
2 -10 -10 -0.4071 -3.7565
2 -10 -9 -5.1063 -1.8707
2 -10 -8 -3.7684 -0.0539
2 -10 -7 -4.0992 -0.7245
2 -10 -6 -4.3911 -6.0361
2 -10 -5 0.3407 -7.9455
2 -10 -4 7.8539 1.4172
2 -10 -3 3.4051 1.5203
2 -10 -2 3.1291 2.3935
2 -10 -1 17.4662 4.8902
2 -9 -15 1.0714 -1.4696
2 -9 -14 0.2615 0.0335
2 -9 -13 -1.1698 0.4931
2 -9 -12 1.3186 -0.0407
2 -9 -11 2.1121 -0.4058
2 -9 -10 3.9850 -2.4372
2 -9 -9 0.4186 -1.9521
2 -9 -8 -1.7583 -1.5933
2 -9 -7 -1.5958 -3.9242
2 -9 -6 -1.2944 1.0486
2 -9 -5 -4.4312 1.1792
2 -9 -4 -4.2044 -5.9023
2 -9 -3 2.6970 -2.2380
2 -9 -2 -9.2723 -2.4690
2 -9 -1 -14.2567 5.0399
2 -8 -15 1.1751 -2.1008
2 -8 -14 2.0929 -2.4277
2 -8 -13 3.1559 1.1325
2 -8 -12 2.0378 2.0147
2 -8 -11 -0.3511 -0.9830
2 -8 -10 0.7206 -0.1251
2 -8 -9 1.3469 -1.4156
2 -8 -8 2.4828 -0.7953
2 -8 -7 0.3570 -3.8998
2 -8 -6 -2.1451 -3.9609
2 -8 -5 1.3240 5.0547
2 -8 -4 -1.3974 2.0202
2 -8 -3 -2.6259 4.5413
2 -8 -2 -4.3279 -0.2657
2 -8 -1 -6.0684 8.2879
2 -7 -16 0.3866 -0.5049
2 -7 -15 -0.7702 0.0643
2 -7 -14 -3.8743 -0.7397
2 -7 -13 -3.8145 -2.6642
2 -7 -12 3.9387 0.1183
2 -7 -11 5.3900 -2.5427
2 -7 -10 2.2731 -3.6161
2 -7 -9 -3.4558 -2.3542
2 -7 -8 1.0390 -0.5765
2 -7 -7 3.1545 1.6410
2 -7 -6 -2.1935 -3.2301
2 -7 -5 -4.8077 0.0340
2 -7 -4 0.8114 -2.4348
2 -7 -3 0.0661 2.5833
2 -7 -2 2.3724 10.9678
2 -7 -1 -3.1963 -1.4245
2 -6 -16 0.5653 -1.4607
2 -6 -15 1.5260 -1.3144
2 -6 -14 0.9222 0.8111
2 -6 -13 0.3459 0.0150
2 -6 -12 3.9219 0.2053
2 -6 -11 2.7680 -0.8541
2 -6 -10 -0.4570 -1.0463
2 -6 -9 -0.2123 5.1281
2 -6 -8 -0.1610 5.8908
2 -6 -7 -2.6055 -6.0501
2 -6 -6 -2.5763 -14.1965
2 -6 -5 -3.8691 -8.5216
2 -6 -4 -1.9845 3.7850
2 -6 -3 -8.5929 -1.5279
2 -6 -2 8.0909 0.4615
2 -6 -1 3.7221 32.6708
2 -5 -16 -2.8845 0.7254
2 -5 -15 -3.0974 -2.4989
2 -5 -14 0.8619 -0.7859
2 -5 -13 2.4335 -1.1678
2 -5 -12 0.6440 -0.5215
2 -5 -11 2.4066 0.4123
2 -5 -10 2.9335 4.8660
2 -5 -9 5.6670 0.1214
2 -5 -8 7.6354 2.2527
2 -5 -7 5.3824 3.4308
2 -5 -6 4.5464 3.1607
2 -5 -5 -4.5797 -2.2780
2 -5 -4 -3.7502 6.6613
2 -5 -3 -9.0476 27.4300
2 -5 -2 -21.0285 3.4889
2 -5 -1 -20.1239 -23.4424
2 -4 -16 2.2416 1.0855
2 -4 -15 1.0734 1.3873
2 -4 -14 -0.0837 2.1282
2 -4 -13 0.1928 2.6464
2 -4 -12 -1.8360 3.8039
2 -4 -11 2.2590 -0.2329
2 -4 -10 3.2038 -0.7613
2 -4 -9 -0.2726 0.4052
2 -4 -8 5.2093 4.4317
2 -4 -7 14.5939 3.8959
2 -4 -6 15.3728 1.9773
2 -4 -5 -6.9182 -9.0478
2 -4 -4 -29.3729 -10.0735
2 -4 -3 -22.1252 0.8833
2 -4 -2 11.8524 1.4187
2 -4 -1 -0.5385 -15.6837
2 -3 -16 -1.3966 1.5326
2 -3 -15 -0.7908 0.2737
2 -3 -14 -2.7835 -0.1667
2 -3 -13 0.4110 0.5636
2 -3 -12 -1.5042 2.2194
2 -3 -11 0.4458 2.4793
2 -3 -10 -3.6300 1.1167
2 -3 -9 -8.1002 5.1597
2 -3 -8 -2.6304 7.4600
2 -3 -7 -2.0600 -1.1686
2 -3 -6 -3.5597 -1.8456
2 -3 -5 2.0010 9.4175
2 -3 -4 6.0417 7.0498
2 -3 -3 -3.0379 14.5003
2 -3 -2 8.1167 9.2755
2 -3 -1 15.5981 -29.2684
2 -2 -16 1.9413 -2.3938
2 -2 -15 3.6552 1.1083
2 -2 -14 0.3067 2.3603
2 -2 -13 -0.0591 2.1450
2 -2 -12 -1.5444 3.1222
2 -2 -11 -4.2474 4.1983
2 -2 -10 -0.0544 -1.0205
2 -2 -9 -0.0632 -6.3485
2 -2 -8 -1.1072 0.1295
2 -2 -7 7.1160 2.8982
2 -2 -6 -3.8885 -2.0335
2 -2 -5 -4.3250 -1.2609
2 -2 -4 -9.1521 -2.7146
2 -2 -3 -5.8839 -18.9513
2 -2 -2 27.0809 14.2112
2 -2 -1 26.3228 -6.9616
2 -1 -16 -4.2165 -1.2334
2 -1 -15 -1.8062 -0.9975
2 -1 -14 0.2653 -0.2352
2 -1 -13 0.2302 2.5479
2 -1 -12 1.0407 0.6352
2 -1 -11 1.0669 3.1820
2 -1 -10 2.6515 3.5125
2 -1 -9 3.5377 1.9642
2 -1 -8 -3.7112 5.8287
2 -1 -7 11.7738 6.8731
2 -1 -6 15.9636 -3.6482
2 -1 -5 -22.4387 -16.3748
2 -1 -4 -23.6858 12.6473
2 -1 -3 -29.1693 16.8246
2 -1 -2 9.5404 13.7558
2 -1 -1 45.0016 1.9047
2 0 0 -1.7566 -1.1141
2 0 1 -9.0576 -0.1723
2 0 2 5.3083 1.0371
2 0 3 -19.6102 -0.6899
2 0 4 -2.8494 -0.2881
2 0 5 2.0475 1.0507
2 0 6 -11.9537 -0.4549
2 0 7 2.1896 -0.7096
2 0 8 5.0134 0.8086
2 0 9 2.6815 0.0821
2 0 10 0.8108 -0.7039
2 0 11 -0.5947 0.4158
2 0 12 0.2095 0.2948
2 0 13 0.4413 -0.5780
2 0 14 0.2010 0.1557
2 1 0 -5.9532 -6.1947
2 1 1 -4.5021 -1.8182
2 1 2 -2.4187 -7.2941
2 1 3 -19.3417 -7.8967
2 1 4 -32.0928 -2.4331
2 1 5 9.0132 -0.2206
2 1 6 10.5641 3.1066
2 1 7 -0.4232 -1.8475
2 1 8 4.8139 1.7388
2 1 9 6.2742 -1.4056
2 1 10 1.7535 -4.2637
2 1 11 -2.5731 -2.9345
2 1 12 0.8406 0.1381
2 1 13 1.8661 1.5453
2 1 14 0.7807 -0.6121
2 2 1 27.9505 12.3628
2 2 2 11.3002 -16.1768
2 2 3 6.9809 -23.1084
2 2 4 -6.0588 -11.3512
2 2 5 4.0906 -12.3778
2 2 6 22.0566 -12.3490
2 2 7 4.7822 -13.5580
2 2 8 -0.0584 -6.7941
2 2 9 5.3703 -2.9327
2 2 10 1.7527 -3.4875
2 2 11 -2.1995 0.0510
2 2 12 -3.0025 1.4384
2 2 13 -1.1081 -0.1786
2 2 14 -0.8449 -0.0743
2 2 15 -0.5596 -0.4515
2 3 0 -23.6007 -16.4588
2 3 1 -11.0232 -9.3356
2 3 2 4.7433 -19.2926
2 3 3 2.9684 -24.9179
2 3 4 10.3421 -4.5845
2 3 5 -1.0796 -4.0925
2 3 6 5.1403 -4.5724
2 3 7 10.2886 -4.3737
2 3 8 -1.5325 -1.0175
2 3 9 0.2456 1.6771
2 3 10 1.6729 0.4519
2 3 11 3.7161 -0.1448
2 3 12 6.0184 1.9410
2 3 13 -0.1470 0.3986
2 4 0 -12.6817 6.1469
2 4 1 -25.3258 19.4402
2 4 2 -16.3055 15.4661
2 4 3 -15.8168 -3.3265
2 4 4 -14.0868 -6.3861
2 4 5 -8.5376 -1.4501
2 4 6 -10.9718 -6.1029
2 4 7 8.8475 -11.6418
2 4 8 6.9671 -8.9640
2 4 9 2.0739 0.8748
2 5 0 -5.9228 -21.7683
2 5 1 -8.1858 -29.4618
2 5 2 -13.6323 -11.6342
2 5 3 -0.6425 -13.9868
2 5 4 -6.8358 -7.5298
2 5 5 12.5633 -8.8243
2 5 6 14.1029 -4.3347
2 5 7 10.4306 -0.5131
2 5 8 2.3017 2.1766
2 6 0 -8.5071 -11.4525
2 6 1 1.6680 9.7155
2 6 2 10.7374 19.8108
2 6 3 2.6082 16.4157
2 6 4 1.1831 7.3643
2 6 5 4.6545 17.7971
2 6 6 1.8395 16.0538
2 6 7 -4.2032 11.2997
2 7 0 -12.0870 -8.4787
2 7 1 0.2957 2.9370
2 7 2 16.9335 -17.3629
2 7 3 26.7630 -7.8565
2 7 4 0.4788 -4.0057
2 7 5 -7.0975 7.1394
2 7 6 -7.5990 2.5396
2 8 0 -5.8532 -18.8134
2 8 1 -0.9315 -5.2860
2 8 2 -9.5343 -0.9558
2 8 3 -8.1568 -3.2003
2 8 4 -1.0400 0.3053
2 8 5 3.7513 6.2438
2 9 0 2.3396 -3.4589
2 9 1 0.6515 -2.7066
2 9 2 2.5512 -6.4808
2 9 3 -5.7564 3.2821
2 9 4 -4.4656 4.6161
2 10 0 6.4452 -3.6276
2 10 1 -4.3513 1.2742
2 10 2 -2.2982 -0.0991
2 10 3 -4.6221 0.4098
2 11 0 4.0875 -4.8179
2 11 1 -2.4677 -0.2367
2 11 2 0.2742 -0.4815
2 12 0 0.0688 -1.6327
2 12 1 -1.0115 0.8783
2 13 0 -3.6841 2.9957
2 14 0 1.7416 -0.7828
3 -20 -4 0.9965 0.4761
3 -20 -3 1.0642 -1.4541
3 -20 -2 0.0431 1.3484
3 -20 -1 -1.2953 2.4183
3 -19 -7 1.2984 -2.4698
3 -19 -6 -1.1631 -0.5960
3 -19 -5 -1.1347 -0.1389
3 -19 -4 -1.1114 -0.7465
3 -19 -3 -1.2372 -0.1462
3 -19 -2 -1.3218 0.6945
3 -19 -1 1.6785 3.3059
3 -18 -8 -2.7324 3.2195
3 -18 -7 -0.6945 2.9883
3 -18 -6 0.3752 -0.6947
3 -18 -5 3.7039 -0.9191
3 -18 -4 3.5622 -1.7970
3 -18 -3 1.9271 -0.2340
3 -18 -2 -0.7512 -1.1381
3 -18 -1 4.3539 -4.2856
3 -17 -10 -0.4176 -2.2364
3 -17 -9 1.1567 -3.0902
3 -17 -8 0.5738 -0.9261
3 -17 -7 1.4388 2.4129
3 -17 -6 0.6304 0.9164
3 -17 -5 -1.0111 -0.8046
3 -17 -4 -2.6319 0.1784
3 -17 -3 -1.9447 -1.8664
3 -17 -2 -1.1287 -3.9046
3 -17 -1 -0.2945 -5.6767
3 -16 -11 2.1449 0.9544
3 -16 -10 1.0090 0.2295
3 -16 -9 -2.8482 -0.1263
3 -16 -8 -3.5197 -1.5510
3 -16 -7 -1.6471 0.0594
3 -16 -6 2.4463 1.2039
3 -16 -5 -0.2454 2.3791
3 -16 -4 -1.4527 2.5461
3 -16 -3 2.3418 3.2952
3 -16 -2 4.8361 1.2777
3 -16 -1 -2.9395 1.5427
3 -15 -12 -2.3104 0.9123
3 -15 -11 -1.3824 2.1044
3 -15 -10 1.0007 -1.0393
3 -15 -9 1.6996 -0.3537
3 -15 -8 0.7689 -0.6076
3 -15 -7 0.0059 1.5111
3 -15 -6 -1.1819 0.0381
3 -15 -5 0.9449 -2.0386
3 -15 -4 -3.1925 -1.0099
3 -15 -3 -2.0861 -0.8717
3 -15 -2 -0.2227 -1.4109
3 -15 -1 -0.1832 -1.9412
3 -14 -12 -0.6710 -1.7533
3 -14 -11 -0.0628 0.6262
3 -14 -10 -0.2453 0.7804
3 -14 -9 -0.3472 1.4097
3 -14 -8 -3.0186 -0.3187
3 -14 -7 -4.0688 -2.9164
3 -14 -6 -3.6889 3.1750
3 -14 -5 -1.3489 1.1252
3 -14 -4 0.8942 2.5487
3 -14 -3 0.3045 3.4933
3 -14 -2 -1.6311 0.9664
3 -14 -1 0.8399 -1.9642
3 -13 -13 -0.1168 2.5092
3 -13 -12 -0.9957 -0.1225
3 -13 -11 -2.1072 -1.1834
3 -13 -10 -2.2498 -1.8537
3 -13 -9 -2.1948 -1.6517
3 -13 -8 0.7088 -0.0451
3 -13 -7 -1.7534 -1.0412
3 -13 -6 -2.2499 -1.2608
3 -13 -5 -0.2520 1.2846
3 -13 -4 -2.5119 -2.7716
3 -13 -3 2.8531 1.5124
3 -13 -2 3.6085 -1.4216
3 -13 -1 -0.3744 1.3863
3 -12 -14 -3.0073 -0.9638
3 -12 -13 -2.5612 0.1989
3 -12 -12 2.2223 0.5108
3 -12 -11 0.5028 0.9852
3 -12 -10 -1.5001 -1.2495
3 -12 -9 -2.4946 -1.8175
3 -12 -8 2.4734 -2.3660
3 -12 -7 8.5907 -2.6206
3 -12 -6 2.7817 -5.0912
3 -12 -5 1.4141 -2.6277
3 -12 -4 -2.2926 -2.9815
3 -12 -3 -2.9772 2.8832
3 -12 -2 0.7587 1.4996
3 -12 -1 -1.6210 -2.3578
3 -11 -14 1.9156 -3.7879
3 -11 -13 -0.3245 -3.4087
3 -11 -12 0.8815 -4.0187
3 -11 -11 0.5062 -3.9351
3 -11 -10 -1.8923 -3.2378
3 -11 -9 -1.6163 -0.0193
3 -11 -8 1.4650 1.1686
3 -11 -7 3.0095 -2.2454
3 -11 -6 0.9846 -9.9883
3 -11 -5 -0.3753 -6.7496
3 -11 -4 3.2544 -4.9065
3 -11 -3 3.3797 -2.9877
3 -11 -2 6.5115 2.6745
3 -11 -1 0.4266 -2.1053
3 -10 -15 1.0459 0.1299
3 -10 -14 2.1240 -0.7410
3 -10 -13 0.8260 -0.2050
3 -10 -12 -0.2455 0.9347
3 -10 -11 0.6688 -1.8428
3 -10 -10 1.6333 -2.2410
3 -10 -9 -2.5231 2.5059
3 -10 -8 -3.0935 0.9653
3 -10 -7 1.1173 -0.2606
3 -10 -6 4.0855 0.1467
3 -10 -5 1.1636 -0.3212
3 -10 -4 -1.0411 2.6199
3 -10 -3 -2.2975 -3.7437
3 -10 -2 2.5267 -6.2755
3 -10 -1 7.0717 -1.4434
3 -9 -15 2.0279 -2.4729
3 -9 -14 1.5979 -0.5834
3 -9 -13 0.8878 -0.1769
3 -9 -12 3.4072 -1.3410
3 -9 -11 1.6422 -0.8219
3 -9 -10 0.2544 -3.0801
3 -9 -9 -0.2272 -1.6935
3 -9 -8 0.6081 2.0643
3 -9 -7 -2.8311 1.8608
3 -9 -6 -2.7114 1.4606
3 -9 -5 -1.7360 -2.1916
3 -9 -4 -1.8344 -3.1708
3 -9 -3 -3.5717 7.1112
3 -9 -2 -10.5677 6.6805
3 -9 -1 -6.6123 3.0951
3 -8 -15 -0.3066 -0.4806
3 -8 -14 -0.9149 -0.7071
3 -8 -13 -1.4658 2.9612
3 -8 -12 -1.1273 2.2914
3 -8 -11 -0.0099 0.8588
3 -8 -10 1.3150 0.1450
3 -8 -9 0.1234 0.0026
3 -8 -8 2.8005 -0.4715
3 -8 -7 2.8215 -0.0770
3 -8 -6 -0.1138 0.1373
3 -8 -5 3.0094 1.5376
3 -8 -4 -0.1629 -5.9372
3 -8 -3 -1.3415 -4.4683
3 -8 -2 -1.0551 -2.0768
3 -8 -1 8.6238 -1.2366
3 -7 -16 -0.8193 0.0350
3 -7 -15 -0.6062 1.1377
3 -7 -14 -1.2231 -0.1880
3 -7 -13 -0.0396 -0.1682
3 -7 -12 4.7992 3.0350
3 -7 -11 4.5904 1.1904
3 -7 -10 3.4295 -0.9095
3 -7 -9 1.0215 -0.2178
3 -7 -8 4.3513 2.1139
3 -7 -7 5.1279 0.4350
3 -7 -6 3.3580 -3.5797
3 -7 -5 3.2480 -2.9287
3 -7 -4 2.2410 -6.6277
3 -7 -3 1.5990 -6.4025
3 -7 -2 1.0958 1.4803
3 -7 -1 2.1934 2.7105
3 -6 -16 -0.0704 -0.5258
3 -6 -15 0.0899 0.7641
3 -6 -14 1.5389 0.7676
3 -6 -13 -0.8746 -2.7732
3 -6 -12 -0.5081 -3.1960
3 -6 -11 -3.8098 -1.4317
3 -6 -10 0.2096 3.2031
3 -6 -9 -0.9358 7.1486
3 -6 -8 -2.5080 6.5604
3 -6 -7 -5.4801 0.8022
3 -6 -6 -5.3453 -2.6292
3 -6 -5 -5.0939 -3.5426
3 -6 -4 -1.2187 -6.9823
3 -6 -3 0.7744 -8.7575
3 -6 -2 3.6277 -7.6347
3 -6 -1 -4.1894 15.6658
3 -5 -16 -2.9079 -1.5724
3 -5 -15 -3.1372 -2.4231
3 -5 -14 1.5102 0.2893
3 -5 -13 2.3130 -0.5881
3 -5 -12 1.7899 0.5375
3 -5 -11 2.3970 3.5597
3 -5 -10 2.7207 5.2090
3 -5 -9 1.6882 -0.3054
3 -5 -8 0.4367 0.9781
3 -5 -7 3.0701 2.6013
3 -5 -6 3.3349 0.3760
3 -5 -5 -3.4447 3.8025
3 -5 -4 -4.8882 11.1272
3 -5 -3 -6.0896 22.6027
3 -5 -2 -7.9178 -0.7097
3 -5 -1 -10.4238 -10.3595
3 -4 -16 0.7678 1.0889
3 -4 -15 -0.3111 0.4818
3 -4 -14 -0.5661 2.0052
3 -4 -13 0.2399 0.9150
3 -4 -12 -1.4221 2.4905
3 -4 -11 -0.8877 -1.1893
3 -4 -10 -0.8528 0.3298
3 -4 -9 3.0812 -3.3035
3 -4 -8 5.9784 -3.6751
3 -4 -7 5.1146 -12.1773
3 -4 -6 1.7456 -19.5056
3 -4 -5 -4.2118 -17.3250
3 -4 -4 -10.6291 -1.6333
3 -4 -3 -5.7550 13.1927
3 -4 -2 14.1306 6.5283
3 -4 -1 9.3818 1.0077
3 -3 -16 -1.5641 2.1079
3 -3 -15 -0.8557 0.6768
3 -3 -14 -1.9552 1.5630
3 -3 -13 0.1099 -0.2462
3 -3 -12 -0.6616 -2.0151
3 -3 -11 -0.0125 -0.6402
3 -3 -10 -3.0697 5.2352
3 -3 -9 -4.3266 0.9526
3 -3 -8 2.9356 -10.8931
3 -3 -7 3.8659 -8.6100
3 -3 -6 5.9375 3.5446
3 -3 -5 6.1212 4.7329
3 -3 -4 6.6196 -15.6404
3 -3 -3 -1.3639 -8.6111
3 -3 -2 17.4370 -2.4182
3 -3 -1 21.7219 -21.1211
3 -2 -17 -0.9711 -2.0307
3 -2 -16 0.7512 0.0321
3 -2 -15 0.3420 2.1894
3 -2 -14 -2.2959 1.9356
3 -2 -13 1.3348 3.3279
3 -2 -12 -1.7668 4.0199
3 -2 -11 -5.0727 -0.1731
3 -2 -10 -1.2424 -4.2069
3 -2 -9 1.6555 4.0816
3 -2 -8 -6.9300 8.0459
3 -2 -7 -3.8521 3.8225
3 -2 -6 -2.5614 -6.6819
3 -2 -5 2.2861 -3.6730
3 -2 -4 -2.6336 -1.6124
3 -2 -3 -10.5699 3.3096
3 -2 -2 13.3330 24.3623
3 -2 -1 2.2521 4.9136
3 -1 -17 -3.1250 0.1694
3 -1 -16 -3.3318 -1.4153
3 -1 -15 3.4209 -0.3360
3 -1 -14 2.9254 0.6056
3 -1 -13 3.3067 2.6218
3 -1 -12 5.5003 0.7246
3 -1 -11 2.5926 1.8420
3 -1 -10 -6.6709 -0.8493
3 -1 -9 -4.8221 -3.2701
3 -1 -8 3.4348 2.8859
3 -1 -7 7.1045 3.0759
3 -1 -6 -4.8760 2.4440
3 -1 -5 -38.3092 -3.1614
3 -1 -4 -21.2376 13.3958
3 -1 -3 -13.8907 3.1774
3 -1 -2 14.1242 11.1886
3 -1 -1 27.7791 9.0701
3 0 0 9.8841 -2.4699
3 0 1 7.1304 -0.3088
3 0 2 11.4207 1.0851
3 0 3 4.9596 -0.6823
3 0 4 16.0500 -0.3481
3 0 5 6.6735 1.0114
3 0 6 -6.8285 -0.3261
3 0 7 9.7810 -0.7524
3 0 8 3.8668 0.7383
3 0 9 -4.2918 0.1681
3 0 10 -1.4984 -0.7145
3 0 11 -4.4187 0.3581
3 0 12 -1.2931 0.3280
3 1 0 2.1855 19.2944
3 1 1 -12.5044 5.2385
3 1 2 -36.1028 -5.3942
3 1 3 -20.8701 -3.0526
3 1 4 4.9477 -8.1550
3 1 5 31.5917 -15.3335
3 1 6 2.9908 -3.4918
3 1 7 -10.3737 -5.3377
3 1 8 3.9631 -2.7527
3 1 9 -0.3496 -1.6671
3 1 10 -4.4492 -2.2813
3 1 11 0.5990 -1.6284
3 1 12 1.9007 2.3068
3 2 0 -6.3498 12.5815
3 2 1 22.2505 16.3249
3 2 2 2.5282 -4.7162
3 2 3 -2.4064 -0.3931
3 2 4 0.2478 2.6210
3 2 5 4.8702 -21.4527
3 2 6 15.4445 -20.1632
3 2 7 0.8683 -3.0632
3 2 8 0.5013 -2.1170
3 2 9 4.5878 -4.1312
3 2 10 -0.5680 -2.6193
3 2 11 -0.0397 -1.1776
3 3 0 -54.8855 -14.5762
3 3 1 -32.7593 -3.0451
3 3 2 -7.1285 -3.2731
3 3 3 -9.3353 -11.1160
3 3 4 2.4501 2.8263
3 3 5 -4.5452 5.7488
3 3 6 -3.0149 -1.6854
3 3 7 6.6276 1.2223
3 3 8 -1.7440 6.8821
3 3 9 -0.5196 4.4761
3 3 10 2.4080 3.3508
3 4 0 -5.0505 -7.1266
3 4 1 -26.6316 11.6182
3 4 2 -0.3893 15.6666
3 4 3 -7.7086 7.0164
3 4 4 -12.8400 -4.7961
3 4 5 -4.7368 -6.5582
3 4 6 -6.8775 -2.8205
3 4 7 -2.2185 -2.7104
3 4 8 4.0439 0.9861
3 4 9 5.2024 3.0461
3 5 0 -0.5529 -8.5670
3 5 1 -1.9275 -3.4798
3 5 2 5.2039 -5.1737
3 5 3 25.7552 -13.8692
3 5 4 17.9786 -1.8354
3 5 5 17.8111 -4.5021
3 5 6 6.2222 -4.9433
3 5 7 -1.8340 -0.6634
3 5 8 -2.5277 3.5700
3 6 0 -0.4859 -2.7596
3 6 1 8.2627 6.3743
3 6 2 12.3278 19.7441
3 6 3 3.0015 6.1679
3 6 4 1.0327 4.8587
3 6 5 2.3549 8.4281
3 6 6 -4.2241 6.6193
3 6 7 -5.3048 -2.1019
3 7 0 -4.6530 -9.2837
3 7 1 -2.4409 -8.4667
3 7 2 -1.5563 -11.6946
3 7 3 7.7452 -1.0279
3 7 4 -3.2842 2.3720
3 7 5 0.7866 5.5112
3 7 6 1.6397 3.9594
3 8 0 5.1324 -0.9412
3 8 1 6.6943 -4.6349
3 8 2 -6.7679 3.1255
3 8 3 -3.3800 4.2325
3 8 4 -4.1739 3.3447
3 8 5 -0.8217 4.0014
3 9 0 -2.0087 4.5580
3 9 1 -2.9938 7.2613
3 9 2 0.4917 3.5715
3 9 3 3.9280 8.9950
3 9 4 2.6198 2.4077
3 10 0 -3.1633 -0.4124
3 10 1 -0.8034 4.8643
3 10 2 -0.1227 2.8712
3 10 3 0.9722 4.4542
3 11 0 1.7084 -3.1420
3 11 1 0.2893 2.2247
3 11 2 3.0249 -2.9725
3 12 0 -3.4661 -1.6314
3 12 1 0.4406 3.4961
3 12 2 3.2387 0.7756
3 13 0 -0.2806 0.2251
3 13 1 -3.0157 4.9409
3 14 0 0.9186 -0.9811
4 -20 -3 0.6403 0.1308
4 -20 -2 -0.0212 1.8898
4 -20 -1 -1.7492 0.8981
4 -19 -6 -0.3474 0.2788
4 -19 -5 1.3301 -2.1197
4 -19 -4 1.2834 -2.7219
4 -19 -3 -1.1577 -2.3948
4 -19 -2 -0.7448 -3.1282
4 -19 -1 1.1152 -3.6312
4 -18 -8 -1.7805 2.4790
4 -18 -7 -0.5679 2.0111
4 -18 -6 -0.0619 1.8816
4 -18 -5 0.4019 4.6736
4 -18 -4 0.6945 2.7486
4 -18 -3 2.1890 0.4063
4 -18 -2 0.7406 -2.9689
4 -18 -1 2.2450 -7.3661
4 -17 -9 0.2680 0.8650
4 -17 -8 -0.6049 2.2608
4 -17 -7 0.5808 3.1284
4 -17 -6 -0.8413 0.2527
4 -17 -5 0.0548 0.1698
4 -17 -4 -0.8653 -0.6434
4 -17 -3 2.9963 -6.1759
4 -17 -2 3.9796 -5.8390
4 -17 -1 -0.1693 -2.0404
4 -16 -10 -1.3153 1.0473
4 -16 -9 -3.8709 0.0849
4 -16 -8 -3.9575 -1.0698
4 -16 -7 -2.5052 -0.3218
4 -16 -6 -0.8652 1.6374
4 -16 -5 -0.1225 1.6946
4 -16 -4 2.7138 2.9706
4 -16 -3 1.1094 2.3854
4 -16 -2 -0.1372 -2.4828
4 -16 -1 -5.8913 -2.2219
4 -15 -11 0.4015 -1.2122
4 -15 -10 1.5964 -4.6423
4 -15 -9 -0.7327 -1.0699
4 -15 -8 -1.3459 0.2775
4 -15 -7 -2.9709 1.2839
4 -15 -6 -3.2813 -0.0723
4 -15 -5 -1.3753 -1.0381
4 -15 -4 0.1307 -3.1297
4 -15 -3 1.1917 -1.1480
4 -15 -2 -0.7605 -0.0487
4 -15 -1 -3.7630 -0.3924
4 -14 -12 -0.5404 0.4975
4 -14 -11 0.5986 4.3782
4 -14 -10 -0.3862 0.9707
4 -14 -9 -1.8435 -0.7575
4 -14 -8 -2.4638 -2.1067
4 -14 -7 -0.0001 -4.9414
4 -14 -6 0.0804 -1.2361
4 -14 -5 2.4677 -1.2715
4 -14 -4 1.9007 -0.0729
4 -14 -3 -0.1263 -2.0565
4 -14 -2 -1.4792 -1.0460
4 -14 -1 1.8356 -1.9233
4 -13 -13 0.7952 1.7339
4 -13 -12 -1.0831 0.4055
4 -13 -11 -1.3612 0.9670
4 -13 -10 0.0315 -1.9267
4 -13 -9 0.2326 -5.6841
4 -13 -8 2.3193 -1.7043
4 -13 -7 0.4795 -0.8558
4 -13 -6 -2.0073 -0.3211
4 -13 -5 -0.1464 0.1336
4 -13 -4 4.6159 -2.8487
4 -13 -3 6.2988 -1.0923
4 -13 -2 0.0880 -1.0506
4 -13 -1 -5.7958 -1.1683
4 -12 -14 -1.7235 -0.9075
4 -12 -13 -1.9465 -0.6235
4 -12 -12 -0.4181 -0.5988
4 -12 -11 -2.4962 2.1658
4 -12 -10 -2.5638 2.3190
4 -12 -9 -2.6399 2.2160
4 -12 -8 -0.0566 -0.3894
4 -12 -7 3.2668 -4.0639
4 -12 -6 -0.2986 -6.4013
4 -12 -5 -0.5156 1.2326
4 -12 -4 -1.0130 1.2838
4 -12 -3 2.1617 -1.7165
4 -12 -2 4.4429 -4.1983
4 -12 -1 4.0344 -3.3964
4 -11 -14 2.2288 -2.7306
4 -11 -13 0.3929 -1.1895
4 -11 -12 0.1887 -2.3425
4 -11 -11 1.7031 -2.0175
4 -11 -10 1.2622 -0.6235
4 -11 -9 -0.3057 0.2663
4 -11 -8 -0.8615 -3.2270
4 -11 -7 -0.7916 -7.5687
4 -11 -6 -4.0073 -10.5769
4 -11 -5 -2.2521 -3.5957
4 -11 -4 1.9160 1.2079
4 -11 -3 2.9680 -1.7483
4 -11 -2 2.1610 -0.6927
4 -11 -1 -0.0441 -1.8302
4 -10 -15 0.4035 -0.5794
4 -10 -14 -0.8890 -0.3707
4 -10 -13 -2.6912 0.7924
4 -10 -12 -2.5108 1.3270
4 -10 -11 0.7220 -0.7045
4 -10 -10 3.8028 -1.6730
4 -10 -9 1.6785 2.0683
4 -10 -8 0.7295 2.6765
4 -10 -7 4.6988 3.6945
4 -10 -6 1.9208 4.6768
4 -10 -5 -2.9856 0.7008
4 -10 -4 -0.6190 0.0359
4 -10 -3 0.8048 -4.6091
4 -10 -2 -0.7815 -4.9366
4 -10 -1 -2.1808 1.7368
4 -9 -15 -0.1981 -1.2997
4 -9 -14 0.5950 0.2267
4 -9 -13 1.9844 0.6760
4 -9 -12 1.9003 1.6671
4 -9 -11 -1.0877 2.5257
4 -9 -10 -1.3357 -0.8899
4 -9 -9 1.2373 0.1781
4 -9 -8 1.2971 3.5962
4 -9 -7 -1.8814 -1.8513
4 -9 -6 0.5239 -7.1472
4 -9 -5 1.1154 -5.9350
4 -9 -4 -0.1626 -1.0868
4 -9 -3 -3.1965 3.8896
4 -9 -2 -5.9616 -3.3060
4 -9 -1 -2.6781 -7.3691
4 -8 -15 0.0193 2.4516
4 -8 -14 -1.3209 2.6753
4 -8 -13 -1.9896 2.8686
4 -8 -12 -0.9847 2.4042
4 -8 -11 -0.7020 5.5997
4 -8 -10 -1.5241 2.0200
4 -8 -9 -3.6083 -2.3702
4 -8 -8 1.4270 -4.1781
4 -8 -7 3.0776 -0.8826
4 -8 -6 -0.0356 -0.7328
4 -8 -5 1.0648 -0.9569
4 -8 -4 -1.6485 -9.1096
4 -8 -3 4.4768 -11.8871
4 -8 -2 6.6404 -9.5462
4 -8 -1 14.9052 -9.3599
4 -7 -16 -2.9497 -1.1352
4 -7 -15 -2.0787 -0.8234
4 -7 -14 -0.6674 -0.0703
4 -7 -13 0.2548 1.4608
4 -7 -12 -0.0190 -0.0468
4 -7 -11 1.2715 0.6133
4 -7 -10 5.7429 0.9759
4 -7 -9 4.6756 2.6296
4 -7 -8 2.4710 4.0941
4 -7 -7 2.0776 2.9764
4 -7 -6 0.3469 0.3408
4 -7 -5 2.0748 0.1645
4 -7 -4 -1.3390 -0.5757
4 -7 -3 -3.3478 -0.5403
4 -7 -2 -6.9661 4.0935
4 -7 -1 -7.0171 8.8722
4 -6 -16 -0.5419 -0.1212
4 -6 -15 -1.4042 0.5900
4 -6 -14 1.1520 0.1506
4 -6 -13 2.2379 -3.7616
4 -6 -12 2.4989 -5.2771
4 -6 -11 -3.9171 -0.1122
4 -6 -10 0.3850 6.9298
4 -6 -9 -0.1721 3.9241
4 -6 -8 0.9689 -0.0011
4 -6 -7 0.0054 -0.7650
4 -6 -6 -0.0414 0.7591
4 -6 -4 9.9781 -7.3909
4 -6 -3 7.0537 -0.1233
4 -6 -2 -0.5112 0.6641
4 -5 -16 -1.6852 -2.8963
4 -5 -15 -3.1684 -3.5675
4 -5 -14 -1.1549 -0.1931
4 -5 -13 -2.1444 3.5733
4 -5 -12 0.4799 2.9308
4 -5 -11 -0.8116 2.0429
4 -5 -10 1.7782 2.7511
4 -5 -9 0.1755 0.7545
4 -5 -8 -0.7736 -2.5986
4 -5 -7 -0.9489 -5.4208
4 -5 -5 0.4601 3.4900
4 -5 -4 5.2253 -0.7663
4 -5 -3 0.8646 0.1579
4 -5 -2 0.0843 2.0344
4 -5 -1 1.4133 7.0637
4 -4 -16 0.6011 2.9825
4 -4 -15 -0.0302 1.5490
4 -4 -14 -0.8993 0.8663
4 -4 -13 -0.7010 0.3004
4 -4 -12 -0.7121 3.4937
4 -4 -11 -2.0633 -1.0144
4 -4 -10 -1.1974 -1.1547
4 -4 -9 5.9102 -4.9660
4 -4 -8 3.3015 -5.5265
4 -4 -7 1.4717 -12.8156
4 -4 -6 -3.8543 -9.6612
4 -4 -5 -7.8897 6.3635
4 -4 -4 -8.7119 8.5632
4 -4 -3 -5.5212 0.6460
4 -4 -2 3.9273 -2.1430
4 -4 -1 12.8813 18.6646
4 -3 -16 1.4592 2.8639
4 -3 -15 2.5599 1.6057
4 -3 -14 1.7031 3.0303
4 -3 -13 1.6933 -1.8981
4 -3 -12 1.2875 -1.9853
4 -3 -11 1.1619 1.5135
4 -3 -10 -1.3664 7.1407
4 -3 -9 -1.6053 -4.1471
4 -3 -8 0.3970 -6.7977
4 -3 -7 -2.4112 2.8443
4 -3 -6 -0.3926 0.1555
4 -3 -5 -3.1239 -7.2778
4 -3 -4 0.1059 -8.8772
4 -3 -3 -0.8790 2.6686
4 -3 -2 6.1378 4.4515
4 -3 -1 5.7472 -10.7251
4 -2 -17 -1.9473 -1.6668
4 -2 -16 -0.7911 0.3712
4 -2 -15 -0.9193 -0.4936
4 -2 -14 -1.6027 0.3848
4 -2 -13 3.3749 2.5899
4 -2 -12 -0.7782 1.2919
4 -2 -11 -3.5873 -2.4638
4 -2 -10 -0.9849 -1.3285
4 -2 -9 -0.4068 6.1545
4 -2 -8 -6.0132 0.5389
4 -2 -7 2.2455 2.1022
4 -2 -6 5.7175 -7.0106
4 -2 -5 -5.0467 -6.8970
4 -2 -4 -14.8932 -1.0967
4 -2 -3 -20.5299 5.4920
4 -2 -2 -0.6386 1.3991
4 -2 -1 -8.3761 -6.5594
4 -1 -17 -1.7093 2.1007
4 -1 -16 0.5458 2.1965
4 -1 -15 7.7700 2.8055
4 -1 -14 3.0165 1.1634
4 -1 -13 0.5413 0.5197
4 -1 -12 -1.1275 -2.3464
4 -1 -11 -6.3449 -1.2331
4 -1 -10 -10.8624 -0.8478
4 -1 -9 0.9289 1.0982
4 -1 -8 4.3876 2.5979
4 -1 -7 -6.9469 -0.3208
4 -1 -6 -15.3270 0.4684
4 -1 -5 -23.4397 -7.3527
4 -1 -4 -1.0333 0.3074
4 -1 -3 5.4401 1.0020
4 -1 -2 -2.5171 3.8618
4 -1 -1 8.4021 1.3675
4 0 0 4.2627 -2.1248
4 0 1 -2.4388 -0.0248
4 0 2 5.7003 0.8925
4 0 3 4.7436 -0.7015
4 0 4 4.8619 -0.3628
4 0 5 2.4890 1.0375
4 0 6 0.7825 -0.2650
4 0 7 1.9054 -0.7750
4 0 8 1.8746 0.6649
4 0 9 -1.3549 0.1987
4 0 10 -0.2419 -0.6680
4 0 11 -3.0920 0.3055
4 0 12 1.5460 0.3305
4 1 0 -17.1555 17.7366
4 1 1 -22.0948 9.8667
4 1 2 -18.9523 9.2199
4 1 3 11.5010 -1.0513
4 1 4 7.1954 -11.5542
4 1 5 -1.3833 -13.2120
4 1 6 -5.9082 -2.1687
4 1 7 1.0432 -3.0387
4 1 8 1.9414 0.3465
4 1 9 -5.6202 -0.8580
4 1 10 -2.7406 -1.1330
4 1 11 4.6006 -1.9873
4 2 0 -13.3362 27.8138
4 2 1 11.4914 31.5569
4 2 2 9.4828 21.5165
4 2 3 12.6028 5.2663
4 2 4 11.5158 -11.3575
4 2 5 -0.6224 -16.1653
4 2 6 4.5600 1.9499
4 2 7 2.4858 5.2167
4 2 8 3.0467 -0.7045
4 2 9 0.6584 -0.1863
4 2 10 -2.0710 2.2817
4 2 11 1.4391 0.2767
4 3 1 -17.7954 5.5206
4 3 2 2.5138 1.2762
4 3 3 4.3236 0.3038
4 3 4 4.3282 3.1030
4 3 5 -3.5382 3.7951
4 3 6 -0.2802 2.4081
4 3 7 5.0391 6.0785
4 3 8 -2.9813 2.8852
4 3 9 0.9165 -0.0805
4 3 10 -0.2123 2.2904
4 4 0 7.1977 -11.2538
4 4 1 -2.8277 18.0956
4 4 2 10.4117 15.1370
4 4 3 2.2456 0.8197
4 4 4 2.6099 -8.8021
4 4 5 1.1743 -4.6414
4 4 6 -5.7113 0.5292
4 4 7 -2.6874 -3.8073
4 4 8 0.9375 0.5968
4 4 9 1.9689 -1.3166
4 5 0 -6.0725 -6.6957
4 5 1 2.7345 -4.9481
4 5 2 16.2744 -12.4548
4 5 3 23.0057 -10.9222
4 5 4 12.7043 -2.9039
4 5 5 5.5974 -5.4292
4 5 6 2.7536 -0.1051
4 5 7 3.4136 -2.0116
4 5 8 2.2314 -2.8986
4 6 0 3.6589 -2.0892
4 6 1 2.3918 3.8059
4 6 2 -1.9239 14.6775
4 6 3 -7.7850 -0.7680
4 6 4 -1.7998 0.4511
4 6 5 -0.2799 -0.6384
4 6 6 -4.3416 3.4239
4 6 7 2.5139 -4.4856
4 7 0 1.5598 -1.9853
4 7 1 -5.7139 -3.6860
4 7 2 3.3887 3.8861
4 7 3 10.0025 10.3235
4 7 4 0.0609 9.3404
4 7 5 0.6587 1.2734
4 7 6 -1.8594 1.1452
4 8 0 9.2050 5.0112
4 8 1 4.0491 -3.7601
4 8 2 -4.0948 1.3171
4 8 3 3.3453 -1.4539
4 8 4 -0.3758 -1.0491
4 8 5 3.7042 0.1785
4 9 0 3.5812 0.3558
4 9 1 2.3410 2.4117
4 9 2 -0.5757 2.0145
4 9 3 3.8770 5.2017
4 9 4 2.2318 1.5750
4 10 0 -1.8451 -4.1512
4 10 1 4.7614 -0.2570
4 10 2 -0.9172 0.1815
4 10 3 -0.6889 2.5627
4 10 4 -1.1569 0.0729
4 11 0 -1.1438 -4.2306
4 11 1 -0.2688 -5.0390
4 11 2 0.4771 -6.3881
4 11 3 -0.4078 -2.3977
4 12 0 -0.4263 0.0879
4 12 1 1.2993 -0.4790
4 12 2 0.4824 -3.8462
4 13 0 3.3961 -0.8810
4 13 1 0.7451 3.6262
4 14 0 0.8640 -0.5840
5 -19 -5 2.0229 -0.3560
5 -19 -4 1.1096 -0.4543
5 -19 -3 -0.0636 -2.5657
5 -19 -2 0.6271 -2.6713
5 -19 -1 0.3749 -3.2254
5 -18 -7 -0.5932 0.9877
5 -18 -6 -2.4195 1.6211
5 -18 -5 -4.1317 3.1358
5 -18 -4 -2.5917 1.9462
5 -18 -3 0.3813 -0.6891
5 -18 -2 -0.0152 -1.1381
5 -18 -1 -0.3636 -0.0121
5 -17 -9 -0.4128 1.9557
5 -17 -8 -1.1377 0.4195
5 -17 -7 0.7686 -0.4292
5 -17 -6 0.9513 -3.6536
5 -17 -5 2.8909 -3.8431
5 -17 -4 1.8209 -3.4404
5 -17 -3 4.0105 -4.7105
5 -17 -2 2.4093 -3.3065
5 -17 -1 -1.2706 0.3484
5 -16 -10 -3.1341 -1.4964
5 -16 -9 -3.0842 -1.0290
5 -16 -8 -2.7436 0.0269
5 -16 -7 -0.1967 0.0533
5 -16 -6 -0.9697 0.6573
5 -16 -5 -1.7506 -0.9709
5 -16 -4 -1.5177 1.3874
5 -16 -3 -3.1576 2.1664
5 -16 -2 -1.4621 -1.3713
5 -16 -1 -3.2578 -0.6399
5 -15 -11 2.8872 -1.9340
5 -15 -10 2.1029 -3.1129
5 -15 -9 -1.7450 -0.9766
5 -15 -8 -2.1701 0.6667
5 -15 -7 -2.5790 -1.2721
5 -15 -6 -0.4528 -4.2552
5 -15 -5 0.1630 -2.7271
5 -15 -4 2.7213 -1.3693
5 -15 -3 3.5089 4.2825
5 -15 -2 1.6450 1.7872
5 -15 -1 -0.0940 -3.7468
5 -14 -12 0.2642 1.9225
5 -14 -11 2.2099 2.3169
5 -14 -10 2.2840 -3.4540
5 -14 -9 0.7783 -5.4098
5 -14 -8 0.8489 -4.8586
5 -14 -7 2.7403 -1.9818
5 -14 -6 -0.3631 -0.7934
5 -14 -5 -0.2453 -0.5790
5 -14 -4 -1.1946 -0.0904
5 -14 -3 0.6465 0.6473
5 -14 -2 2.8556 4.1751
5 -14 -1 1.6978 0.8765
5 -13 -13 1.3684 0.1510
5 -13 -12 -0.3030 3.3723
5 -13 -11 0.3095 4.3236
5 -13 -10 0.9928 -1.7827
5 -13 -9 0.7324 -4.9519
5 -13 -8 -2.0673 -0.6584
5 -13 -7 -2.7276 -0.6300
5 -13 -6 -2.6182 0.6604
5 -13 -5 -2.2968 1.6071
5 -13 -4 0.6496 1.1132
5 -13 -3 -1.2514 -1.3040
5 -13 -2 -1.0741 -1.1558
5 -13 -1 0.3239 -2.1092
5 -12 -13 -2.2364 0.1735
5 -12 -12 -0.8316 -2.0163
5 -12 -11 0.6699 2.4371
5 -12 -10 -0.3084 4.6790
5 -12 -9 -3.4547 1.6245
5 -12 -8 -3.2316 -2.6156
5 -12 -7 -2.7988 -5.3607
5 -12 -6 -1.1531 -7.0154
5 -12 -5 -0.3244 -0.9927
5 -12 -4 1.1833 -0.0790
5 -12 -3 3.9995 -4.7171
5 -12 -2 4.8318 -4.2713
5 -12 -1 3.3503 -0.7628
5 -11 -14 0.7697 -1.6822
5 -11 -13 1.0327 3.2801
5 -11 -12 0.2670 0.4939
5 -11 -11 0.7589 -2.9295
5 -11 -10 1.6329 -1.5463
5 -11 -9 0.7981 0.2894
5 -11 -8 1.0204 -2.5293
5 -11 -7 1.8780 -0.3019
5 -11 -6 -1.9519 0.3942
5 -11 -5 -2.3632 -1.1339
5 -11 -4 0.2286 0.3339
5 -11 -3 2.2844 0.4918
5 -11 -2 0.0381 1.0143
5 -11 -1 -0.1346 -0.9769
5 -10 -14 -3.7770 -0.0694
5 -10 -13 -3.7503 0.9457
5 -10 -12 0.5481 1.1483
5 -10 -11 1.6447 -1.5330
5 -10 -10 0.2634 -2.1110
5 -10 -9 -0.0164 3.6054
5 -10 -8 -1.6899 5.1714
5 -10 -7 -0.8692 0.8148
5 -10 -6 0.2139 -0.5297
5 -10 -5 0.3426 -3.3894
5 -10 -4 -0.0193 -0.8884
5 -10 -3 1.4114 -1.5891
5 -10 -2 0.7066 -0.1372
5 -10 -1 2.3254 -0.0987
5 -9 -15 0.4811 1.3608
5 -9 -14 2.5372 1.9366
5 -9 -13 1.8683 2.5415
5 -9 -12 -0.0306 4.1207
5 -9 -11 -1.6596 2.2820
5 -9 -10 -4.1380 -1.0669
5 -9 -9 -2.5136 -0.7031
5 -9 -8 1.3157 0.6154
5 -9 -7 -0.6446 -2.8600
5 -9 -6 -1.3924 -2.2405
5 -9 -5 -1.0122 -0.4147
5 -9 -4 -2.5945 2.6013
5 -9 -3 -4.8401 0.7300
5 -9 -2 -5.4493 -6.2152
5 -9 -1 -6.0038 -7.1180
5 -8 -15 0.3989 2.5716
5 -8 -14 1.1872 0.8852
5 -8 -13 -0.2286 -0.5345
5 -8 -12 1.0367 1.9109
5 -8 -11 2.5998 4.3964
5 -8 -10 2.4263 -0.8436
5 -8 -9 -0.8493 -1.7113
5 -8 -8 0.5961 -1.3762
5 -8 -7 1.8034 -1.2083
5 -8 -6 -0.6252 0.1323
5 -8 -5 1.2780 1.4364
5 -8 -4 -0.6766 -3.4384
5 -8 -3 6.1368 -0.4593
5 -8 -2 2.2371 1.3239
5 -8 -1 3.6602 1.2025
5 -7 -16 -3.2475 -1.8714
5 -7 -15 -2.5838 -1.8952
5 -7 -14 -0.3572 -2.6800
5 -7 -13 -0.3894 -2.1228
5 -7 -12 -2.1036 -4.4465
5 -7 -11 0.9604 -0.9796
5 -7 -10 3.2526 -1.8938
5 -7 -9 2.0683 -0.8635
5 -7 -8 0.7717 1.2328
5 -7 -7 2.0969 1.6602
5 -7 -6 -1.2328 -0.4442
5 -7 -5 2.6934 0.5042
5 -7 -4 -1.1299 0.1571
5 -7 -3 -1.2658 -1.1836
5 -7 -2 -1.3229 0.0565
5 -7 -1 -2.1532 -0.9584
5 -6 -16 0.4504 0.7495
5 -6 -15 -1.1805 4.2096
5 -6 -14 0.8283 4.4671
5 -6 -13 3.0295 -0.4047
5 -6 -12 1.7650 -2.2123
5 -6 -11 -2.6321 3.0207
5 -6 -10 0.7672 6.8057
5 -6 -9 2.3869 1.2080
5 -6 -8 4.7556 -4.0651
5 -6 -7 4.7800 -6.2387
5 -6 -6 2.5911 -6.1812
5 -6 -5 4.6520 -6.9299
5 -6 -4 4.2832 -11.0610
5 -6 -3 -3.5872 -2.8537
5 -6 -2 -5.6571 -5.5703
5 -6 -1 5.2107 -4.4341
5 -5 -16 -1.3754 -3.6780
5 -5 -15 -4.3493 -3.7304
5 -5 -14 -1.7304 0.0983
5 -5 -13 -3.0112 3.4377
5 -5 -12 -0.6919 -0.2594
5 -5 -11 -2.9925 -1.2873
5 -5 -10 2.1205 1.7926
5 -5 -9 2.9023 3.1906
5 -5 -8 6.2016 -0.7412
5 -5 -7 2.3881 -2.5599
5 -5 -6 -0.2928 -1.9261
5 -5 -5 2.5067 4.4442
5 -5 -4 0.7278 -4.3790
5 -5 -3 -5.5505 -4.1197
5 -5 -2 0.1874 5.1982
5 -5 -1 3.5743 8.1268
5 -4 -16 1.8357 -0.7844
5 -4 -15 -1.0353 -3.0479
5 -4 -14 -0.9685 -2.2606
5 -4 -13 1.9580 -1.0308
5 -4 -12 1.9587 0.1630
5 -4 -11 -3.1312 -1.9441
5 -4 -10 -4.2805 1.6847
5 -4 -9 0.0188 4.3939
5 -4 -8 1.8983 0.8834
5 -4 -7 7.1931 -4.0614
5 -4 -6 0.6409 -0.3791
5 -4 -5 -3.1708 5.0025
5 -4 -4 2.4568 -5.0292
5 -4 -3 -0.0597 -4.1978
5 -4 -2 -1.0340 -0.1002
5 -4 -1 -0.9899 7.7680
5 -3 -16 2.2686 2.2718
5 -3 -15 0.3138 0.2699
5 -3 -14 -0.9768 2.5808
5 -3 -13 1.7377 -1.8845
5 -3 -12 3.8792 -1.0305
5 -3 -11 1.5645 -1.3496
5 -3 -10 -2.6709 -0.3052
5 -3 -9 -3.5541 -4.8408
5 -3 -8 -1.8374 2.7617
5 -3 -7 1.5528 -0.2883
5 -3 -6 5.4987 -10.6164
5 -3 -5 -1.9025 -7.8590
5 -3 -4 -1.5482 -0.7605
5 -3 -3 2.3815 -0.0896
5 -3 -2 8.8110 3.2915
5 -3 -1 7.9624 -8.9312
5 -2 -16 0.4649 0.4349
5 -2 -15 0.2764 -2.5660
5 -2 -14 -1.9262 -0.7335
5 -2 -13 -0.4028 1.8125
5 -2 -12 -1.0654 2.0250
5 -2 -11 -0.2902 0.7971
5 -2 -10 0.9859 -0.2595
5 -2 -9 -1.0040 2.0993
5 -2 -8 0.7822 5.9682
5 -2 -7 5.6998 11.7418
5 -2 -6 3.5059 -3.5408
5 -2 -5 -6.9166 -6.5904
5 -2 -4 -6.1432 0.3360
5 -2 -3 -9.7722 -6.5919
5 -2 -2 1.4611 -18.2772
5 -2 -1 10.9535 -16.1423
5 -1 -16 2.1595 0.8245
5 -1 -15 7.4107 -0.8764
5 -1 -14 1.9856 -1.1477
5 -1 -13 -3.2922 1.1395
5 -1 -12 -7.5601 -0.6009
5 -1 -11 -5.9994 1.2122
5 -1 -10 -1.1189 5.1733
5 -1 -9 4.6699 6.7216
5 -1 -8 -3.8740 3.9255
5 -1 -7 -11.2876 3.6403
5 -1 -6 -14.1052 1.9830
5 -1 -5 -13.6750 -2.7973
5 -1 -4 -5.4665 3.2390
5 -1 -3 -7.7318 6.2177
5 -1 -2 -34.0807 -1.5837
5 -1 -1 -14.0584 6.6452
5 0 0 -0.8745 -0.7745
5 0 1 4.7120 -0.1876
5 0 2 5.5293 0.8041
5 0 3 -8.0626 -0.4761
5 0 4 -4.5787 -0.4482
5 0 5 -1.1936 0.9175
5 0 6 0.7587 -0.1769
5 0 7 -0.8696 -0.7248
5 0 8 2.2116 0.5609
5 0 9 -5.1769 0.2428
5 0 10 -0.2153 -0.5781
5 0 11 -3.2802 0.2299
5 0 12 -2.3941 0.3565
5 1 0 -7.3823 14.3535
5 1 1 5.9008 5.6828
5 1 3 10.9299 -2.2703
5 1 4 -10.3952 -4.9326
5 1 5 -5.3866 -2.8163
5 1 6 8.6394 2.2079
5 1 7 3.2066 2.0333
5 1 8 -5.8734 0.2839
5 1 9 -7.3196 1.7877
5 1 10 -0.1814 1.8361
5 1 11 5.2321 -2.4127
5 2 0 8.8151 27.9953
5 2 1 6.8584 7.9127
5 2 2 7.8034 -4.7499
5 2 3 9.3851 -13.2830
5 2 4 3.5103 -5.3082
5 2 5 -4.8567 0.5098
5 2 6 2.2665 0.2758
5 2 7 3.0764 -5.4005
5 2 8 1.4419 0.7669
5 2 9 -0.5746 3.9120
5 2 10 -0.5893 7.2977
5 2 11 0.4271 1.6691
5 3 0 -5.3361 -1.8784
5 3 1 3.6373 -1.1212
5 3 2 -0.6354 -8.3574
5 3 3 -0.1876 -6.2638
5 3 4 3.0017 -4.0538
5 3 5 3.6761 1.0414
5 3 6 3.8695 1.8813
5 3 7 -3.5968 0.8345
5 3 8 -6.9808 0.2097
5 3 9 -2.2025 -0.3936
5 3 10 -1.9195 0.9026
5 4 0 -1.9678 4.5471
5 4 1 2.0852 14.4550
5 4 2 -3.0547 4.7706
5 4 3 -6.3717 -3.1460
5 4 4 2.1272 -2.3097
5 4 5 1.0840 1.2118
5 4 6 0.9275 0.2121
5 4 7 3.4160 -4.0849
5 4 8 -1.0218 3.9785
5 4 9 0.6354 2.7229
5 5 0 -3.3110 -8.5512
5 5 1 9.6421 -13.2081
5 5 2 13.2865 -9.8585
5 5 3 3.9938 1.2488
5 5 4 4.8652 0.8263
5 5 5 8.4449 -2.8437
5 5 6 7.2710 0.5337
5 5 7 2.9431 -9.2425
5 5 8 -2.8196 -6.9992
5 6 0 6.3869 5.9527
5 6 1 -1.3990 -2.0808
5 6 2 -2.4313 -7.7622
5 6 3 -0.8650 -9.9428
5 6 4 0.2586 0.0208
5 6 5 0.9792 -4.7196
5 6 6 1.0658 -1.9664
5 6 7 1.8268 -5.8702
5 7 0 3.4712 -5.7130
5 7 1 4.2425 0.6924
5 7 2 6.8274 7.2831
5 7 3 3.6444 5.6798
5 7 4 -2.9289 8.0173
5 7 5 -2.4440 1.3232
5 7 6 -0.4790 -1.6335
5 8 0 -3.0840 -4.3386
5 8 1 -0.4789 -7.8680
5 8 2 1.9382 -1.7156
5 8 3 5.5195 -2.4234
5 8 4 3.5574 0.0019
5 8 5 3.5145 3.4009
5 8 6 -1.1667 -1.2708
5 9 0 6.3900 -2.0932
5 9 1 -1.4693 3.6550
5 9 2 -6.0369 6.3313
5 9 3 -2.7763 7.2819
5 9 4 -2.9547 2.1735
5 9 5 1.2304 3.3650
5 10 0 1.6864 -2.2093
5 10 1 1.4701 -0.9861
5 10 2 -0.8344 1.3268
5 10 3 3.3736 0.1217
5 10 4 0.4068 -2.3843
5 11 0 1.1210 -3.0512
5 11 1 0.2707 -4.8144
5 11 2 2.2138 -4.0294
5 11 3 3.2267 -4.1677
5 12 0 -0.9057 -0.8222
5 12 1 0.2258 0.4541
5 12 2 -1.1393 1.0010
5 13 0 -2.5236 0.8978
5 13 1 -2.9558 1.6850
5 14 0 -0.2983 0.7425
6 -18 -6 -1.8044 -0.2632
6 -18 -5 -2.6789 -0.1035
6 -18 -4 -2.5216 -0.5170
6 -18 -3 -1.4803 -0.1109
6 -18 -2 -0.0053 1.5802
6 -18 -1 0.3129 2.3268
6 -17 -8 0.9623 -0.7028
6 -17 -7 0.2259 -2.3531
6 -17 -6 -1.1231 -3.3748
6 -17 -5 1.3383 -1.1270
6 -17 -4 0.9510 0.1459
6 -17 -3 0.4055 0.7242
6 -17 -2 -0.0318 0.6009
6 -17 -1 0.7671 0.2149
6 -16 -9 -1.2097 -1.5628
6 -16 -8 0.0900 -0.1144
6 -16 -7 2.1093 -1.2977
6 -16 -6 -3.8371 -0.9805
6 -16 -5 -4.1927 0.2464
6 -16 -4 -0.3577 2.7564
6 -16 -3 1.3346 2.6291
6 -16 -2 0.7279 1.4989
6 -16 -1 -1.2951 0.2944
6 -15 -11 1.0894 -0.0675
6 -15 -10 -0.4470 0.0397
6 -15 -9 -2.7374 -1.1411
6 -15 -8 -1.9410 -0.6488
6 -15 -7 1.2234 -4.4482
6 -15 -6 2.2557 -4.6699
6 -15 -5 -0.5113 0.8726
6 -15 -4 1.6376 1.9103
6 -15 -3 3.0501 1.3887
6 -15 -2 2.1428 -4.4306
6 -15 -1 1.5143 -6.4240
6 -14 -11 3.0947 -0.2440
6 -14 -10 2.5746 -4.2836
6 -14 -9 -0.5829 -4.2977
6 -14 -8 -2.6417 -1.0418
6 -14 -7 -2.9585 2.9759
6 -14 -6 -5.6461 -0.7822
6 -14 -5 -4.0114 1.0627
6 -14 -4 -3.1641 2.4392
6 -14 -3 -1.1946 3.5978
6 -14 -2 0.4899 4.6363
6 -14 -1 -3.1947 0.6891
6 -13 -12 -2.1465 0.7276
6 -13 -11 -0.6895 -0.0430
6 -13 -10 -0.4084 -3.4149
6 -13 -9 -1.4183 -2.7011
6 -13 -8 -6.1849 -0.4345
6 -13 -7 -1.4861 -1.5225
6 -13 -6 0.0199 -1.5314
6 -13 -5 -2.8998 -0.9997
6 -13 -4 -1.6588 -0.2236
6 -13 -3 -4.3154 -3.0283
6 -13 -2 1.0046 -0.7222
6 -13 -1 6.0862 1.0914
6 -12 -13 -0.0755 0.5971
6 -12 -12 0.3578 -1.7795
6 -12 -11 -0.3638 1.7391
6 -12 -10 -2.2706 3.6630
6 -12 -9 -0.8349 -1.0734
6 -12 -8 1.1123 -1.8926
6 -12 -7 -0.3211 -1.5375
6 -12 -6 2.3229 -4.8188
6 -12 -5 -1.6588 -2.6414
6 -12 -4 0.2692 -0.3299
6 -12 -3 1.7982 -1.1135
6 -12 -2 -0.8802 2.5270
6 -12 -1 -0.9370 4.0832
6 -11 -14 0.1918 -0.0544
6 -11 -13 1.7737 3.7339
6 -11 -12 0.9153 -0.4435
6 -11 -11 0.0452 -3.1332
6 -11 -10 0.0255 0.6601
6 -11 -9 -0.9819 3.7036
6 -11 -8 1.3525 1.3423
6 -11 -7 2.7181 6.3050
6 -11 -6 0.8737 2.5711
6 -11 -5 -1.9107 -4.7876
6 -11 -4 -1.6503 -1.5779
6 -11 -3 1.2819 0.2249
6 -11 -2 0.7157 -0.4077
6 -11 -1 -0.6269 -1.5351
6 -10 -14 -2.6457 -1.4291
6 -10 -13 -0.0424 -0.8100
6 -10 -12 2.3945 0.0355
6 -10 -11 0.8952 -0.8445
6 -10 -10 0.0135 -1.8365
6 -10 -9 0.6396 1.4119
6 -10 -8 -1.7490 0.1702
6 -10 -7 -0.3478 -4.8748
6 -10 -6 3.5783 -3.2092
6 -10 -5 1.1254 -4.7471
6 -10 -4 -4.0325 -1.2984
6 -10 -3 -1.2593 -0.9196
6 -10 -2 0.1851 0.7993
6 -10 -1 2.7204 -1.0050
6 -9 -15 2.3178 1.5193
6 -9 -14 1.1972 0.8639
6 -9 -13 0.4562 -0.9560
6 -9 -12 0.3344 -1.2858
6 -9 -11 -0.4478 -1.4794
6 -9 -10 -1.1034 -1.7571
6 -9 -9 -0.1609 -2.6126
6 -9 -8 0.9715 -0.3615
6 -9 -7 -2.5485 0.7022
6 -9 -6 -1.6067 4.7419
6 -9 -5 1.8713 3.7420
6 -9 -4 0.3710 6.0816
6 -9 -3 -3.5821 0.9837
6 -9 -2 -5.9763 0.4452
6 -9 -1 -6.8941 1.7860
6 -8 -15 1.9977 -3.2574
6 -8 -14 1.0397 -1.6263
6 -8 -13 -2.2909 2.4329
6 -8 -12 0.6930 2.2142
6 -8 -11 1.0045 0.0474
6 -8 -10 0.0528 -0.2738
6 -8 -9 -0.6146 2.7601
6 -8 -8 -0.1758 2.6355
6 -8 -7 2.2285 -1.9310
6 -8 -6 1.5888 -2.1715
6 -8 -5 2.0504 -2.4210
6 -8 -4 0.0847 -3.2577
6 -8 -3 2.0314 0.3947
6 -8 -2 -6.3698 -1.2523
6 -8 -1 -4.5623 4.5557
6 -7 -15 -0.7456 -0.9737
6 -7 -14 -1.6674 -5.2173
6 -7 -13 -1.8158 0.0548
6 -7 -12 -1.3132 -1.0884
6 -7 -11 -1.0733 -3.2396
6 -7 -10 -3.9624 -5.2063
6 -7 -9 0.3174 -2.8491
6 -7 -8 4.2338 0.6978
6 -7 -7 3.6521 2.2040
6 -7 -6 -3.6592 -0.0204
6 -7 -5 -0.2144 -0.5115
6 -7 -4 -1.5204 -0.8706
6 -7 -3 4.3219 -3.0177
6 -7 -2 -1.6209 -2.9388
6 -7 -1 -0.9458 -4.9403
6 -6 -15 -0.1190 6.0187
6 -6 -14 -0.9124 2.3309
6 -6 -13 -0.7282 -2.9228
6 -6 -12 0.0939 -0.8680
6 -6 -11 1.4274 2.7134
6 -6 -10 1.1260 4.9947
6 -6 -9 2.5625 2.6083
6 -6 -8 3.4204 -2.5404
6 -6 -7 5.1396 -3.9111
6 -6 -6 2.5345 -2.4739
6 -6 -5 1.2774 -3.0337
6 -6 -4 -5.1018 -9.7333
6 -6 -3 -7.5497 -11.1845
6 -6 -2 -7.1034 -15.1925
6 -6 -1 -6.1617 -5.7177
6 -5 -16 -3.4684 -4.2157
6 -5 -15 -5.1658 -3.9277
6 -5 -14 -0.4130 -1.8255
6 -5 -13 -3.4328 -1.2266
6 -5 -12 -2.7120 -2.4264
6 -5 -11 -2.4404 -1.8594
6 -5 -10 2.3696 1.0859
6 -5 -9 2.9954 2.9565
6 -5 -8 5.4667 -1.2424
6 -5 -7 2.0088 -1.7551
6 -5 -6 2.4001 -3.4889
6 -5 -5 5.6755 -0.8038
6 -5 -4 0.3600 -5.1651
6 -5 -3 -0.4004 -0.1384
6 -5 -2 4.6935 1.1132
6 -5 -1 -2.2982 8.7610
6 -4 -16 1.4757 -3.1142
6 -4 -15 -1.8315 -2.0031
6 -4 -14 -0.8056 -0.7610
6 -4 -13 2.0870 -1.3093
6 -4 -12 2.0919 -1.9241
6 -4 -11 -2.8789 0.9482
6 -4 -10 -4.9746 3.8432
6 -4 -9 -4.0158 7.5480
6 -4 -8 -1.0656 -1.1373
6 -4 -7 4.0447 -3.9410
6 -4 -6 2.8440 -4.8932
6 -4 -5 6.0443 -6.6680
6 -4 -4 12.7854 -11.9977
6 -4 -3 1.6295 -0.7370
6 -4 -2 -1.1115 -3.9516
6 -4 -1 -3.3153 -8.4326
6 -3 -16 -2.1471 2.5023
6 -3 -15 -4.2423 0.8727
6 -3 -14 -2.1083 2.0101
6 -3 -13 0.5938 -0.7096
6 -3 -12 1.3330 -0.0000
6 -3 -11 0.4723 -1.8958
6 -3 -10 -1.8000 -2.5973
6 -3 -9 -0.2094 -0.0106
6 -3 -8 2.5674 7.8410
6 -3 -7 3.5087 0.9706
6 -3 -6 3.8871 -2.1715
6 -3 -5 -2.4136 1.6990
6 -3 -4 1.3614 -0.5488
6 -3 -3 2.9788 -4.4034
6 -3 -2 0.6123 4.5945
6 -3 -1 -2.4513 -1.8856
6 -2 -16 1.5795 -2.7076
6 -2 -15 0.1519 -5.0473
6 -2 -14 0.2426 -2.2971
6 -2 -13 0.4898 0.0686
6 -2 -12 0.4596 1.4651
6 -2 -11 1.2312 0.0777
6 -2 -10 2.5960 -0.0383
6 -2 -9 -0.3954 4.5172
6 -2 -8 3.7588 12.1885
6 -2 -7 0.2391 8.8541
6 -2 -6 -0.7542 -0.4880
6 -2 -5 -3.0608 2.4152
6 -2 -4 0.4298 6.0989
6 -2 -3 -1.3078 -8.6421
6 -2 -2 2.3411 -12.5756
6 -2 -1 11.2300 -4.0404
6 -1 -16 4.7840 -2.6731
6 -1 -15 5.0636 -3.6408
6 -1 -14 0.0025 -0.2866
6 -1 -13 -1.5702 1.4681
6 -1 -12 -3.2154 -1.9055
6 -1 -11 -2.2813 -0.6461
6 -1 -10 -0.3141 2.2271
6 -1 -9 1.0553 0.5322
6 -1 -8 1.9646 -0.9409
6 -1 -7 4.5303 3.5907
6 -1 -6 -1.0869 4.9927
6 -1 -5 -0.4386 6.2776
6 -1 -4 -5.4368 6.6417
6 -1 -3 -6.7861 6.9580
6 -1 -2 -17.1907 2.2045
6 -1 -1 -6.6867 9.1191
6 0 0 8.1777 -1.3559
6 0 1 7.8302 -0.5999
6 0 2 6.6233 0.8819
6 0 3 -0.9617 -0.2982
6 0 4 -1.8871 -0.4877
6 0 5 -3.8071 0.7643
6 0 6 -1.2400 -0.0309
6 0 7 -2.7309 -0.6487
6 0 8 -2.3475 0.4667
6 0 9 -3.9434 0.2564
6 0 10 0.9334 -0.5704
6 0 11 -5.0085 0.1641
6 0 12 -3.1850 0.4772
6 1 0 -0.6526 -0.3166
6 1 1 -2.2171 -6.4306
6 1 2 -1.1392 -5.3852
6 1 3 -2.8106 -0.6858
6 1 4 1.0870 0.3376
6 1 5 5.1907 3.2319
6 1 6 5.6523 1.5998
6 1 7 -3.6738 1.9472
6 1 8 -3.5803 1.0209
6 1 9 -1.5869 4.6401
6 1 10 3.1703 0.3393
6 1 11 4.2298 -0.6727
6 2 0 10.7066 0.0940
6 2 1 0.9946 -12.8485
6 2 2 -2.0344 -5.8758
6 2 3 -3.9198 0.3959
6 2 4 -1.6834 1.7002
6 2 5 0.4614 -1.8004
6 2 6 2.7711 -3.6358
6 2 7 0.1420 -0.8316
6 2 8 -0.3133 5.4946
6 2 9 0.4159 5.2816
6 2 10 -1.1490 5.2804
6 2 11 -2.8997 -1.2980
6 3 0 8.5327 2.5475
6 3 1 0.0361 1.3837
6 3 2 -2.8651 -5.2421
6 3 3 3.9650 -2.4831
6 3 4 4.5514 -0.1579
6 3 5 -1.2461 1.2791
6 3 6 0.7017 1.9651
6 3 7 -1.2311 -0.4076
6 3 8 0.2356 0.6906
6 3 9 0.7913 -1.5589
6 3 10 2.5433 -0.1451
6 4 0 2.6296 1.4570
6 4 1 5.8110 0.8320
6 4 2 -4.3733 5.3671
6 4 3 -5.9314 2.0760
6 4 4 1.8630 -1.9897
6 4 5 -2.0026 -1.9685
6 4 6 -0.1555 1.9540
6 4 7 3.6303 0.8256
6 4 8 0.3116 4.4285
6 4 9 -0.2689 3.5011
6 5 0 5.8235 3.8772
6 5 1 3.2245 -7.0676
6 5 2 1.9921 -2.3084
6 5 3 1.3112 4.0497
6 5 4 7.4598 -2.0350
6 5 5 5.3491 -8.8924
6 5 6 -0.9916 -4.1761
6 5 7 -1.6313 -6.3348
6 5 8 -2.0358 -3.0379
6 6 0 -1.3637 6.8771
6 6 1 -1.8436 -2.8043
6 6 2 -1.6658 -5.2345
6 6 3 0.4135 -2.3076
6 6 4 0.0134 1.5319
6 6 5 0.3418 -4.3559
6 6 6 -0.8048 -0.1334
6 6 7 -1.3543 3.1050
6 7 0 -0.2179 1.0390
6 7 1 2.3044 5.1629
6 7 2 -1.4933 1.7673
6 7 3 -4.1102 -1.0783
6 7 4 -3.9925 2.7975
6 7 5 -2.0362 -0.6735
6 7 6 -0.6247 -1.9926
6 7 7 -0.5387 0.0381
6 8 0 -6.8890 -4.5507
6 8 1 5.2917 0.7097
6 8 2 7.2008 4.0764
6 8 3 1.8255 -0.6842
6 8 4 -0.4284 -0.0295
6 8 5 -2.1282 1.7109
6 8 6 -4.4971 -1.1662
6 9 0 -0.0046 3.3463
6 9 1 -5.3180 7.3456
6 9 2 2.2224 5.0225
6 9 3 7.0459 1.9953
6 9 4 4.1850 -0.3457
6 9 5 5.1311 4.6274
6 10 0 -1.2435 -3.9251
6 10 1 -1.5980 -2.6224
6 10 2 0.1546 -0.4919
6 10 3 5.1669 -1.8498
6 10 4 1.1004 -1.2743
6 11 0 0.7405 -0.4681
6 11 1 -0.6021 -1.0082
6 11 2 2.0669 -0.8149
6 11 3 -1.1872 -1.4943
6 12 0 0.1181 -1.8832
6 12 1 -0.2813 4.2577
6 12 2 2.2449 2.0925
6 13 0 -5.4720 2.3933
6 13 1 -4.4931 2.4202
6 14 0 -3.0502 0.9330
7 -17 -6 -2.1272 -0.0765
7 -17 -5 1.2345 0.6738
7 -17 -4 0.8531 0.3466
7 -17 -3 0.0900 0.4164
7 -17 -2 -0.0515 -0.1898
7 -17 -1 -0.1192 -1.3274
7 -16 -8 0.6971 -2.6798
7 -16 -7 1.0210 -2.1768
7 -16 -6 -2.3311 0.7945
7 -16 -5 1.1054 1.2329
7 -16 -4 3.1921 0.5175
7 -16 -3 2.9985 -0.5860
7 -16 -2 0.2595 -0.8201
7 -16 -1 -2.7538 -2.7036
7 -15 -10 -2.9408 0.7972
7 -15 -9 -2.2118 -1.1248
7 -15 -8 -1.4600 -0.6662
7 -15 -7 0.0915 -3.6823
7 -15 -6 -0.8567 -1.0706
7 -15 -5 -1.3076 0.8919
7 -15 -4 -0.3406 -1.5556
7 -15 -3 -1.0495 -1.4119
7 -15 -2 0.4427 -1.7738
7 -15 -1 -0.2403 -0.2883
7 -14 -11 1.5111 0.6471
7 -14 -10 1.7894 0.1287
7 -14 -9 -2.0258 -1.0306
7 -14 -8 -3.7232 0.0117
7 -14 -7 -2.4125 -0.7491
7 -14 -6 -1.6664 -5.8019
7 -14 -5 0.7575 -1.7589
7 -14 -4 0.2388 -0.8562
7 -14 -3 -2.2678 1.7094
7 -14 -2 -0.7807 3.8759
7 -14 -1 -0.0098 3.1790
7 -13 -12 -2.0489 -2.6349
7 -13 -11 -1.3398 -2.1918
7 -13 -10 -0.0847 -1.2419
7 -13 -9 1.1304 -0.9802
7 -13 -8 -2.1881 -0.6417
7 -13 -7 4.5705 1.8485
7 -13 -6 5.6614 1.5035
7 -13 -5 1.2345 0.5914
7 -13 -4 0.5870 0.0998
7 -13 -3 -2.8771 -2.2268
7 -13 -2 -0.5134 0.5065
7 -13 -1 2.8174 1.8453
7 -12 -12 -0.9138 -0.3401
7 -12 -11 -1.7300 -0.5858
7 -12 -10 -1.5546 1.8511
7 -12 -9 3.6499 -1.0745
7 -12 -8 3.3859 0.0465
7 -12 -7 -1.4358 3.6686
7 -12 -6 1.0086 2.0121
7 -12 -5 -3.0378 0.6616
7 -12 -4 -1.4022 2.2669
7 -12 -3 -0.4737 3.7974
7 -12 -2 -3.5027 4.1017
7 -12 -1 -2.8053 1.9225
7 -11 -13 1.4144 0.5217
7 -11 -12 3.1715 1.3610
7 -11 -11 3.5626 -1.1785
7 -11 -10 2.1194 -2.2341
7 -11 -9 -1.0466 -0.3922
7 -11 -8 0.5278 -3.8223
7 -11 -7 0.3119 -0.2909
7 -11 -6 0.4556 -1.4929
7 -11 -5 -2.2616 -4.1206
7 -11 -4 -5.3442 -1.1427
7 -11 -3 -3.4318 -0.0889
7 -11 -2 -1.2552 -0.5135
7 -11 -1 -4.8723 -3.6247
7 -10 -13 -1.2586 -1.5054
7 -10 -12 -0.6203 0.7960
7 -10 -11 1.7267 1.7852
7 -10 -10 2.0848 -2.8839
7 -10 -9 1.8624 -1.6807
7 -10 -8 0.1089 0.3213
7 -10 -7 -0.3863 -1.6482
7 -10 -6 0.5723 -0.6961
7 -10 -5 -0.1323 -3.0308
7 -10 -4 -2.8641 -2.5438
7 -10 -3 -2.5232 -3.0711
7 -10 -2 2.3475 -1.0623
7 -10 -1 5.0895 -1.2598
7 -9 -14 -0.8710 -2.1812
7 -9 -13 0.4622 -3.7572
7 -9 -12 -0.2494 -2.4448
7 -9 -11 0.1548 -0.5119
7 -9 -10 0.7810 0.3566
7 -9 -9 -1.9354 -1.4870
7 -9 -8 -1.6667 -0.4065
7 -9 -7 -1.4698 0.5787
7 -9 -6 0.5667 4.9256
7 -9 -5 3.6262 3.0163
7 -9 -4 4.9439 3.2047
7 -9 -3 -0.4656 -1.8068
7 -9 -2 -2.9618 3.0157
7 -9 -1 0.9033 1.1181
7 -8 -15 1.4578 -4.3649
7 -8 -14 -1.6516 3.4332
7 -8 -13 -3.7346 6.2408
7 -8 -12 -1.0301 1.1650
7 -8 -11 -3.5520 -1.8434
7 -8 -10 -4.1419 -0.3045
7 -8 -9 -0.7242 2.9797
7 -8 -8 0.9090 3.4948
7 -8 -7 1.5592 -3.2661
7 -8 -6 -0.4000 -2.2831
7 -8 -5 -2.5330 0.3109
7 -8 -4 0.9551 -0.8409
7 -8 -3 2.8226 -4.2819
7 -8 -2 -2.2361 -4.2305
7 -8 -1 2.2927 4.0171
7 -7 -15 -2.6589 -0.0393
7 -7 -14 -1.4635 -3.3638
7 -7 -13 1.2253 2.7163
7 -7 -12 2.5023 -0.8343
7 -7 -11 2.5990 -3.2897
7 -7 -10 0.9529 -0.5950
7 -7 -9 5.5989 0.1122
7 -7 -8 8.4362 2.4670
7 -7 -7 3.2442 2.3816
7 -7 -6 -4.8004 -0.4626
7 -7 -5 0.8959 1.3334
7 -7 -4 3.0589 4.7948
7 -7 -3 7.9481 -0.8839
7 -7 -2 -6.0384 -2.5573
7 -7 -1 -0.6475 -3.7433
7 -6 -15 2.3369 4.3363
7 -6 -14 -0.1437 -0.6275
7 -6 -13 0.1472 -2.4079
7 -6 -12 -0.2203 1.8227
7 -6 -11 0.7699 0.6890
7 -6 -10 -0.4340 -0.0853
7 -6 -9 0.4951 -0.8889
7 -6 -8 0.1598 -3.4179
7 -6 -7 5.5762 -1.8615
7 -6 -6 1.8890 0.0366
7 -6 -5 -0.4293 -4.1986
7 -6 -4 -3.4361 -7.8462
7 -6 -3 2.6097 -9.9544
7 -6 -2 0.0717 -6.3891
7 -6 -1 -7.8488 4.4351
7 -5 -15 -2.0589 -3.1290
7 -5 -14 -0.0036 -2.2309
7 -5 -13 -3.2531 -2.8948
7 -5 -12 -0.1806 -0.8873
7 -5 -11 1.9734 -0.3328
7 -5 -10 0.6257 0.8776
7 -5 -9 -3.4733 2.6434
7 -5 -8 -4.5067 0.7324
7 -5 -7 -1.3375 -1.5382
7 -5 -6 1.3206 -5.6838
7 -5 -5 2.0245 -3.2579
7 -5 -4 -4.0660 -2.7039
7 -5 -3 -2.7702 5.5060
7 -5 -2 -2.2658 2.6040
7 -5 -1 -5.9350 16.8433
7 -4 -16 1.2829 1.1228
7 -4 -15 -1.2663 4.2161
7 -4 -14 -0.9181 0.8591
7 -4 -13 -1.4109 -1.3596
7 -4 -12 -0.8361 -0.7229
7 -4 -11 -0.6351 4.0028
7 -4 -10 1.4784 0.5771
7 -4 -9 0.8529 3.5467
7 -4 -8 -1.9145 1.2164
7 -4 -7 -0.1663 4.4343
7 -4 -6 1.3771 -0.0525
7 -4 -5 3.0786 -0.6107
7 -4 -4 3.5279 -2.8546
7 -4 -3 -6.2254 4.7331
7 -4 -2 -6.1219 0.9379
7 -4 -1 -1.4923 -1.3340
7 -3 -16 -3.8272 0.4691
7 -3 -15 -1.2161 0.5088
7 -3 -14 1.7635 0.3233
7 -3 -13 -1.3563 -0.5874
7 -3 -12 -4.7861 0.8371
7 -3 -11 -0.6689 3.3943
7 -3 -10 1.3518 1.7959
7 -3 -9 3.4736 0.1827
7 -3 -8 1.1994 2.5107
7 -3 -7 -0.9078 1.5882
7 -3 -6 4.6866 0.8172
7 -3 -5 4.9091 2.0279
7 -3 -4 6.5868 -0.5323
7 -3 -3 0.4612 -3.6516
7 -3 -2 -3.0760 -1.0942
7 -3 -1 0.3738 -2.5263
7 -2 -16 0.2529 -4.7516
7 -2 -15 -1.2670 -6.1508
7 -2 -14 2.0647 -3.8078
7 -2 -13 2.7001 -3.6408
7 -2 -12 0.2508 -3.1345
7 -2 -11 -1.2308 -3.2752
7 -2 -10 2.6568 -0.1397
7 -2 -9 1.7857 -1.0497
7 -2 -8 5.5747 -1.8988
7 -2 -7 -2.1572 -3.7599
7 -2 -6 -0.5359 -0.9147
7 -2 -5 1.0187 -1.1755
7 -2 -4 5.0319 -2.5490
7 -2 -3 8.2032 -6.3904
7 -2 -2 5.5379 0.2722
7 -2 -1 2.1437 5.5974
7 -1 -16 4.6252 0.4634
7 -1 -15 -0.6093 -0.4481
7 -1 -14 -5.1662 1.2094
7 -1 -13 -2.8506 0.3023
7 -1 -12 -2.9572 -2.4754
7 -1 -11 -6.3907 -0.3864
7 -1 -10 -3.9507 1.0734
7 -1 -9 -0.6349 -2.5225
7 -1 -8 3.1198 -5.1615
7 -1 -7 3.4235 -0.5166
7 -1 -6 -1.6188 4.6895
7 -1 -5 1.4284 7.1694
7 -1 -4 -5.1419 4.4611
7 -1 -3 -3.8043 3.5449
7 -1 -2 1.7630 1.6670
7 -1 -1 2.1786 2.4191
7 0 0 -2.9499 -2.0038
7 0 1 -0.1780 -0.4302
7 0 2 1.5419 0.7886
7 0 3 2.1361 -0.3015
7 0 4 -0.4910 -0.4552
7 0 5 -0.4073 0.6887
7 0 6 -0.3298 0.0341
7 0 7 1.7269 -0.6369
7 0 8 2.0585 0.3584
7 0 9 0.6827 0.2684
7 0 10 -1.8742 -0.3733
7 0 11 -2.9241 0.1600
7 1 0 -3.1508 -1.3308
7 1 1 -6.8547 -2.0577
7 1 2 -2.1927 -0.9881
7 1 3 2.7315 4.0433
7 1 4 5.0539 2.9080
7 1 5 2.8975 3.5996
7 1 6 2.2646 1.6359
7 1 7 -3.5215 0.9693
7 1 8 -3.1139 -2.5465
7 1 9 -1.0987 -0.8781
7 1 10 2.2291 -2.2859
7 1 11 1.2767 0.3393
7 2 0 4.8121 -3.9056
7 2 1 6.0068 0.0482
7 2 2 2.7410 -0.9341
7 2 3 -0.1271 -2.0244
7 2 4 2.1185 -4.0109
7 2 5 1.8147 1.0546
7 2 6 2.2444 -0.2241
7 2 7 1.1672 0.0358
7 2 8 -1.3293 1.2817
7 2 9 -1.8985 2.9677
7 2 10 -1.6272 1.5972
7 2 11 -1.9156 -2.1168
7 3 0 -5.1797 -0.7782
7 3 1 -3.5351 1.0657
7 3 2 3.9049 -3.8337
7 3 3 0.6983 0.5581
7 3 4 -5.8690 0.7928
7 3 5 -4.5857 -0.3110
7 3 6 6.4006 -0.7308
7 3 7 7.6714 -5.4003
7 3 8 4.9597 -3.3727
7 3 9 2.5667 -1.6349
7 3 10 4.0536 1.0184
7 4 0 7.4911 -6.1514
7 4 1 4.7074 2.6686
7 4 2 0.9280 6.7220
7 4 3 -0.3026 -0.9101
7 4 4 3.5805 -1.2153
7 4 5 -2.9474 2.0667
7 4 6 -2.4428 4.1579
7 4 7 -1.8517 -1.3727
7 4 8 -4.1866 -1.3387
7 4 9 -4.1333 2.0440
7 5 0 5.0466 15.2570
7 5 1 -3.3877 4.4296
7 5 2 1.6551 3.6258
7 5 3 1.2831 1.5069
7 5 4 -0.5682 -3.3134
7 5 5 -2.6643 -6.7705
7 5 6 -1.2263 -2.3964
7 5 7 0.9712 -0.1428
7 5 8 -1.1524 0.8616
7 6 0 1.0528 3.8671
7 6 1 4.8959 4.5328
7 6 2 2.9460 6.4257
7 6 3 1.3617 1.5791
7 6 4 0.9022 1.6129
7 6 5 0.7165 1.3532
7 6 6 0.1988 0.6598
7 6 7 0.3209 0.7954
7 7 0 -3.4510 2.1670
7 7 1 0.3526 -1.4245
7 7 2 2.3951 -4.1552
7 7 3 -1.1048 -3.7572
7 7 4 -1.4890 -3.4073
7 7 5 2.3762 -3.2614
7 7 6 2.4009 -1.5111
7 7 7 -1.4683 -2.4063
7 8 0 0.0538 0.4405
7 8 1 0.4617 5.2999
7 8 2 -2.0282 1.5008
7 8 3 -1.3056 -3.8690
7 8 4 -2.2922 -0.3836
7 8 5 -2.4070 -0.1449
7 8 6 0.4430 -0.4081
7 9 0 -4.1947 -1.2194
7 9 1 -0.0190 0.2578
7 9 2 7.1705 2.4233
7 9 3 10.4276 -0.7789
7 9 4 6.7896 -2.2020
7 9 5 2.4569 1.7036
7 10 0 -1.9325 -1.6916
7 10 1 -1.0372 -1.4268
7 10 2 -0.7172 1.2741
7 10 3 2.5205 3.4247
7 10 4 2.3196 0.9784
7 11 0 2.9721 -1.1175
7 11 1 1.2408 0.5817
7 11 2 2.4906 -0.2699
7 11 3 -0.1488 0.2033
7 12 0 0.0886 -0.7909
7 12 1 -1.1624 2.3228
7 12 2 1.3918 -2.7409
7 13 0 -2.4440 0.5715
7 13 1 -1.2227 0.6127
7 14 0 0.1428 -3.0406
8 -16 -6 0.3394 1.0044
8 -16 -5 2.4859 -0.7735
8 -16 -4 1.8824 -0.7342
8 -16 -3 2.4005 -0.1348
8 -16 -2 0.6269 -0.7923
8 -16 -1 -3.0767 -2.2367
8 -15 -8 -1.3735 0.5548
8 -15 -7 -1.6542 -2.4380
8 -15 -6 -2.0937 -1.8973
8 -15 -5 -1.0407 -2.1295
8 -15 -4 -1.0288 -1.2346
8 -15 -3 -2.0011 1.7118
8 -15 -2 1.4412 2.1104
8 -15 -1 0.4432 1.7243
8 -14 -9 -0.9392 -3.4642
8 -14 -8 0.1944 -2.7247
8 -14 -7 2.8119 -1.8473
8 -14 -6 3.6426 -4.3573
8 -14 -5 1.6785 -1.0495
8 -14 -4 0.2942 -0.4650
8 -14 -3 -0.7219 2.1768
8 -14 -2 1.3857 2.8921
8 -14 -1 4.0567 2.4894
8 -13 -11 -0.3536 -1.0335
8 -13 -10 1.3785 0.7478
8 -13 -9 1.7234 0.2030
8 -13 -8 -0.6030 -0.5998
8 -13 -7 4.3547 5.5626
8 -13 -6 4.4811 5.5105
8 -13 -5 -0.7305 1.7739
8 -13 -4 -2.8518 0.2709
8 -13 -3 -3.0620 -1.0322
8 -13 -2 -2.8855 0.2829
8 -13 -1 -0.4077 -0.6732
8 -12 -11 0.6412 -2.6247
8 -12 -10 0.5203 -1.5901
8 -12 -9 2.5554 -2.0721
8 -12 -8 -0.7269 -1.9117
8 -12 -7 -3.7631 -1.2973
8 -12 -6 0.7005 -0.6237
8 -12 -5 -1.4321 0.0308
8 -12 -4 -2.8196 2.6580
8 -12 -3 -2.0049 3.5589
8 -12 -2 -2.3621 0.8164
8 -12 -1 -3.3685 -0.6967
8 -11 -12 2.0006 3.8566
8 -11 -11 1.7441 0.8996
8 -11 -10 1.2180 -2.0339
8 -11 -9 -0.4436 -0.2753
8 -11 -8 0.6439 -0.7414
8 -11 -7 -1.1734 0.5917
8 -11 -6 -1.5165 -0.4130
8 -11 -5 -1.0871 0.4162
8 -11 -4 -2.1792 3.1140
8 -11 -3 -0.4777 1.4835
8 -11 -2 1.0621 -1.7835
8 -11 -1 -4.0558 -5.1059
8 -10 -13 -2.3408 -0.1411
8 -10 -12 -0.1838 0.3736
8 -10 -11 0.7807 0.7721
8 -10 -10 -0.6067 -1.3613
8 -10 -9 1.6475 -0.4079
8 -10 -8 0.6203 1.9952
8 -10 -7 -1.5392 1.8652
8 -10 -6 -2.0635 1.3768
8 -10 -5 -0.4555 -0.8002
8 -10 -4 2.5403 -1.0098
8 -10 -3 4.3707 -2.0457
8 -10 -2 8.6008 -3.9989
8 -10 -1 6.8647 -4.2997
8 -9 -13 1.0501 -0.4303
8 -9 -12 0.2533 -0.0446
8 -9 -11 0.8888 -2.8010
8 -9 -10 -0.8675 -0.8410
8 -9 -9 -2.0306 -1.4638
8 -9 -8 0.9727 -3.8017
8 -9 -7 0.2247 -2.6878
8 -9 -6 -1.0856 1.2162
8 -9 -5 -1.1281 0.0970
8 -9 -4 1.6852 -0.1671
8 -9 -3 1.5964 -2.3284
8 -9 -2 0.4238 -1.0377
8 -9 -1 0.0138 -4.5373
8 -8 -14 -0.9459 4.0479
8 -8 -13 -0.5436 1.5542
8 -8 -12 2.0113 0.1986
8 -8 -11 1.2438 -1.2407
8 -8 -10 0.3217 -1.7891
8 -8 -9 2.6662 1.2466
8 -8 -8 3.3688 -0.1246
8 -8 -7 0.7916 -5.1916
8 -8 -6 -1.8620 -0.7785
8 -8 -5 -4.4050 2.0097
8 -8 -4 1.4664 0.4331
8 -8 -3 4.3831 -3.8872
8 -8 -2 5.1083 -4.3211
8 -8 -1 4.6695 -0.5508
8 -7 -14 3.6627 -1.5970
8 -7 -13 3.1597 -0.8261
8 -7 -12 2.4554 -1.9422
8 -7 -11 4.9899 0.9015
8 -7 -10 4.4028 3.6861
8 -7 -9 4.4293 0.8041
8 -7 -8 5.1467 0.7164
8 -7 -7 0.4746 -1.0326
8 -7 -6 -0.1538 -2.0422
8 -7 -5 5.5941 -0.5219
8 -7 -4 4.8513 1.8722
8 -7 -3 6.6068 -2.0598
8 -7 -2 -2.2144 -2.4012
8 -7 -1 0.8547 -5.5362
8 -6 -15 4.6841 2.5824
8 -6 -14 1.1593 0.0560
8 -6 -13 -0.6824 2.5137
8 -6 -12 -3.4954 4.3261
8 -6 -11 -1.4123 -1.7488
8 -6 -10 -0.0345 -4.0114
8 -6 -9 0.7580 -0.6584
8 -6 -8 0.7463 -0.9692
8 -6 -7 2.9356 -2.1910
8 -6 -6 -1.9982 0.0405
8 -6 -5 -1.3384 -2.8907
8 -6 -4 -4.6175 0.8574
8 -6 -3 -1.6411 1.9378
8 -6 -2 -1.6203 9.2974
8 -6 -1 -4.0394 11.1394
8 -5 -15 -0.2633 -2.8255
8 -5 -14 -1.3770 -3.9549
8 -5 -13 -2.1538 -4.1390
8 -5 -12 2.7618 1.7490
8 -5 -11 5.5560 1.5928
8 -5 -10 0.6038 -0.2264
8 -5 -9 -2.1457 1.3131
8 -5 -8 0.0108 2.0486
8 -5 -7 2.4202 -3.1546
8 -5 -6 -3.9364 -3.6224
8 -5 -5 -3.2121 -1.3263
8 -5 -4 -2.3443 -3.3180
8 -5 -3 -2.8984 2.3034
8 -5 -2 -6.6374 0.7530
8 -5 -1 -2.8066 10.6533
8 -4 -15 -3.0704 4.5013
8 -4 -14 -2.6990 -0.9969
8 -4 -13 -7.1571 -2.4577
8 -4 -12 -7.2863 1.1337
8 -4 -11 -2.0626 5.7445
8 -4 -10 4.0960 -0.4655
8 -4 -9 2.8763 2.1210
8 -4 -8 0.0040 3.6068
8 -4 -7 3.0608 2.2376
8 -4 -6 2.0136 -2.4492
8 -4 -5 1.3460 5.4154
8 -4 -4 -0.0492 4.4760
8 -4 -3 -1.6640 4.8041
8 -4 -2 -4.5919 2.2878
8 -4 -1 -0.9405 0.4929
8 -3 -15 1.6178 1.7203
8 -3 -14 0.4339 2.5686
8 -3 -13 -2.6430 2.4408
8 -3 -12 -4.0299 1.9888
8 -3 -11 1.3895 5.5485
8 -3 -10 -0.1102 1.6075
8 -3 -9 -0.0518 -2.8752
8 -3 -8 -0.5717 -0.6822
8 -3 -7 1.0748 2.1362
8 -3 -6 2.7685 -2.2322
8 -3 -5 0.3439 -0.5780
8 -3 -4 0.6249 1.8298
8 -3 -3 1.2311 0.8765
8 -3 -2 7.1363 -1.8328
8 -3 -1 3.7957 -1.4331
8 -2 -15 -1.8244 -5.4364
8 -2 -14 1.0676 -1.8225
8 -2 -13 3.8069 -0.6821
8 -2 -12 3.7704 -1.7485
8 -2 -11 2.7291 -4.8700
8 -2 -10 3.7979 -1.9725
8 -2 -9 -1.9418 -2.4582
8 -2 -8 -1.6149 -3.0172
8 -2 -7 -4.3175 -2.9443
8 -2 -6 -0.8322 -2.2006
8 -2 -5 -1.0559 -4.0328
8 -2 -4 -0.5651 -4.0886
8 -2 -3 -1.2149 1.0345
8 -2 -2 -1.8831 3.2336
8 -2 -1 -0.6939 0.9207
8 -1 -16 1.2134 1.6655
8 -1 -15 -5.8774 0.5273
8 -1 -14 -8.9695 1.2591
8 -1 -13 -7.0220 1.7120
8 -1 -12 -4.6029 1.0539
8 -1 -11 -4.3359 2.7589
8 -1 -10 1.1917 2.5365
8 -1 -9 1.3428 1.2004
8 -1 -8 0.2373 0.9123
8 -1 -7 -0.5147 2.6184
8 -1 -6 -3.5097 0.7703
8 -1 -5 -1.9160 -0.5227
8 -1 -4 -3.5154 -2.1126
8 -1 -3 -4.9055 -4.5079
8 -1 -2 -0.9620 -3.1639
8 -1 -1 1.1831 -1.9642
8 0 0 -1.2415 -0.9762
8 0 1 3.2829 -0.2322
8 0 2 -1.8775 0.5974
8 0 3 -1.2285 -0.2240
8 0 4 1.0654 -0.4788
8 0 5 2.6038 0.6188
8 0 6 0.6674 0.0430
8 0 7 2.0861 -0.6206
8 0 8 -2.1867 0.2866
8 0 9 -2.7877 0.4212
8 1 0 -4.6493 -0.7010
8 1 1 0.2911 -3.0768
8 1 2 0.4728 0.1694
8 1 3 -1.9364 1.8054
8 1 4 -1.2521 -0.6922
8 1 5 4.4298 -0.5023
8 1 6 -0.2284 0.2031
8 1 7 -8.7512 -3.8163
8 1 8 -7.9525 -4.4864
8 1 9 -1.4605 -0.8467
8 2 0 -0.0588 0.8357
8 2 1 1.8001 -4.4115
8 2 2 3.4503 -9.0833
8 2 3 4.5553 -0.2192
8 2 4 1.1292 3.2439
8 2 5 -0.5514 0.7573
8 2 6 3.6771 -5.3338
8 2 7 0.9257 -1.9029
8 2 8 -3.9520 1.6833
8 2 9 -2.4812 3.5542
8 3 0 -0.5223 -1.8523
8 3 1 0.8441 2.2840
8 3 2 -4.4952 -2.6899
8 3 3 -3.7440 0.1350
8 3 4 2.0829 -1.5077
8 3 5 3.8543 -1.4101
8 3 6 2.4392 -3.4366
8 3 7 -0.3589 -4.9879
8 3 8 -3.5816 -1.4244
8 3 9 -0.8795 0.8326
8 4 0 3.4039 -2.4823
8 4 1 2.4621 2.9025
8 4 2 1.0864 1.7530
8 4 3 1.2963 0.0529
8 4 4 5.0067 1.8938
8 4 5 -0.7499 0.3286
8 4 6 -5.9458 -1.2396
8 4 7 -6.2852 -4.0174
8 4 8 -4.9727 -0.9904
8 4 9 -3.5069 3.2207
8 5 0 2.4270 5.9847
8 5 1 1.5947 1.2543
8 5 2 5.5344 -0.0765
8 5 3 -0.7978 1.2491
8 5 4 -0.8806 0.0236
8 5 5 2.2043 -3.0326
8 5 6 2.2683 -1.5935
8 5 7 -1.9807 2.9686
8 5 8 -2.8824 1.3779
8 6 0 1.1107 -2.1413
8 6 1 6.5715 2.2810
8 6 2 7.1393 3.0496
8 6 3 2.6266 1.7397
8 6 4 2.7339 3.2144
8 6 5 2.3034 1.2947
8 6 6 0.0640 -5.6234
8 6 7 0.1212 -2.6303
8 7 0 -1.9953 -0.5043
8 7 1 -2.7597 1.4760
8 7 2 3.1073 1.0118
8 7 3 -0.4808 0.3588
8 7 4 -0.7475 -0.7967
8 7 5 3.1986 -1.1040
8 7 6 0.2292 -1.7785
8 7 7 -5.6947 -5.0688
8 8 0 -0.0894 -1.8934
8 8 1 -7.4384 -0.0741
8 8 2 -5.3965 -2.2186
8 8 3 -0.0144 -5.7637
8 8 4 -3.6087 -1.6519
8 8 5 -4.7413 -3.1967
8 8 6 1.1876 -4.0251
8 9 0 3.5786 -4.7337
8 9 1 6.2044 -1.4953
8 9 2 4.7223 5.6892
8 9 3 2.9133 -0.1377
8 9 4 0.3432 -2.7179
8 9 5 -3.4506 0.8713
8 10 0 -0.3140 2.9262
8 10 1 -0.0071 0.4935
8 10 2 1.8865 3.0907
8 10 3 2.5419 3.9810
8 10 4 1.0256 -0.1391
8 11 0 4.0890 -2.1746
8 11 1 0.3733 -1.7422
8 11 2 1.0340 -2.5887
8 11 3 2.6754 -3.5729
8 12 0 -0.3764 -0.3620
8 12 1 -2.1366 -1.4666
8 12 2 -4.8428 -3.6760
8 13 0 -2.0543 -1.1953
8 13 1 1.5974 -1.8223
8 14 0 1.3958 -0.4989
9 -15 -6 -0.5815 -0.7020
9 -15 -5 -1.0992 0.0413
9 -15 -4 -0.9270 1.0678
9 -15 -3 -2.0754 -0.0162
9 -15 -2 -0.6508 -0.3799
9 -15 -1 -0.4602 -0.8683
9 -14 -8 1.3619 -1.5246
9 -14 -7 2.3266 0.9595
9 -14 -6 1.8979 0.3693
9 -14 -5 -2.4284 1.3901
9 -14 -4 -1.4802 1.4855
9 -14 -3 0.7312 2.5272
9 -14 -2 0.8283 0.4944
9 -14 -1 1.2388 -0.1606
9 -13 -9 -1.5258 1.0186
9 -13 -8 -1.1972 -1.5485
9 -13 -7 0.1071 1.4241
9 -13 -6 0.5236 0.9344
9 -13 -5 -1.1986 -1.4530
9 -13 -4 -2.8894 -1.3994
9 -13 -3 0.4636 -1.3665
9 -13 -2 2.2844 -0.7605
9 -13 -1 3.0876 -2.7681
9 -12 -10 0.1496 -1.8531
9 -12 -9 -0.2608 -0.9317
9 -12 -8 -0.7059 -2.3272
9 -12 -7 -1.0376 -5.0576
9 -12 -6 0.3768 -2.0215
9 -12 -5 0.1008 0.1365
9 -12 -4 -0.2385 0.9248
9 -12 -3 -0.9677 -0.2414
9 -12 -2 1.8255 -1.1807
9 -12 -1 0.9248 -2.1718
9 -11 -11 -0.3722 2.7272
9 -11 -10 1.5005 1.9576
9 -11 -9 0.7262 3.6339
9 -11 -8 -0.6030 5.7922
9 -11 -7 -2.7741 2.8098
9 -11 -6 -2.0149 0.5446
9 -11 -5 2.2464 3.6110
9 -11 -4 4.6907 4.4560
9 -11 -3 3.9731 0.0138
9 -11 -2 1.2921 -1.3497
9 -11 -1 -0.8548 -0.4625
9 -10 -12 1.6420 -2.7385
9 -10 -11 1.1248 -3.1613
9 -10 -10 1.6156 -2.7824
9 -10 -9 5.2620 -5.3161
9 -10 -8 4.4132 -1.4809
9 -10 -7 2.0758 2.5166
9 -10 -6 -0.9072 0.8594
9 -10 -5 -0.4016 -2.2656
9 -10 -4 3.9885 -1.3263
9 -10 -3 4.1826 -1.9533
9 -10 -2 1.6561 -3.6257
9 -10 -1 0.7714 -1.9073
9 -9 -13 0.1638 0.6393
9 -9 -12 0.8873 -0.9154
9 -9 -11 1.0897 -5.4436
9 -9 -10 -0.3556 -0.1542
9 -9 -9 -2.0467 0.3299
9 -9 -8 -1.0661 -3.3215
9 -9 -7 0.5449 -1.0499
9 -9 -6 -0.3265 1.0039
9 -9 -5 -3.4138 0.4510
9 -9 -4 -0.9133 -0.8173
9 -9 -3 3.1814 -0.9551
9 -9 -2 -0.5858 -1.4600
9 -9 -1 -4.7242 0.6541
9 -8 -13 0.4283 -1.5364
9 -8 -12 2.6297 2.5698
9 -8 -11 1.7533 1.4975
9 -8 -10 0.1114 -1.1657
9 -8 -9 2.4054 1.4348
9 -8 -8 1.0986 -0.1797
9 -8 -7 0.7126 -1.8152
9 -8 -6 2.4246 -0.4083
9 -8 -5 -0.5289 0.3443
9 -8 -4 0.5001 0.6078
9 -8 -3 2.1473 -3.4710
9 -8 -2 3.2425 -5.7224
9 -8 -1 -0.6374 -1.5807
9 -7 -14 2.1118 -0.8539
9 -7 -13 -0.6855 -0.6447
9 -7 -12 0.0113 1.6456
9 -7 -11 2.7135 2.9720
9 -7 -10 -0.4312 1.9813
9 -7 -9 -0.6710 -0.6716
9 -7 -8 0.7281 0.4942
9 -7 -7 -1.9814 0.8212
9 -7 -6 2.7651 -1.0811
9 -7 -5 3.8634 -4.1954
9 -7 -4 0.4021 -2.0008
9 -7 -3 0.5430 -1.7252
9 -7 -2 -1.0019 -3.7825
9 -7 -1 -3.3826 -6.4114
9 -6 -14 -2.1176 0.7205
9 -6 -13 -2.3646 4.8503
9 -6 -12 -0.0568 2.9197
9 -6 -11 4.5000 -3.5487
9 -6 -10 4.4574 -3.3714
9 -6 -9 2.0146 1.9533
9 -6 -8 2.1371 -0.9523
9 -6 -7 0.4050 -3.8442
9 -6 -6 -1.3091 1.3574
9 -6 -5 -0.3730 -0.1540
9 -6 -4 -5.9790 2.4167
9 -6 -3 -6.1211 3.2285
9 -6 -2 -4.2040 8.5738
9 -6 -1 -3.1467 5.3369
9 -5 -14 -3.3174 -2.6278
9 -5 -13 -1.3965 -1.2801
9 -5 -12 2.0010 3.5830
9 -5 -11 3.6816 1.3598
9 -5 -10 -0.0579 -2.5708
9 -5 -9 1.4631 -2.8085
9 -5 -8 3.7255 -0.4190
9 -5 -7 -0.8131 -3.0696
9 -5 -6 -7.5031 0.3896
9 -5 -5 0.9621 -0.6383
9 -5 -4 5.3672 -3.2440
9 -5 -3 2.3632 -0.5309
9 -5 -2 -0.2870 0.6394
9 -5 -1 3.1561 3.7163
9 -4 -14 -1.5468 0.9039
9 -4 -13 -5.4637 0.8262
9 -4 -12 -5.3873 1.9614
9 -4 -11 -1.9330 2.6511
9 -4 -10 1.5477 0.7722
9 -4 -9 -0.5534 2.1005
9 -4 -8 -0.8445 0.7211
9 -4 -7 1.9054 -1.8209
9 -4 -6 -1.5515 0.9377
9 -4 -5 -0.1549 7.6320
9 -4 -4 -1.0627 4.4901
9 -4 -3 0.4470 3.7375
9 -4 -2 -3.3435 1.3906
9 -4 -1 -2.4898 -0.1566
9 -3 -15 -0.8332 2.5835
9 -3 -14 -2.8559 4.5695
9 -3 -13 1.9313 5.4947
9 -3 -12 4.7981 2.0209
9 -3 -11 4.6937 2.2785
9 -3 -10 0.0088 0.1903
9 -3 -9 3.0152 1.4198
9 -3 -8 3.6575 2.1767
9 -3 -7 2.5526 -0.3969
9 -3 -6 -2.4392 -4.0021
9 -3 -5 -3.2200 0.3002
9 -3 -4 -2.0710 1.4267
9 -3 -3 0.4264 1.7697
9 -3 -2 5.4652 1.1633
9 -3 -1 -0.1332 -0.4566
9 -2 -15 -0.4554 -2.9130
9 -2 -14 0.0438 3.0639
9 -2 -13 3.3360 3.9202
9 -2 -12 5.0273 -0.6419
9 -2 -11 4.3320 -4.5676
9 -2 -10 2.2395 0.6505
9 -2 -9 -1.3661 2.0626
9 -2 -8 1.2046 0.0837
9 -2 -7 3.0775 -2.3511
9 -2 -6 3.5556 -2.6160
9 -2 -5 1.5657 0.2732
9 -2 -4 1.2218 -1.9500
9 -2 -3 -2.9182 -0.4274
9 -2 -2 -1.1861 -0.2631
9 -2 -1 5.6438 1.6571
9 -1 -15 -6.0520 -0.4011
9 -1 -14 -6.4309 -1.4080
9 -1 -13 -5.4510 -0.8896
9 -1 -12 -4.4654 -1.1158
9 -1 -11 -5.8002 0.4134
9 -1 -10 -1.4614 2.5809
9 -1 -9 0.4496 4.8733
9 -1 -8 1.1229 4.1350
9 -1 -7 1.1587 2.6052
9 -1 -6 -0.2857 -2.5008
9 -1 -5 0.6254 -3.6043
9 -1 -4 1.2340 -4.7169
9 -1 -3 -3.1694 -7.4435
9 -1 -2 -7.1558 -5.0585
9 -1 -1 -1.8079 -3.1417
9 0 0 0.4152 -0.4582
9 0 1 5.4203 -0.4766
9 0 2 3.2078 0.5530
9 0 3 -1.0426 -0.0697
9 0 4 1.8688 -0.4356
9 0 5 -0.8623 0.5226
9 0 6 -3.4261 0.1415
9 0 7 -3.1480 -0.3981
9 0 8 -3.8051 0.2580
9 1 0 -7.1029 -1.9271
9 1 1 -3.9943 -1.9602
9 1 2 -0.6659 -0.9363
9 1 3 1.9370 -1.2423
9 1 4 3.9124 -1.6339
9 1 5 5.2612 -2.6378
9 1 6 -5.4454 -0.7903
9 1 7 -9.1172 -1.9919
9 1 8 -4.5586 0.5681
9 2 0 1.8841 -0.9511
9 2 1 -0.7523 -1.1678
9 2 2 1.0152 4.1401
9 2 3 2.0572 5.2075
9 2 4 -1.5182 3.5893
9 2 5 -2.2342 -1.6595
9 2 6 0.2057 -0.5035
9 2 7 -2.5712 3.2008
9 2 8 -3.1556 3.5761
9 3 0 1.7342 -1.6163
9 3 1 -4.0763 1.3263
9 3 2 -4.9384 -1.1263
9 3 3 3.6183 -3.2580
9 3 4 6.4576 -6.2830
9 3 5 0.8799 -2.1194
9 3 6 -3.7597 0.0125
9 3 7 -2.9230 0.9535
9 3 8 -3.6901 -0.0361
9 4 0 -3.9963 -2.8246
9 4 1 -2.0290 -2.3350
9 4 2 -1.3865 0.0024
9 4 3 2.6763 2.7655
9 4 4 1.1807 1.4137
9 4 5 -1.3308 -1.6177
9 4 6 -4.1045 -1.1257
9 4 7 -0.1677 0.0436
9 4 8 -0.2513 1.6999
9 5 0 -1.2629 0.5327
9 5 1 1.1934 -0.4444
9 5 2 1.2505 0.6440
9 5 3 -0.4304 4.2209
9 5 4 0.9545 3.9467
9 5 5 2.1349 1.5961
9 5 6 -0.2073 1.2394
9 5 7 -3.2585 1.9190
9 6 0 -1.8755 -1.6813
9 6 1 3.4770 2.7829
9 6 2 3.0561 1.1646
9 6 3 0.3785 0.4609
9 6 4 0.5686 -1.4881
9 6 5 -2.1221 -1.7734
9 6 6 -1.8642 -5.4958
9 6 7 1.0801 -0.7971
9 7 0 1.2160 -1.9431
9 7 1 -3.4425 2.1634
9 7 2 0.6037 1.1104
9 7 3 0.1164 1.4694
9 7 4 1.5644 -1.1543
9 7 5 2.7184 -0.1870
9 7 6 -1.5207 -0.4542
9 7 7 -3.6944 -3.3797
9 8 0 0.3979 -7.4505
9 8 1 -2.0224 -4.2631
9 8 2 -0.4499 -1.5287
9 8 3 0.2687 1.2701
9 8 4 -1.3657 3.7772
9 8 5 -1.3143 -0.3768
9 8 6 3.5282 -1.2706
9 9 0 4.8730 0.5388
9 9 1 3.5115 0.5417
9 9 2 0.8694 3.8157
9 9 3 -4.3888 2.5238
9 9 4 -2.1752 4.3923
9 9 5 -2.1952 5.4008
9 10 0 0.0752 1.0251
9 10 1 -2.2186 -0.5812
9 10 2 1.8207 -0.4971
9 10 3 0.9829 -0.6784
9 10 4 -0.4442 -0.1098
9 11 0 4.4323 -0.1259
9 11 1 0.9558 -0.8150
9 11 2 0.5993 0.2097
9 11 3 1.9910 -3.1838
9 12 0 1.9623 3.1176
9 12 1 0.5334 0.5657
9 12 2 -2.2612 0.2940
9 13 0 -3.2388 0.2299
9 13 1 2.2895 1.6191
9 14 0 -0.9335 2.3424
10 -13 -7 -1.5879 -0.8412
10 -13 -6 -0.1943 -0.3008
10 -13 -5 0.9311 -0.0648
10 -13 -4 0.1247 -1.1450
10 -13 -3 2.4496 -1.6588
10 -13 -2 3.7369 -1.2870
10 -13 -1 2.3455 -2.7577
10 -12 -8 1.0362 0.4538
10 -12 -7 -0.7693 0.1444
10 -12 -6 -1.1345 0.9268
10 -12 -5 0.6022 0.1175
10 -12 -4 1.3193 -0.1352
10 -12 -3 -1.4214 -2.3759
10 -12 -2 1.8794 -1.6777
10 -12 -1 1.5258 -2.4863
10 -11 -10 2.9216 0.0737
10 -11 -9 -0.1503 1.1111
10 -11 -8 -1.1181 1.7718
10 -11 -7 -0.0547 0.1392
10 -11 -6 1.0582 0.7216
10 -11 -5 1.7662 1.0208
10 -11 -4 2.3765 1.3186
10 -11 -3 0.9462 1.1737
10 -11 -2 -1.1084 1.0580
10 -11 -1 0.5413 1.7254
10 -10 -11 1.6719 -2.4984
10 -10 -10 3.8578 -3.0455
10 -10 -9 4.8240 -3.3120
10 -10 -8 3.6357 3.6142
10 -10 -7 3.8419 4.3193
10 -10 -6 2.5819 0.5564
10 -10 -5 0.8769 -3.2702
10 -10 -4 -0.3325 -2.6751
10 -10 -3 -0.6945 -0.5032
10 -10 -2 -2.6185 1.1205
10 -10 -1 0.4091 -0.1913
10 -9 -11 -0.3298 -1.5296
10 -9 -10 -1.3282 2.8414
10 -9 -9 -4.5845 0.5359
10 -9 -8 -2.9218 -0.0046
10 -9 -7 2.6182 2.8263
10 -9 -6 3.5102 0.9979
10 -9 -5 1.8139 0.3213
10 -9 -4 1.7211 -1.1620
10 -9 -3 2.7247 -0.3434
10 -9 -2 0.2360 2.2009
10 -9 -1 -2.1468 6.7916
10 -8 -12 0.3094 3.7791
10 -8 -11 -2.1076 2.4808
10 -8 -10 -1.8051 0.3641
10 -8 -9 0.9346 1.5341
10 -8 -8 -2.3454 -0.7860
10 -8 -7 1.0180 1.1766
10 -8 -6 5.5588 0.8352
10 -8 -5 4.1858 -1.5998
10 -8 -4 2.6027 -3.8099
10 -8 -3 1.1806 -7.6171
10 -8 -2 -1.2056 -8.8616
10 -8 -1 -1.9712 -2.7290
10 -7 -12 1.6381 2.7100
10 -7 -11 3.0323 0.6138
10 -7 -10 0.3725 -0.5578
10 -7 -9 3.3867 -0.0580
10 -7 -8 0.5136 1.3942
10 -7 -7 -6.7236 0.8523
10 -7 -6 -1.8641 0.7204
10 -7 -5 -0.6932 -0.2992
10 -7 -4 -3.1121 0.0162
10 -7 -3 -4.3441 -0.4505
10 -7 -2 -2.8354 -2.0097
10 -7 -1 -5.5631 -2.4905
10 -6 -13 1.6970 0.6909
10 -6 -12 4.5685 -1.8327
10 -6 -11 4.8239 -1.9485
10 -6 -10 1.7252 0.4587
10 -6 -9 -0.2299 -0.9494
10 -6 -8 4.8201 -6.5304
10 -6 -7 0.2765 -4.4510
10 -6 -6 -3.8012 3.2359
10 -6 -5 -2.2878 3.6679
10 -6 -4 -1.2944 4.0817
10 -6 -3 -2.4236 5.5246
10 -6 -2 -2.7837 7.3072
10 -6 -1 -0.8929 2.7961
10 -5 -13 0.1211 0.0203
10 -5 -12 -1.8567 -1.1782
10 -5 -11 -2.5244 -2.3356
10 -5 -10 -0.3940 -1.3933
10 -5 -9 3.7909 0.2099
10 -5 -8 2.6662 0.6468
10 -5 -7 -2.5865 -2.0756
10 -5 -6 -6.2260 -0.9515
10 -5 -5 -2.5575 -3.6656
10 -5 -4 -2.0774 -3.4491
10 -5 -3 -0.7530 -2.1738
10 -5 -2 1.7349 0.4064
10 -5 -1 2.4998 0.4560
10 -4 -13 1.0502 1.8379
10 -4 -12 2.5263 -1.1599
10 -4 -11 2.4660 -3.4561
10 -4 -10 1.3797 -0.2561
10 -4 -9 -0.5618 0.3412
10 -4 -8 -0.5788 -1.6577
10 -4 -7 0.7937 -3.9174
10 -4 -6 0.6734 -1.1786
10 -4 -5 3.7221 -0.6756
10 -4 -4 -0.3320 0.4478
10 -4 -3 -0.2048 3.7321
10 -4 -2 3.3581 0.9524
10 -4 -1 3.0770 0.1991
10 -3 -14 -2.3629 2.7967
10 -3 -13 2.8142 4.9912
10 -3 -12 3.3053 3.4518
10 -3 -11 2.2482 2.2209
10 -3 -10 1.5463 -0.0212
10 -3 -9 2.4811 1.4794
10 -3 -8 0.0624 -1.1116
10 -3 -7 0.8385 -4.0927
10 -3 -6 -1.3558 -2.1871
10 -3 -5 -0.1402 -0.4959
10 -3 -4 0.1623 -4.9541
10 -3 -3 -1.8981 -1.1372
10 -3 -2 0.7961 3.1884
10 -3 -1 3.5550 -1.8956
10 -2 -14 -0.5015 3.2143
10 -2 -13 1.8500 1.1444
10 -2 -12 0.6047 -0.3968
10 -2 -11 0.4470 1.8317
10 -2 -10 2.2300 2.0057
10 -2 -9 4.0556 -2.5426
10 -2 -8 1.2560 -2.2255
10 -2 -7 -0.6090 -1.7091
10 -2 -6 0.1201 -2.4256
10 -2 -5 -0.0731 1.3117
10 -2 -4 0.4374 -0.2706
10 -2 -3 -2.4593 1.7336
10 -2 -2 -3.0108 8.0653
10 -2 -1 3.8233 6.8954
10 -1 -14 -1.0882 -3.5429
10 -1 -13 -1.3243 -3.5996
10 -1 -12 -3.8592 -4.3912
10 -1 -11 -8.0361 -1.3137
10 -1 -10 -5.6751 2.0520
10 -1 -9 -2.3679 -0.8274
10 -1 -8 0.7688 -2.9446
10 -1 -7 1.8978 1.3071
10 -1 -6 3.8464 -0.1799
10 -1 -5 4.8806 -2.0389
10 -1 -4 2.0082 -2.0995
10 -1 -3 -0.1199 -3.8489
10 -1 -2 -1.4148 -2.9539
10 -1 -1 2.8589 0.1419
10 0 0 1.9182 -1.0264
10 0 1 4.5267 -0.5220
10 0 2 2.7748 0.5165
10 0 3 -2.3872 -0.0330
10 0 4 1.1476 -0.4276
10 0 5 -3.6273 0.2140
10 0 6 -3.8164 0.1781
10 1 0 -6.1486 -1.3479
10 1 1 -3.3192 -1.3765
10 1 2 3.6245 -2.6161
10 1 3 4.9587 1.6496
10 1 4 4.6605 1.8924
10 1 5 1.6934 0.1462
10 1 6 -3.5349 0.7454
10 2 0 2.9400 1.9798
10 2 1 -0.0160 5.5598
10 2 2 -1.3666 3.7800
10 2 3 -0.7780 -3.1685
10 2 4 -0.7742 1.1198
10 2 5 -1.2416 2.0024
10 2 6 0.0669 4.5938
10 3 0 -2.5708 -2.0590
10 3 1 -2.5203 1.1059
10 3 2 2.1046 4.0010
10 3 3 0.1239 -0.7560
10 3 4 -0.1246 -3.6085
10 3 5 0.2823 -0.4012
10 3 6 1.0208 2.1099
10 4 0 -2.3515 -4.8492
10 4 1 -2.9711 -5.1566
10 4 2 -0.1581 0.2005
10 4 3 3.0129 6.7619
10 4 4 -1.9014 5.7214
10 4 5 -0.1371 0.2971
10 4 6 -1.2969 -0.4416
10 5 0 -2.1690 0.5176
10 5 1 -2.6811 0.1105
10 5 2 -6.7737 0.8271
10 5 3 -3.7460 1.1433
10 5 4 -2.8179 4.2001
10 5 5 -0.6372 1.4816
10 5 6 -0.3705 -0.6275
10 6 0 -0.5919 1.3013
10 6 1 1.6846 4.9281
10 6 2 -0.7003 1.1224
10 6 3 -0.8236 -4.4219
10 6 4 0.0892 -4.2269
10 6 5 -0.9218 1.0863
10 7 0 1.0445 -2.3716
10 7 1 -0.0505 -0.5810
10 7 2 3.6375 1.1796
10 7 3 5.2803 2.4152
10 7 4 4.6503 -2.4522
10 7 5 4.2636 1.0703
10 8 0 0.6695 -4.9752
10 8 1 0.0970 -2.0328
10 8 2 0.3124 1.6080
10 8 3 1.7369 7.1581
10 8 4 1.7756 4.5862
10 9 0 0.4755 2.7528
10 9 1 -1.1921 1.1979
10 9 2 -1.1543 0.2558
10 9 3 -2.7488 1.9165
10 9 4 0.7906 2.9238
10 10 0 2.7950 -0.4010
10 10 1 -0.9642 -0.2940
10 10 2 1.9715 -0.7478
10 10 3 1.7819 -0.4562
10 11 0 3.5994 0.1619
10 11 1 1.1923 0.4673
10 11 2 -0.5416 2.6810
10 12 0 1.6380 3.0017
10 12 1 1.5274 0.0658
11 -11 -7 2.6056 0.2187
11 -11 -6 2.2649 0.6749
11 -11 -5 0.0163 -0.8656
11 -11 -4 -0.4288 1.0883
11 -10 -8 -0.0500 4.4517
11 -10 -7 2.8537 0.9177
11 -10 -6 2.6625 -0.1078
11 -10 -5 0.4463 -1.3335
11 -10 -1 1.9691 -0.5900
11 -9 -9 -1.5802 -2.5858
11 -9 -8 -0.5688 0.4042
11 -9 -7 2.2585 0.6994
11 -9 -6 4.0701 -2.7657
11 -9 -2 1.9662 2.6300
11 -9 -1 0.4226 4.9303
11 -8 -10 0.0034 0.6407
11 -8 -9 0.7023 -0.4461
11 -8 -8 -1.4911 -1.3408
11 -8 -7 1.2088 3.9982
11 -8 -3 -1.4538 -4.4085
11 -8 -2 -2.5390 -5.7437
11 -8 -1 -0.7221 -1.1154
11 -7 -11 3.3454 -0.6341
11 -7 -10 4.4541 -0.6108
11 -7 -9 5.6615 -0.9686
11 -7 -8 -1.3310 -3.0169
11 -7 -4 -7.9315 0.4540
11 -7 -3 -7.4821 4.2251
11 -7 -2 -2.9647 5.2039
11 -7 -1 -2.0033 1.9019
11 -6 -11 -2.8458 1.6240
11 -6 -10 -1.1062 0.6416
11 -6 -9 2.5995 -6.8448
11 -6 -5 -2.2363 5.5692
11 -6 -4 -0.1543 5.6073
11 -6 -3 -2.3776 6.5834
11 -6 -2 -1.1467 5.3721
11 -6 -1 2.1298 -2.2566
11 -5 -12 -3.6445 -4.5217
11 -5 -11 -2.7192 -2.1005
11 -5 -10 3.4492 4.6516
11 -5 -6 -5.4010 -7.1152
11 -5 -5 -7.2954 -8.8149
11 -5 -4 -7.3861 -4.6004
11 -5 -3 -2.2982 -2.8551
11 -5 -2 2.6998 -0.8525
11 -5 -1 3.9369 2.7654
11 -4 -12 3.6941 -1.0318
11 -4 -11 1.6673 -3.8400
11 -4 -6 2.2172 -1.4817
11 -4 -5 0.9734 -0.1953
11 -4 -4 -2.6356 3.0541
11 -4 -3 1.1695 6.6271
11 -4 -2 8.1770 4.2943
11 -4 -1 5.2998 4.5889
11 -3 -12 -0.3579 2.6204
11 -3 -7 -2.6720 -0.1424
11 -3 -6 -3.7146 -2.4864
11 -3 -5 -1.2316 -4.7967
11 -3 -4 1.5234 -5.9317
11 -3 -3 -1.4948 -0.2389
11 -3 -2 0.0450 0.1963
11 -3 -1 1.7755 -6.8110
11 -2 -13 3.5738 -0.4887
11 -2 -8 -1.1823 -3.6144
11 -2 -7 -1.4811 -3.9714
11 -2 -6 -0.1598 -3.6884
11 -2 -5 -3.4621 0.1756
11 -2 -4 -3.5009 1.4918
11 -2 -3 0.0714 5.3915
11 -2 -2 0.4385 10.8945
11 -2 -1 2.1509 4.2767
11 -1 -9 -2.0442 -4.2603
11 -1 -8 3.8973 -2.5117
11 -1 -7 3.2507 0.5885
11 -1 -6 5.2387 -1.0986
11 -1 -5 8.2052 0.2317
11 -1 -4 2.6606 2.8556
11 -1 -3 2.1962 -0.2790
11 -1 -2 6.1774 -0.9339
11 -1 -1 3.0475 -1.0249
11 0 0 -1.8055 -0.9033
11 0 1 -2.4239 -0.2846
11 0 2 -2.8726 0.3970
11 0 3 -1.8168 0.0200
11 0 4 1.9757 -0.4678
11 1 0 3.1760 -4.7124
11 1 1 4.1890 -2.5523
11 1 2 6.1423 -1.3379
11 1 3 3.4896 3.7323
11 1 4 2.3224 3.1376
11 2 0 -0.4454 -0.9501
11 2 1 -1.0526 -1.9107
11 2 2 -0.4867 -3.8490
11 2 3 -0.4761 -3.5721
11 2 4 -0.5584 0.5182
11 3 0 -0.2937 -3.3397
11 3 1 -2.4745 1.4198
11 3 2 -0.0952 4.5269
11 3 3 -2.9446 1.3508
11 3 4 -1.4289 0.0122
11 4 0 3.6749 -7.9592
11 4 1 0.9080 -2.9468
11 4 2 1.6508 3.0917
11 4 3 2.6183 5.9464
11 4 4 0.6077 3.5868
11 5 0 -3.4299 3.8063
11 5 1 -2.2842 1.9250
11 5 2 -5.6504 2.0112
11 5 3 -2.9996 -0.5224
11 6 0 2.0557 8.9217
11 6 1 2.0776 4.9013
11 6 2 0.6043 -0.2584
11 6 3 0.1984 -4.3108
11 7 0 0.5953 0.0915
11 7 1 3.8523 -0.6788
11 7 2 5.5529 0.2670
11 8 0 -1.0361 -1.0852
11 8 1 -0.9879 0.4734
11 8 2 -0.8621 -0.8775
11 9 0 -1.2669 0.8004
11 9 1 -1.3328 1.6114
11 10 0 2.1793 -1.2558
12 -7 -3 -3.7831 5.8787
12 -7 -2 0.7079 5.2342
12 -7 -1 1.8571 0.5491
12 -6 -4 -1.2579 4.2360
12 -6 -3 -1.3413 3.0041
12 -6 -2 0.6940 0.5012
12 -6 -1 3.8995 -5.4088
12 -5 -5 -4.1234 -5.5525
12 -5 -4 -3.6696 -1.6201
12 -5 -3 0.8858 -1.6143
12 -5 -2 4.1832 -0.0080
12 -5 -1 3.8619 5.6925
12 -4 -6 -1.3615 1.4034
12 -4 -5 -3.7849 0.2996
12 -4 -4 -1.4051 0.7996
12 -4 -3 1.9437 2.9094
12 -4 -2 2.9137 0.8698
12 -4 -1 1.5683 0.7021
12 -3 -7 -2.3566 0.2430
12 -3 -6 0.0905 -2.7460
12 -3 -5 1.3593 -1.6999
12 -3 -4 1.6749 0.3358
12 -3 -3 -0.8170 0.3488
12 -3 -2 -0.0722 -2.2634
12 -3 -1 -1.5442 -3.7255
12 -2 -8 -0.3626 -3.1541
12 -2 -7 -1.6105 -1.8138
12 -2 -6 -1.3850 0.7932
12 -2 -5 -2.9819 0.1638
12 -2 -4 -2.4388 0.1920
12 -2 -3 1.5345 3.9263
12 -2 -2 0.8976 6.6820
12 -2 -1 -1.6287 4.0124
12 -1 -9 -1.0371 -0.3705
12 -1 -8 2.4531 0.9421
12 -1 -7 -0.7898 -1.2565
12 -1 -6 1.1587 -0.8134
12 -1 -5 6.9063 1.8129
12 -1 -4 2.3795 1.0276
12 -1 -3 0.5730 -2.7882
12 -1 -2 4.3668 -1.8203
12 -1 -1 0.3445 -2.5512
12 0 0 -1.4423 -0.2325
12 0 1 -0.0154 -0.1263
12 1 0 3.0892 -2.7025
12 1 1 2.0757 -1.4755
12 2 0 -3.5168 -5.4999
12 2 1 -1.0075 -3.2045
12 3 0 0.5554 0.6041
12 3 1 -1.1057 2.3117
12 4 0 5.2971 -1.7242
12 4 1 3.1170 2.4829
12 5 0 -2.0166 2.9772
12 6 0 2.9097 6.8643
13 -3 -5 0.5569 1.7922
13 -2 -6 0.8115 0.2810
13 -2 -5 2.0281 -2.9325
13 -2 -4 0.8650 -2.8890
13 -1 -7 -0.1281 -1.1776
13 -1 -6 -0.4819 -1.0734
13 -1 -5 2.8554 -0.7642
13 -1 -4 1.5870 -1.8827
13 -1 -3 0.1565 -2.3827
0 0 0 0.0 0.0
;
_shelx_fab_checksum              75071
_olex2_submission_special_instructions 'No special instructions were received'
loop_
_space_group_symop_operation_xyz
'x, y, z'
'-x, y+1/2, -z'
loop_
_atom_site_label
_atom_site_type_symbol
_atom_site_fract_x
_atom_site_fract_y
_atom_site_fract_z
_atom_site_U_iso_or_equiv
_atom_site_adp_type
_atom_site_occupancy
_atom_site_site_symmetry_order
_atom_site_calc_flag
_atom_site_refinement_flags_posn
_atom_site_refinement_flags_adp
_atom_site_refinement_flags_occupancy
_atom_site_disorder_assembly
_atom_site_disorder_group
Zn1 Zn 0.71708(13) 0.57338(18) 0.50170(10) 0.0488(4) Uani 1 1 d D . . . .
Zn2 Zn 1.01528(11) 0.48767(17) 0.69145(8) 0.0397(3) Uani 1 1 d . . . . .
C1 C 0.9014(11) 0.4322(8) 0.4732(10) 0.050(3) Uani 1 1 d . . . . .
C2 C 0.9032(11) 0.3686(8) 0.3964(9) 0.047(3) Uani 1 1 d . . . . .
C3 C 0.8188(12) 0.3814(9) 0.2831(10) 0.056(3) Uani 1 1 d . . . . .
H3 H 0.758201 0.427009 0.262980 0.067 Uiso 1 1 calc R U . . .
C4 C 0.8317(14) 0.3270(11) 0.2123(11) 0.065(4) Uani 1 1 d . . . . .
C5 C 0.8892(14) 0.2615(9) 0.2274(9) 0.058(3) Uani 1 1 d . . . . .
H5 H 0.884579 0.224583 0.170623 0.070 Uiso 1 1 calc R U . . .
C6 C 0.9655(12) 0.2413(8) 0.3355(9) 0.050(3) Uani 1 1 d . . . . .
C7 C 0.9711(10) 0.2955(7) 0.4128(8) 0.040(2) Uani 1 1 d . . . . .
H7 H 1.025330 0.282205 0.482846 0.048 Uiso 1 1 calc R U . . .
C8 C 1.0340(12) 0.1557(8) 0.3561(10) 0.051(3) Uani 1 1 d . . . . .
C9 C 0.6339(16) 0.3890(10) 0.0616(11) 0.075(4) Uani 1 1 d . . . . .
C10 C 0.6070(11) 0.4140(8) -0.0532(9) 0.053(3) Uani 1 1 d . . . . .
C11 C 0.4754(12) 0.4323(8) -0.0970(9) 0.051(3) Uani 1 1 d . . . . .
H11 H 0.411251 0.426175 -0.057542 0.062 Uiso 1 1 calc R U . . .
C12 C 0.4312(9) 0.4604(7) -0.2002(8) 0.039(2) Uani 1 1 d . . . . .
C13 C 0.5243(8) 0.4744(7) -0.2584(7) 0.034(2) Uani 1 1 d . . . . .
H13 H 0.494077 0.494751 -0.328964 0.041 Uiso 1 1 calc R U . . .
C14 C 0.6545(11) 0.4583(9) -0.2117(8) 0.050(3) Uani 1 1 d . . . . .
C15 C 0.7004(10) 0.4271(8) -0.1044(8) 0.047(3) Uani 1 1 d . . . . .
H15 H 0.795497 0.416181 -0.070969 0.056 Uiso 1 1 calc R U . . .
C16 C 0.2794(10) 0.4794(9) -0.2582(10) 0.052(3) Uani 1 1 d . . . . .
C17 C 0.7652(10) 0.4684(8) -0.2728(9) 0.051(3) Uani 1 1 d . . . . .
N1 N 0.7596(16) 0.3448(10) 0.0928(10) 0.087(4) Uani 1 1 d . . . . .
H1 H 0.797204 0.327255 0.044559 0.104 Uiso 1 1 calc R U . . .
O1 O 0.8439(16) 0.4972(8) 0.4514(10) 0.103(5) Uani 1 1 d . . . . .
O2 O 0.9756(8) 0.4170(6) 0.5707(7) 0.059(2) Uani 1 1 d . . . . .
O3 O 1.1391(10) 0.1528(6) 0.4446(8) 0.073(3) Uani 1 1 d . . . . .
O4 O 0.9940(8) 0.1035(6) 0.2935(6) 0.052(2) Uani 1 1 d . . . . .
O5 O 0.1898(6) 0.4532(6) -0.2085(6) 0.0491(19) Uani 1 1 d . . . . .
O6 O 0.2421(7) 0.5109(6) -0.3402(6) 0.053(2) Uani 1 1 d . . . . .
O7 O 0.7250(8) 0.5025(6) -0.3650(6) 0.055(2) Uani 1 1 d . . . . .
O8 O 0.8829(7) 0.4518(6) -0.2300(6) 0.054(2) Uani 1 1 d . . . . .
O9 O 0.5754(12) 0.4218(10) 0.1240(9) 0.098(4) Uani 1 1 d . . . . .
O10 O 0.5747(2) 0.63582(11) 0.5398(4) 0.095(3) Uani 1 1 d D U . . .
O12 O 0.6718(2) 0.6438(6) 0.3622(3) 0.100(3) Uani 1 1 d . U . . .
N4 N 0.55081(11) 0.6473(3) 0.18056(16) 0.116(4) Uani 1 1 d D U . . .
C18 C 0.62050(13) 0.6021(4) 0.2704(2) 0.106(4) Uani 1 1 d D U . . .
H18 H 0.631388 0.544286 0.267160 0.128 Uiso 1 1 calc R U . . .
C19 C 0.4955(2) 0.6076(4) 0.0834(3) 0.122(7) Uani 1 1 d D U . . .
H19A H 0.558527 0.613857 0.040052 0.183 Uiso 1 1 calc R U . . .
H19B H 0.405666 0.631896 0.046188 0.183 Uiso 1 1 calc R U . . .
H19C H 0.483414 0.549055 0.095753 0.183 Uiso 1 1 calc R U . . .
C31 C 0.5364(3) 0.7322(4) 0.1878(4) 0.112(6) Uani 1 1 d D U . . .
H31A H 0.576589 0.749626 0.261691 0.168 Uiso 1 1 calc R U . . .
H31B H 0.438114 0.746759 0.163925 0.168 Uiso 1 1 calc R U . . .
H31C H 0.584533 0.759912 0.142977 0.168 Uiso 1 1 calc R U . . .
C25 C 0.3517(6) 0.70139(15) 0.6213(8) 0.088(6) Uani 0.544(12) 1 d D U P A 1
H25A H 0.351090 0.722340 0.551556 0.132 Uiso 0.544(12) 1 d R U P A 1
H25B H 0.293110 0.652400 0.612296 0.132 Uiso 0.544(12) 1 d R U P A 1
H25C H 0.316220 0.743690 0.659276 0.132 Uiso 0.544(12) 1 d R U P A 1
N6 N 0.49373(16) 0.68020(2) 0.6834(2) 0.098(5) Uani 0.544(12) 1 d D U P A 1
C23 C 0.5852(6) 0.65131(13) 0.6389(6) 0.094(5) Uani 0.544(12) 1 d D U P A 1
H23 H 0.673469 0.639887 0.687216 0.113 Uiso 0.544(12) 1 calc R U P A 1
C24 C 0.5132(4) 0.69531(8) 0.7918(4) 0.099(7) Uani 0.544(12) 1 d D U P A 1
H24A H 0.474179 0.749035 0.800383 0.148 Uiso 0.544(12) 1 calc R U P A 1
H24B H 0.612361 0.694957 0.829772 0.148 Uiso 0.544(12) 1 calc R U P A 1
H24C H 0.466776 0.652473 0.820823 0.148 Uiso 0.544(12) 1 calc R U P A 1
C25A C 0.4318(4) 0.7359(2) 0.6328(5) 0.099(7) Uani 0.456(12) 1 d D U P A 2
H25D H 0.371662 0.697688 0.655884 0.148 Uiso 0.456(12) 1 d R U P A 2
H25E H 0.528752 0.721007 0.666474 0.148 Uiso 0.456(12) 1 d R U P A 2
H25F H 0.415472 0.791947 0.653474 0.148 Uiso 0.456(12) 1 d R U P A 2
N6A N 0.40374(15) 0.73361(9) 0.5218(4) 0.093(5) Uani 0.456(12) 1 d D U P A 2
C23A C 0.47973(19) 0.68090(11) 0.4755(4) 0.099(5) Uani 0.456(12) 1 d D U P A 2
H23A H 0.462642 0.678268 0.400764 0.118 Uiso 0.456(12) 1 calc R U P A 2
C24A C 0.2996(3) 0.7840(2) 0.4572(5) 0.093(8) Uani 0.456(12) 1 d D U P A 2
H24D H 0.218373 0.750535 0.422510 0.139 Uiso 0.456(12) 1 calc R U P A 2
H24E H 0.333975 0.810367 0.403074 0.139 Uiso 0.456(12) 1 calc R U P A 2
H24F H 0.274076 0.826259 0.500867 0.139 Uiso 0.456(12) 1 calc R U P A 2
C1A C 0.469(3) 0.449(2) 0.4054(9) 0.110(5) Uani 0.350(18) 1 d D U P B 1
H1A H 0.416167 0.496283 0.408401 0.132 Uiso 0.350(18) 1 calc R U P B 1
O13 O 0.576(5) 0.481(3) 0.4014(15) 0.108(6) Uani 0.350(18) 1 d D U P B 1
N2 N 0.378(3) 0.391(2) 0.4084(6) 0.108(5) Uani 0.350(18) 1 d D U P B 1
C1B C 0.239(3) 0.406(3) 0.4145(17) 0.105(7) Uani 0.350(18) 1 d D U P B 1
H1BA H 0.204989 0.357531 0.443967 0.157 Uiso 0.350(18) 1 d R U P B 1
H1BB H 0.179069 0.415941 0.342337 0.157 Uiso 0.350(18) 1 d R U P B 1
H1BC H 0.237899 0.453681 0.459067 0.157 Uiso 0.350(18) 1 d R U P B 1
C1C C 0.411(3) 0.304(2) 0.406(2) 0.113(8) Uani 0.350(18) 1 d D U P B 1
H1CA H 0.362908 0.278950 0.337035 0.169 Uiso 0.350(18) 1 d R U P B 1
H1CB H 0.511218 0.298310 0.418955 0.169 Uiso 0.350(18) 1 d R U P B 1
H1CC H 0.383498 0.275770 0.461985 0.169 Uiso 0.350(18) 1 d R U P B 1
O13A O 0.559(3) 0.4803(17) 0.429(2) 0.103(5) Uani 0.650(18) 1 d D U P B 2
C20 C 0.495(3) 0.4198(18) 0.448(3) 0.111(5) Uani 0.650(18) 1 d D U P B 2
H20 H 0.551211 0.372026 0.460734 0.133 Uiso 0.650(18) 1 calc R U P B 2
N2A N 0.367(2) 0.4026(15) 0.456(3) 0.108(5) Uani 0.650(18) 1 d D U P B 2
C1D C 0.249(3) 0.4597(16) 0.432(3) 0.110(8) Uani 0.650(18) 1 d D U P B 2
H1DA H 0.281807 0.515782 0.426735 0.164 Uiso 0.650(18) 1 calc R U P B 2
H1DB H 0.204982 0.457171 0.488773 0.164 Uiso 0.650(18) 1 calc R U P B 2
H1DC H 0.181974 0.444244 0.364472 0.164 Uiso 0.650(18) 1 calc R U P B 2
C1E C 0.341(2) 0.3266(17) 0.504(3) 0.107(7) Uani 0.650(18) 1 d D U P B 2
H1EA H 0.404459 0.284025 0.494304 0.161 Uiso 0.650(18) 1 d R U P B 2
H1EB H 0.245369 0.308965 0.471214 0.161 Uiso 0.650(18) 1 d R U P B 2
H1EC H 0.355979 0.335275 0.580524 0.161 Uiso 0.650(18) 1 d R U P B 2
loop_
_atom_site_aniso_label
_atom_site_aniso_U_11
_atom_site_aniso_U_22
_atom_site_aniso_U_33
_atom_site_aniso_U_23
_atom_site_aniso_U_13
_atom_site_aniso_U_12
Zn1 0.0428(7) 0.0511(8) 0.0497(7) 0.0132(6) 0.0095(5) 0.0043(5)
Zn2 0.0358(6) 0.0502(7) 0.0306(5) 0.0095(5) 0.0058(4) 0.0051(5)
C1 0.035(5) 0.060(8) 0.058(7) 0.013(6) 0.017(5) -0.012(5)
C2 0.039(5) 0.060(7) 0.045(6) 0.001(5) 0.017(4) -0.015(5)
C3 0.044(6) 0.065(8) 0.051(6) 0.020(6) 0.002(5) -0.018(5)
C4 0.052(7) 0.079(10) 0.060(8) 0.006(8) 0.012(6) -0.014(7)
C5 0.065(8) 0.064(8) 0.035(6) 0.010(6) -0.002(5) -0.004(6)
C6 0.053(6) 0.043(6) 0.049(6) 0.010(5) 0.009(5) 0.002(5)
C7 0.035(5) 0.054(7) 0.031(5) 0.010(5) 0.008(4) -0.011(4)
C8 0.048(6) 0.060(7) 0.048(6) -0.003(6) 0.017(5) 0.000(5)
C9 0.076(9) 0.081(10) 0.062(8) 0.050(8) 0.012(7) 0.011(7)
C10 0.037(5) 0.069(8) 0.040(6) 0.023(6) -0.008(4) -0.002(5)
C11 0.042(6) 0.067(8) 0.052(6) 0.004(6) 0.026(5) -0.007(5)
C12 0.027(4) 0.048(6) 0.037(5) 0.005(4) 0.001(4) 0.002(4)
C13 0.024(4) 0.045(6) 0.028(4) 0.014(4) 0.000(3) 0.001(4)
C14 0.033(5) 0.081(8) 0.033(5) 0.013(5) 0.003(4) 0.015(5)
C15 0.027(5) 0.056(6) 0.044(6) 0.021(5) -0.013(4) -0.002(4)
C16 0.031(5) 0.067(8) 0.062(7) 0.012(7) 0.018(5) 0.010(5)
C17 0.030(5) 0.068(8) 0.058(7) 0.016(6) 0.018(4) 0.012(5)
N1 0.098(10) 0.100(10) 0.054(7) 0.031(7) 0.011(6) 0.028(8)
O1 0.163(12) 0.076(7) 0.096(8) 0.028(7) 0.082(8) 0.070(8)
O2 0.033(4) 0.077(6) 0.075(6) -0.015(5) 0.027(4) -0.004(4)
O3 0.074(6) 0.053(5) 0.063(5) -0.011(5) -0.022(5) 0.015(4)
O4 0.050(4) 0.058(5) 0.034(4) 0.007(4) -0.011(3) -0.001(3)
O5 0.014(3) 0.078(5) 0.053(4) 0.019(4) 0.007(3) 0.014(3)
O6 0.028(3) 0.081(6) 0.041(4) 0.011(4) -0.006(3) 0.007(3)
O7 0.057(4) 0.073(6) 0.035(4) 0.018(4) 0.012(3) 0.003(4)
O8 0.032(4) 0.086(6) 0.051(4) 0.031(4) 0.020(3) 0.003(4)
O9 0.074(7) 0.156(13) 0.068(6) 0.042(8) 0.025(6) 0.041(8)
O10 0.082(6) 0.092(7) 0.117(7) 0.019(6) 0.041(6) 0.015(5)
O12 0.123(9) 0.079(7) 0.085(5) 0.026(5) 0.012(6) 0.014(6)
N4 0.150(10) 0.091(7) 0.088(6) 0.019(5) 0.008(7) 0.026(7)
C18 0.137(10) 0.079(7) 0.090(6) 0.020(5) 0.014(7) 0.017(7)
C19 0.161(17) 0.097(10) 0.091(7) 0.015(8) 0.011(9) 0.025(12)
C31 0.142(15) 0.090(7) 0.082(10) 0.022(7) 0.000(10) 0.029(8)
C25 0.086(9) 0.078(14) 0.111(11) 0.009(12) 0.044(9) 0.006(9)
N6 0.087(9) 0.096(11) 0.116(8) 0.007(9) 0.040(7) 0.005(8)
C23 0.081(9) 0.091(11) 0.117(8) 0.018(8) 0.040(7) 0.008(8)
C24 0.084(13) 0.100(19) 0.116(9) 0.001(11) 0.036(9) -0.008(14)
C25A 0.104(15) 0.086(15) 0.112(10) 0.012(10) 0.041(10) 0.016(12)
N6A 0.094(10) 0.083(11) 0.113(10) 0.017(9) 0.047(9) 0.017(7)
C23A 0.093(9) 0.097(10) 0.114(9) 0.017(8) 0.043(8) 0.026(7)
C24A 0.094(14) 0.092(17) 0.111(13) 0.026(14) 0.059(12) 0.024(12)
C1A 0.097(9) 0.110(10) 0.123(11) 0.004(10) 0.034(9) -0.003(8)
O13 0.096(9) 0.109(11) 0.118(12) 0.006(10) 0.029(10) -0.005(9)
N2 0.094(9) 0.107(10) 0.127(12) -0.002(10) 0.038(9) 0.000(8)
C1B 0.092(11) 0.108(16) 0.120(16) 0.001(15) 0.041(13) -0.001(12)
C1C 0.095(15) 0.106(13) 0.145(18) -0.005(16) 0.047(15) -0.004(13)
O13A 0.090(9) 0.112(10) 0.109(11) 0.001(9) 0.032(8) -0.007(8)
C20 0.100(8) 0.109(10) 0.122(11) 0.003(9) 0.031(9) 0.000(8)
N2A 0.097(8) 0.105(10) 0.125(11) -0.002(9) 0.041(9) 0.002(8)
C1D 0.099(13) 0.113(16) 0.120(15) -0.008(14) 0.037(12) 0.006(13)
C1E 0.098(12) 0.104(14) 0.131(15) 0.001(13) 0.052(11) 0.001(12)
loop_
_atom_type_symbol
_atom_type_description
_atom_type_scat_dispersion_real
_atom_type_scat_dispersion_imag
_atom_type_scat_source
C C 0.0033 0.0016 'International Tables Vol C Tables 4.2.6.8 and 6.1.1.4'
H H 0.0000 0.0000 'International Tables Vol C Tables 4.2.6.8 and 6.1.1.4'
N N 0.0061 0.0033 'International Tables Vol C Tables 4.2.6.8 and 6.1.1.4'
O O 0.0106 0.0060 'International Tables Vol C Tables 4.2.6.8 and 6.1.1.4'
Zn Zn 0.2839 1.4301 'International Tables Vol C Tables 4.2.6.8 and 6.1.1.4'
loop_
_geom_angle_atom_site_label_1
_geom_angle_atom_site_label_2
_geom_angle_atom_site_label_3
_geom_angle
_geom_angle_site_symmetry_1
_geom_angle_site_symmetry_3
_geom_angle_publ_flag
O1 Zn1 O7 93.8(4) . 1_556 y
O1 Zn1 O12 92.4(4) . . y
O1 Zn1 O13 75.5(16) . . y
O1 Zn1 O13A 83.5(9) . . y
O3 Zn1 O1 92.8(6) 2_756 . y
O3 Zn1 O7 103.0(4) 2_756 1_556 y
O3 Zn1 O10 95.2(4) 2_756 . y
O3 Zn1 O12 84.3(3) 2_756 . y
O3 Zn1 O13 163.6(10) 2_756 . y
O3 Zn1 O13A 175.3(8) 2_756 . y
O7 Zn1 O12 170.1(2) 1_556 . y
O7 Zn1 O13 89.3(8) 1_556 . y
O7 Zn1 O13A 80.0(8) 1_556 . y
O10 Zn1 O1 171.9(5) . . y
O10 Zn1 O7 85.3(3) . 1_556 y
O10 Zn1 O12 87.4(2) . . y
O10 Zn1 O13 96.5(16) . . y
O10 Zn1 O13A 88.5(8) . . y
O12 Zn1 O13 84.9(9) . . y
O12 Zn1 O13A 93.1(8) . . y
O2 Zn2 O5 108.5(4) . 1_656 y
O2 Zn2 O6 85.9(3) . 1_656 y
O2 Zn2 O8 104.3(4) . 1_556 y
O4 Zn2 O2 132.8(4) 2_756 . y
O4 Zn2 O5 106.1(3) 2_756 1_656 y
O4 Zn2 O6 86.8(3) 2_756 1_656 y
O4 Zn2 O8 100.0(4) 2_756 1_556 y
O5 Zn2 O6 57.3(3) 1_656 1_656 y
O5 Zn2 O8 100.1(3) 1_656 1_556 y
O8 Zn2 O6 157.4(3) 1_556 1_656 y
O1 C1 C2 124.5(12) . . ?
O1 C1 O2 119.9(13) . . ?
O2 C1 C2 115.4(11) . . ?
C1 C2 C3 118.4(11) . . ?
C7 C2 C1 128.6(10) . . ?
C7 C2 C3 113.0(11) . . ?
C4 C3 C2 117.7(13) . . ?
C3 C4 N1 118.5(14) . . ?
C5 C4 C3 128.4(14) . . ?
C5 C4 N1 113.1(14) . . ?
C4 C5 C6 117.2(14) . . ?
C5 C6 C8 117.4(12) . . ?
C7 C6 C5 119.5(11) . . ?
C7 C6 C8 123.1(10) . . ?
C6 C7 C2 123.5(10) . . ?
O3 C8 C6 112.9(11) . . ?
O4 C8 C6 119.2(11) . . ?
O4 C8 O3 127.9(12) . . ?
N1 C9 C10 108.0(13) . . ?
O9 C9 C10 123.9(13) . . ?
O9 C9 N1 125.4(13) . . ?
C11 C10 C9 111.0(11) . . ?
C11 C10 C15 121.1(10) . . ?
C15 C10 C9 127.3(10) . . ?
C10 C11 C12 119.9(10) . . ?
C11 C12 C13 121.4(9) . . ?
C11 C12 C16 123.0(9) . . ?
C13 C12 C16 115.6(8) . . ?
C14 C13 C12 117.3(9) . . ?
C13 C14 C15 121.3(10) . . ?
C13 C14 C17 120.7(9) . . ?
C15 C14 C17 117.9(9) . . ?
C10 C15 C14 118.9(9) . . ?
C12 C16 Zn2 163.0(8) . 1_454 ?
O5 C16 Zn2 48.4(4) . 1_454 ?
O5 C16 C12 114.6(10) . . ?
O6 C16 Zn2 72.9(6) . 1_454 ?
O6 C16 C12 124.0(10) . . ?
O6 C16 O5 121.3(9) . . ?
O7 C17 C14 117.1(8) . . ?
O8 C17 C14 120.0(10) . . ?
O8 C17 O7 122.5(9) . . ?
C9 N1 C4 120.1(13) . . ?
C1 O1 Zn1 140.2(10) . . ?
C1 O2 Zn2 128.7(9) . . ?
C8 O3 Zn1 132.2(9) . 2_746 ?
C8 O4 Zn2 131.6(8) . 2_746 ?
C16 O5 Zn2 100.7(6) . 1_454 ?
C16 O6 Zn2 80.7(6) . 1_454 ?
C17 O7 Zn1 163.2(8) . 1_554 ?
C17 O8 Zn2 114.7(7) . 1_554 ?
C23 O10 Zn1 120.8(3) . . ?
C23A O10 Zn1 125.8(4) . . ?
C18 O12 Zn1 115.9(6) . . ?
C18 N4 C19 120.00(9) . . ?
C31 N4 C18 120.01(8) . . ?
C31 N4 C19 120.00(8) . . ?
O12 C18 N4 117.4(4) . . ?
C23 N6 C25 122.3(5) . . ?
C23 N6 C24 127.5(4) . . ?
C24 N6 C25 110.2(4) . . ?
O10 C23 N6 130.9(5) . . ?
C25A N6A C24A 120.00(8) . . ?
C23A N6A C25A 120.00(8) . . ?
C23A N6A C24A 120.00(9) . . ?
O10 C23A N6A 116.9(3) . . ?
O13 C1A N2 161(4) . . ?
C1A O13 Zn1 134(3) . . ?
C1A N2 C1B 125(3) . . ?
C1A N2 C1C 121.3(16) . . ?
C1B N2 C1C 113.7(16) . . ?
C20 O13A Zn1 144(2) . . ?
O13A C20 N2A 138(3) . . ?
C20 N2A C1D 126(2) . . ?
C20 N2A C1E 120.7(17) . . ?
C1E N2A C1D 113.0(16) . . ?
loop_
_geom_bond_atom_site_label_1
_geom_bond_atom_site_label_2
_geom_bond_distance
_geom_bond_site_symmetry_2
_geom_bond_publ_flag
Zn1 O1 2.033(10) . y
Zn1 O3 1.920(9) 2_756 y
Zn1 O7 2.084(7) 1_556 y
Zn1 O10 1.947(4) . y
Zn1 O12 2.100(6) . y
Zn1 O13 2.21(2) . y
Zn1 O13A 2.204(18) . y
Zn2 O2 1.908(9) . y
Zn2 O4 1.901(9) 2_756 y
Zn2 O5 1.949(6) 1_656 y
Zn2 O6 2.481(8) 1_656 y
Zn2 O8 2.007(7) 1_556 y
C1 C2 1.451(18) . ?
C1 O1 1.200(17) . ?
C1 O2 1.308(15) . ?
C2 C3 1.501(16) . ?
C2 C7 1.360(17) . ?
C3 C4 1.32(2) . ?
C4 C5 1.20(2) . ?
C4 N1 1.556(18) . ?
C5 C6 1.444(16) . ?
C6 C7 1.337(16) . ?
C6 C8 1.543(17) . ?
C8 O3 1.328(16) . ?
C8 O4 1.171(15) . ?
C9 C10 1.513(16) . ?
C9 N1 1.41(2) . ?
C9 O9 1.26(2) . ?
C10 C11 1.320(16) . ?
C10 C15 1.331(17) . ?
C11 C12 1.378(16) . ?
C12 C13 1.399(14) . ?
C12 C16 1.532(14) . ?
C13 C14 1.305(13) . ?
C14 C15 1.445(14) . ?
C14 C17 1.570(15) . ?
C16 O5 1.337(14) . ?
C16 O6 1.154(14) . ?
C17 O7 1.289(14) . ?
C17 O8 1.189(13) . ?
O10 C23 1.304(4) . ?
O10 C23A 1.304(4) . ?
O12 C18 1.351(7) . ?
N4 C18 1.396(3) . ?
N4 C19 1.397(3) . ?
N4 C31 1.396(3) . ?
C25 N6 1.469(6) . ?
N6 C23 1.321(7) . ?
N6 C24 1.406(6) . ?
C25A N6A 1.407(3) . ?
N6A C23A 1.407(3) . ?
N6A C24A 1.407(3) . ?
C1A O13 1.22(2) . ?
C1A N2 1.34(2) . ?
N2 C1B 1.452(18) . ?
N2 C1C 1.455(18) . ?
O13A C20 1.25(2) . ?
C20 N2A 1.35(3) . ?
N2A C1D 1.47(2) . ?
N2A C1E 1.45(2) . ?
loop_
_twin_individual_id
_twin_individual_mass_fraction_refined
1 0.59(3)
2 0.41(3)
loop_
_smtbx_masks_void_nr
_smtbx_masks_void_average_x
_smtbx_masks_void_average_y
_smtbx_masks_void_average_z
_smtbx_masks_void_volume
_smtbx_masks_void_count_electrons
_smtbx_masks_void_content
1 0.000 -0.920 0.000 730.2 136.6 '4 DMF'
