#------------------------------------------------------------------------------
#$Date: 2021-10-06 18:29:29 +0300 (Wed, 06 Oct 2021) $
#$Revision: 269700 $
#$URL: file:///home/coder/svn-repositories/cod/cif/7/70/80/7708017.cif $
#------------------------------------------------------------------------------
#
# This file is available in the Crystallography Open Database (COD),
# http://www.crystallography.net/
#
# All data on this site have been placed in the public domain by the
# contributors.
#
data_7708017
loop_
_publ_author_name
'Xu, Tong'
'Li, Jiantang'
'Jia, Mingwei'
'Li, Guanghua'
'Liu, Yunling'
_publ_section_title
;
 Contiguous layer based metal-organic framework with conjugated
 \p-electron ligand for high iodine capture.
;
_journal_issue                   37
_journal_name_full
'Dalton transactions (Cambridge, England : 2003)'
_journal_page_first              13096
_journal_page_last               13102
_journal_paper_doi               10.1039/d1dt00947h
_journal_volume                  50
_journal_year                    2021
_chemical_formula_moiety         'C21 H17 Cu3 N12 O4, N O3, 3[H2O], 3[C3H7NO]'
_chemical_formula_sum            'C30 H44 Cu3 N16 O13'
_chemical_formula_weight         1027.43
_space_group_crystal_system      monoclinic
_space_group_IT_number           12
_space_group_name_Hall           '-C 2y'
_space_group_name_H-M_alt        'C 1 2/m 1'
_atom_sites_solution_hydrogens   geom
_audit_creation_date             2021-08-06
_audit_creation_method
;
Olex2 1.5-dev
(compiled 2021.06.29 svn.r12e2184c for OlexSys, GUI svn.r6225)
;
_audit_update_record
;
2021-08-10 deposited with the CCDC.	2021-08-10 downloaded from the CCDC.
;
_cell_angle_alpha                90
_cell_angle_beta                 113.054(2)
_cell_angle_gamma                90
_cell_formula_units_Z            8
_cell_length_a                   19.7115(10)
_cell_length_b                   26.1902(12)
_cell_length_c                   20.0351(11)
_cell_measurement_reflns_used    60767
_cell_measurement_temperature    173(2)
_cell_measurement_theta_max      30.555
_cell_measurement_theta_min      2.192
_cell_volume                     9517.0(8)
_computing_data_collection       'Rigaku D/max-2550 diffractometer'
_computing_molecular_graphics    'Olex2 1.5-dev (Dolomanov et al., 2009)'
_computing_publication_material  'Olex2 1.5-dev (Dolomanov et al., 2009)'
_computing_structure_refinement  'SHELXL 2018/3 (Sheldrick, 2015)'
_computing_structure_solution    'SHELXL-2016/6 (Sheldrick, 2016)'
_diffrn_ambient_temperature      173.02
_diffrn_detector_area_resol_mean 100cm
_diffrn_measured_fraction_theta_full 0.996
_diffrn_measured_fraction_theta_max 0.996
_diffrn_measurement_device_type  'CCD area detector'
_diffrn_measurement_method       'phi and omega scans'
_diffrn_radiation_type           MoK\a
_diffrn_radiation_wavelength     0.71073
_diffrn_reflns_av_R_equivalents  0.0304
_diffrn_reflns_av_unetI/netI     0.0276
_diffrn_reflns_Laue_measured_fraction_full 0.996
_diffrn_reflns_Laue_measured_fraction_max 0.996
_diffrn_reflns_limit_h_max       28
_diffrn_reflns_limit_h_min       -28
_diffrn_reflns_limit_k_max       35
_diffrn_reflns_limit_k_min       -37
_diffrn_reflns_limit_l_max       28
_diffrn_reflns_limit_l_min       -28
_diffrn_reflns_number            61434
_diffrn_reflns_point_group_measured_fraction_full 0.996
_diffrn_reflns_point_group_measured_fraction_max 0.996
_diffrn_reflns_theta_full        25.242
_diffrn_reflns_theta_max         30.555
_diffrn_reflns_theta_min         2.192
_exptl_absorpt_coefficient_mu    1.399
_exptl_absorpt_correction_T_max  0.8042
_exptl_absorpt_correction_T_min  0.7512
_exptl_absorpt_correction_type   empirical
_exptl_absorpt_process_details   SADABS
_exptl_crystal_colour            blue
_exptl_crystal_colour_primary    blue
_exptl_crystal_density_diffrn    1.434
_exptl_crystal_description       block
_exptl_crystal_F_000             4216
_exptl_crystal_size_max          0.21
_exptl_crystal_size_mid          0.17
_exptl_crystal_size_min          0.16
_refine_diff_density_max         1.330
_refine_diff_density_min         -0.706
_refine_diff_density_rms         0.120
_refine_ls_extinction_method     none
_refine_ls_goodness_of_fit_ref   1.119
_refine_ls_hydrogen_treatment    constr
_refine_ls_matrix_type           full
_refine_ls_number_parameters     398
_refine_ls_number_reflns         14851
_refine_ls_number_restraints     2
_refine_ls_restrained_S_all      1.119
_refine_ls_R_factor_all          0.0536
_refine_ls_R_factor_gt           0.0474
_refine_ls_shift/su_max          0.001
_refine_ls_shift/su_mean         0.000
_refine_ls_structure_factor_coef Fsqd
_refine_ls_weighting_details
'w=1/[\s^2^(Fo^2^)+(0.0795P)^2^+47.2360P] where P=(Fo^2^+2Fc^2^)/3'
_refine_ls_weighting_scheme      calc
_refine_ls_wR_factor_gt          0.1736
_refine_ls_wR_factor_ref         0.1778
_reflns_Friedel_coverage         0.000
_reflns_number_gt                12382
_reflns_number_total             14851
_reflns_threshold_expression     'I > 2\s(I)'
_cod_data_source_file            d1dt00947h2.cif
_cod_data_source_block           compound1
_cod_depositor_comments          'Adding full bibliography for 7708017.cif.'
_cod_database_code               7708017
_shelx_shelxl_version_number     2018/3
_shelx_space_group_comment
;
The symmetry employed for this shelxl refinement is uniquely defined
by the following loop, which should always be used as a source of
symmetry information in preference to the above space-group names.
They are only intended as comments.
;
_olex2_refinement_description
;
1. Fixed Uiso
 At 1.2 times of:
  All C(H) groups
2. Restrained distances
 C16'-H16' = C18'-H18'
 1 with sigma of 0.02
3. Others
 Fixed Sof: C16(0.5) H16(0.5) C16'(0.5) H16'(0.5) C18(0.5) H18(0.5) C18'(0.5)
 H18'(0.5)
4.a Aromatic/amide H refined with riding coordinates:
 C1(H1), C3(H3), C4(H4), C5(H5), C6(H6), C8(H8), C9(H9), C10(H10), C11(H11),
 C13(H13), C14(H14), C15(H15), C16(H16), C16'(H16'), C18(H18), C18'(H18'),
 C19(H19), C20(H20), C21(H21)
;
_smtbx_masks_special_details
;
A solvent mask was calculated and 1254 electrons were 
found in a volume of 4751\%A^3^ in 2 voids per unit cell. 
This is consistent with the presence of 1[C3H7NO], 3[C3H7NO] per Formula Unit 
which account for 1280 electrons per unit cell.
;
_smtbx_masks_void_probe_radius   1.3
_smtbx_masks_void_truncation_radius 1.2
_shelx_res_file
;
TITL sad in C2/m
    compound1.res
    created by SHELXL-2018/3 at 15:03:42 on 06-Aug-2021
CELL 0.71073 19.7115 26.1902 20.0351 90 113.054 90
ZERR 8 0.001 0.0012 0.0011 0 0.002 0
LATT 7
SYMM -X,+Y,-Z
SFAC C H N O Cu
UNIT 240 352 128 104 24
EQIV $1 -X,+Y,1-Z
DFIX 1 C16' H16' C18' H18'

L.S. 5 0 131
PLAN  34
TEMP -100.13
FREE C18 C16_$1
FREE C16' C16
FREE C18' C16'_$1
FREE C18' C16
FREE C18' C18
BOND $h
htab
fmap 2
acta
ABIN
REM <olex2.extras>
REM <HklSrc "%.\\compound1.hkl">
REM </olex2.extras>

WGHT    0.079500   47.236000
FVAR       0.05553
CU1   5   -0.305482    0.254011    0.133500    11.00000    0.01450    0.01123 =
         0.03195   -0.00459    0.01486   -0.00245
CU2   5   -0.444599    0.246527    0.188736    11.00000    0.01815    0.01113 =
         0.02808   -0.00354    0.01617   -0.00355
CU3   5   -0.138399    0.248956    0.124791    11.00000    0.01457    0.00957 =
         0.02540   -0.00165    0.01240   -0.00165
O1    4   -0.393581    0.222717    0.131754    11.00000    0.01819    0.01785 =
         0.03544   -0.01021    0.01788   -0.00598
O2    4   -0.213526    0.284547    0.144208    11.00000    0.01602    0.01477 =
         0.03968   -0.00679    0.01763   -0.00405
O3    4   -0.349339    0.273116    0.013146    11.00000    0.02569    0.08041 =
         0.02771    0.00326    0.01304   -0.00382
O4    4   -0.435746    0.285907   -0.095626    11.00000    0.01862    0.01956 =
         0.03069   -0.00201    0.01450    0.00001
N1    3   -0.364163    0.393258    0.196296    11.00000    0.02353    0.00980 =
         0.05015   -0.00221    0.02360   -0.00198
N2    3   -0.339010    0.317218    0.169690    11.00000    0.01882    0.01384 =
         0.03718   -0.00307    0.01926   -0.00188
N3    3   -0.394421    0.313419    0.194972    11.00000    0.01747    0.01298 =
         0.02941   -0.00235    0.01559   -0.00204
N4    3   -0.232688    0.106984    0.117913    11.00000    0.01939    0.01020 =
         0.03416   -0.00139    0.01425   -0.00073
N5    3   -0.263479    0.186556    0.120116    11.00000    0.01674    0.01168 =
         0.03870   -0.00300    0.01671   -0.00096
N6    3   -0.195789    0.185015    0.116269    11.00000    0.01698    0.01274 =
         0.03193   -0.00415    0.01599   -0.00247
N7    3   -0.549812    0.106493    0.137785    11.00000    0.01876    0.00985 =
         0.03929   -0.00007    0.01646   -0.00066
N8    3   -0.508798    0.184147    0.161953    11.00000    0.01540    0.01062 =
         0.03141    0.00015    0.01394    0.00060
N9    3   -0.584789    0.185724    0.129257    11.00000    0.01611    0.01157 =
         0.03175   -0.00026    0.01270   -0.00024
N10   3   -0.012296    0.221766    0.355997    11.00000    0.02392    0.03780 =
         0.02150    0.00126    0.01372    0.00186
N11   3   -0.062676    0.231367    0.238910    11.00000    0.01811    0.03112 =
         0.02729    0.00204    0.01222   -0.00010
N12   3    0.013207    0.232692    0.260904    11.00000    0.01788    0.01873 =
         0.02431    0.00146    0.01226    0.00190
C1    1   -0.297864    0.473783    0.220553    11.00000    0.02858    0.01053 =
         0.08259    0.00023    0.02597    0.00118
AFIX  43
H1    2   -0.252898    0.455454    0.233727    11.00000   -1.20000
AFIX   0
C2    1   -0.364209    0.447869    0.201113    11.00000    0.02655    0.00978 =
         0.05402   -0.00103    0.02451   -0.00112
C3    1   -0.430202    0.473530    0.184195    11.00000    0.02567    0.01395 =
         0.07223    0.00018    0.02540   -0.00181
AFIX  43
H3    2   -0.474898    0.455138    0.172736    11.00000   -1.20000
AFIX   0
C4    1   -0.322069    0.365425    0.170708    11.00000    0.02491    0.01311 =
         0.04980   -0.00090    0.02647   -0.00022
AFIX  43
H4    2   -0.285563    0.378888    0.155678    11.00000   -1.20000
AFIX   0
C5    1   -0.408991    0.359719    0.210718    11.00000    0.02408    0.01152 =
         0.04121   -0.00262    0.02291   -0.00142
AFIX  43
H5    2   -0.445125    0.368318    0.229232    11.00000   -1.20000
AFIX   0
C6    1   -0.299275    0.026734    0.078729    11.00000    0.01933    0.01177 =
         0.03807    0.00115    0.00969    0.00216
AFIX  43
H6    2   -0.343181    0.045216    0.052604    11.00000   -1.20000
AFIX   0
C7    1   -0.234046    0.052156    0.117546    11.00000    0.01967    0.00772 =
         0.03597   -0.00169    0.01332   -0.00173
C8    1   -0.169023    0.026857    0.156896    11.00000    0.01980    0.01431 =
         0.04874   -0.00090    0.00862   -0.00199
AFIX  43
H8    2   -0.125251    0.045367    0.183387    11.00000   -1.20000
AFIX   0
C9    1   -0.285018    0.139575    0.120774    11.00000    0.01746    0.01363 =
         0.04427   -0.00489    0.01839   -0.00339
AFIX  43
H9    2   -0.330471    0.129646    0.122929    11.00000   -1.20000
AFIX   0
C10   1   -0.177360    0.137120    0.116325    11.00000    0.01854    0.01384 =
         0.04213   -0.00236    0.01748   -0.00147
AFIX  43
H10   2   -0.132209    0.125222    0.115398    11.00000   -1.20000
AFIX   0
C11   1   -0.499143    0.026375    0.118324    11.00000    0.04761    0.01037 =
         0.09395   -0.00046    0.05476   -0.00216
AFIX  43
H11   2   -0.463533    0.044777    0.106933    11.00000   -1.20000
AFIX   0
C12   1   -0.551298    0.051788    0.135012    11.00000    0.02380    0.00821 =
         0.04285    0.00074    0.01812    0.00074
C13   1   -0.605244    0.026473    0.148391    11.00000    0.03482    0.01183 =
         0.11859   -0.00230    0.05158    0.00061
AFIX  43
H13   2   -0.642231    0.044873    0.157565    11.00000   -1.20000
AFIX   0
C14   1   -0.488661    0.136358    0.166645    11.00000    0.01698    0.00997 =
         0.03647    0.00093    0.01373    0.00058
AFIX  43
H14   2   -0.439259    0.124344    0.186944    11.00000   -1.20000
AFIX   0
C15   1   -0.607923    0.138648    0.114871    11.00000    0.01845    0.01101 =
         0.03846   -0.00090    0.01399   -0.00166
AFIX  43
H15   2   -0.658075    0.128592    0.091772    11.00000   -1.20000
AFIX   0
C16   1   -0.052881    0.193366    0.448733    10.50000    0.03979    0.06017 =
         0.02599   -0.00384    0.01350   -0.02389
AFIX  43
H16   2   -0.091321    0.174856    0.412665    10.50000   -1.20000
AFIX   0
C16'  1   -0.060982    0.244021    0.446550    10.50000    0.04897    0.10694 =
         0.02308    0.01238    0.01887    0.03665
AFIX  43
H16'  2   -0.102514    0.258474    0.408690    10.50000   -1.20000
AFIX   0
C17   1   -0.005495    0.219310    0.430128    11.00000    0.03198    0.04753 =
         0.02236    0.00145    0.01603    0.00106
C18   1    0.054962    0.247087    0.483979    10.50000    0.04390    0.09121 =
         0.02760   -0.00818    0.02164   -0.03293
AFIX  43
H18   2    0.088689    0.266493    0.471039    10.50000   -1.20000
AFIX   0
C18'  1    0.047679    0.192566    0.479745    10.50000    0.04927    0.05952 =
         0.03569    0.00972    0.02824    0.02637
AFIX  43
H18'  2    0.081528    0.173262    0.466852    10.50000   -1.20000
AFIX   0
C19   1   -0.076330    0.224918    0.296764    11.00000    0.02263    0.03962 =
         0.02865    0.00204    0.01535   -0.00123
AFIX  43
H19   2   -0.124172    0.222735    0.297421    11.00000   -1.20000
AFIX   0
C20   1    0.042217    0.226973    0.331215    11.00000    0.02044    0.03213 =
         0.02533    0.00222    0.01323    0.00223
AFIX  43
H20   2    0.093533    0.226529    0.360470    11.00000   -1.20000
AFIX   0
C21   1   -0.411285    0.286759   -0.026373    11.00000    0.02409    0.03281 =
         0.03596   -0.01021    0.02062   -0.00604
AFIX  43
H21   2   -0.443168    0.298699   -0.004427    11.00000   -1.20000
AFIX   0

N13   3   -0.500000    0.133513    0.000000    10.50000    0.02179    0.02272 =
         0.02640    0.00000    0.01113    0.00000
O6    4   -0.441716    0.110061    0.032870    11.00000    0.02671    0.03441 =
         0.04959    0.00238    0.00272    0.00938
O7    4   -0.500000    0.181752    0.000000    10.50000    0.04448    0.01977 =
         0.03800    0.00000    0.00296    0.00000
HKLF 4




REM  sad in C2/m
REM wR2 = 0.1778, GooF = S = 1.119, Restrained GooF = 1.119 for all data
REM R1 = 0.0474 for 12382 Fo > 4sig(Fo) and 0.0536 for all 14851 data
REM 398 parameters refined using 2 restraints

END

WGHT      0.0775     55.2540

REM Instructions for potential hydrogen bonds
HTAB C6 O6
HTAB C9 O6
HTAB C11 O6

REM Highest difference peak  1.330,  deepest hole -0.706,  1-sigma level  0.120
Q1    1  -0.1668  0.2525  0.0837  11.00000  0.05    1.33
Q2    1  -0.2888  0.2499  0.1768  11.00000  0.05    1.32
Q3    1  -0.4252  0.2457  0.2322  11.00000  0.05    0.91
Q4    1  -0.4728  0.2493  0.1422  11.00000  0.05    0.78
Q5    1  -0.1922  0.3074  0.1801  11.00000  0.05    0.69
Q6    1  -0.6000  0.0000  0.1463  10.50000  0.05    0.63
Q7    1  -0.5880  0.0396  0.1301  11.00000  0.05    0.59
Q8    1  -0.4222  0.2106  0.0936  11.00000  0.05    0.59
Q9    1  -0.2035  0.1983  0.1974  11.00000  0.05    0.58
Q10   1  -0.3505  0.2491  0.0104  11.00000  0.05    0.57
Q11   1  -0.2761  0.1661  0.1161  11.00000  0.05    0.54
Q12   1  -0.3432  0.3791  0.1810  11.00000  0.05    0.53
Q13   1  -0.5790  0.1235  0.1001  11.00000  0.05    0.52
Q14   1  -0.6137  0.2031  0.1330  11.00000  0.05    0.51
Q15   1  -0.3354  0.2481  0.0837  11.00000  0.05    0.51
Q16   1  -0.2430  0.2129  0.1541  11.00000  0.05    0.50
Q17   1  -0.5319  0.3942  0.2624  11.00000  0.05    0.49
Q18   1  -0.0448  0.2141  0.3273  11.00000  0.05    0.49
Q19   1  -0.4811  0.0263  0.1606  11.00000  0.05    0.49
Q20   1  -0.3507  0.2051  0.2933  11.00000  0.05    0.49
Q21   1  -0.7728  0.1166  0.0435  11.00000  0.05    0.49
Q22   1  -0.4777  0.0000  0.1475  10.50000  0.05    0.48
Q23   1  -0.5211  0.0408  0.1297  11.00000  0.05    0.47
Q24   1  -0.7560  0.1419  0.0383  11.00000  0.05    0.46
Q25   1  -0.0679  0.2075  0.2687  11.00000  0.05    0.45
Q26   1  -0.2504  0.1877  0.1584  11.00000  0.05    0.45
Q27   1  -0.3986  0.2736  0.0183  11.00000  0.05    0.44
Q28   1  -0.6585  0.0811  0.1805  11.00000  0.05    0.42
Q29   1  -0.1811  0.1609  0.1277  11.00000  0.05    0.42
Q30   1  -0.2015  0.0366  0.1293  11.00000  0.05    0.41
Q31   1  -0.3900  0.3807  0.2044  11.00000  0.05    0.41
Q32   1  -0.3205  0.5000  0.2687  10.50000  0.05    0.41
Q33   1  -0.6338  0.1927  0.1708  11.00000  0.05    0.40
Q34   1  -0.6000  0.1635  0.1113  11.00000  0.05    0.40
;
_shelx_res_checksum              65926
_shelx_fab_file
;
-28 0 9 -2.7895 -3.4987
-28 0 10 0.2378 -1.1839
-28 0 11 5.0978 0.6813
-28 0 12 -0.6781 -0.4133
-28 0 13 -0.2500 -0.9328
-28 0 14 -2.3007 1.9828
-28 2 9 4.0158 2.7267
-28 2 10 0.8027 -0.3582
-28 2 11 -3.3847 -0.7199
-28 2 12 2.4864 0.6934
-28 2 13 2.7415 -0.3405
-28 4 11 3.3006 0.7029
-28 4 12 -4.4903 1.5300
-27 1 4 3.1834 -0.4227
-27 1 5 -0.3778 -0.8141
-27 1 6 3.0311 -0.3326
-27 1 7 -0.1558 0.3203
-27 1 8 -0.4870 0.6705
-27 1 9 -1.4565 0.0444
-27 1 10 2.5781 -0.7638
-27 1 11 -6.5381 -0.0819
-27 1 12 -3.7898 0.1512
-27 1 13 0.3159 -0.1159
-27 1 14 -3.2777 0.2035
-27 1 15 -8.1034 0.8723
-27 1 16 2.3718 0.6288
-27 1 17 -4.0337 -0.2815
-27 1 18 -4.6125 -0.9173
-27 3 4 2.2408 0.0581
-27 3 5 -1.0092 0.3264
-27 3 6 -2.3157 0.2241
-27 3 7 3.3998 0.0652
-27 3 8 2.8024 0.4441
-27 3 9 -5.0486 0.5347
-27 3 10 3.3757 0.6212
-27 3 11 1.7405 -0.1901
-27 3 12 -1.8851 -0.6078
-27 3 13 1.4698 -0.1761
-27 3 14 -0.0320 0.5494
-27 3 15 1.5965 0.2680
-27 3 16 -2.7687 -0.3926
-27 3 17 2.7213 -0.6688
-27 5 5 0.4848 0.3318
-27 5 6 -3.6028 0.3472
-27 5 7 1.3613 -0.1626
-27 5 8 2.7661 -0.3373
-27 5 9 -1.7016 0.3135
-27 5 10 -4.0498 0.2804
-27 5 11 7.3436 -0.3065
-27 5 12 2.9891 -0.1984
-27 5 13 -4.0524 -0.0354
-27 5 14 1.0449 -0.2025
-27 5 15 7.3613 -0.0892
-27 5 16 0.6115 -0.1108
-27 5 17 -4.0915 -0.2405
-27 7 6 0.1723 -0.2660
-27 7 7 4.9529 0.0104
-27 7 8 -6.9993 -0.1711
-27 7 9 -2.8618 -0.3178
-27 7 10 4.0361 -0.3972
-27 7 11 1.2675 0.3267
-27 7 12 -8.2403 0.3278
-27 7 13 2.2694 0.0399
-27 7 14 2.3961 -0.3068
-27 7 15 -3.5021 -0.3483
-27 7 16 0.0793 0.4957
-27 9 7 -3.3965 -0.0623
-27 9 8 -1.6621 -0.1796
-27 9 9 4.5961 -0.0966
-27 9 10 -4.7915 0.2563
-27 9 11 -2.9143 -0.1424
-27 9 12 1.5770 -0.0489
-27 9 13 -1.4552 0.4624
-27 9 14 -6.0372 0.5768
-26 0 1 3.5167 -0.9780
-26 0 2 1.5399 -1.4066
-26 0 3 -2.5194 -0.7274
-26 0 4 0.2896 0.6689
-26 0 5 1.5183 0.5639
-26 0 6 -6.5161 -0.1618
-26 0 7 -5.1210 -0.4113
-26 0 8 -6.3870 -0.7720
-26 0 9 -4.3222 -0.1126
-26 0 10 -4.6173 0.1961
-26 0 11 -9.6562 0.7929
-26 0 12 -4.7677 0.5315
-26 0 13 1.9920 -0.2677
-26 0 14 -7.9961 -0.7385
-26 0 15 -3.3281 0.3182
-26 0 16 2.1601 0.4813
-26 0 17 1.2617 -0.2073
-26 0 18 -5.6748 -1.0812
-26 0 19 1.2484 -0.3648
-26 0 20 5.3946 1.9696
-26 2 1 2.5803 0.0582
-26 2 2 0.5555 -0.6438
-26 2 3 -0.4671 -0.2271
-26 2 4 2.9459 0.2397
-26 2 5 0.2986 0.2295
-26 2 6 -1.0119 -0.3012
-26 2 7 -2.0392 -0.2889
-26 2 8 0.0227 0.3982
-26 2 9 -2.0971 -0.2898
-26 2 10 -3.0322 -0.0140
-26 2 11 0.4321 0.9050
-26 2 12 -3.3643 0.5189
-26 2 13 -1.4840 -0.4517
-26 2 14 -1.8889 -0.2725
-26 2 15 0.9685 -0.2758
-26 2 16 -2.1964 -0.3911
-26 2 17 -5.1881 -0.4321
-26 2 18 3.7477 0.3181
-26 2 19 -1.9676 0.0122
-26 2 20 -3.7365 -1.4298
-26 4 1 -2.8312 -0.0133
-26 4 2 3.6043 0.6758
-26 4 3 3.9026 0.1294
-26 4 4 -4.1831 -0.2496
-26 4 5 3.9102 -0.2003
-26 4 6 8.7266 0.2970
-26 4 7 2.1667 0.2070
-26 4 8 -2.2646 -0.3251
-26 4 9 7.1312 -0.0220
-26 4 10 9.7704 0.3206
-26 4 11 -2.7941 0.0355
-26 4 12 -0.2206 0.1865
-26 4 13 5.9195 0.0336
-26 4 14 3.7490 -0.5280
-26 4 15 -4.8457 -0.3962
-26 4 16 -2.6504 0.2633
-26 4 17 1.6419 0.4629
-26 4 18 -0.6804 -0.3073
-26 4 19 -7.0915 -0.4338
-26 4 20 -1.2905 1.6815
-26 6 2 -1.5343 1.1189
-26 6 3 -0.5752 -0.0886
-26 6 4 3.2611 -0.3733
-26 6 5 -0.4798 0.0786
-26 6 6 -1.0918 -0.3372
-26 6 7 3.8363 -0.2736
-26 6 8 4.8757 0.3808
-26 6 9 -1.0997 0.4920
-26 6 10 0.1571 -0.2631
-26 6 11 5.1164 -0.2732
-26 6 12 1.9490 -0.1052
-26 6 13 -2.1719 0.0828
-26 6 14 3.3281 0.1063
-26 6 15 -0.0109 0.0108
-26 6 16 -1.3315 -0.1264
-26 6 17 0.1079 0.1509
-26 6 18 0.1500 0.6784
-26 6 19 -1.9584 0.3721
-26 8 2 -0.8223 -2.0226
-26 8 3 -0.6200 -0.5459
-26 8 4 -0.1867 0.0430
-26 8 5 -0.6993 -0.3557
-26 8 6 -7.8001 -0.2217
-26 8 7 0.9733 -0.0057
-26 8 8 3.1727 0.1055
-26 8 9 -5.0441 -0.0088
-26 8 10 -7.5040 0.1765
-26 8 11 1.0461 0.0738
-26 8 12 2.7237 -0.0442
-26 8 13 -4.8411 -0.0499
-26 8 14 -3.0427 -0.0659
-26 8 15 2.0943 0.0547
-26 8 16 2.4427 0.3595
-26 8 17 -1.7202 0.1199
-26 8 18 3.0005 -1.9123
-26 10 3 1.6144 2.7543
-26 10 4 -2.5865 -0.5565
-26 10 5 -2.2779 -0.5958
-26 10 6 -0.4731 0.1607
-26 10 7 0.0126 0.2565
-26 10 8 -2.3338 -0.3958
-26 10 9 -2.1959 -0.3018
-26 10 10 1.5384 -0.0311
-26 10 11 -5.7176 0.0590
-26 10 12 -2.0183 0.0632
-26 10 13 2.6642 0.2221
-26 10 14 -3.5551 0.4212
-26 10 15 -2.8742 -0.2164
-26 10 16 3.5801 -0.2383
-26 10 17 0.5905 1.1753
-26 12 5 4.7833 2.3987
-26 12 6 -0.9694 1.1264
-26 12 7 -1.8493 -0.7429
-26 12 8 3.1091 -0.3970
-26 12 9 1.4949 -0.0788
-26 12 10 1.0871 0.1362
-26 12 11 0.0938 0.1491
-26 12 12 -0.4887 0.0464
-26 12 13 -0.9341 0.0039
-26 12 14 0.9552 0.0857
-26 12 15 1.7370 1.1429
-26 14 8 -1.3696 2.1696
-26 14 9 2.5528 1.0212
-26 14 10 2.9784 -0.7064
-26 14 11 -2.1983 -0.5238
-26 14 12 -0.6767 0.9339
-25 1 1 -0.1791 0.8588
-25 1 2 -4.9036 -0.5519
-25 1 3 0.0156 -0.3911
-25 1 4 -7.1073 0.1650
-25 1 5 -6.9747 -0.2340
-25 1 6 -3.2528 -0.4785
-25 1 7 -6.2421 -0.2950
-25 1 8 -2.2465 0.0829
-25 1 9 -4.9280 0.2633
-25 1 10 -3.7693 0.4429
-25 1 11 3.1417 0.3731
-25 1 12 5.1840 0.0448
-25 1 13 -1.4882 0.0912
-25 1 14 1.5769 -0.1846
-25 1 15 9.1011 -0.8427
-25 1 16 -1.7992 -0.9246
-25 1 17 4.0514 -0.1613
-25 1 18 0.8057 0.4405
-25 1 19 -0.1577 0.6831
-25 1 20 0.6061 0.7665
-25 1 21 3.9300 -0.8705
-25 1 22 -5.4767 -1.2637
-25 3 1 2.8374 0.8249
-25 3 2 3.7098 0.0829
-25 3 3 1.2915 -0.3791
-25 3 4 0.9962 -0.3748
-25 3 5 4.9938 -0.3804
-25 3 6 3.0440 -0.3643
-25 3 7 1.3588 0.0573
-25 3 8 1.4537 0.1666
-25 3 9 4.1005 -0.0635
-25 3 10 -1.0207 0.1040
-25 3 11 0.3785 0.5562
-25 3 12 3.0537 0.4743
-25 3 13 -3.7598 -0.1608
-25 3 14 -1.3174 -0.4218
-25 3 15 2.0127 -0.5198
-25 3 16 -2.2877 -0.3407
-25 3 17 -4.9916 0.0317
-25 3 18 -0.3593 0.4335
-25 3 19 1.8110 -0.0268
-25 3 20 -3.7586 0.0492
-25 3 21 -1.6230 0.2178
-25 5 1 -0.1376 -0.1022
-25 5 2 1.7606 -0.1083
-25 5 3 4.4839 -0.0192
-25 5 4 6.7030 0.0407
-25 5 5 2.4909 -0.1410
-25 5 6 9.0017 -0.1072
-25 5 7 5.8664 0.0914
-25 5 8 1.8204 0.1503
-25 5 9 5.3439 -0.0579
-25 5 10 6.6132 -0.0749
-25 5 11 -2.1172 0.1091
-25 5 12 -3.1348 0.1478
-25 5 13 -0.5970 -0.0475
-25 5 14 1.9371 -0.2559
-25 5 15 -4.3694 0.1485
-25 5 16 -6.3335 0.4832
-25 5 17 -2.5043 0.2165
-25 5 18 1.1904 0.1331
-25 5 19 -3.0423 0.5615
-25 5 20 -5.6112 -0.2661
-25 5 21 2.3538 -0.0499
-25 7 1 -1.3340 -0.3990
-25 7 2 -0.2776 -0.5059
-25 7 3 -2.8918 -0.1352
-25 7 4 -0.6183 0.1836
-25 7 5 3.1211 0.1490
-25 7 6 1.7769 0.0104
-25 7 7 -1.0241 0.0952
-25 7 8 0.2050 0.1704
-25 7 9 7.9920 0.2364
-25 7 10 -2.4583 -0.0133
-25 7 11 -0.2785 -0.3048
-25 7 12 4.1232 -0.1499
-25 7 13 -4.2859 0.0477
-25 7 14 3.8265 -0.0444
-25 7 15 1.7166 -0.0970
-25 7 16 -2.5436 0.2178
-25 7 17 0.2346 0.7606
-25 7 18 -1.2829 -0.2503
-25 7 19 0.9821 -0.5831
-25 7 20 0.9435 0.4177
-25 7 21 -4.7343 0.3551
-25 9 1 -1.0895 0.0135
-25 9 2 -1.5443 0.4023
-25 9 3 -3.5520 -0.3582
-25 9 4 -2.1402 -0.5431
-25 9 5 -1.3998 0.2819
-25 9 6 -3.4945 0.3462
-25 9 7 -0.0913 -0.1028
-25 9 8 -0.2336 -0.2893
-25 9 9 -1.5425 -0.1029
-25 9 10 -1.8628 0.1489
-25 9 11 4.3852 0.1094
-25 9 12 -1.5263 -0.2398
-25 9 13 -3.1780 -0.1982
-25 9 14 6.6397 0.1667
-25 9 15 1.7094 -0.0341
-25 9 16 -1.3216 -0.2962
-25 9 17 2.5661 -0.5976
-25 9 18 0.5247 0.3823
-25 9 19 0.9807 -0.0619
-25 9 20 -0.8998 -1.2457
-25 11 1 -0.4883 0.7989
-25 11 2 -0.3409 0.1046
-25 11 3 -0.7067 0.0092
-25 11 4 2.1197 0.5220
-25 11 5 1.2442 -0.0545
-25 11 6 -0.2119 -0.1798
-25 11 7 -4.0327 -0.1899
-25 11 8 3.5470 -0.1475
-25 11 9 3.4053 -0.3301
-25 11 10 -5.9861 -0.3047
-25 11 11 -2.9266 0.0245
-25 11 12 3.4462 0.4120
-25 11 13 0.2710 0.3837
-25 11 14 -6.9227 -0.1116
-25 11 15 0.0658 -0.0057
-25 11 16 2.3740 0.1478
-25 11 17 0.2499 -0.3208
-25 11 18 -5.6144 -0.6083
-25 11 19 2.0828 0.5335
-25 13 2 3.7621 0.9206
-25 13 3 4.0137 0.9324
-25 13 4 -0.0687 -0.1373
-25 13 5 -1.3906 -0.0511
-25 13 6 6.4574 0.2631
-25 13 7 1.3428 0.4355
-25 13 8 -4.7586 0.0889
-25 13 9 1.1053 -0.0998
-25 13 10 4.8697 -0.1506
-25 13 11 -6.5514 0.0033
-25 13 12 -2.5189 0.4376
-25 13 13 0.4210 0.5828
-25 13 14 -2.0145 0.3796
-25 13 15 -4.6299 -0.0492
-25 13 16 -2.3006 -0.2994
-25 13 17 2.6505 0.9793
-25 15 4 1.8518 -1.0315
-25 15 5 -2.1583 1.3578
-25 15 6 0.1112 1.3728
-25 15 7 4.1965 0.1329
-25 15 8 -3.5794 -0.2488
-25 15 9 -8.0990 0.5012
-25 15 10 9.7554 0.9736
-25 15 11 -1.7870 0.2327
-25 15 12 -4.5975 -0.6556
-25 15 13 -2.0495 -0.1713
-25 15 14 4.9539 1.0140
-25 15 15 -1.4320 0.9683
-25 17 8 2.7721 0.8007
-25 17 9 -9.2396 0.2527
-25 17 10 6.5646 -0.4746
-25 17 11 2.6250 0.0880
-25 17 12 -5.0247 0.5640
-24 0 1 -1.6917 6.1871
-24 0 2 -7.5563 0.0456
-24 0 3 -5.8504 -1.6302
-24 0 4 -1.2732 -1.1685
-24 0 5 -4.6377 -0.6634
-24 0 6 0.4726 -0.2172
-24 0 7 -7.2548 0.1674
-24 0 8 3.5521 0.4050
-24 0 9 12.0945 0.3003
-24 0 10 1.4432 0.6240
-24 0 11 2.7091 0.0704
-24 0 12 13.4766 -0.7460
-24 0 13 7.4943 -0.9500
-24 0 14 3.3688 -0.2442
-24 0 15 1.8990 0.4459
-24 0 16 3.3128 0.7593
-24 0 17 -3.4479 0.5185
-24 0 18 6.4209 0.0269
-24 0 19 -8.4987 0.0076
-24 0 20 -5.2668 -0.0925
-24 0 21 1.7545 -0.7129
-24 0 22 -1.0658 -2.1603
-24 0 23 -3.9125 -0.6381
-24 2 1 -2.2718 1.1936
-24 2 2 0.0444 0.0524
-24 2 3 -1.4682 -0.5646
-24 2 4 -3.7417 -0.9043
-24 2 5 3.0078 -0.9641
-24 2 6 -2.9162 -0.3202
-24 2 7 -4.0470 0.3539
-24 2 8 2.5636 0.4242
-24 2 9 4.8579 0.5801
-24 2 10 -0.5603 0.4304
-24 2 11 0.1736 0.0832
-24 2 12 4.1441 -0.4947
-24 2 13 6.6132 -0.5104
-24 2 14 -1.5120 -0.1499
-24 2 15 -0.7377 0.1154
-24 2 16 2.3518 0.2702
-24 2 17 2.4231 0.0838
-24 2 18 -1.6828 0.0925
-24 2 19 -4.2465 -0.1130
-24 2 20 1.5859 0.1723
-24 2 21 -0.7545 -0.7275
-24 2 22 -0.9845 0.1992
-24 2 23 -2.6299 -0.4543
-24 4 1 0.9290 -0.8133
-24 4 2 -0.1298 -0.2364
-24 4 3 8.2548 0.1238
-24 4 4 6.8342 0.2889
-24 4 5 -6.8384 -0.2028
-24 4 6 -0.3506 -0.5659
-24 4 7 9.8119 -0.2024
-24 4 8 -1.0311 0.4301
-24 4 9 -10.8425 0.5040
-24 4 10 -2.4131 0.0675
-24 4 11 5.8368 -0.3756
-24 4 12 -7.6902 -0.2903
-24 4 13 -7.5557 0.2025
-24 4 14 -1.9367 0.3671
-24 4 15 3.9955 0.0772
-24 4 16 -1.3928 -0.2435
-24 4 17 -4.0637 0.0310
-24 4 18 0.4896 0.2940
-24 4 19 5.1419 0.0626
-24 4 20 0.6363 -0.4429
-24 4 21 -3.1513 0.3774
-24 4 22 2.3715 -0.1713
-24 4 23 2.1818 0.1717
-24 6 1 -2.0371 1.0246
-24 6 2 3.6525 -0.0444
-24 6 3 4.8264 -0.2755
-24 6 4 -0.1275 0.0047
-24 6 5 -0.4010 0.4540
-24 6 6 7.7798 0.3964
-24 6 7 4.6173 -0.0643
-24 6 8 -0.6165 -0.3072
-24 6 9 -3.5107 -0.1762
-24 6 10 1.6197 -0.0578
-24 6 11 4.7155 -0.1338
-24 6 12 -7.6449 0.0966
-24 6 13 -3.7680 0.1038
-24 6 14 3.8753 0.0269
-24 6 15 -1.2655 0.1746
-24 6 16 -1.4140 0.1831
-24 6 17 -1.2522 -0.0452
-24 6 18 1.8240 -0.1872
-24 6 19 -0.8823 0.1283
-24 6 20 1.0446 -0.4395
-24 6 21 -1.7305 -0.4474
-24 6 22 1.3298 1.2901
-24 8 1 0.4956 -1.0536
-24 8 2 -3.1999 0.0253
-24 8 3 -4.1327 0.5085
-24 8 4 -0.0670 0.1716
-24 8 5 8.4468 -0.0231
-24 8 6 2.6384 0.1952
-24 8 7 -1.5652 0.1302
-24 8 8 7.0994 -0.1009
-24 8 9 5.0875 -0.1408
-24 8 10 2.1795 -0.1123
-24 8 11 3.4821 -0.0604
-24 8 12 2.6847 -0.0528
-24 8 13 2.6017 0.1675
-24 8 14 3.1002 0.1227
-24 8 15 -0.7438 -0.2590
-24 8 16 0.3823 -0.2894
-24 8 17 0.0269 0.0177
-24 8 18 -1.3037 0.0059
-24 8 19 -2.7232 -0.1653
-24 8 20 -1.3434 0.4990
-24 8 21 -2.2404 -0.0408
-24 8 22 -1.1401 -1.6956
-24 10 1 0.2155 0.5479
-24 10 2 0.0370 0.7581
-24 10 3 -4.7314 -0.0409
-24 10 4 1.4438 -0.1312
-24 10 5 5.6098 0.0408
-24 10 6 1.3804 -0.1597
-24 10 7 -2.8457 -0.0088
-24 10 8 4.3668 -0.0129
-24 10 9 5.9867 -0.1641
-24 10 10 -4.8517 -0.1594
-24 10 11 3.4254 0.0994
-24 10 12 3.8115 0.2514
-24 10 13 1.2866 -0.0116
-24 10 14 -4.5299 -0.2326
-24 10 15 2.6570 -0.1788
-24 10 16 -0.6035 0.0184
-24 10 17 -0.8677 -0.1480
-24 10 18 -3.2945 0.1551
-24 10 19 -2.5043 -0.2680
-24 10 20 2.2699 -0.1514
-24 10 21 -2.9541 2.3903
-24 12 1 1.6841 0.5883
-24 12 2 -0.2466 -0.6343
-24 12 3 2.8364 0.0582
-24 12 4 1.8760 0.4389
-24 12 5 -1.4388 -0.3264
-24 12 6 0.1494 -0.4221
-24 12 7 1.2706 -0.3179
-24 12 8 -1.7630 0.2031
-24 12 9 -5.5274 0.2144
-24 12 10 -2.0929 -0.0633
-24 12 11 0.2461 -0.1188
-24 12 12 -6.0877 -0.0180
-24 12 13 -2.2882 0.0797
-24 12 14 0.0014 -0.0012
-24 12 15 -6.6268 0.0363
-24 12 16 0.1021 -0.2453
-24 12 17 0.1461 -0.1269
-24 12 18 -1.2951 0.1791
-24 12 19 -1.1369 0.5256
-24 12 20 2.4068 -1.4148
-24 14 1 -1.3472 -1.0022
-24 14 2 0.6600 0.7716
-24 14 3 3.1970 0.0339
-24 14 4 0.8993 -0.8134
-24 14 5 -3.2675 -0.1781
-24 14 6 -0.7058 0.0995
-24 14 7 1.1697 0.2805
-24 14 8 -3.3138 -0.0561
-24 14 9 -3.5030 0.1156
-24 14 10 -3.9474 0.2753
-24 14 11 -1.7779 0.0309
-24 14 12 -1.7126 -0.1750
-24 14 13 -2.3647 -0.3815
-24 14 14 -1.1455 0.0487
-24 14 15 -0.3668 0.5658
-24 14 16 -1.6390 0.1949
-24 14 17 0.8733 -0.0551
-24 14 18 1.9857 -0.1444
-24 14 19 1.3338 0.8183
-24 16 2 -0.1086 1.7453
-24 16 3 -1.4706 -0.6621
-24 16 4 2.1654 -0.3145
-24 16 5 -5.1431 0.6904
-24 16 6 0.5941 0.7682
-24 16 7 2.3348 -0.1467
-24 16 8 -1.5542 -0.1931
-24 16 9 -2.4280 0.0072
-24 16 10 0.6248 0.0681
-24 16 11 2.9902 -0.0366
-24 16 12 -0.4852 -0.1063
-24 16 13 0.1444 0.3246
-24 16 14 4.7589 0.5041
-24 16 15 2.8101 0.2777
-24 16 16 -2.8530 1.3286
-24 16 17 5.9608 0.8619
-24 18 5 -2.0614 0.6575
-24 18 6 -1.7050 0.4105
-24 18 7 2.6320 0.5017
-24 18 8 0.8010 -0.1115
-24 18 9 1.0114 -0.6403
-24 18 10 -3.7538 -0.7081
-24 18 11 9.0569 -0.2171
-24 18 12 -2.2776 0.7099
-24 18 13 2.7417 1.6610
-24 18 14 0.1634 0.9890
-24 18 15 4.4536 -2.0282
-23 1 1 5.5939 -2.5410
-23 1 2 -0.4066 -1.4242
-23 1 3 0.7291 0.2733
-23 1 4 -1.1209 -0.1508
-23 1 5 8.9752 -0.5178
-23 1 6 -0.1719 0.2563
-23 1 7 -0.3344 0.8160
-23 1 8 4.1213 0.4548
-23 1 9 7.0877 0.0363
-23 1 10 2.7579 -0.1769
-23 1 11 0.2372 -0.5774
-23 1 12 4.2958 -0.5010
-23 1 13 1.4999 0.0928
-23 1 14 -4.1490 0.2709
-23 1 15 3.1540 0.1896
-23 1 16 -4.0928 0.5383
-23 1 17 -5.0063 0.8321
-23 1 18 -3.9375 0.1245
-23 1 19 3.9193 -1.0249
-23 1 20 -3.9922 -0.7812
-23 1 21 -6.3359 -0.2955
-23 1 22 2.0497 0.0345
-23 1 23 2.5876 0.2097
-23 1 24 0.0134 -0.1381
-23 3 1 -3.3761 -0.5723
-23 3 2 0.7537 -0.1711
-23 3 3 0.9428 -0.2559
-23 3 4 -11.5172 -0.1314
-23 3 5 -1.2177 0.1169
-23 3 6 1.4733 0.3384
-23 3 7 -6.8818 0.2647
-23 3 8 -6.9798 0.0291
-23 3 9 -1.0926 -0.0736
-23 3 10 3.0254 -0.1739
-23 3 11 -1.8999 -0.1473
-23 3 12 -6.7309 -0.2170
-23 3 13 4.2508 -0.1329
-23 3 14 9.3922 0.2050
-23 3 15 -7.4536 0.4455
-23 3 16 3.6387 0.3651
-23 3 17 3.8059 -0.0292
-23 3 18 3.1101 -0.0638
-23 3 19 -2.8126 -0.0646
-23 3 20 1.4014 -0.1875
-23 3 21 -1.3906 -0.1681
-23 3 22 -2.2203 0.5100
-23 3 23 3.6072 0.5340
-23 3 24 -7.1069 0.3958
-23 5 1 -3.4265 0.0979
-23 5 2 -4.6188 -0.0399
-23 5 3 -0.6706 0.3517
-23 5 4 -5.3648 0.5859
-23 5 5 -1.3560 0.0480
-23 5 6 -8.7583 -0.3959
-23 5 7 -2.1993 -0.2068
-23 5 8 -0.7985 0.0808
-23 5 9 -9.5966 -0.0170
-23 5 10 -1.4915 -0.3433
-23 5 11 1.8121 -0.2566
-23 5 12 -2.7808 0.1124
-23 5 13 -1.5259 0.2625
-23 5 14 8.1029 0.1741
-23 5 15 2.2922 0.0221
-23 5 16 -1.0003 -0.1923
-23 5 17 7.9143 -0.0783
-23 5 18 3.9891 -0.0284
-23 5 19 -2.3841 -0.2106
-23 5 20 1.8745 -0.4503
-23 5 21 -2.0931 0.1967
-23 5 22 0.4522 0.1295
-23 5 23 0.2299 -0.0440
-23 7 1 -1.8468 0.1787
-23 7 2 1.3648 0.3556
-23 7 3 4.2752 0.1980
-23 7 4 2.7221 -0.2811
-23 7 5 0.9466 0.0277
-23 7 6 -1.9252 0.1008
-23 7 7 7.8686 -0.3534
-23 7 8 4.6405 -0.2523
-23 7 9 -1.4342 0.1151
-23 7 10 -2.9593 0.2754
-23 7 11 4.2805 -0.0216
-23 7 12 5.9429 0.0447
-23 7 13 -2.6819 0.1391
-23 7 14 -2.3994 -0.0282
-23 7 15 5.7239 -0.1392
-23 7 16 0.5573 -0.2790
-23 7 17 -3.3494 -0.1951
-23 7 18 2.4828 -0.2164
-23 7 19 -0.7198 -0.1104
-23 7 20 -6.5629 -0.0211
-23 7 21 3.0462 -0.0194
-23 7 22 0.0998 -0.1450
-23 7 23 -6.5106 -0.6126
-23 9 1 4.0452 0.2924
-23 9 2 2.9670 -0.0510
-23 9 3 2.8340 -0.2352
-23 9 4 4.5407 0.0498
-23 9 5 9.3207 0.0173
-23 9 6 2.2793 -0.1868
-23 9 7 1.9257 0.0364
-23 9 8 11.6151 0.0906
-23 9 9 6.6881 0.0236
-23 9 10 -4.7941 0.0047
-23 9 11 1.0611 0.4092
-23 9 12 7.5431 0.3088
-23 9 13 2.4679 -0.1905
-23 9 14 -9.5421 -0.2483
-23 9 15 0.8667 -0.1065
-23 9 16 2.2218 0.2857
-23 9 17 -6.7526 -0.0178
-23 9 18 -0.6484 -0.1689
-23 9 19 -3.9648 0.0705
-23 9 20 -2.1225 0.6937
-23 9 21 0.9750 0.2821
-23 9 22 -3.8915 -0.0587
-23 11 1 -0.4459 -0.2229
-23 11 2 4.1435 -0.3157
-23 11 3 1.5074 0.1665
-23 11 4 -4.3445 0.3819
-23 11 5 3.6569 -0.1157
-23 11 6 6.1629 -0.0851
-23 11 7 -2.2032 0.1255
-23 11 8 -5.8729 0.1450
-23 11 9 8.3952 -0.0641
-23 11 10 3.0252 -0.0167
-23 11 11 -7.4685 0.0438
-23 11 12 -1.9892 -0.1111
-23 11 13 3.3217 -0.0183
-23 11 14 1.6331 -0.0084
-23 11 15 -5.1979 -0.0657
-23 11 16 -4.9011 -0.1406
-23 11 17 2.2159 0.2705
-23 11 18 1.4128 0.4953
-23 11 19 -2.4581 -0.3838
-23 11 20 -1.7392 -0.3796
-23 11 21 3.0935 0.8509
-23 11 22 -3.1693 -0.2216
-23 13 1 3.9276 0.0301
-23 13 2 -0.5619 -0.2940
-23 13 3 -4.9973 -0.5406
-23 13 4 0.1589 -0.5108
-23 13 5 -2.8674 0.3259
-23 13 6 -1.1647 0.4428
-23 13 7 -3.0421 -0.0704
-23 13 8 -6.0064 -0.3094
-23 13 9 -2.9138 0.0653
-23 13 10 2.0781 0.3370
-23 13 11 -3.4688 -0.0962
-23 13 12 -4.8390 -0.5474
-23 13 13 -0.3725 -0.6893
-23 13 14 1.7543 -0.1015
-23 13 15 3.5785 0.4762
-23 13 16 -6.9464 -0.2272
-23 13 17 3.1327 -0.3333
-23 13 18 3.7511 -0.2215
-23 13 19 1.5504 0.2824
-23 13 20 0.6785 -0.6731
-23 13 21 1.0738 -0.5594
-23 15 1 -1.6989 -0.8765
-23 15 2 -4.9140 -0.5200
-23 15 3 5.8298 0.0918
-23 15 4 0.2083 0.1489
-23 15 5 -4.6527 -0.5306
-23 15 6 -3.7610 -0.5938
-23 15 7 1.7451 0.1244
-23 15 8 0.0300 0.5638
-23 15 9 -8.6671 0.0550
-23 15 10 -1.0587 -0.6120
-23 15 11 5.7056 -0.2771
-23 15 12 -8.1158 0.2403
-23 15 13 3.5567 0.0914
-23 15 14 1.0938 -0.2098
-23 15 15 0.6831 -0.3802
-23 15 16 1.6742 0.7479
-23 15 17 1.2218 0.6268
-23 15 18 1.7487 0.1333
-23 15 19 0.4353 -0.2527
-23 15 20 2.7682 0.5105
-23 17 1 -2.1334 0.7383
-23 17 2 1.0334 0.5667
-23 17 3 -1.6622 0.5896
-23 17 4 2.5614 0.5123
-23 17 5 2.2576 0.1018
-23 17 6 -4.7727 -0.3098
-23 17 7 -1.7866 -0.4141
-23 17 8 5.1251 -0.2668
-23 17 9 -0.1462 -0.0852
-23 17 10 -4.1958 0.0374
-23 17 11 -2.6161 -0.1312
-23 17 12 9.3791 -0.0205
-23 17 13 -1.3391 0.9417
-23 17 14 -2.2461 1.0172
-23 17 15 5.2405 0.6008
-23 17 16 1.2938 0.1187
-23 17 17 0.0599 0.8029
-23 17 18 1.3090 0.7372
-23 19 2 -0.9766 0.0060
-23 19 3 -4.3869 1.1503
-23 19 4 1.4578 1.2194
-23 19 5 1.7155 0.5468
-23 19 6 -2.7220 -0.0609
-23 19 7 -3.5567 -0.4149
-23 19 8 3.4133 -0.3929
-23 19 9 2.1769 0.0627
-23 19 10 -2.7734 0.1251
-23 19 11 1.1443 -0.0528
-23 19 12 0.6212 0.3308
-23 19 13 5.2891 0.6399
-23 19 14 -0.7641 1.1990
-23 19 15 1.2697 0.6212
-23 19 16 0.8158 -1.0793
-23 21 6 -1.5079 0.0031
-23 21 7 -2.4078 0.6627
-23 21 8 3.2523 0.1579
-23 21 9 -2.3450 -0.1281
-23 21 10 1.1380 -0.0053
-23 21 11 1.5682 0.1981
-23 21 12 -1.2852 0.6150
-22 0 1 3.6205 -6.0117
-22 0 2 23.5049 -1.5469
-22 0 3 1.9661 1.8537
-22 0 4 -14.8380 0.8189
-22 0 5 16.1970 0.4527
-22 0 6 8.3592 1.1520
-22 0 7 -17.8549 0.8109
-22 0 8 0.8934 -0.2152
-22 0 9 8.2655 -0.9525
-22 0 10 -11.6172 -0.8428
-22 0 11 -3.2475 -0.4823
-22 0 12 -2.8309 0.1815
-22 0 13 5.9845 0.6059
-22 0 14 -10.4621 0.6572
-22 0 15 -0.4103 0.1548
-22 0 16 8.5461 -0.2295
-22 0 17 -5.2326 -0.4214
-22 0 18 -1.5550 -0.4189
-22 0 19 7.5428 -0.1352
-22 0 20 2.9681 0.3921
-22 0 21 3.1118 0.4797
-22 0 22 4.4839 0.2737
-22 0 23 1.4631 -0.4291
-22 0 24 7.6766 -0.7217
-22 0 25 2.7643 -0.2976
-22 2 1 0.6938 -1.9115
-22 2 2 -5.2178 -0.4323
-22 2 3 3.6982 0.0673
-22 2 4 4.9101 0.4525
-22 2 5 -10.1549 0.8145
-22 2 6 -3.3334 1.1250
-22 2 7 8.9625 0.4675
-22 2 8 -6.5214 -0.7690
-22 2 9 -5.8934 -0.9712
-22 2 10 2.7202 -0.3231
-22 2 11 4.2939 0.1315
-22 2 12 -4.5571 0.0125
-22 2 13 -1.2287 0.0763
-22 2 14 4.7567 0.4938
-22 2 15 2.2855 0.5422
-22 2 16 -2.6051 0.0440
-22 2 17 2.7471 -0.6843
-22 2 18 0.4417 -0.5309
-22 2 19 -0.3773 0.4377
-22 2 20 2.8028 0.7180
-22 2 21 -0.5594 0.1842
-22 2 22 1.6508 -0.2300
-22 2 23 1.5536 0.7083
-22 2 24 -0.1358 0.2423
-22 2 25 2.8438 -0.5485
-22 4 1 -5.6532 1.5631
-22 4 2 -5.2902 0.1699
-22 4 3 -14.8285 -0.6470
-22 4 4 -1.8407 0.1331
-22 4 5 -2.0659 0.9124
-22 4 6 -8.8038 0.3880
-22 4 7 -2.5819 -0.5061
-22 4 8 1.9842 -0.6898
-22 4 9 1.4414 -0.3316
-22 4 10 0.2458 -0.1065
-22 4 11 5.2421 -0.0004
-22 4 12 6.0391 0.0270
-22 4 13 -1.0367 0.2741
-22 4 14 8.1312 0.2914
-22 4 15 5.1887 0.0789
-22 4 16 -3.1283 -0.2457
-22 4 17 3.5849 0.0182
-22 4 18 0.8219 0.3079
-22 4 19 -2.9544 -0.1970
-22 4 20 -4.1676 -0.2674
-22 4 21 -3.6216 0.2358
-22 4 22 2.0688 0.8347
-22 4 23 -5.2636 -0.3414
-22 4 24 -4.7553 -0.0718
-22 6 1 -3.1753 -0.0428
-22 6 2 -6.7958 0.2086
-22 6 3 -4.5339 0.1898
-22 6 4 -5.8463 -0.0987
-22 6 5 3.2152 -0.1934
-22 6 6 -8.7429 -0.2184
-22 6 7 -1.4845 -0.1955
-22 6 8 4.4204 -0.0623
-22 6 9 -4.8350 0.0057
-22 6 10 3.3147 0.2406
-22 6 11 10.2824 0.2372
-22 6 12 -4.2983 0.0480
-22 6 13 -0.3031 -0.2643
-22 6 14 11.2220 -0.1221
-22 6 15 2.1524 0.0044
-22 6 16 -2.6485 -0.1530
-22 6 17 -1.3814 -0.1491
-22 6 18 5.1087 -0.1011
-22 6 19 -1.8509 0.1839
-22 6 20 -4.9619 -0.0124
-22 6 21 -2.5650 -0.3137
-22 6 22 -1.9367 -1.0699
-22 6 23 2.4422 0.1703
-22 6 24 -5.3535 0.6905
-22 8 1 2.1416 -0.2033
-22 8 2 1.2389 0.1545
-22 8 3 4.9830 -0.0502
-22 8 4 2.9749 -0.4854
-22 8 5 -2.9584 -0.4986
-22 8 6 7.5282 -0.1414
-22 8 7 -2.8688 0.1740
-22 8 8 -4.2127 0.3154
-22 8 9 4.3574 0.3863
-22 8 10 1.2846 0.2612
-22 8 11 -1.7780 0.2154
-22 8 12 -4.3725 0.1287
-22 8 13 4.7069 -0.0711
-22 8 14 -1.6255 -0.3923
-22 8 15 0.8213 -0.4536
-22 8 16 -1.5484 0.0360
-22 8 17 2.1449 0.2779
-22 8 18 -1.4603 0.1908
-22 8 19 0.6979 -0.1089
-22 8 20 1.9087 -0.1054
-22 8 21 -3.0218 0.0363
-22 8 22 -2.5110 0.4600
-22 8 23 4.1300 -0.7423
-22 8 24 1.2869 -1.3459
-22 10 1 6.2004 -0.0655
-22 10 2 4.5762 -0.2219
-22 10 3 -1.8208 -0.0622
-22 10 4 5.5501 0.0904
-22 10 5 6.9957 0.0279
-22 10 6 1.5452 -0.0403
-22 10 7 -3.8376 0.0268
-22 10 8 4.2361 0.1165
-22 10 9 6.2641 0.1619
-22 10 10 -1.5401 0.2124
-22 10 11 -6.3225 -0.0214
-22 10 12 6.8584 -0.2383
-22 10 13 -1.6549 0.1510
-22 10 14 -4.2005 0.3702
-22 10 15 1.0291 -0.0258
-22 10 16 0.2472 -0.2361
-22 10 17 0.1730 0.1234
-22 10 18 -1.2633 0.3165
-22 10 19 0.5315 0.3501
-22 10 20 -0.8207 0.3939
-22 10 21 -1.2325 -0.4985
-22 10 22 0.5457 -0.3704
-22 10 23 -2.8654 3.2952
-22 12 1 -3.5544 -0.2463
-22 12 2 -4.3651 0.2121
-22 12 3 2.8182 0.4765
-22 12 4 1.8081 0.2283
-22 12 5 0.6383 -0.1208
-22 12 6 -3.1092 0.1070
-22 12 7 4.9922 0.5239
-22 12 8 3.5801 0.2005
-22 12 9 1.6492 -0.4318
-22 12 10 1.6695 -0.5479
-22 12 11 4.5329 -0.1238
-22 12 12 -3.7278 0.1777
-22 12 13 6.5451 -0.0195
-22 12 14 -1.6565 -0.0470
-22 12 15 -6.1840 0.0449
-22 12 16 7.0593 0.0507
-22 12 17 -2.2061 -0.0638
-22 12 18 -0.2711 -0.2761
-22 12 19 -4.1832 -0.5825
-22 12 20 2.1540 0.0409
-22 12 21 -0.6628 0.9239
-22 12 22 -2.3176 -2.5591
-22 14 1 -1.2624 -0.0793
-22 14 2 -2.9170 -0.1024
-22 14 3 1.2596 -0.4355
-22 14 4 -2.2653 -0.3294
-22 14 5 -2.6955 0.2074
-22 14 6 0.0405 0.4795
-22 14 7 0.8001 0.1490
-22 14 8 -1.7340 -0.0590
-22 14 9 -3.2008 -0.1112
-22 14 10 2.0485 -0.0807
-22 14 11 5.0163 -0.0830
-22 14 12 -4.3572 -0.2745
-22 14 13 -4.5805 -0.3297
-22 14 14 7.5901 -0.1785
-22 14 15 -1.7630 0.2898
-22 14 16 -2.8847 -0.0372
-22 14 17 2.0624 -0.3139
-22 14 18 0.1295 -0.3669
-22 14 19 1.2026 0.2220
-22 14 20 -2.4675 -0.4384
-22 14 21 3.6003 -0.5946
-22 16 1 1.2927 0.2641
-22 16 2 -1.0944 -0.0436
-22 16 3 0.8879 -0.0252
-22 16 4 -0.3069 -0.5155
-22 16 5 -3.2697 -0.2582
-22 16 6 -2.6037 0.0794
-22 16 7 0.0374 0.1008
-22 16 8 -7.9598 -0.2336
-22 16 9 -4.3649 -0.1851
-22 16 10 -3.6561 0.1969
-22 16 11 1.9888 0.2664
-22 16 12 -4.8813 0.0587
-22 16 13 -3.7948 -0.1278
-22 16 14 -0.4177 -0.0194
-22 16 15 6.0720 0.0417
-22 16 16 -3.5186 1.1325
-22 16 17 0.2839 0.6753
-22 16 18 1.2694 -0.7431
-22 16 19 3.0048 -0.2605
-22 16 20 1.3885 4.1421
-22 18 1 0.9516 0.9781
-22 18 2 2.5866 0.6620
-22 18 3 -4.8595 -0.4016
-22 18 4 -1.2780 0.3562
-22 18 5 1.7377 0.2767
-22 18 6 -4.0693 -0.1776
-22 18 7 -4.5389 -0.6086
-22 18 8 0.0385 -0.3361
-22 18 9 -4.4842 0.1925
-22 18 10 -1.2462 0.2318
-22 18 11 -0.2778 -0.0110
-22 18 12 -2.4555 0.0820
-22 18 13 2.3879 0.4613
-22 18 14 -0.4239 0.2326
-22 18 15 0.5647 -0.2361
-22 18 16 2.8773 -0.2968
-22 18 17 -0.3870 1.2331
-22 18 18 1.4899 1.3919
-22 18 19 0.3635 -4.3567
-22 20 1 -1.9841 -2.0004
-22 20 2 2.9051 -0.8342
-22 20 3 -8.0753 1.0445
-22 20 4 -0.7587 0.1657
-22 20 5 2.3771 0.1851
-22 20 6 0.5738 -0.0457
-22 20 7 -6.4269 -0.2587
-22 20 8 4.2732 -0.0460
-22 20 9 5.6440 0.4188
-22 20 10 -0.6954 0.4184
-22 20 11 1.4884 -0.0907
-22 20 12 3.7085 -0.6471
-22 20 13 3.9848 -0.8107
-22 20 14 1.8187 -0.3838
-22 20 15 0.1805 0.0851
-22 20 16 2.5925 -1.5949
-22 20 17 0.4956 -3.2984
-22 22 4 -1.0646 -2.4278
-22 22 5 -0.2258 -0.8772
-22 22 6 3.8830 0.5957
-22 22 7 -1.4779 0.8647
-22 22 8 0.8899 0.6371
-22 22 9 7.5844 0.0430
-22 22 10 0.8580 -0.3183
-22 22 11 1.7307 0.1821
-22 22 12 3.2180 0.1852
-22 22 13 3.3391 -1.9161
-22 22 14 1.4848 -2.7029
-21 1 1 4.9692 0.9630
-21 1 2 5.6467 2.5963
-21 1 3 -4.8994 0.8290
-21 1 4 -3.8313 -0.5318
-21 1 5 1.0549 0.5285
-21 1 6 -2.4692 1.1684
-21 1 7 -14.2290 0.0345
-21 1 8 -0.6641 -1.0187
-21 1 9 3.1719 -0.6871
-21 1 10 -9.9549 0.0555
-21 1 11 7.1734 0.4728
-21 1 12 -3.3868 0.4413
-21 1 13 11.6028 0.0585
-21 1 14 -2.4176 -0.3357
-21 1 15 3.0163 -0.4975
-21 1 16 2.6105 -0.4464
-21 1 17 12.1422 -0.2820
-21 1 18 -5.8546 0.1318
-21 1 19 2.6423 0.4058
-21 1 20 5.3499 0.5405
-21 1 21 4.6836 0.7169
-21 1 22 1.9979 0.5169
-21 1 23 0.4268 -0.6492
-21 1 24 3.9291 -1.1420
-21 1 25 -0.3763 -0.3874
-21 3 1 -5.1035 -0.8807
-21 3 2 -1.6111 0.3452
-21 3 3 4.7420 1.3031
-21 3 4 -2.2589 0.7267
-21 3 5 4.6662 -0.4128
-21 3 6 -4.7792 -0.5200
-21 3 7 1.7000 0.0090
-21 3 8 15.4523 0.0266
-21 3 9 -10.7233 -0.3238
-21 3 10 -1.4291 -0.2205
-21 3 11 15.7536 0.0826
-21 3 12 -6.0933 0.2732
-21 3 13 -1.6527 0.3316
-21 3 14 -5.4101 0.0579
-21 3 15 10.2966 -0.4363
-21 3 16 -9.0040 -0.3897
-21 3 17 -6.1728 -0.0679
-21 3 18 1.9331 0.0675
-21 3 19 0.2882 0.2978
-21 3 20 -6.7706 0.4079
-21 3 21 2.3127 0.2233
-21 3 22 -1.2930 0.0311
-21 3 23 1.7827 0.1155
-21 3 24 0.6167 -0.2538
-21 3 25 -1.3938 -0.3750
-21 5 1 -17.0658 0.7813
-21 5 2 0.0018 0.4182
-21 5 3 13.7394 -0.2262
-21 5 4 -11.0770 -0.1056
-21 5 5 -7.4281 -0.0742
-21 5 6 6.2674 -0.0527
-21 5 7 17.1967 -0.1207
-21 5 8 -8.6685 -0.2175
-21 5 9 2.1649 -0.0440
-21 5 10 7.8283 0.1909
-21 5 11 4.8689 0.1412
-21 5 12 -4.1293 -0.1207
-21 5 13 -0.6745 -0.1237
-21 5 14 -0.7316 0.1380
-21 5 15 -4.9526 0.2095
-21 5 16 0.9529 -0.0498
-21 5 17 -6.4548 0.0352
-21 5 18 -6.0396 0.1752
-21 5 19 0.5318 -0.0382
-21 5 20 -1.3614 0.0883
-21 5 21 -2.6700 0.1917
-21 5 22 -5.4931 -0.3640
-21 5 23 6.7785 -0.5285
-21 5 24 -2.1167 0.4176
-21 5 25 1.2529 0.2916
-21 7 1 6.4640 -0.0126
-21 7 2 -2.0306 -0.4688
-21 7 3 -16.9311 -0.3800
-21 7 4 0.2252 -0.2853
-21 7 5 0.5742 0.1131
-21 7 6 -6.3321 0.0130
-21 7 7 -8.9495 0.0522
-21 7 8 6.8929 0.3601
-21 7 9 1.1475 0.3597
-21 7 10 -7.0104 0.0596
-21 7 11 5.5459 -0.1230
-21 7 12 6.5404 -0.1649
-21 7 13 -4.2832 -0.1508
-21 7 14 1.9147 -0.2222
-21 7 15 10.3308 -0.0111
-21 7 16 -5.7720 0.1450
-21 7 17 2.6435 0.0753
-21 7 18 6.4461 0.1407
-21 7 19 -1.4965 0.2029
-21 7 20 -2.9621 -0.2608
-21 7 21 4.8193 -0.5657
-21 7 22 0.3119 -0.1178
-21 7 23 -1.0153 -0.1390
-21 7 24 0.2080 -0.5061
-21 7 25 2.9627 0.4694
-21 9 1 3.0461 -0.7614
-21 9 2 -0.7604 -0.5867
-21 9 3 -3.8483 0.0646
-21 9 4 -9.4815 0.1999
-21 9 5 -0.2254 -0.3550
-21 9 6 3.4380 -0.1694
-21 9 7 -7.4328 0.3411
-21 9 8 -10.0150 0.4025
-21 9 9 7.4442 0.0956
-21 9 10 4.5693 -0.1071
-21 9 11 -6.0045 -0.1422
-21 9 12 0.4160 0.1144
-21 9 13 13.1443 0.0512
-21 9 14 1.4045 -0.1996
-21 9 15 -0.7125 -0.2766
-21 9 16 10.2962 0.3843
-21 9 17 4.1133 0.4036
-21 9 18 3.4522 -0.3566
-21 9 19 -1.4197 0.0205
-21 9 20 2.8441 0.5846
-21 9 21 3.6112 -0.1134
-21 9 22 -5.4744 -0.5216
-21 9 23 1.6032 0.5997
-21 9 24 -0.3636 -0.0108
-21 11 1 4.5479 0.6382
-21 11 2 3.1317 0.5191
-21 11 3 -0.8874 -0.2928
-21 11 4 -1.1569 -0.1656
-21 11 5 8.9896 0.4342
-21 11 6 3.4577 0.2936
-21 11 7 3.7374 -0.3422
-21 11 8 3.8982 -0.5331
-21 11 9 3.8892 -0.0196
-21 11 10 3.3225 0.2440
-21 11 11 2.8797 -0.0201
-21 11 12 2.7603 -0.2388
-21 11 13 2.6880 0.2187
-21 11 14 -2.9690 0.4703
-21 11 15 1.4247 0.1378
-21 11 16 4.8677 -0.1942
-21 11 17 -1.6059 -0.0497
-21 11 18 -3.8040 0.1947
-21 11 19 0.1499 -0.4125
-21 11 20 1.6392 -0.0559
-21 11 21 -5.9707 0.9733
-21 11 22 0.8200 0.4038
-21 11 23 -4.2201 -0.6393
-21 11 24 1.4856 1.2441
-21 13 1 -2.7339 -0.1356
-21 13 2 1.8293 -0.0689
-21 13 3 6.4403 0.4586
-21 13 4 2.4147 0.4041
-21 13 5 4.4721 -0.0208
-21 13 6 4.0559 -0.2568
-21 13 7 12.0743 0.0256
-21 13 8 4.8548 0.2329
-21 13 9 1.2326 -0.0687
-21 13 10 2.0632 -0.2810
-21 13 11 9.2316 -0.1202
-21 13 12 -3.6974 0.1594
-21 13 13 -6.2461 0.1948
-21 13 14 4.2723 -0.1104
-21 13 15 -2.8958 -0.0747
-21 13 16 -8.1870 -0.1752
-21 13 17 0.4338 -0.2679
-21 13 18 -1.8578 -0.3821
-21 13 19 -1.7834 -0.0976
-21 13 20 -5.0063 -0.2453
-21 13 21 -0.9220 -0.3510
-21 13 22 2.6315 0.7049
-21 13 23 -3.0526 -0.1133
-21 15 1 -2.4692 -0.2158
-21 15 2 1.2985 0.1286
-21 15 3 0.3450 -0.0608
-21 15 4 -0.7529 -0.2750
-21 15 5 -1.1286 -0.2037
-21 15 6 -1.3689 0.1664
-21 15 7 -1.8393 0.2819
-21 15 8 2.2514 0.1732
-21 15 9 -5.7290 0.1138
-21 15 10 1.3651 -0.0008
-21 15 11 -4.3315 -0.0403
-21 15 12 -0.6779 0.0885
-21 15 13 -1.5838 -0.1232
-21 15 14 -1.9657 -0.2294
-21 15 15 0.8844 -0.2361
-21 15 16 -4.2499 0.2985
-21 15 17 0.1184 0.3016
-21 15 18 4.0183 -0.4389
-21 15 19 -1.1282 -0.1491
-21 15 20 -1.2573 0.4982
-21 15 21 0.3289 0.1524
-21 15 22 4.7599 -1.0727
-21 17 1 1.1990 0.2310
-21 17 2 -2.3303 -0.2344
-21 17 3 -3.6695 -0.3495
-21 17 4 -2.0659 -0.0655
-21 17 5 -4.4765 0.1093
-21 17 6 -6.5803 -0.0063
-21 17 7 -5.2006 -0.0717
-21 17 8 -5.2467 0.0589
-21 17 9 -5.9064 0.0972
-21 17 10 -2.7475 0.0621
-21 17 11 -3.3873 -0.0858
-21 17 12 -3.6449 -0.2163
-21 17 13 0.1313 0.2121
-21 17 14 2.1391 0.2648
-21 17 15 -1.2066 -0.0104
-21 17 16 1.3376 0.0917
-21 17 17 4.1954 0.4834
-21 17 18 2.2668 1.0473
-21 17 19 -0.8330 -0.0859
-21 17 20 3.8836 -0.1723
-21 17 21 1.8375 0.9532
-21 19 1 -2.9926 -0.1601
-21 19 2 2.2595 0.2488
-21 19 3 -1.8890 0.2324
-21 19 4 -3.9510 -0.2894
-21 19 5 -0.9945 -0.2534
-21 19 6 0.9214 0.2314
-21 19 7 -1.8254 0.5698
-21 19 8 -3.6813 0.1285
-21 19 9 2.0611 -0.4888
-21 19 10 1.2150 -0.5394
-21 19 11 -3.6372 -0.0542
-21 19 12 4.0726 0.2646
-21 19 13 -0.8400 -0.4061
-21 19 14 -1.9428 -0.7178
-21 19 15 0.6079 -0.1684
-21 19 16 3.6482 0.0985
-21 19 17 0.3975 0.1295
-21 19 18 -3.5499 -0.2958
-21 19 19 3.0160 0.1421
-21 21 1 -0.3859 -0.0964
-21 21 2 4.8592 -0.5361
-21 21 3 -5.8416 -1.0434
-21 21 4 2.4274 -0.2793
-21 21 5 2.8363 0.4235
-21 21 6 2.3919 0.3693
-21 21 7 3.1441 0.1765
-21 21 8 3.6033 0.4125
-21 21 9 3.5362 0.3154
-21 21 10 3.5152 -0.2615
-21 21 11 5.3132 -0.5298
-21 21 12 -0.4239 -0.7342
-21 21 13 2.1158 -0.8074
-21 21 14 -1.4295 -0.9565
-21 21 15 -0.0515 -0.8732
-21 21 16 -1.1540 -0.6414
-21 21 17 -0.0348 -0.1283
-21 23 2 0.1770 -1.1057
-21 23 3 -2.0707 -0.6521
-21 23 4 2.8767 0.0212
-21 23 5 0.0908 -0.0470
-21 23 6 1.8327 -0.1536
-21 23 7 2.4099 0.3711
-21 23 8 0.5984 0.8457
-21 23 9 2.2571 0.4803
-21 23 10 3.5390 -0.0566
-21 23 11 2.5090 -0.2829
-21 23 12 -0.5074 -0.5859
-21 23 13 1.5690 -1.0843
-21 23 14 0.7731 -0.5576
-21 23 15 -0.8951 0.5924
-20 0 1 -3.5069 -6.8637
-20 0 2 -26.0290 1.1848
-20 0 3 8.3325 3.1901
-20 0 4 8.6941 0.4947
-20 0 5 -16.0140 -1.4180
-20 0 6 -14.5912 -1.3082
-20 0 7 24.4323 -0.2178
-20 0 8 -0.8647 0.4698
-20 0 9 -13.1585 0.7489
-20 0 10 16.6616 0.4790
-20 0 11 21.8614 0.3063
-20 0 12 -10.7176 0.0717
-20 0 13 0.5629 -0.3736
-20 0 14 18.6486 -0.7390
-20 0 15 -3.3670 -0.6387
-20 0 16 -15.6606 -0.2407
-20 0 17 1.0885 0.3126
-20 0 18 3.2207 0.6385
-20 0 19 -9.3822 0.6073
-20 0 20 -2.9044 0.4574
-20 0 21 -4.3225 -0.1830
-20 0 22 1.6422 -0.8193
-20 0 23 -5.6331 -0.5581
-20 0 24 2.2083 0.7517
-20 0 25 -2.9973 0.8116
-20 0 26 0.7765 -1.5602
-20 2 1 1.1486 -1.2820
-20 2 2 17.6715 -0.1949
-20 2 3 -8.0190 0.9817
-20 2 4 -12.1600 0.7325
-20 2 5 9.2947 -0.5855
-20 2 6 17.5522 -1.0962
-20 2 7 -20.9146 -0.3039
-20 2 8 -4.3165 0.7273
-20 2 9 22.6893 0.7775
-20 2 10 -1.5563 0.3803
-20 2 11 -16.0196 0.0321
-20 2 12 9.7843 -0.0772
-20 2 13 8.9262 -0.4133
-20 2 14 -13.7664 -0.5921
-20 2 15 -5.7472 -0.6881
-20 2 16 5.1468 -0.2778
-20 2 17 -8.4467 0.1212
-20 2 18 -9.1208 0.2834
-20 2 19 8.2639 0.5073
-20 2 20 -2.2719 0.0050
-20 2 21 -12.8722 -0.3792
-20 2 22 11.2689 -0.2347
-20 2 23 -1.3438 0.0188
-20 2 24 -2.6111 -0.5413
-20 2 25 -2.4589 0.0170
-20 2 26 5.9903 1.5128
-20 4 1 11.2680 0.6511
-20 4 2 3.7196 0.3930
-20 4 3 0.1838 -0.0857
-20 4 4 7.3150 -0.3362
-20 4 5 7.6241 -0.3323
-20 4 6 -4.1368 0.0486
-20 4 7 2.8828 0.1205
-20 4 8 1.3462 -0.0299
-20 4 9 -6.7033 0.2075
-20 4 10 -5.7442 0.4912
-20 4 11 -0.2589 0.2445
-20 4 12 -9.6542 -0.3664
-20 4 13 -14.3175 -0.4028
-20 4 14 1.4639 -0.1065
-20 4 15 -2.4123 0.2177
-20 4 16 -14.3605 0.0845
-20 4 17 -2.2840 -0.0674
-20 4 18 9.5863 0.1824
-20 4 19 -2.7983 0.2061
-20 4 20 -4.1641 0.2382
-20 4 21 3.5078 -0.0998
-20 4 22 9.5374 -0.3814
-20 4 23 -0.3442 -0.1256
-20 4 24 -1.4555 0.8226
-20 4 25 1.3524 0.0440
-20 4 26 5.7465 -1.1147
-20 6 1 -9.7692 -0.2328
-20 6 2 -5.1436 -0.1642
-20 6 3 3.8915 0.0490
-20 6 4 2.7426 -0.0219
-20 6 5 -6.4774 -0.0760
-20 6 6 -5.6081 -0.0659
-20 6 7 3.8149 0.2284
-20 6 8 3.1425 0.2826
-20 6 9 -6.8600 -0.0180
-20 6 10 -2.3853 -0.2615
-20 6 11 0.0850 -0.1897
-20 6 12 -0.9887 -0.0374
-20 6 13 -1.2006 0.0170
-20 6 14 -4.8756 -0.0034
-20 6 15 3.6463 0.0981
-20 6 16 0.6464 0.2517
-20 6 17 -0.4279 0.3651
-20 6 18 4.1535 0.1140
-20 6 19 1.5205 -0.2888
-20 6 20 0.1379 -0.3202
-20 6 21 4.1229 0.1064
-20 6 22 3.1167 0.3214
-20 6 23 2.8790 0.0132
-20 6 24 -1.4826 -0.4588
-20 6 25 0.2132 0.1679
-20 6 26 4.5502 0.9907
-20 8 1 -11.9396 0.1019
-20 8 2 -5.6937 -0.0027
-20 8 3 -5.1538 -0.3483
-20 8 4 -9.5808 -0.2468
-20 8 5 -5.5080 0.2416
-20 8 6 -6.0796 0.4846
-20 8 7 -2.0151 0.0601
-20 8 8 5.1633 -0.2378
-20 8 9 3.8067 -0.1060
-20 8 10 0.2998 -0.0750
-20 8 11 4.7030 -0.2465
-20 8 12 11.8114 -0.1262
-20 8 13 8.8437 -0.0692
-20 8 14 3.3250 -0.0189
-20 8 15 3.8263 0.1499
-20 8 16 12.4826 0.2396
-20 8 17 5.3031 -0.1253
-20 8 18 -4.0351 -0.2903
-20 8 19 0.5568 0.1028
-20 8 20 5.3723 -0.1329
-20 8 21 -1.4434 -0.3560
-20 8 22 -4.9968 0.1231
-20 8 23 1.8290 0.3744
-20 8 24 -1.6408 -0.4282
-20 8 25 -1.4536 -0.7034
-20 10 1 2.7711 -0.1041
-20 10 2 -4.5320 -0.1342
-20 10 3 -5.8898 0.1667
-20 10 4 0.4944 0.0714
-20 10 5 -1.2730 -0.0454
-20 10 6 0.3811 -0.0269
-20 10 7 2.0709 -0.0886
-20 10 8 -1.4195 -0.1377
-20 10 9 14.6780 -0.1117
-20 10 10 -1.8306 -0.1464
-20 10 11 9.2401 -0.0943
-20 10 12 -3.0754 0.1750
-20 10 13 13.3711 0.4253
-20 10 14 11.5265 0.1518
-20 10 15 -5.0021 -0.1544
-20 10 16 2.1440 0.0205
-20 10 17 9.5757 0.1715
-20 10 18 0.8329 -0.0184
-20 10 19 -7.5700 -0.1726
-20 10 20 -1.6270 0.1434
-20 10 21 4.6807 0.1630
-20 10 22 -6.8835 0.0578
-20 10 23 -3.7619 0.1966
-20 10 24 1.7884 0.3220
-20 10 25 -2.3156 -0.6619
-20 12 1 7.0233 0.1311
-20 12 2 13.1494 0.0190
-20 12 3 1.0358 -0.1023
-20 12 4 -3.9822 0.1878
-20 12 5 11.6348 0.0638
-20 12 6 18.8103 -0.2155
-20 12 7 -5.8854 -0.1432
-20 12 8 -2.6466 -0.1725
-20 12 9 16.6556 -0.1391
-20 12 10 3.2529 0.1772
-20 12 11 -10.6190 0.3578
-20 12 12 2.7395 0.1860
-20 12 13 0.5518 -0.0999
-20 12 14 -2.6639 0.0957
-20 12 15 0.4924 0.2483
-20 12 16 -3.5445 -0.1111
-20 12 17 -5.3537 -0.3619
-20 12 18 1.2134 -0.0159
-20 12 19 3.2596 0.1687
-20 12 20 -5.3790 0.1189
-20 12 21 -4.0983 0.2196
-20 12 22 4.2906 -0.1081
-20 12 23 1.2310 -0.2753
-20 12 24 -2.0765 1.5505
-20 14 1 2.2991 -0.1202
-20 14 2 -1.5360 -0.2435
-20 14 3 8.1578 0.0836
-20 14 4 7.6783 0.0477
-20 14 5 1.3059 -0.1984
-20 14 6 0.3899 -0.1204
-20 14 7 11.1460 0.0390
-20 14 8 7.1865 0.2618
-20 14 9 -9.8920 0.2113
-20 14 10 2.0632 0.0151
-20 14 11 7.7448 0.1152
-20 14 12 -5.4923 0.0487
-20 14 13 -9.5438 -0.1768
-20 14 14 0.9975 -0.5812
-20 14 15 1.5154 -0.2690
-20 14 16 -4.1156 0.0981
-20 14 17 -5.6951 -0.1397
-20 14 18 0.8483 -0.3065
-20 14 19 1.1447 0.0902
-20 14 20 0.6917 0.1306
-20 14 21 -2.1556 -0.2426
-20 14 22 3.1358 0.0364
-20 14 23 -0.0918 -1.0984
-20 16 1 -4.2538 -0.1450
-20 16 2 -3.7455 0.0004
-20 16 3 0.7776 0.0325
-20 16 4 4.7699 -0.1307
-20 16 5 -5.4972 -0.0464
-20 16 6 -6.5185 -0.1138
-20 16 7 5.8115 0.0248
-20 16 8 4.4659 0.2840
-20 16 9 -6.9683 0.3621
-20 16 10 -3.4112 -0.0142
-20 16 11 5.8445 -0.4404
-20 16 12 2.4840 -0.0083
-20 16 13 -6.0644 0.1984
-20 16 14 3.4041 -0.1634
-20 16 15 -0.7444 -0.5323
-20 16 16 3.5011 0.0160
-20 16 17 -0.6648 0.8911
-20 16 18 -2.2707 0.1720
-20 16 19 3.2093 -0.4895
-20 16 20 -1.6816 0.0135
-20 16 21 0.9163 0.4629
-20 16 22 -0.3209 -0.4976
-20 18 1 2.1055 -0.0434
-20 18 2 -1.9464 0.2108
-20 18 3 -3.7552 -0.1207
-20 18 4 -1.5654 0.1762
-20 18 5 2.5108 0.1886
-20 18 6 -4.7753 0.1405
-20 18 7 -3.9045 -0.0979
-20 18 8 0.5080 -0.1707
-20 18 9 1.0052 0.0058
-20 18 10 -2.2892 0.0735
-20 18 11 -6.0167 -0.1744
-20 18 12 2.5961 -0.3580
-20 18 13 3.2158 0.0822
-20 18 14 -2.9706 0.7250
-20 18 15 -2.7665 0.3652
-20 18 16 3.1923 0.1376
-20 18 17 3.6658 -0.1571
-20 18 18 -3.9707 0.6641
-20 18 19 0.3520 0.1330
-20 18 20 0.9419 -0.5621
-20 18 21 -1.5646 1.0419
-20 20 1 2.2543 0.3740
-20 20 2 3.4963 -0.3903
-20 20 3 -2.0294 -0.0190
-20 20 4 0.0201 -0.0406
-20 20 5 3.7767 0.1352
-20 20 6 1.3339 0.2427
-20 20 7 -2.2263 0.4286
-20 20 8 -0.4197 0.1718
-20 20 9 -0.8489 -0.4084
-20 20 10 2.0167 -0.4118
-20 20 11 -4.5662 0.1203
-20 20 12 -7.2098 -0.0342
-20 20 13 2.9381 -0.1976
-20 20 14 -1.3659 -0.2176
-20 20 15 -7.4538 0.7330
-20 20 16 -0.0420 0.1768
-20 20 17 1.5798 -0.0054
-20 20 18 -1.3825 -0.5232
-20 20 19 -0.1840 0.1520
-20 20 20 -1.4014 -0.0247
-20 22 1 -1.0067 -0.9767
-20 22 2 1.7926 -0.7624
-20 22 3 2.4231 -0.3860
-20 22 4 -2.8508 0.3163
-20 22 5 1.3336 -0.0126
-20 22 6 3.9444 -0.1142
-20 22 7 -1.5042 0.6090
-20 22 8 1.6019 0.7107
-20 22 9 0.1073 -0.0262
-20 22 10 -0.8611 -0.4296
-20 22 11 1.1542 -0.1269
-20 22 12 -2.4342 0.4134
-20 22 13 -3.0770 -0.3401
-20 22 14 1.7673 -0.4235
-20 22 15 -5.2441 -0.1670
-20 22 16 1.7494 1.1462
-20 22 17 -2.8132 0.4582
-20 22 18 1.4697 -1.3985
-20 24 1 -2.4546 -2.7393
-20 24 2 -3.2292 -0.3746
-20 24 3 1.5191 1.2055
-20 24 4 -1.9246 0.4937
-20 24 5 -1.6304 -0.4403
-20 24 6 -2.3840 -0.0364
-20 24 7 4.5713 0.2323
-20 24 8 1.0809 0.4551
-20 24 9 -3.0042 0.4077
-20 24 10 2.2590 0.1570
-20 24 11 4.5566 -0.0583
-20 24 12 0.2470 -0.3585
-20 24 13 -2.8758 0.8447
-20 24 14 6.6376 0.9508
-20 24 15 -3.6378 -1.2976
-20 26 5 1.8479 -1.3529
-20 26 6 -1.2389 0.9275
-20 26 7 0.6953 0.6351
-20 26 8 2.0297 -0.6567
-20 26 9 -0.5617 -0.6048
-20 26 10 2.8269 0.7919
-20 26 11 2.6338 1.2692
-19 1 1 4.7593 0.7606
-19 1 2 8.5992 -1.3572
-19 1 3 -1.7201 -1.8681
-19 1 4 1.2267 -0.7176
-19 1 5 11.5534 0.0566
-19 1 6 10.2098 -0.0998
-19 1 7 3.7929 -0.0783
-19 1 8 10.3960 0.6225
-19 1 9 14.2961 0.9516
-19 1 10 0.9646 0.4365
-19 1 11 -0.0978 -0.1759
-19 1 12 2.3743 -0.5826
-19 1 13 -4.5841 -0.6661
-19 1 14 -11.1926 -0.4065
-19 1 15 -9.5160 0.1180
-19 1 16 -8.3283 0.4858
-19 1 17 -11.0817 0.1311
-19 1 18 -12.4534 -0.3055
-19 1 19 -8.2256 -0.1966
-19 1 20 2.1974 -0.2834
-19 1 21 -6.8699 -0.4724
-19 1 22 -6.8044 -0.1418
-19 1 23 0.3138 0.0534
-19 1 24 4.1961 0.8238
-19 1 25 -0.4924 1.0098
-19 1 26 -3.2243 0.1437
-19 1 27 4.3314 -0.3330
-19 3 1 -14.4769 -0.2288
-19 3 2 -0.9315 -0.2399
-19 3 3 17.2250 -0.7881
-19 3 4 -1.6921 -1.1067
-19 3 5 -15.3272 -0.1973
-19 3 6 1.3364 0.8698
-19 3 7 13.2930 0.8163
-19 3 8 -13.8515 0.0608
-19 3 9 -14.1245 0.0763
-19 3 10 15.2129 0.4739
-19 3 11 -8.4661 0.1507
-19 3 12 -10.0374 -0.4355
-19 3 13 -2.3344 -0.6873
-19 3 14 4.4060 -0.2904
-19 3 15 -8.6952 0.0955
-19 3 16 -3.4931 0.4003
-19 3 17 7.6314 0.4675
-19 3 18 -4.0256 -0.0864
-19 3 19 -3.1985 -0.5582
-19 3 20 8.6817 -0.2560
-19 3 21 1.1221 0.0943
-19 3 22 -4.0642 -0.0781
-19 3 23 0.8146 -0.0704
-19 3 24 4.8163 0.0576
-19 3 25 -2.9229 0.2277
-19 3 26 -0.0696 0.5209
-19 5 1 11.1664 0.0053
-19 5 2 1.2076 -0.1444
-19 5 3 -15.0387 -0.3144
-19 5 4 3.5524 -0.0534
-19 5 5 -5.9571 0.0984
-19 5 6 3.5262 0.3153
-19 5 7 -32.3556 0.3018
-19 5 8 14.1409 0.1880
-19 5 9 -18.4847 -0.0690
-19 5 10 -0.5411 -0.0831
-19 5 11 -9.4823 0.0307
-19 5 12 5.9538 -0.1133
-19 5 13 -6.3257 -0.0969
-19 5 14 -5.8467 0.0266
-19 5 15 17.8831 0.2254
-19 5 16 0.5885 0.2309
-19 5 17 -7.9929 0.1415
-19 5 18 13.7758 0.2220
-19 5 19 14.3359 -0.0226
-19 5 20 -6.9719 -0.1977
-19 5 21 -1.4288 0.0567
-19 5 22 14.2027 0.1020
-19 5 23 -0.5671 0.1338
-19 5 24 -5.8361 0.1785
-19 5 25 -0.1875 -0.0041
-19 5 26 7.5489 -0.2990
-19 7 1 -2.7537 -0.0443
-19 7 2 -7.3033 -0.1162
-19 7 3 7.0320 0.2925
-19 7 4 -8.7757 0.3681
-19 7 5 -12.3471 0.1030
-19 7 6 12.8935 -0.2885
-19 7 7 -0.1106 -0.1101
-19 7 8 -15.7622 0.1315
-19 7 9 -1.3520 -0.0879
-19 7 10 22.1881 -0.5095
-19 7 11 -7.0570 -0.2365
-19 7 12 -12.0857 0.2402
-19 7 13 15.7912 0.1772
-19 7 14 10.3118 -0.1883
-19 7 15 -15.6048 -0.0781
-19 7 16 11.1824 -0.0076
-19 7 17 -0.7254 -0.1302
-19 7 18 1.5665 -0.1580
-19 7 19 -1.1021 0.0234
-19 7 20 2.0035 0.0721
-19 7 21 -0.3309 -0.0097
-19 7 22 -4.6807 0.2750
-19 7 23 4.4617 -0.0601
-19 7 24 0.4939 -0.2123
-19 7 25 -2.8395 0.5771
-19 7 26 -2.1280 -0.0099
-19 9 1 -2.5919 -0.3216
-19 9 2 3.5783 0.1314
-19 9 3 -7.8197 0.3538
-19 9 4 -7.1756 0.0842
-19 9 5 12.1705 0.0480
-19 9 6 0.9599 -0.0514
-19 9 7 -2.4505 -0.3535
-19 9 8 2.5168 -0.3007
-19 9 9 12.0708 -0.0216
-19 9 10 2.3251 0.0269
-19 9 11 1.1459 -0.2024
-19 9 12 8.2694 0.0394
-19 9 13 3.0885 0.1928
-19 9 14 0.5950 0.2262
-19 9 15 1.9437 -0.1234
-19 9 16 -0.7852 -0.3302
-19 9 17 -2.8256 -0.2360
-19 9 18 -1.1137 -0.1382
-19 9 19 -2.8355 0.1269
-19 9 20 -2.9022 0.1230
-19 9 21 -3.7561 0.0171
-19 9 22 -2.8059 -0.1934
-19 9 23 0.0862 0.2529
-19 9 24 -1.4662 0.1361
-19 9 25 -0.7054 -0.6711
-19 11 1 -2.9121 0.1431
-19 11 2 -3.1875 0.1624
-19 11 3 3.8354 -0.0119
-19 11 4 0.3873 0.1444
-19 11 5 -2.6338 -0.0691
-19 11 6 2.1756 -0.1519
-19 11 7 4.7448 -0.1102
-19 11 8 -2.8740 -0.0382
-19 11 9 1.2043 0.0422
-19 11 10 6.4965 0.0168
-19 11 11 -1.0718 0.1357
-19 11 12 -2.4128 0.1860
-19 11 13 8.0690 0.2741
-19 11 14 0.4966 0.2414
-19 11 15 -3.1234 0.0897
-19 11 16 -0.3034 -0.0547
-19 11 17 9.6227 -0.0753
-19 11 18 -5.6703 0.2088
-19 11 19 -4.5939 -0.0052
-19 11 20 2.5024 -0.1869
-19 11 21 6.3745 0.2024
-19 11 22 -10.9911 0.2352
-19 11 23 1.9619 -0.5208
-19 11 24 2.9981 0.0597
-19 11 25 -0.7710 0.5927
-19 13 1 -1.9570 0.0873
-19 13 2 -1.4977 -0.1691
-19 13 3 7.6410 -0.0694
-19 13 4 1.9878 -0.2335
-19 13 5 -4.1580 -0.0581
-19 13 6 1.7674 0.0821
-19 13 7 2.7147 0.1183
-19 13 8 1.7611 0.1160
-19 13 9 -2.7624 0.1226
-19 13 10 -0.9929 0.1438
-19 13 11 2.2884 0.0768
-19 13 12 0.1050 -0.1169
-19 13 13 -0.3755 -0.0940
-19 13 14 -0.6652 -0.1256
-19 13 15 0.2109 -0.0554
-19 13 16 3.8789 0.0325
-19 13 17 0.9621 0.1281
-19 13 18 -0.2725 0.0380
-19 13 19 2.8498 -0.1794
-19 13 20 -0.8057 0.0821
-19 13 21 4.8377 -0.1730
-19 13 22 1.2122 -0.0712
-19 13 23 -3.1624 0.2259
-19 13 24 5.2982 -0.1419
-19 15 1 3.6431 -0.1573
-19 15 2 3.9767 -0.2189
-19 15 3 1.8940 -0.3233
-19 15 4 2.0900 -0.1585
-19 15 5 5.4160 0.0089
-19 15 6 2.9260 0.0347
-19 15 7 6.5645 0.0314
-19 15 8 0.2184 0.2116
-19 15 9 5.2678 0.2813
-19 15 10 -1.1228 0.0604
-19 15 11 2.4069 -0.2631
-19 15 12 8.2829 -0.2013
-19 15 13 -10.2791 -0.3487
-19 15 14 1.1879 -0.4409
-19 15 15 6.3688 -0.2122
-19 15 16 -2.6084 0.0194
-19 15 17 -6.0882 0.1831
-19 15 18 1.3086 0.0237
-19 15 19 3.9642 0.1686
-19 15 20 -2.6731 -0.1533
-19 15 21 -2.9205 0.0922
-19 15 22 4.8567 -0.2504
-19 15 23 0.3794 0.0339
-19 17 1 0.9479 0.0111
-19 17 2 2.4146 0.2324
-19 17 3 3.3090 0.2069
-19 17 4 2.9467 -0.1255
-19 17 5 4.6188 -0.2979
-19 17 6 3.7863 0.0965
-19 17 7 7.8073 0.2714
-19 17 8 -0.0968 -0.0466
-19 17 9 -0.9691 -0.2304
-19 17 10 7.5702 -0.1160
-19 17 11 -0.9537 0.2068
-19 17 12 -3.9897 0.1429
-19 17 13 2.1805 -0.1578
-19 17 14 0.2377 -0.0923
-19 17 15 -3.7944 0.0109
-19 17 16 -2.6897 0.2073
-19 17 17 0.4289 0.1688
-19 17 18 -3.5733 0.2649
-19 17 19 -3.8862 -0.0528
-19 17 20 1.3318 -0.2748
-19 17 21 -0.7501 -0.1338
-19 17 22 -3.5586 0.9476
-19 19 1 5.2400 0.2169
-19 19 2 5.5532 -0.2971
-19 19 3 -6.3699 -0.1234
-19 19 4 2.0616 0.3519
-19 19 5 4.6938 0.4679
-19 19 6 0.1600 -0.0907
-19 19 7 -8.5461 -0.3157
-19 19 8 2.5181 -0.1337
-19 19 9 0.2890 -0.0362
-19 19 10 -6.2724 0.1016
-19 19 11 -3.4890 0.1345
-19 19 12 -5.8402 0.1129
-19 19 13 2.5525 0.3735
-19 19 14 -1.5301 0.3377
-19 19 15 -5.5376 0.3346
-19 19 16 -1.8408 0.1620
-19 19 17 1.7061 -0.1949
-19 19 18 2.0384 -0.4231
-19 19 19 -6.2153 -0.0362
-19 19 20 1.6276 0.1796
-19 19 21 1.5393 -0.9000
-19 21 1 2.9166 -0.9361
-19 21 2 -2.2252 -0.5108
-19 21 3 0.4406 0.2815
-19 21 4 -2.2319 0.4828
-19 21 5 -4.4189 -0.1784
-19 21 6 0.4644 -0.3343
-19 21 7 -7.8901 0.0558
-19 21 8 -4.9741 0.3172
-19 21 9 -1.9609 0.2398
-19 21 10 -2.1546 -0.1105
-19 21 11 -8.0835 -0.2050
-19 21 12 -3.1362 0.2970
-19 21 13 0.5105 0.5769
-19 21 14 1.2973 0.4225
-19 21 15 -4.6133 -0.1391
-19 21 16 1.9493 -0.2232
-19 21 17 2.9409 0.2585
-19 21 18 -0.0984 0.3539
-19 21 19 0.8209 -0.7570
-19 21 20 2.2742 -0.8533
-19 23 1 -4.1286 0.6761
-19 23 2 -0.2663 0.7098
-19 23 3 1.7612 -0.0072
-19 23 4 -3.6100 -0.8120
-19 23 5 -1.6267 -0.2388
-19 23 6 -1.6371 0.5732
-19 23 7 0.3259 0.3261
-19 23 8 -1.1089 -0.3202
-19 23 9 -1.7957 -0.1098
-19 23 10 -0.6773 0.5993
-19 23 11 2.1105 0.4382
-19 23 12 -0.7727 -0.3466
-19 23 13 -0.1834 -0.0484
-19 23 14 -0.1110 0.6804
-19 23 15 5.7588 0.4918
-19 23 16 -0.9310 -0.6734
-19 23 17 1.4627 -0.1636
-19 23 18 -0.2914 1.9082
-19 25 1 0.6253 1.9696
-19 25 2 -3.1296 0.5809
-19 25 3 1.4154 -0.7053
-19 25 4 2.5832 0.0890
-19 25 5 -2.5524 0.3163
-19 25 6 2.8897 0.0472
-19 25 7 1.8903 -0.0385
-19 25 8 7.5076 -0.0945
-19 25 9 -3.3879 -0.2859
-19 25 10 3.1717 0.0626
-19 25 11 3.2789 0.7832
-19 25 12 4.2142 0.3497
-19 25 13 -2.9909 -1.1831
-19 25 14 0.0294 -0.8013
-19 25 15 6.9292 2.3056
-19 27 4 0.2521 1.5769
-19 27 5 1.3774 -0.0651
-19 27 6 1.2830 -0.8959
-19 27 7 3.8014 0.0411
-19 27 8 1.0498 0.7191
-19 27 9 2.7162 -0.1800
-19 27 10 0.2962 -1.0411
-19 27 11 1.3397 0.3327
-18 0 1 0.2687 4.8154
-18 0 2 28.9548 -1.4417
-18 0 3 -1.3029 -2.8969
-18 0 4 4.8843 -1.4697
-18 0 5 27.2115 0.2982
-18 0 6 36.8627 0.9310
-18 0 7 -15.7894 0.6391
-18 0 8 -6.8818 -0.0707
-18 0 9 37.5158 -0.4281
-18 0 10 3.1705 -0.2785
-18 0 11 -41.5182 -0.3600
-18 0 12 16.7876 -0.2024
-18 0 13 -4.7280 0.3028
-18 0 14 -14.3970 0.5241
-18 0 15 -23.6429 0.4478
-18 0 16 2.9807 0.2980
-18 0 17 1.1925 0.0707
-18 0 18 -14.7609 -0.5903
-18 0 19 -9.7508 -0.9381
-18 0 20 6.9551 -0.5075
-18 0 21 2.7226 0.2127
-18 0 22 -2.9713 0.3930
-18 0 23 2.6362 0.4867
-18 0 24 2.9034 0.9529
-18 0 25 3.5843 0.7883
-18 0 26 0.7404 -0.5834
-18 0 27 1.2578 -2.6823
-18 2 1 13.7058 -1.4477
-18 2 2 -17.0919 -0.6606
-18 2 3 7.9678 -0.4117
-18 2 4 18.2388 -0.8684
-18 2 5 7.6835 -0.5495
-18 2 6 -9.4791 0.6339
-18 2 7 17.8052 1.0891
-18 2 8 15.5602 0.3400
-18 2 9 -9.9777 -0.3325
-18 2 10 -4.9277 -0.6756
-18 2 11 21.9946 -0.5462
-18 2 12 -1.7944 0.0015
-18 2 13 -29.1144 0.2942
-18 2 14 17.4449 0.3645
-18 2 15 4.5817 0.2320
-18 2 16 -19.1000 0.2307
-18 2 17 -4.3547 -0.0168
-18 2 18 13.9973 -0.4876
-18 2 19 -9.0160 -0.5685
-18 2 20 -10.1415 -0.3210
-18 2 21 8.7564 -0.3983
-18 2 22 1.8783 0.1874
-18 2 23 -5.8692 0.9248
-18 2 24 1.0176 0.7735
-18 2 25 3.4372 -0.7240
-18 2 26 0.3701 -0.7290
-18 2 27 -2.7870 1.7261
-18 4 1 -24.4902 -0.6512
-18 4 2 -1.0108 -0.8886
-18 4 3 13.3834 -0.2196
-18 4 4 -15.5586 0.4555
-18 4 5 -23.6974 0.1334
-18 4 6 11.9899 -0.1012
-18 4 7 3.3111 0.3175
-18 4 8 -7.5694 0.6899
-18 4 9 1.2658 0.1127
-18 4 10 7.4378 -0.5740
-18 4 11 4.6985 -0.4720
-18 4 12 7.5251 0.0048
-18 4 13 10.9740 0.4601
-18 4 14 -8.3377 0.4659
-18 4 15 8.8095 0.1567
-18 4 16 16.6438 -0.0006
-18 4 17 -7.5575 0.1032
-18 4 18 -9.7015 0.1218
-18 4 19 16.4020 -0.2541
-18 4 20 2.4737 -0.5445
-18 4 21 -14.4774 0.1606
-18 4 22 -2.3927 0.3748
-18 4 23 6.6913 -0.0905
-18 4 24 -2.2732 -0.3351
-18 4 25 -8.7297 0.5684
-18 4 26 1.5343 0.8567
-18 4 27 1.4413 -2.4703
-18 6 1 -5.3561 0.2051
-18 6 2 1.7676 -0.0067
-18 6 3 -7.3077 0.0751
-18 6 4 -3.9853 0.1369
-18 6 5 -7.6225 0.2110
-18 6 6 -17.9653 0.1412
-18 6 7 7.5523 0.0267
-18 6 8 -1.0910 -0.1231
-18 6 9 -11.9716 -0.1038
-18 6 10 -1.9065 0.1316
-18 6 11 9.2019 0.0954
-18 6 12 2.0846 -0.1139
-18 6 13 -4.2516 -0.0446
-18 6 14 -0.9496 0.0782
-18 6 15 5.4169 0.1345
-18 6 16 0.1462 -0.0989
-18 6 17 -4.2711 -0.2139
-18 6 18 0.9284 -0.0081
-18 6 19 0.6278 0.1413
-18 6 20 2.9064 0.3481
-18 6 21 -2.2380 -0.1600
-18 6 22 -3.8681 -0.2858
-18 6 23 0.9511 0.2614
-18 6 24 -0.4486 0.3893
-18 6 25 0.6905 -0.3002
-18 6 26 -3.3027 -1.0882
-18 6 27 2.0982 3.3618
-18 8 1 20.9488 0.1045
-18 8 2 -3.5121 0.2412
-18 8 3 -12.4615 0.0197
-18 8 4 5.4886 0.1544
-18 8 5 16.2612 0.2853
-18 8 6 -19.9312 -0.1825
-18 8 7 -7.9705 -0.5321
-18 8 8 5.3555 -0.0830
-18 8 9 -5.5244 0.2556
-18 8 10 -12.6458 0.0095
-18 8 11 -0.5232 -0.0902
-18 8 12 -9.5395 0.1090
-18 8 13 -3.1782 -0.0397
-18 8 14 -3.7770 -0.3055
-18 8 15 -8.6454 -0.4708
-18 8 16 -7.8011 -0.2893
-18 8 17 -0.4307 -0.0016
-18 8 18 2.7429 -0.0017
-18 8 19 -4.8176 0.2182
-18 8 20 -3.5197 0.1700
-18 8 21 8.9604 0.2039
-18 8 22 1.3729 -0.1244
-18 8 23 -5.3321 -0.1197
-18 8 24 0.8505 0.5064
-18 8 25 6.8782 0.4037
-18 8 26 -1.0644 -1.8722
-18 10 1 -4.8071 0.2900
-18 10 2 7.9838 0.3781
-18 10 3 5.7638 0.0516
-18 10 4 -15.0646 -0.2165
-18 10 5 -2.1258 -0.0486
-18 10 6 19.8751 0.0800
-18 10 7 -16.2399 -0.0718
-18 10 8 -12.9658 -0.3699
-18 10 9 9.0914 -0.1727
-18 10 10 2.6876 0.2553
-18 10 11 -17.2774 0.3827
-18 10 12 -0.5941 0.1013
-18 10 13 6.5441 -0.2438
-18 10 14 -3.7025 -0.1458
-18 10 15 -13.1664 0.1281
-18 10 16 7.3452 0.0452
-18 10 17 4.5625 -0.1126
-18 10 18 -8.8617 0.0626
-18 10 19 1.2701 0.1002
-18 10 20 8.5682 0.0684
-18 10 21 -2.6241 0.0132
-18 10 22 -1.3143 0.2449
-18 10 23 1.1750 0.0604
-18 10 24 2.1320 -0.3374
-18 10 25 -0.4584 -0.8510
-18 10 26 -0.0240 2.9648
-18 12 1 -6.0693 -0.1497
-18 12 2 -11.3003 0.1466
-18 12 3 0.8877 0.1199
-18 12 4 -0.9427 -0.0649
-18 12 5 -13.2335 -0.1796
-18 12 6 -0.3565 0.0928
-18 12 7 4.8227 0.1582
-18 12 8 1.1185 -0.0302
-18 12 9 -3.0351 -0.1257
-18 12 10 0.2443 0.1074
-18 12 11 10.8430 0.2235
-18 12 12 9.2803 -0.0817
-18 12 13 -9.7066 -0.0142
-18 12 14 12.1561 0.2485
-18 12 15 9.6420 0.2215
-18 12 16 -5.6295 0.1646
-18 12 17 3.8640 0.0448
-18 12 18 8.2628 -0.1175
-18 12 19 -2.3882 -0.1534
-18 12 20 -1.3353 -0.0190
-18 12 21 2.2184 -0.2427
-18 12 22 1.3084 -0.3364
-18 12 23 -2.9401 0.4550
-18 12 24 -2.1957 0.4224
-18 12 25 2.1167 -0.8637
-18 14 1 -13.4607 0.0230
-18 14 2 -5.0980 -0.0482
-18 14 3 5.5211 -0.0977
-18 14 4 0.3240 -0.1592
-18 14 5 -8.6994 -0.0097
-18 14 6 2.6088 0.0040
-18 14 7 8.4256 0.1619
-18 14 8 -2.3608 0.4233
-18 14 9 3.6718 0.1715
-18 14 10 9.8880 -0.2343
-18 14 11 -1.0108 -0.3317
-18 14 12 4.5718 -0.0894
-18 14 13 10.4324 -0.0012
-18 14 14 -2.6663 -0.0598
-18 14 15 3.9517 -0.0027
-18 14 16 3.6123 0.0344
-18 14 17 -2.3810 0.1037
-18 14 18 1.4695 0.1553
-18 14 19 3.5907 -0.2427
-18 14 20 -3.5330 -0.4787
-18 14 21 -1.5159 0.0875
-18 14 22 1.5808 0.6150
-18 14 23 3.1496 0.1363
-18 14 24 -4.2774 -1.0627
-18 16 1 8.5683 0.0324
-18 16 2 0.1785 -0.1559
-18 16 3 2.9252 -0.3042
-18 16 4 9.3040 -0.1161
-18 16 5 11.3599 0.1414
-18 16 6 -3.8373 0.0935
-18 16 7 -0.2462 -0.0514
-18 16 8 14.8657 0.0664
-18 16 9 -3.1607 0.3115
-18 16 10 -4.0277 0.0024
-18 16 11 5.5192 -0.3540
-18 16 12 -4.2738 -0.2509
-18 16 13 0.7885 -0.1357
-18 16 14 -3.0323 -0.0456
-18 16 15 -0.8736 0.1949
-18 16 16 -3.1831 0.0746
-18 16 17 -3.7252 -0.0433
-18 16 18 1.4085 -0.2480
-18 16 19 -0.0442 0.3974
-18 16 20 -3.0857 0.6674
-18 16 21 1.3518 0.0017
-18 16 22 3.1821 -0.5625
-18 16 23 0.2295 0.1227
-18 16 24 1.3608 2.5769
-18 18 1 7.4233 0.0643
-18 18 2 6.2747 -0.0145
-18 18 3 0.1621 0.0587
-18 18 4 8.6034 0.0902
-18 18 5 2.0507 -0.1175
-18 18 6 3.6030 -0.1296
-18 18 7 2.1451 0.0623
-18 18 8 -1.1698 0.0625
-18 18 9 -2.3512 -0.0954
-18 18 10 -0.6835 -0.1511
-18 18 11 -0.5395 -0.0288
-18 18 12 -5.2241 0.0992
-18 18 13 -4.6501 0.2615
-18 18 14 -0.8933 0.1497
-18 18 15 -1.0378 -0.4289
-18 18 16 -3.6582 -0.0989
-18 18 17 -1.5352 0.2474
-18 18 18 -2.0783 0.0751
-18 18 19 1.2867 -0.6634
-18 18 20 1.6251 -0.3616
-18 18 21 -0.3281 1.1683
-18 18 22 0.3956 0.5169
-18 20 1 -4.8113 0.0151
-18 20 2 5.1607 -0.0926
-18 20 3 1.9330 -0.0216
-18 20 4 -12.4203 -0.0706
-18 20 5 -0.6203 -0.1806
-18 20 6 4.9896 -0.0743
-18 20 7 -3.0767 0.0477
-18 20 8 -10.4684 0.0288
-18 20 9 1.2622 -0.2325
-18 20 10 3.1688 -0.1072
-18 20 11 -3.3125 0.2305
-18 20 12 -1.9857 0.2738
-18 20 13 0.8365 0.0691
-18 20 14 0.8425 -0.1735
-18 20 15 -0.1756 -0.0354
-18 20 16 1.0341 -0.2531
-18 20 17 1.8578 -0.5602
-18 20 18 -2.7263 -0.1101
-18 20 19 -0.5820 -0.1539
-18 20 20 4.8673 -0.5244
-18 20 21 -1.8857 -1.0965
-18 22 1 0.4757 -0.4166
-18 22 2 -3.6139 -0.1992
-18 22 3 -1.5245 0.0951
-18 22 4 -5.6363 -0.2340
-18 22 5 -2.0094 -0.1428
-18 22 6 -2.4465 -0.1154
-18 22 7 -2.6726 -0.1112
-18 22 8 -2.6618 -0.1017
-18 22 9 -2.7699 0.1850
-18 22 10 1.1667 0.2118
-18 22 11 3.3340 0.0176
-18 22 12 -1.6954 0.0833
-18 22 13 0.9919 -0.0910
-18 22 14 6.3467 -0.2843
-18 22 15 0.2005 0.1040
-18 22 16 0.0967 0.3274
-18 22 17 2.6822 0.0288
-18 22 18 0.8843 -1.0191
-18 22 19 -0.3543 0.2127
-18 22 20 -2.4885 2.8324
-18 24 1 -2.0975 0.6184
-18 24 2 -1.8014 0.3269
-18 24 3 2.2799 -0.1120
-18 24 4 3.5646 0.2249
-18 24 5 -1.9381 -0.3555
-18 24 6 3.0963 -0.2547
-18 24 7 -3.3187 -0.0399
-18 24 8 1.6992 0.1075
-18 24 9 -0.0166 0.0555
-18 24 10 -0.7732 -0.0458
-18 24 11 -0.6595 -0.0076
-18 24 12 -1.2441 -0.1266
-18 24 13 6.4647 -0.2736
-18 24 14 -3.6839 -0.2144
-18 24 15 2.7827 -0.3212
-18 24 16 1.8723 0.3658
-18 24 17 0.2007 0.8439
-18 24 18 0.2506 -0.5208
-18 26 1 -0.0717 -0.1554
-18 26 2 0.2535 -0.0666
-18 26 3 -0.9181 0.1433
-18 26 4 8.7013 -0.3239
-18 26 5 0.5910 -0.0247
-18 26 6 -2.1604 -0.3907
-18 26 7 4.1572 -0.0968
-18 26 8 1.4311 0.3175
-18 26 9 0.8148 0.1704
-18 26 10 -5.0460 -0.3731
-18 26 11 -0.6496 -0.7750
-18 26 12 3.8618 -0.7285
-18 26 13 -4.5271 -0.0722
-18 26 14 -0.4021 -0.5493
-18 26 15 2.7082 -1.8036
-18 28 3 -0.4799 0.0605
-18 28 4 -0.6163 -0.6322
-18 28 5 2.5698 -0.7461
-18 28 6 -0.4557 -0.1282
-18 28 7 -0.0275 0.3068
-18 28 8 -0.0794 0.5579
-18 28 9 2.5608 0.2749
-18 28 10 -2.0154 -0.3884
-18 28 11 -3.0215 -1.3627
-17 1 1 3.3928 -0.9406
-17 1 2 2.0910 -0.0718
-17 1 3 26.5875 1.0246
-17 1 4 -0.1140 0.9614
-17 1 5 -8.4924 0.4379
-17 1 6 24.7571 -0.0614
-17 1 7 6.1570 -0.4663
-17 1 8 -9.9226 -0.5069
-17 1 9 -1.5099 -0.4220
-17 1 10 10.2400 -0.6676
-17 1 11 0.4777 -0.6004
-17 1 12 -8.0054 0.2613
-17 1 13 3.1942 1.0502
-17 1 14 12.5101 0.8527
-17 1 15 -2.4932 0.0703
-17 1 16 -5.6023 -0.3601
-17 1 17 11.7911 -0.4160
-17 1 18 2.3322 -0.5828
-17 1 19 -5.2001 -0.3566
-17 1 20 4.6755 0.0625
-17 1 21 2.5192 0.4966
-17 1 22 -2.3981 0.4632
-17 1 23 1.4559 -0.2352
-17 1 24 2.3111 -0.1710
-17 1 25 -0.7431 -0.2175
-17 1 26 1.1558 -0.0639
-17 1 27 -6.4719 -0.7879
-17 3 1 9.0597 -0.4536
-17 3 2 14.2915 0.2599
-17 3 3 -12.1067 -0.1506
-17 3 4 -1.8380 0.0268
-17 3 5 29.5018 0.6021
-17 3 6 7.0987 0.3171
-17 3 7 -4.9827 -0.5268
-17 3 8 15.7354 -0.7554
-17 3 9 24.5814 -0.1318
-17 3 10 -5.6104 -0.0677
-17 3 11 -0.2184 -0.3252
-17 3 12 22.2910 0.0796
-17 3 13 -3.7897 0.6000
-17 3 14 -5.8872 0.5952
-17 3 15 3.9440 0.2591
-17 3 16 4.0730 -0.0133
-17 3 17 -14.6810 -0.3761
-17 3 18 1.7340 -0.5670
-17 3 19 0.7842 -0.2301
-17 3 20 -8.5821 0.4497
-17 3 21 -6.4558 0.3288
-17 3 22 1.9907 -0.1972
-17 3 23 2.0914 -0.0755
-17 3 24 -9.9741 0.4138
-17 3 25 2.2754 0.0402
-17 3 26 2.5853 -0.4674
-17 3 27 -3.0950 -0.7284
-17 5 1 -7.2984 -0.2613
-17 5 2 -19.3610 -0.2570
-17 5 3 19.1475 0.1529
-17 5 4 -4.5191 0.2178
-17 5 5 8.7095 -0.1274
-17 5 6 -22.5281 -0.1539
-17 5 7 34.5715 0.0456
-17 5 8 8.7078 0.0277
-17 5 9 -18.8715 -0.2183
-17 5 10 20.0766 -0.0503
-17 5 11 16.2204 0.2457
-17 5 12 -18.6188 0.1805
-17 5 13 -0.3104 0.1821
-17 5 14 9.9449 0.1778
-17 5 15 -11.6440 0.0686
-17 5 16 -16.2541 0.0212
-17 5 17 4.6255 -0.0490
-17 5 18 -0.4297 -0.0660
-17 5 19 -13.8691 -0.1511
-17 5 20 -6.5493 -0.1704
-17 5 21 7.3703 0.0175
-17 5 22 -4.8264 0.1233
-17 5 23 -6.0785 0.1258
-17 5 24 2.3335 -0.2771
-17 5 25 -0.3073 0.1916
-17 5 26 -0.0475 -0.0561
-17 5 27 2.1832 0.5234
-17 7 1 -10.3060 0.5710
-17 7 2 8.3601 0.0585
-17 7 3 6.7956 -0.0376
-17 7 4 -25.5593 0.0427
-17 7 5 6.2163 0.0295
-17 7 6 -9.5071 0.0370
-17 7 7 -19.4896 0.0533
-17 7 8 3.7202 0.1906
-17 7 9 -11.5293 0.0722
-17 7 10 -7.6121 0.1580
-17 7 11 -14.5807 0.2258
-17 7 12 1.7808 0.0109
-17 7 13 -6.4212 -0.3106
-17 7 14 -19.9503 -0.3728
-17 7 15 5.2994 -0.0922
-17 7 16 -1.8841 0.0244
-17 7 17 -4.9332 0.0549
-17 7 18 -5.0903 -0.0456
-17 7 19 10.8333 0.0579
-17 7 20 -0.2918 0.0486
-17 7 21 -3.3341 -0.0599
-17 7 22 11.1619 -0.1298
-17 7 23 -1.6037 -0.1611
-17 7 24 0.7103 0.1283
-17 7 25 -1.8627 0.3498
-17 7 26 6.1841 0.4811
-17 7 27 1.0428 -0.0067
-17 9 1 4.2836 -0.0596
-17 9 2 3.3293 0.3475
-17 9 3 -4.9016 0.0507
-17 9 4 -2.6959 -0.1938
-17 9 5 -17.7735 -0.0670
-17 9 6 -6.2702 -0.0987
-17 9 7 -9.2883 0.1522
-17 9 8 -20.9532 0.1517
-17 9 9 -14.4381 0.1915
-17 9 10 5.6009 -0.0285
-17 9 11 -20.1075 -0.0875
-17 9 12 -14.1778 0.0359
-17 9 13 0.9991 -0.1943
-17 9 14 6.2214 -0.3761
-17 9 15 -11.8313 -0.2484
-17 9 16 -3.4843 0.0681
-17 9 17 18.7777 0.2627
-17 9 18 2.1629 0.2580
-17 9 19 -6.8219 0.1283
-17 9 20 11.0699 0.1615
-17 9 21 14.0868 0.0197
-17 9 22 -3.1024 -0.1535
-17 9 23 -3.5682 -0.0103
-17 9 24 7.5330 0.3878
-17 9 25 2.6678 -0.1392
-17 9 26 -5.0586 0.6926
-17 11 1 -0.0262 0.0508
-17 11 2 2.3073 -0.2722
-17 11 3 -8.3682 -0.0657
-17 11 4 -10.3348 0.1834
-17 11 5 6.1097 -0.1899
-17 11 6 2.0582 -0.2265
-17 11 7 -10.5902 -0.0598
-17 11 8 -7.5134 0.1164
-17 11 9 12.6485 -0.0094
-17 11 10 0.4234 -0.0728
-17 11 11 -3.6333 -0.0536
-17 11 12 -2.2163 -0.1228
-17 11 13 4.3966 0.1093
-17 11 14 7.7121 0.2712
-17 11 15 0.5354 -0.0097
-17 11 16 -2.6364 -0.1112
-17 11 17 3.5845 0.0445
-17 11 18 8.8018 0.2817
-17 11 19 -0.7425 0.2487
-17 11 20 -3.0847 -0.2678
-17 11 21 3.3909 -0.3314
-17 11 22 3.3035 0.1902
-17 11 23 -1.8420 0.2817
-17 11 24 -3.8035 -0.1474
-17 11 25 1.5500 0.4089
-17 11 26 0.6546 -0.4374
-17 13 1 0.9640 0.2232
-17 13 2 -4.4765 0.0020
-17 13 3 -6.4027 -0.2489
-17 13 4 -4.4452 -0.1075
-17 13 5 5.9920 0.2690
-17 13 6 5.7253 0.0897
-17 13 7 -1.0336 -0.1506
-17 13 8 8.6721 -0.0591
-17 13 9 10.9147 0.0162
-17 13 10 3.1598 -0.0035
-17 13 11 10.3065 -0.0997
-17 13 12 9.0134 0.0291
-17 13 13 -2.0704 0.1810
-17 13 14 3.5940 0.0415
-17 13 15 8.1810 0.0802
-17 13 16 0.8497 0.1440
-17 13 17 -9.0014 -0.1132
-17 13 18 1.0331 -0.4689
-17 13 19 3.4346 -0.3518
-17 13 20 -3.3658 0.2394
-17 13 21 -7.2819 -0.0730
-17 13 22 -0.6024 -0.4829
-17 13 23 2.4516 0.3401
-17 13 24 -1.6973 0.4552
-17 13 25 -3.5393 0.0914
-17 15 1 1.0021 -0.2344
-17 15 2 -18.3297 -0.0282
-17 15 3 5.0001 0.0223
-17 15 4 16.1980 0.0604
-17 15 5 -16.1385 0.0962
-17 15 6 -8.4826 0.0765
-17 15 7 18.5567 0.0751
-17 15 8 3.7297 0.0721
-17 15 9 -12.1519 0.0204
-17 15 10 4.5518 -0.0454
-17 15 11 13.3198 -0.0090
-17 15 12 0.7901 0.0291
-17 15 13 -5.8338 -0.0061
-17 15 14 5.5053 0.0938
-17 15 15 2.5267 0.0787
-17 15 16 1.3829 0.0073
-17 15 17 -1.5650 0.0144
-17 15 18 -3.0912 -0.0134
-17 15 19 0.8458 -0.2024
-17 15 20 2.4823 -0.1547
-17 15 21 -3.2003 0.4160
-17 15 22 -1.6001 0.4798
-17 15 23 2.3811 -0.1666
-17 15 24 -0.5512 0.6346
-17 17 1 -1.9497 0.2093
-17 17 2 7.9842 0.0237
-17 17 3 -2.7129 -0.0014
-17 17 4 1.4006 0.0949
-17 17 5 3.5360 -0.0366
-17 17 6 -3.6512 -0.0176
-17 17 7 -5.7276 0.0494
-17 17 8 1.3470 -0.0648
-17 17 9 0.5124 -0.0769
-17 17 10 -5.2432 0.0174
-17 17 11 -6.8098 0.1049
-17 17 12 5.6069 0.0002
-17 17 13 3.4495 -0.1549
-17 17 14 -9.6799 0.0312
-17 17 15 2.0256 0.3331
-17 17 16 7.2511 0.0563
-17 17 17 -0.8892 -0.0288
-17 17 18 -1.4271 -0.0441
-17 17 19 2.3154 0.3005
-17 17 20 5.2674 -0.0610
-17 17 21 -1.3264 0.0779
-17 17 22 1.7097 0.6985
-17 17 23 2.4267 0.2160
-17 17 24 0.8632 -1.0628
-17 19 1 8.0528 -0.1900
-17 19 2 2.6170 0.0042
-17 19 3 -2.9059 0.1882
-17 19 4 0.0797 -0.0084
-17 19 5 9.8589 -0.1872
-17 19 6 1.3240 -0.2152
-17 19 7 -4.3112 -0.0036
-17 19 8 5.3585 0.0701
-17 19 9 -0.0818 -0.0547
-17 19 10 1.7658 -0.1344
-17 19 11 1.3250 -0.0495
-17 19 12 -7.4961 -0.0530
-17 19 13 4.2501 0.0419
-17 19 14 3.1618 -0.1936
-17 19 15 -8.9245 -0.3802
-17 19 16 0.0818 0.1486
-17 19 17 4.7348 -0.0758
-17 19 18 -0.4870 -0.3584
-17 19 19 -3.6866 -0.5189
-17 19 20 1.7545 0.2477
-17 19 21 3.7346 -0.2227
-17 19 22 0.1707 -0.7839
-17 21 1 -2.1562 0.2576
-17 21 2 2.8588 0.1464
-17 21 3 2.8225 -0.3901
-17 21 4 -2.1995 -0.5229
-17 21 5 1.7326 0.0378
-17 21 6 7.5733 0.2480
-17 21 7 3.3475 -0.1740
-17 21 8 -0.8721 -0.1501
-17 21 9 4.9632 0.0944
-17 21 10 4.1966 0.2407
-17 21 11 3.5471 -0.1005
-17 21 12 -3.9928 -0.2246
-17 21 13 3.0070 -0.3218
-17 21 14 -0.7225 -0.1090
-17 21 15 -2.5220 -0.0851
-17 21 16 -2.3711 -0.1462
-17 21 17 -1.9663 -0.0571
-17 21 18 -1.4769 0.2136
-17 21 19 -0.8397 -0.4059
-17 21 20 -2.4120 -0.4306
-17 21 21 -1.3176 0.8836
-17 23 1 -1.5734 0.3439
-17 23 2 0.4247 -0.3457
-17 23 3 3.0641 -0.2025
-17 23 4 3.6309 0.2897
-17 23 5 -7.6966 0.1048
-17 23 6 2.0278 -0.2829
-17 23 7 2.2143 -0.2008
-17 23 8 -0.5855 0.1143
-17 23 9 -3.6311 0.2931
-17 23 10 0.0831 -0.1447
-17 23 11 0.4208 -0.2184
-17 23 12 4.6762 -0.0186
-17 23 13 -5.1285 -0.0603
-17 23 14 1.0434 -0.1584
-17 23 15 2.5678 0.5325
-17 23 16 -2.1734 0.0452
-17 23 17 -0.7756 0.5633
-17 23 18 -0.0019 0.4757
-17 23 19 -2.3022 1.3786
-17 23 20 0.6978 -1.0021
-17 25 1 0.2827 -0.9209
-17 25 2 0.8744 -0.0387
-17 25 3 -1.0902 0.6738
-17 25 4 2.9515 0.5577
-17 25 5 -2.5825 -0.1968
-17 25 6 -4.6124 -0.2478
-17 25 7 -2.3356 0.2088
-17 25 8 -2.9386 0.0920
-17 25 9 -4.0110 -0.3568
-17 25 10 -5.3052 -0.3647
-17 25 11 -0.4160 -0.0697
-17 25 12 0.7659 -0.2569
-17 25 13 -2.8181 0.0166
-17 25 14 4.8466 0.1160
-17 25 15 -0.6768 -0.4874
-17 25 16 2.4150 0.9705
-17 25 17 1.4005 0.0979
-17 25 18 0.9762 -0.3810
-17 27 1 4.4045 -0.5445
-17 27 2 -0.1876 -0.9661
-17 27 3 -4.6715 -0.4381
-17 27 4 0.7672 -0.2808
-17 27 5 1.8791 0.4362
-17 27 6 -1.0316 0.5678
-17 27 7 -5.9244 0.0575
-17 27 8 2.6062 -0.2860
-17 27 9 -6.2505 -0.2245
-17 27 10 3.3557 0.1312
-17 27 11 -4.4673 -0.4648
-17 27 12 1.2564 -0.4218
-17 27 13 -0.6608 -0.4065
-17 27 14 3.0695 -0.2843
-17 27 15 2.3967 -0.7527
-17 29 2 -2.2004 -2.4173
-17 29 3 0.4304 -2.2158
-17 29 4 0.2488 0.1584
-17 29 5 -1.4514 0.6602
-17 29 6 2.6474 0.1945
-17 29 7 1.0604 0.0620
-17 29 8 0.7868 0.2042
-17 29 9 0.1879 0.3878
-17 29 10 -0.5121 0.3124
-17 29 11 4.4551 -0.0291
-16 0 1 13.8919 -4.6300
-16 0 2 9.5132 4.1877
-16 0 3 -26.7927 4.1998
-16 0 4 -1.4488 1.1247
-16 0 5 0.5949 0.4524
-16 0 6 -1.2950 0.1724
-16 0 7 -5.6858 -1.0487
-16 0 8 -2.5490 -1.2873
-16 0 9 21.2967 -0.6457
-16 0 10 -14.3747 -0.0359
-16 0 11 13.9718 0.2682
-16 0 12 26.6969 0.7453
-16 0 13 -12.8409 0.6219
-16 0 14 13.9077 -0.1098
-16 0 15 28.2096 -0.4778
-16 0 16 -3.6168 -0.2724
-16 0 17 -14.6831 0.0131
-16 0 18 19.6988 -0.0824
-16 0 19 3.3575 -0.0414
-16 0 20 -19.8859 0.2961
-16 0 21 1.3510 0.4112
-16 0 22 6.3134 -0.0190
-16 0 24 -2.1864 -0.5558
-16 0 25 1.8956 -0.4172
-16 0 26 -3.9587 -0.2093
-16 0 27 -1.0789 1.3571
-16 0 28 -0.3396 1.9193
-16 2 1 -20.8122 0.0367
-16 2 2 11.8143 2.1557
-16 2 3 10.8744 1.4616
-16 2 4 1.1941 0.7370
-16 2 5 -18.8757 0.5821
-16 2 6 32.2530 0.0221
-16 2 7 -1.1941 -0.8670
-16 2 8 -14.3505 -1.2997
-16 2 9 14.3446 -0.5106
-16 2 10 20.6961 0.1206
-16 2 11 -19.1531 0.4104
-16 2 12 0.1800 0.5230
-16 2 13 25.2292 0.1959
-16 2 14 -4.7758 -0.1982
-16 2 15 -10.3822 -0.2323
-16 2 16 8.0055 -0.0552
-16 2 17 10.8068 -0.0792
-16 2 18 -15.5399 -0.0543
-16 2 19 -6.0987 0.0881
-16 2 20 9.5561 0.4257
-16 2 21 -2.8908 0.4693
-16 2 22 -11.6025 0.0125
-16 2 23 2.2151 -0.4169
-16 2 24 5.1039 -0.4151
-16 2 25 -6.1495 -0.7145
-16 2 26 -1.9334 0.1748
-16 2 27 2.9672 0.0735
-16 2 28 0.8681 -0.5404
-16 4 1 12.7008 0.2886
-16 4 2 -17.1673 -0.4396
-16 4 3 15.6289 0.0129
-16 4 4 36.3021 0.1895
-16 4 5 3.6990 -0.1880
-16 4 6 -10.7001 -0.4087
-16 4 7 17.1831 -0.4012
-16 4 8 24.8297 -0.3867
-16 4 9 -18.3914 -0.3924
-16 4 10 -6.3218 0.0534
-16 4 11 10.3470 0.5663
-16 4 12 -8.6817 0.3402
-16 4 13 -19.5547 -0.0559
-16 4 14 -0.4970 -0.0674
-16 4 15 -6.9693 0.0655
-16 4 16 -9.3868 -0.0480
-16 4 17 -8.1200 -0.1630
-16 4 18 -0.1157 0.0662
-16 4 19 -2.6819 0.3225
-16 4 20 -6.2154 -0.0479
-16 4 21 4.4390 -0.2182
-16 4 22 1.9324 0.3604
-16 4 23 -0.8420 0.4228
-16 4 24 -0.7782 -0.5326
-16 4 25 4.6081 -0.8630
-16 4 26 1.5702 -0.2286
-16 4 27 0.2611 2.0781
-16 6 1 12.1218 -0.0497
-16 6 2 -0.0674 -0.0598
-16 6 3 -13.8063 -0.2834
-16 6 4 18.5393 -0.2832
-16 6 5 15.0007 -0.0730
-16 6 6 -18.8769 -0.0279
-16 6 7 3.2553 -0.1362
-16 6 8 4.2135 0.0852
-16 6 9 -0.6308 0.2804
-16 6 10 -15.9777 0.2356
-16 6 11 -1.1007 -0.1126
-16 6 12 -5.5890 -0.0248
-16 6 13 -10.5894 0.1952
-16 6 14 -11.5001 -0.0201
-16 6 15 -4.4155 -0.2287
-16 6 16 0.6081 -0.0104
-16 6 17 -8.8087 0.1727
-16 6 18 -5.2809 -0.1169
-16 6 19 11.2568 -0.3859
-16 6 20 -3.2202 -0.0113
-16 6 21 -4.0243 0.1755
-16 6 22 8.5001 -0.3263
-16 6 23 5.1744 -0.3217
-16 6 24 -2.2592 0.2644
-16 6 25 2.4442 0.9960
-16 6 26 0.4761 -0.0325
-16 6 27 4.5062 -1.8786
-16 8 1 -14.1546 0.0996
-16 8 2 14.0154 -0.0673
-16 8 3 -10.0172 0.0278
-16 8 4 -24.9895 0.1310
-16 8 5 -3.0573 0.0056
-16 8 6 2.3641 -0.0179
-16 8 7 -11.5428 0.2915
-16 8 8 -19.6198 0.4747
-16 8 9 -2.9149 0.2771
-16 8 10 7.0809 -0.0990
-16 8 11 -6.4542 -0.1764
-16 8 12 -12.3225 -0.1791
-16 8 13 7.2859 -0.1502
-16 8 14 3.6511 0.0061
-16 8 15 -2.3406 0.1009
-16 8 16 -0.3845 0.0160
-16 8 17 9.5355 -0.0198
-16 8 18 0.6994 0.1032
-16 8 19 1.6087 0.0662
-16 8 20 5.7000 -0.2558
-16 8 21 -1.0090 -0.3321
-16 8 22 1.3378 -0.0237
-16 8 23 4.3624 0.1242
-16 8 24 0.9605 0.3505
-16 8 25 -1.6867 -0.2756
-16 8 26 -1.4468 0.4016
-16 8 27 0.7665 1.6328
-16 10 1 4.0321 -0.0689
-16 10 2 2.5631 -0.0475
-16 10 3 -6.8008 -0.1201
-16 10 4 -20.5727 -0.0528
-16 10 5 7.9349 -0.0262
-16 10 6 -1.2402 0.0483
-16 10 7 -20.7622 0.1950
-16 10 8 4.7821 0.0819
-16 10 9 1.7224 0.0507
-16 10 10 -9.5758 -0.0755
-16 10 11 1.2903 -0.1695
-16 10 12 8.9950 -0.1428
-16 10 13 -6.5529 -0.1635
-16 10 14 0.2328 0.0182
-16 10 15 11.9467 0.3517
-16 10 16 -2.3425 0.2815
-16 10 17 -0.9723 0.0119
-16 10 18 11.0178 -0.1245
-16 10 19 -0.6533 0.2415
-16 10 20 -3.5193 0.2962
-16 10 21 2.1724 -0.1389
-16 10 22 4.9257 -0.4072
-16 10 23 -3.2525 0.0336
-16 10 24 -2.1347 0.7400
-16 10 25 3.9084 0.4010
-16 10 26 -2.5532 -1.9410
-16 12 1 -13.4719 -0.2224
-16 12 2 -8.2362 -0.1400
-16 12 3 21.9450 0.1138
-16 12 4 8.2880 -0.1360
-16 12 5 -23.7915 -0.2319
-16 12 6 13.5518 0.0529
-16 12 7 19.2822 0.1012
-16 12 8 -16.9540 -0.1650
-16 12 9 3.7283 -0.2783
-16 12 10 9.9500 0.0402
-16 12 11 -4.3739 0.0732
-16 12 12 -6.8326 -0.1601
-16 12 13 7.5841 0.0403
-16 12 14 -0.6949 0.1196
-16 12 15 -14.4975 -0.0978
-16 12 16 4.4190 0.0262
-16 12 17 9.0880 -0.0659
-16 12 18 -10.7162 0.0289
-16 12 19 -7.4174 -0.1624
-16 12 20 9.6038 -0.1769
-16 12 21 0.4659 0.0058
-16 12 22 -7.7641 0.4364
-16 12 23 1.7302 0.2907
-16 12 24 5.9521 -0.9505
-16 12 25 -1.4488 -0.0502
-16 12 26 -1.6103 1.9864
-16 14 1 2.9083 0.0792
-16 14 2 -1.7758 -0.0833
-16 14 3 -2.7068 -0.0129
-16 14 4 4.8389 0.1406
-16 14 5 3.1790 0.0839
-16 14 6 -9.0072 0.0269
-16 14 7 6.0480 -0.0863
-16 14 8 10.9273 -0.1215
-16 14 9 -2.5000 -0.1962
-16 14 10 -7.4508 0.0818
-16 14 11 10.2963 0.2896
-16 14 12 10.3206 0.1691
-16 14 13 -10.5228 -0.2377
-16 14 14 -4.3512 -0.1048
-16 14 15 11.4717 0.1630
-16 14 16 -2.5850 -0.1890
-16 14 17 -7.5408 -0.4009
-16 14 18 2.8893 -0.3336
-16 14 19 1.0174 0.1778
-16 14 20 -5.0638 0.2100
-16 14 21 -0.6560 -0.1442
-16 14 22 1.8674 -0.4306
-16 14 23 -0.6343 0.1736
-16 14 24 -0.0857 0.9055
-16 14 25 -0.5998 -0.9076
-16 16 1 2.2268 -0.1499
-16 16 2 -3.8408 0.1354
-16 16 3 -14.3875 0.2199
-16 16 4 -3.2356 0.2142
-16 16 5 -0.0339 -0.0585
-16 16 6 -7.1096 -0.2731
-16 16 7 -2.9318 -0.0162
-16 16 8 3.9931 0.1216
-16 16 9 -1.4845 0.0902
-16 16 10 2.7205 -0.2723
-16 16 11 6.2530 0.0091
-16 16 12 6.4616 0.6086
-16 16 13 6.5982 0.5379
-16 16 14 -1.6278 -0.3117
-16 16 15 9.4880 -0.4606
-16 16 16 8.8952 0.1146
-16 16 17 -4.4202 0.5035
-16 16 18 -0.0187 0.1680
-16 16 19 5.1947 -0.3134
-16 16 20 0.4702 -0.0988
-16 16 21 -5.3632 0.4777
-16 16 22 -1.2588 0.4997
-16 16 23 2.1869 -0.7066
-16 16 24 -2.3537 -0.4133
-16 18 1 -4.4585 0.1647
-16 18 2 3.2388 0.0151
-16 18 3 -2.4316 -0.0114
-16 18 4 -6.1115 -0.0285
-16 18 5 -0.4433 0.0499
-16 18 6 9.8273 0.0156
-16 18 7 -6.7226 -0.1633
-16 18 8 -2.2849 -0.1609
-16 18 9 10.1364 0.0182
-16 18 10 0.5321 0.1989
-16 18 11 1.2226 0.0909
-16 18 12 -2.6337 -0.0774
-16 18 13 9.1041 0.1688
-16 18 14 5.4454 0.2884
-16 18 15 -6.2681 -0.1402
-16 18 16 3.4068 -0.2594
-16 18 17 6.3058 0.0608
-16 18 18 -1.6743 0.3235
-16 18 19 -2.1675 0.2268
-16 18 20 2.6590 -0.2925
-16 18 21 -0.5317 -0.3714
-16 18 22 -2.6002 0.0624
-16 18 23 0.2027 0.9019
-16 18 24 -1.2893 -0.3485
-16 20 1 6.3682 -0.0810
-16 20 2 8.1833 -0.1950
-16 20 3 2.7936 -0.1636
-16 20 4 8.9131 -0.0042
-16 20 5 5.8628 0.1291
-16 20 6 7.9822 0.0585
-16 20 7 3.7473 -0.0068
-16 20 8 2.6173 0.0988
-16 20 9 6.6410 0.1381
-16 20 10 -4.2624 0.1229
-16 20 11 -1.8315 -0.1595
-16 20 12 -3.7247 -0.1333
-16 20 13 -4.1440 -0.1966
-16 20 14 -2.0991 -0.1533
-16 20 15 -5.9190 -0.1532
-16 20 16 -7.1900 0.1120
-16 20 17 0.5316 -0.1378
-16 20 18 1.0108 -0.3118
-16 20 19 -4.3035 -0.3809
-16 20 20 -0.5090 0.3077
-16 20 21 2.9217 -0.0151
-16 20 22 -0.9840 -1.6529
-16 22 1 1.3788 -0.2344
-16 22 2 1.2883 0.0561
-16 22 3 10.3700 0.2258
-16 22 4 6.1996 0.0144
-16 22 5 1.1971 -0.3080
-16 22 6 4.6377 -0.1497
-16 22 7 4.5092 0.3685
-16 22 8 1.8086 0.5624
-16 22 9 -3.3642 0.0199
-16 22 10 -0.1864 -0.4958
-16 22 11 0.6266 -0.0250
-16 22 12 -7.6327 0.1830
-16 22 13 -3.9855 0.0535
-16 22 14 -3.3868 -0.2620
-16 22 15 -2.0625 0.0937
-16 22 16 -5.4483 0.1807
-16 22 17 -3.7654 0.7124
-16 22 18 2.1216 0.5660
-16 22 19 -2.2364 -0.5845
-16 22 20 0.4366 -0.7112
-16 22 21 1.2921 2.2199
-16 24 1 0.2060 0.5601
-16 24 2 -0.2415 0.7913
-16 24 3 -1.2907 0.0554
-16 24 4 -2.5268 -0.2045
-16 24 5 0.1193 0.0738
-16 24 6 -6.7519 0.2784
-16 24 7 -1.8305 -0.0186
-16 24 8 -0.0490 -0.4529
-16 24 9 -3.8178 -0.2126
-16 24 10 -2.9575 0.2286
-16 24 11 3.2153 0.1095
-16 24 12 2.6755 0.0602
-16 24 13 -3.8407 -0.0049
-16 24 14 0.9585 0.6143
-16 24 15 6.3373 0.7221
-16 24 16 0.5253 0.2615
-16 24 17 -4.6186 0.2761
-16 24 18 2.0558 0.4815
-16 24 19 6.2746 1.6867
-16 26 1 -1.6579 0.3367
-16 26 2 -2.7929 0.3618
-16 26 3 -1.7035 0.3340
-16 26 4 -4.9936 -0.0162
-16 26 5 -4.1690 0.2270
-16 26 6 -4.0820 0.4199
-16 26 7 -2.3233 -0.0427
-16 26 8 -3.5745 -0.5816
-16 26 9 -0.0877 -0.3595
-16 26 10 -1.3492 0.2754
-16 26 11 2.9739 0.4803
-16 26 12 2.5177 0.1347
-16 26 13 3.5748 0.5803
-16 26 14 1.6878 -0.2907
-16 26 15 2.5249 -0.5738
-16 26 16 3.1910 1.3288
-16 26 17 1.8354 0.0206
-16 26 18 -2.2038 -3.4155
-16 28 1 -1.9282 -0.7277
-16 28 2 4.2527 -0.7596
-16 28 3 -1.3187 -0.1426
-16 28 4 -2.2844 0.2613
-16 28 5 0.8815 0.1420
-16 28 6 0.7337 0.0865
-16 28 7 1.4558 0.3240
-16 28 8 -4.1465 0.5733
-16 28 9 5.6681 0.3641
-16 28 10 -1.4346 -0.1163
-16 28 11 1.4479 -0.2838
-16 28 12 2.6429 1.0001
-16 28 13 -0.1037 0.8473
-16 28 14 3.0064 -0.4846
-16 28 15 -3.0460 -4.3866
-16 30 2 4.9112 -1.5340
-16 30 3 -1.3543 -1.3984
-16 30 4 0.6652 -0.3787
-16 30 5 4.0592 0.5043
-16 30 6 0.9014 0.9357
-16 30 7 -1.0061 0.2460
-16 30 8 5.0616 -0.1574
-16 30 9 -0.7315 1.2110
-16 30 10 -0.3932 1.5198
-16 30 11 3.6381 -2.8010
-15 1 1 -10.9531 5.2352
-15 1 2 -18.0885 3.3151
-15 1 3 0.3453 0.8726
-15 1 4 -10.7031 0.5220
-15 1 5 2.2015 0.7949
-15 1 6 14.5084 -0.1608
-15 1 7 -11.9431 -1.0048
-15 1 8 13.6789 -0.6316
-15 1 9 -13.2026 0.1817
-15 1 10 28.7245 0.4536
-15 1 11 -6.6382 0.4471
-15 1 12 1.3255 0.1528
-15 1 13 -2.0284 -0.4377
-15 1 14 22.0546 -0.5665
-15 1 15 -12.1375 -0.3386
-15 1 16 -3.1849 -0.1629
-15 1 17 7.8348 0.2935
-15 1 18 -3.6638 0.6521
-15 1 19 -13.8794 0.5935
-15 1 20 -1.1477 0.1354
-15 1 21 1.7414 -0.1965
-15 1 22 -5.8227 -0.7298
-15 1 23 -1.3243 -0.6159
-15 1 24 0.0499 -0.0011
-15 1 25 1.6189 0.0972
-15 1 26 2.3750 0.1255
-15 1 27 1.2382 0.3321
-15 1 28 1.5674 0.7443
-15 3 1 0.0009 1.1569
-15 3 2 0.4395 1.0209
-15 3 3 -4.7474 0.3044
-15 3 4 18.9439 0.1548
-15 3 5 -16.4506 -0.1269
-15 3 6 -16.6504 -0.6782
-15 3 7 15.1915 -0.5702
-15 3 8 5.0984 0.1414
-15 3 9 -33.6687 0.5159
-15 3 10 -5.9419 0.0336
-15 3 11 23.0086 -0.2629
-15 3 12 -10.9267 0.0707
-15 3 13 -25.1056 0.2404
-15 3 14 19.2701 -0.3282
-15 3 15 9.2002 -0.6499
-15 3 16 -8.3157 -0.0685
-15 3 17 -5.5724 0.5581
-15 3 18 12.9672 0.6139
-15 3 19 6.7698 0.2465
-15 3 20 -8.6410 0.0392
-15 3 21 2.5999 -0.1481
-15 3 22 6.0768 -0.2861
-15 3 23 -0.8150 -0.2195
-15 3 24 4.1095 -0.1547
-15 3 25 -2.9750 -0.3783
-15 3 26 1.4390 -0.2857
-15 3 27 4.0248 -0.0590
-15 3 28 -0.7773 0.2300
-15 5 1 -2.5620 0.0891
-15 5 2 22.3977 -0.3390
-15 5 3 8.1963 -0.4530
-15 5 4 -10.1567 -0.4860
-15 5 5 4.9907 -0.2701
-15 5 6 -4.6163 -0.0482
-15 5 7 -4.3404 -0.0549
-15 5 8 -7.3871 -0.0454
-15 5 9 -2.8941 0.0657
-15 5 10 -22.6707 0.2591
-15 5 11 -2.7221 0.0223
-15 5 12 9.9255 -0.2646
-15 5 13 -18.3777 -0.1819
-15 5 14 -3.1812 0.0866
-15 5 15 -0.7124 0.0812
-15 5 16 17.5288 0.0021
-15 5 17 -12.1734 -0.0202
-15 5 18 -6.3490 0.1137
-15 5 19 21.0866 0.1940
-15 5 20 8.5076 0.0938
-15 5 21 -15.0803 -0.1574
-15 5 22 4.0449 -0.0219
-15 5 23 17.4660 0.0874
-15 5 24 -2.9866 -0.0348
-15 5 25 -9.1602 0.1327
-15 5 26 7.3671 -0.0897
-15 5 27 4.3111 -0.1453
-15 5 28 -4.0830 -0.8981
-15 7 1 19.9558 -0.3491
-15 7 2 0.4618 -0.3765
-15 7 3 -6.9786 -0.0263
-15 7 4 11.2403 0.0887
-15 7 5 11.8843 -0.0030
-15 7 6 -10.6737 0.0561
-15 7 7 7.2109 0.1298
-15 7 8 13.5920 0.1972
-15 7 9 -17.1042 -0.0511
-15 7 10 6.6841 -0.1797
-15 7 11 6.2467 -0.0754
-15 7 12 -9.0828 -0.0393
-15 7 13 -5.3191 -0.0122
-15 7 14 11.8700 0.1147
-15 7 15 -10.2607 0.1424
-15 7 16 -13.4349 -0.1218
-15 7 17 10.5213 -0.0476
-15 7 18 -2.8816 -0.0501
-15 7 19 -10.7051 -0.2110
-15 7 20 0.3148 -0.3982
-15 7 21 6.8229 -0.0420
-15 7 22 -4.5426 0.1546
-15 7 23 -2.3146 0.1890
-15 7 24 0.4156 0.1585
-15 7 25 7.4301 -0.1093
-15 7 26 -4.0946 -0.0067
-15 7 27 -1.2377 0.1878
-15 9 1 -6.5159 -0.3488
-15 9 2 2.1600 0.0177
-15 9 3 9.8686 -0.0081
-15 9 4 -10.5599 0.2115
-15 9 5 4.4554 0.2498
-15 9 6 24.7982 0.1906
-15 9 7 -3.8346 0.1511
-15 9 8 -5.9450 -0.0856
-15 9 9 19.1184 0.0324
-15 9 10 4.5469 -0.1251
-15 9 11 -3.7259 -0.1747
-15 9 12 -5.6594 0.0851
-15 9 13 10.0429 0.2444
-15 9 14 -1.2958 0.0636
-15 9 15 -13.4249 0.0206
-15 9 16 -3.9861 0.2031
-15 9 17 1.0748 0.0833
-15 9 18 -11.2826 -0.1824
-15 9 19 -4.6976 -0.3864
-15 9 20 -2.4856 -0.0882
-15 9 21 -4.5094 0.0644
-15 9 22 -0.4857 0.0075
-15 9 23 -0.6206 -0.0654
-15 9 24 -3.0640 0.1585
-15 9 25 4.4459 -0.0372
-15 9 26 -0.9529 -0.0566
-15 9 27 0.8297 -0.1970
-15 11 1 -6.5457 -0.0134
-15 11 2 16.0766 -0.1328
-15 11 3 -0.3637 0.0601
-15 11 4 -7.5969 -0.1683
-15 11 5 -1.4995 0.0778
-15 11 6 13.8190 0.2431
-15 11 7 -11.4315 0.0526
-15 11 8 0.1533 -0.1177
-15 11 9 -0.2972 -0.2330
-15 11 10 -4.4926 0.0188
-15 11 11 -7.0112 0.1853
-15 11 12 1.1951 0.0390
-15 11 13 -8.5108 -0.1564
-15 11 14 -0.7040 0.0416
-15 11 15 -4.6646 0.1986
-15 11 16 -3.6020 0.1503
-15 11 17 -3.5850 -0.0662
-15 11 18 1.0865 -0.0744
-15 11 19 -4.5261 0.1053
-15 11 20 0.4599 0.0621
-15 11 21 1.2683 0.0498
-15 11 22 0.3115 0.1303
-15 11 23 -1.0912 0.1121
-15 11 24 3.6574 -0.0823
-15 11 25 2.0607 0.2436
-15 11 26 -0.7324 -0.3978
-15 13 1 4.9847 0.0403
-15 13 2 -13.2924 0.0533
-15 13 3 0.3596 0.0386
-15 13 4 12.9386 0.1111
-15 13 5 -8.7105 -0.0967
-15 13 6 -22.4505 -0.1657
-15 13 7 5.1099 -0.1014
-15 13 8 5.0426 0.0481
-15 13 9 -19.2281 0.0619
-15 13 10 -9.2462 -0.0655
-15 13 11 1.5280 -0.1472
-15 13 12 0.1522 0.0578
-15 13 13 -11.4812 0.0612
-15 13 14 0.5874 -0.3335
-15 13 15 5.9153 -0.2690
-15 13 16 -2.4501 -0.0002
-15 13 17 -4.6810 0.0136
-15 13 18 9.0896 -0.0785
-15 13 19 3.5464 0.0983
-15 13 20 -3.2403 0.1300
-15 13 21 2.9818 -0.0319
-15 13 22 5.2539 -0.0452
-15 13 23 1.8567 0.1857
-15 13 24 -2.5336 -0.0538
-15 13 25 5.1899 -0.1148
-15 13 26 1.5302 0.8063
-15 15 1 -7.3663 0.2413
-15 15 2 -8.1219 0.3344
-15 15 3 -1.6366 0.1275
-15 15 4 0.5085 -0.1216
-15 15 5 -6.0404 -0.1848
-15 15 6 -1.1759 -0.1113
-15 15 7 -6.5531 -0.1363
-15 15 8 1.8338 -0.1072
-15 15 9 8.6723 0.1502
-15 15 10 0.6782 0.1753
-15 15 11 -4.1685 0.0605
-15 15 12 5.4343 -0.1102
-15 15 13 14.9362 -0.0507
-15 15 14 0.9714 0.0998
-15 15 15 -4.7525 -0.2007
-15 15 16 10.5606 -0.3172
-15 15 17 4.8729 0.0551
-15 15 18 -6.0210 0.3096
-15 15 19 4.2392 -0.0817
-15 15 20 1.0149 -0.0173
-15 15 21 -1.9167 0.0534
-15 15 22 -1.9018 -0.2659
-15 15 23 -1.1809 -0.4775
-15 15 24 4.1596 0.2813
-15 15 25 -4.5206 -0.8476
-15 17 1 4.5944 0.2254
-15 17 2 -5.0455 -0.0129
-15 17 3 -13.0105 -0.1713
-15 17 4 7.8436 -0.0618
-15 17 5 -0.3958 0.0245
-15 17 6 0.2219 -0.1666
-15 17 7 4.0038 -0.2402
-15 17 8 10.5644 -0.0124
-15 17 9 3.6232 0.1868
-15 17 10 7.2494 0.2453
-15 17 11 10.8062 0.1603
-15 17 12 4.4109 0.0388
-15 17 13 4.3898 -0.0455
-15 17 14 9.1842 0.1387
-15 17 15 4.0925 0.4280
-15 17 16 -2.9314 -0.1267
-15 17 17 2.6650 -0.3113
-15 17 18 0.6547 0.1245
-15 17 19 -2.6296 0.7269
-15 17 20 -5.1471 0.0210
-15 17 21 -1.2606 -0.3531
-15 17 22 0.3171 -0.1375
-15 17 23 -8.1794 -0.1926
-15 17 24 0.2502 0.1657
-15 19 1 -9.0494 -0.2183
-15 19 2 13.0211 -0.0329
-15 19 3 8.7082 0.1521
-15 19 4 -12.5137 -0.0606
-15 19 5 1.8881 -0.1453
-15 19 6 15.7613 0.0396
-15 19 7 2.1340 0.2975
-15 19 8 -7.1428 0.2004
-15 19 9 1.0063 0.0296
-15 19 10 10.5439 -0.1293
-15 19 11 -4.7748 -0.1081
-15 19 12 -5.6352 0.1373
-15 19 13 4.8734 0.2589
-15 19 14 -5.4267 -0.1837
-15 19 15 0.4706 -0.4705
-15 19 16 2.3649 0.3268
-15 19 17 -4.8884 0.1577
-15 19 18 -2.2450 -0.3424
-15 19 19 2.2684 -0.2986
-15 19 20 0.0973 0.5319
-15 19 21 -2.3904 0.2499
-15 19 22 -1.7128 -0.3145
-15 19 23 1.0797 0.7175
-15 21 1 5.3879 0.2038
-15 21 2 12.8250 -0.2538
-15 21 3 4.0676 -0.2699
-15 21 4 -2.9630 0.0894
-15 21 5 4.1432 0.3378
-15 21 6 7.3473 0.2882
-15 21 7 -6.5810 0.0663
-15 21 8 -1.2445 0.1413
-15 21 9 -5.1764 0.0960
-15 21 10 -4.8894 0.0082
-15 21 11 -3.3195 -0.2540
-15 21 12 -8.5578 -0.3415
-15 21 13 -6.4806 -0.0746
-15 21 14 -1.5534 0.2993
-15 21 15 -3.4809 -0.1085
-15 21 16 -2.2149 -0.5665
-15 21 17 -1.0698 0.0257
-15 21 18 2.5572 0.3337
-15 21 19 0.2824 -0.5113
-15 21 20 0.7282 -0.2047
-15 21 21 5.9760 0.4714
-15 21 22 -1.2330 -0.9869
-15 23 1 8.0251 -0.0447
-15 23 2 -6.3242 -0.0294
-15 23 3 -1.0203 -0.2118
-15 23 4 11.7815 0.1847
-15 23 5 -2.0188 0.1139
-15 23 6 -4.8001 -0.0496
-15 23 7 3.2775 -0.0693
-15 23 8 0.2191 -0.1523
-15 23 9 0.2835 -0.0903
-15 23 10 -5.0880 0.0355
-15 23 11 1.1470 0.2114
-15 23 12 -0.2108 0.1085
-15 23 13 -3.9889 -0.2114
-15 23 14 2.6888 -0.0051
-15 23 15 -3.6115 0.7833
-15 23 16 1.2451 0.1648
-15 23 17 -0.2374 -0.1686
-15 23 18 0.3909 -0.1485
-15 23 19 2.9195 0.6273
-15 23 20 -1.5104 -0.6028
-15 23 21 4.6995 0.2306
-15 25 1 -5.7166 0.0652
-15 25 2 -4.6751 0.3886
-15 25 3 -1.5109 0.5416
-15 25 4 2.3421 -0.0743
-15 25 5 -0.3089 -0.2077
-15 25 6 -2.0179 -0.4492
-15 25 7 0.1953 -0.4719
-15 25 8 6.5722 -0.0762
-15 25 9 3.7696 0.2713
-15 25 10 0.6767 0.1162
-15 25 11 1.8668 0.1225
-15 25 12 8.8512 0.2894
-15 25 13 -0.2465 0.7314
-15 25 14 0.6316 0.0748
-15 25 15 0.3931 -0.6136
-15 25 16 3.4851 0.6896
-15 25 17 -3.6752 0.2765
-15 25 18 -0.5559 -0.1597
-15 25 19 0.0205 0.5859
-15 27 1 -2.5294 0.5197
-15 27 2 -1.3236 0.1045
-15 27 3 -0.3756 0.2086
-15 27 4 0.6345 0.2400
-15 27 5 -2.9653 -0.1817
-15 27 6 0.9381 -0.3486
-15 27 7 -1.7481 -0.3640
-15 27 8 5.9381 0.1353
-15 27 9 0.5257 0.8328
-15 27 10 -0.5707 0.7792
-15 27 11 4.1809 -0.4240
-15 27 12 0.9366 0.1464
-15 27 13 2.7998 0.4263
-15 27 14 -0.7665 -0.1359
-15 27 15 -4.3144 -0.8007
-15 27 16 5.5186 -0.7957
-15 27 17 -5.0122 0.1133
-15 29 1 5.1764 -1.2183
-15 29 2 1.2828 0.3797
-15 29 3 0.1915 0.3794
-15 29 4 3.3796 -0.3961
-15 29 5 -5.3992 -0.3995
-15 29 6 5.8305 0.2394
-15 29 7 -4.7198 0.6162
-15 29 8 2.0464 0.5336
-15 29 9 -2.7041 0.5265
-15 29 10 3.4295 0.1807
-15 29 11 -2.5959 0.4297
-15 29 12 -2.8313 -0.5714
-15 29 13 3.8919 -0.4820
-15 29 14 -2.7463 -0.2623
-15 31 2 -1.4393 1.1000
-15 31 3 -0.6108 -0.2500
-15 31 4 3.8348 -0.6258
-15 31 5 -2.2329 -0.0732
-15 31 6 0.1573 0.4014
-15 31 7 0.9608 0.6608
-15 31 8 -2.1077 1.0076
-15 31 9 0.6931 -0.0207
-15 31 10 0.1294 -2.0843
-14 0 1 -25.1127 0.7790
-14 0 2 23.5295 3.5292
-14 0 3 23.3045 0.7027
-14 0 4 -9.9961 -1.0702
-14 0 5 -18.7665 -1.2565
-14 0 6 31.6351 -0.7348
-14 0 7 7.2261 0.2627
-14 0 8 -34.5019 1.0527
-14 0 9 -5.8377 0.9001
-14 0 10 1.2113 -0.0760
-14 0 11 -10.5321 -0.2234
-14 0 12 -28.3515 -0.1343
-14 0 13 7.0214 -0.5160
-14 0 14 -0.5724 -0.7234
-14 0 15 -16.4455 -0.1272
-14 0 16 2.4986 0.5326
-14 0 17 6.2971 0.6532
-14 0 18 -0.7495 0.2451
-14 0 19 -6.0638 0.0354
-14 0 20 9.6328 0.1301
-14 0 21 5.1971 -0.3069
-14 0 22 -1.1399 -0.8264
-14 0 23 1.1209 -0.4930
-14 0 24 10.2260 0.3379
-14 0 25 9.2124 0.5573
-14 0 26 -2.4447 -0.0961
-14 0 27 -0.2772 0.1533
-14 0 28 6.9735 0.8110
-14 2 1 6.3219 0.6241
-14 2 2 -10.7466 1.3602
-14 2 3 3.8887 0.3720
-14 2 4 -13.0483 -0.6134
-14 2 5 -1.1175 -0.8146
-14 2 6 2.1728 -0.4080
-14 2 7 -9.4108 0.4338
-14 2 8 -11.2199 0.8592
-14 2 9 -0.4223 0.6302
-14 2 10 -7.1296 0.2071
-14 2 11 -9.1043 -0.2921
-14 2 12 11.2056 -0.5478
-14 2 13 -11.1952 -0.5214
-14 2 14 8.1976 -0.2298
-14 2 15 2.0718 -0.0202
-14 2 16 9.5690 0.1710
-14 2 17 -6.5123 0.2269
-14 2 18 8.3036 0.3585
-14 2 19 8.7905 0.2111
-14 2 20 -1.9719 -0.2990
-14 2 21 -2.0878 -0.6046
-14 2 22 6.5380 -0.5146
-14 2 23 4.3475 0.2076
-14 2 24 -2.9102 -0.0377
-14 2 25 4.4771 -0.4176
-14 2 26 3.9425 0.4972
-14 2 27 -0.8690 0.7250
-14 2 28 -0.2933 -1.1529
-14 4 1 15.5998 -0.0184
-14 4 2 -26.0032 0.1186
-14 4 3 -39.2699 0.2680
-14 4 4 12.1958 -0.5758
-14 4 5 3.5257 -0.5855
-14 4 6 -37.9066 0.4636
-14 4 7 -10.3145 0.8436
-14 4 8 14.8090 0.2411
-14 4 9 -7.7373 -0.1682
-14 4 10 -0.1592 0.1266
-14 4 11 5.2589 0.0736
-14 4 12 11.5569 -0.4646
-14 4 13 12.8968 -0.5529
-14 4 14 11.1515 -0.0991
-14 4 15 3.7437 0.3014
-14 4 16 7.1908 0.3434
-14 4 17 14.1966 0.2679
-14 4 18 0.1320 0.0399
-14 4 19 -1.4242 -0.0513
-14 4 20 7.5007 0.0622
-14 4 21 -0.7214 0.0762
-14 4 22 -5.9718 -0.0562
-14 4 23 1.4708 -0.4118
-14 4 24 1.0318 0.1842
-14 4 25 -4.4343 0.8105
-14 4 26 -1.7857 -0.1421
-14 4 27 2.1804 -0.9818
-14 4 28 0.5409 0.8337
-14 6 1 -1.9403 -0.2363
-14 6 2 -11.1545 -0.2054
-14 6 3 3.6558 -0.2350
-14 6 4 19.2777 0.1609
-14 6 5 -15.9759 0.3028
-14 6 6 -15.1897 0.0368
-14 6 7 9.3104 -0.1137
-14 6 8 19.3840 0.0203
-14 6 9 -17.6709 -0.0206
-14 6 10 -5.9317 -0.3333
-14 6 11 23.2080 -0.3371
-14 6 12 -3.3819 0.0172
-14 6 13 -2.8424 0.2104
-14 6 14 8.4125 0.0240
-14 6 15 -5.3966 -0.0073
-14 6 16 2.7511 0.2108
-14 6 17 -3.2703 0.1814
-14 6 18 -6.7493 -0.0290
-14 6 19 2.1180 -0.0189
-14 6 20 -5.4350 -0.0478
-14 6 21 -0.2721 -0.1047
-14 6 22 -2.5993 0.2783
-14 6 23 -4.3046 0.5815
-14 6 24 1.5204 -0.1710
-14 6 25 -1.0937 -0.7515
-14 6 26 -1.0557 0.4656
-14 6 27 -1.4783 1.1312
-14 6 28 2.4082 -1.8971
-14 8 1 2.4287 0.1295
-14 8 2 32.9419 -0.0735
-14 8 3 17.8670 -0.0360
-14 8 4 2.4305 0.2276
-14 8 5 19.4064 0.1689
-14 8 6 15.1294 -0.0095
-14 8 7 -0.5695 -0.1818
-14 8 8 9.1105 -0.3608
-14 8 9 11.4543 -0.3568
-14 8 10 -18.6723 -0.0736
-14 8 11 -7.4638 0.1957
-14 8 12 6.3455 0.1684
-14 8 13 -12.6856 0.0448
-14 8 14 -24.3855 0.1501
-14 8 15 -5.7737 0.1830
-14 8 16 -1.4133 -0.0753
-14 8 17 -19.0013 -0.2819
-14 8 18 -15.6884 -0.3236
-14 8 19 0.0715 -0.2522
-14 8 20 -2.2222 0.2182
-14 8 21 -7.7986 0.2814
-14 8 22 1.9264 -0.3501
-14 8 23 1.0514 -0.4415
-14 8 24 -1.6238 0.3915
-14 8 25 2.1029 0.2213
-14 8 26 3.6224 -0.8486
-14 8 27 1.5680 -0.1237
-14 10 1 0.2991 -0.0763
-14 10 2 8.2084 -0.1496
-14 10 3 21.3144 -0.0277
-14 10 4 4.2069 0.2468
-14 10 5 0.9287 0.2580
-14 10 6 15.8921 -0.1571
-14 10 7 19.8417 -0.3134
-14 10 8 -24.6829 0.0513
-14 10 9 -4.7829 0.2625
-14 10 10 22.6431 -0.0642
-14 10 11 -17.4876 -0.0693
-14 10 12 -29.6497 0.2474
-14 10 13 3.1362 0.3647
-14 10 14 2.3062 0.1494
-14 10 15 -17.1667 -0.1376
-14 10 16 -23.5977 -0.3136
-14 10 17 10.8972 -0.2123
-14 10 18 -2.7801 0.0575
-14 10 19 -20.9031 0.2886
-14 10 20 3.3604 -0.1301
-14 10 21 10.5660 -0.2569
-14 10 22 -4.3809 0.2024
-14 10 23 -4.8676 0.4188
-14 10 24 6.2724 -0.3787
-14 10 25 4.9138 -0.4528
-14 10 26 -0.9408 0.2829
-14 10 27 0.5109 -0.2053
-14 12 1 8.8181 -0.0164
-14 12 2 -2.7873 0.2424
-14 12 3 -8.4451 0.1913
-14 12 4 -18.3600 -0.2301
-14 12 5 4.9274 -0.0370
-14 12 6 4.9976 0.1323
-14 12 7 -21.9986 0.1195
-14 12 8 -12.2934 0.0374
-14 12 9 7.7586 -0.0060
-14 12 10 -4.0354 0.1714
-14 12 11 -9.6349 0.0469
-14 12 12 0.6986 -0.0529
-14 12 13 -6.0568 -0.0910
-14 12 14 5.6871 -0.0950
-14 12 15 5.9542 -0.0587
-14 12 16 -2.4285 0.0685
-14 12 17 -4.5218 -0.0901
-14 12 18 7.8963 0.1268
-14 12 19 7.1573 0.2758
-14 12 20 -5.2663 0.3116
-14 12 21 0.9323 -0.0003
-14 12 22 6.8706 -0.0994
-14 12 23 -0.7270 0.1310
-14 12 24 -0.0095 0.4517
-14 12 25 -0.4875 0.2431
-14 12 26 0.8389 -0.3674
-14 14 1 8.7592 0.1610
-14 14 2 -19.0715 0.0984
-14 14 3 -18.5810 0.0773
-14 14 4 15.6627 0.0300
-14 14 5 -16.8912 -0.2942
-14 14 6 -18.9361 -0.1168
-14 14 7 -0.5192 0.0900
-14 14 8 3.2348 0.1047
-14 14 9 -12.7050 0.0194
-14 14 10 -6.7234 -0.0375
-14 14 11 10.6204 0.0144
-14 14 12 5.9699 -0.1742
-14 14 13 -5.6276 -0.2888
-14 14 14 3.5730 -0.1400
-14 14 15 13.9636 -0.0592
-14 14 16 4.6938 -0.0920
-14 14 17 -0.0959 0.3756
-14 14 18 0.4050 0.2721
-14 14 19 8.7766 -0.1822
-14 14 20 4.0521 -0.3607
-14 14 21 -3.9369 0.0575
-14 14 22 -0.0887 0.2819
-14 14 23 1.7076 -0.1947
-14 14 24 2.4011 -0.4882
-14 14 25 -4.6231 -0.0264
-14 14 26 -1.3938 1.3750
-14 16 1 -8.6896 0.1249
-14 16 2 1.1516 0.0501
-14 16 3 3.5204 -0.2791
-14 16 4 5.5210 -0.0088
-14 16 5 -0.0653 0.0172
-14 16 6 -6.3834 -0.2918
-14 16 7 8.8739 -0.2141
-14 16 8 4.0714 0.1331
-14 16 9 -2.2373 0.2665
-14 16 10 2.9361 0.0133
-14 16 11 -0.5311 -0.0206
-14 16 12 10.1822 -0.0212
-14 16 13 2.5740 -0.1872
-14 16 14 -6.8507 -0.2066
-14 16 15 7.0572 0.2126
-14 16 16 5.6910 0.3348
-14 16 17 -1.5904 0.0330
-14 16 18 -4.2156 -0.1242
-14 16 19 3.5351 -0.0173
-14 16 20 1.3419 -0.0024
-14 16 21 -3.7378 -0.3202
-14 16 22 -0.8442 -0.5989
-14 16 23 1.3100 0.0954
-14 16 24 -2.1989 0.3111
-14 16 25 -0.5133 -1.7784
-14 18 1 6.5484 -0.1431
-14 18 2 3.8521 0.0540
-14 18 3 -2.3392 0.1768
-14 18 4 -0.8183 -0.2781
-14 18 5 16.6395 -0.0558
-14 18 6 -4.3535 0.0827
-14 18 7 3.5356 -0.0176
-14 18 8 4.3597 0.0446
-14 18 9 6.4563 0.0578
-14 18 10 2.0535 0.1213
-14 18 11 -0.9777 0.0015
-14 18 12 0.1373 -0.0618
-14 18 13 7.6619 -0.0443
-14 18 14 0.4962 0.0524
-14 18 15 -10.8758 -0.0059
-14 18 16 8.9071 0.2744
-14 18 17 1.1786 0.1691
-14 18 18 -4.3621 0.0212
-14 18 19 -4.1680 -0.0948
-14 18 20 2.5868 0.1618
-14 18 21 0.2919 0.2617
-14 18 22 -2.2776 0.0563
-14 18 23 -2.6816 -0.4342
-14 18 24 3.5663 0.9742
-14 20 1 -1.4911 -0.0766
-14 20 2 -7.7881 -0.1708
-14 20 3 -1.4970 0.1706
-14 20 4 1.5362 0.2897
-14 20 5 -7.8596 -0.0779
-14 20 6 0.6618 -0.0284
-14 20 7 0.8644 0.2333
-14 20 8 -2.0610 0.0181
-14 20 9 -3.8964 -0.1433
-14 20 10 4.0956 -0.1148
-14 20 11 6.3697 -0.1265
-14 20 12 -8.9029 -0.0708
-14 20 13 1.0857 0.0104
-14 20 14 11.0357 -0.1051
-14 20 15 -3.8331 -0.0400
-14 20 16 -3.9242 -0.0349
-14 20 17 5.5611 0.1014
-14 20 18 5.7573 -0.1725
-14 20 19 -6.0944 0.0464
-14 20 20 0.8563 0.2964
-14 20 21 1.5351 0.2918
-14 20 22 3.9771 0.0670
-14 20 23 -3.4827 0.7044
-14 22 1 -11.1667 -0.2014
-14 22 2 7.2123 0.1487
-14 22 3 1.6589 -0.0362
-14 22 4 -9.2574 -0.0128
-14 22 5 -2.1126 0.0052
-14 22 6 3.5265 0.1589
-14 22 7 -3.4873 -0.0263
-14 22 8 -1.5026 -0.2392
-14 22 9 1.1460 -0.1369
-14 22 10 -0.3345 -0.0173
-14 22 11 -0.0034 0.0405
-14 22 12 3.7431 -0.1594
-14 22 13 -0.4176 -0.0992
-14 22 14 -4.0880 0.1443
-14 22 15 8.1163 -0.0925
-14 22 16 -1.1049 -0.2065
-14 22 17 -0.8870 -0.1948
-14 22 18 1.6067 -0.1585
-14 22 19 3.7917 -0.5506
-14 22 20 1.0127 0.1672
-14 22 21 -0.9056 0.3892
-14 22 22 2.7867 -1.4370
-14 24 1 5.2940 0.0311
-14 24 2 -2.2614 0.1494
-14 24 3 6.2889 -0.0453
-14 24 4 3.3186 -0.4507
-14 24 5 4.6468 -0.0755
-14 24 6 1.2081 0.0400
-14 24 7 5.5170 -0.1424
-14 24 8 5.1682 -0.1402
-14 24 9 0.7525 -0.1432
-14 24 10 0.3362 0.1012
-14 24 11 2.1711 0.2452
-14 24 12 2.3269 0.1582
-14 24 13 -3.2424 -0.2029
-14 24 14 -3.0914 -0.1360
-14 24 15 1.1086 0.3107
-14 24 16 -1.8207 -0.1246
-14 24 17 -1.2635 -0.4252
-14 24 18 -1.3503 -0.3619
-14 24 19 1.1915 0.1085
-14 24 20 0.4560 -0.6811
-14 24 21 3.2288 0.3010
-14 26 1 6.1949 0.0327
-14 26 2 -0.9950 -0.2542
-14 26 3 1.8102 -0.1874
-14 26 4 2.6590 0.0868
-14 26 5 5.6876 -0.2894
-14 26 6 4.6121 -0.4518
-14 26 7 0.2948 0.0513
-14 26 8 1.3067 0.3706
-14 26 9 6.2058 0.1213
-14 26 10 0.3796 -0.2567
-14 26 11 -2.3557 -0.0184
-14 26 12 -1.7495 0.4761
-14 26 13 -0.3105 0.1578
-14 26 14 -1.2531 -0.8492
-14 26 15 -4.3157 -0.3185
-14 26 16 -2.2322 1.0071
-14 26 17 -0.6568 -0.1069
-14 26 18 -1.7066 -0.7421
-14 26 19 0.0721 0.9516
-14 28 1 2.4420 0.1455
-14 28 2 1.0911 -0.3244
-14 28 3 -3.9003 -0.2466
-14 28 4 -3.3625 -0.2976
-14 28 5 4.0091 0.0832
-14 28 6 -5.4461 0.0913
-14 28 7 0.9410 -0.2476
-14 28 8 -1.2018 0.0329
-14 28 9 -2.9212 0.7058
-14 28 10 3.1762 -0.0568
-14 28 11 -1.6260 -0.5266
-14 28 12 -4.2107 -0.0260
-14 28 13 0.5331 0.0103
-14 28 14 1.4859 -0.1934
-14 28 15 1.2012 -0.6436
-14 28 16 -7.2399 0.1950
-14 28 17 6.0174 2.0741
-14 30 1 -4.4316 -0.5927
-14 30 2 2.7768 0.1759
-14 30 3 2.5922 -0.3438
-14 30 4 -7.4280 0.0448
-14 30 5 0.8090 0.3498
-14 30 6 -4.5664 0.0223
-14 30 7 4.5791 -0.4680
-14 30 8 -3.7495 -0.0734
-14 30 9 -3.4275 0.1659
-14 30 10 2.5570 0.7880
-14 30 11 1.0625 -0.3345
-14 30 12 -1.8779 -1.6076
-14 30 13 1.4752 -0.4679
-14 30 14 2.1613 2.0792
-14 32 2 -0.6925 1.2195
-14 32 3 3.6737 0.7935
-14 32 4 -3.7212 -0.1367
-14 32 5 4.1862 -0.2667
-14 32 6 -1.2775 0.0143
-14 32 7 -1.1709 0.2909
-14 32 8 5.6167 -0.3794
-14 32 9 -2.8180 -1.0444
-13 1 1 -7.4988 -1.6640
-13 1 2 26.8391 -2.8630
-13 1 3 -4.4503 -1.7793
-13 1 4 3.7753 -0.2965
-13 1 5 -37.3299 -0.2578
-13 1 6 -11.4488 -0.3441
-13 1 7 0.7307 0.4617
-13 1 8 -39.7991 1.0433
-13 1 9 -38.9788 0.6641
-13 1 10 -4.9250 -0.0989
-13 1 11 -17.5316 -0.5332
-13 1 12 -12.8745 -0.5897
-13 1 13 -13.8559 -0.3453
-13 1 14 6.0714 0.1137
-13 1 15 13.6046 0.3398
-13 1 16 -1.6226 0.2344
-13 1 17 10.2589 -0.0162
-13 1 18 19.6935 -0.3087
-13 1 19 5.2048 -0.4703
-13 1 20 10.5833 -0.2863
-13 1 21 6.9263 -0.0817
-13 1 22 6.3052 -0.1359
-13 1 23 2.1774 0.3601
-13 1 24 3.8589 0.5489
-13 1 25 2.1030 0.1059
-13 1 26 -1.9019 -0.9747
-13 1 27 2.0925 -0.5267
-13 1 28 -0.8069 0.6492
-13 3 1 -13.6478 -0.4068
-13 3 2 -27.0024 -1.2536
-13 3 3 12.1784 -1.0730
-13 3 4 -13.0298 -0.0879
-13 3 5 -7.5444 0.8251
-13 3 6 1.7729 0.7326
-13 3 7 -8.9262 0.2604
-13 3 8 0.8914 0.3514
-13 3 9 18.1290 0.5179
-13 3 10 -7.3673 -0.0423
-13 3 11 2.2328 -0.6701
-13 3 12 15.9088 -0.4978
-13 3 13 9.8110 -0.0863
-13 3 14 -5.2605 0.0524
-13 3 15 -0.1449 0.1884
-13 3 16 21.4416 0.3417
-13 3 17 -5.6729 -0.0292
-13 3 18 -9.6883 -0.4386
-13 3 19 6.3867 -0.3334
-13 3 20 7.3607 -0.1417
-13 3 21 -6.3615 -0.0879
-13 3 22 -6.2363 0.1438
-13 3 23 -1.5182 0.5747
-13 3 24 2.6109 0.2098
-13 3 25 0.5173 -0.0086
-13 3 26 -7.3956 0.2398
-13 3 27 0.8127 -0.0038
-13 3 28 3.3505 -0.5753
-13 5 1 -4.4182 -0.1113
-13 5 2 -2.4374 -0.0102
-13 5 3 -49.2670 0.2783
-13 5 4 15.2344 0.2898
-13 5 5 29.2089 0.5561
-13 5 6 -16.1275 0.5474
-13 5 7 -21.5009 0.1367
-13 5 8 45.5981 -0.0663
-13 5 9 24.5044 -0.1546
-13 5 10 -11.4074 -0.0977
-13 5 11 13.8049 -0.3022
-13 5 12 29.0142 -0.2472
-13 5 13 4.6073 0.1518
-13 5 14 -16.5412 0.3234
-13 5 15 14.7671 0.2303
-13 5 16 3.2998 0.1318
-13 5 17 -19.8067 0.0280
-13 5 18 -7.9680 0.0360
-13 5 19 3.5951 0.0545
-13 5 20 -11.3492 -0.1175
-13 5 21 -10.3614 -0.0689
-13 5 22 1.0755 0.4107
-13 5 23 -6.1708 0.2316
-13 5 24 -7.7055 0.1416
-13 5 25 4.4308 -0.0701
-13 5 26 -2.1280 0.0841
-13 5 27 -4.1725 0.1643
-13 5 28 2.7475 -0.2761
-13 7 1 10.7468 0.0419
-13 7 2 -14.9637 0.4050
-13 7 3 2.3914 0.2752
-13 7 4 9.8491 0.2120
-13 7 5 10.4242 -0.2036
-13 7 6 -13.2353 -0.2480
-13 7 7 9.9605 -0.1103
-13 7 8 -8.5406 -0.4318
-13 7 9 -2.5444 -0.3445
-13 7 10 5.4199 -0.0705
-13 7 11 -3.1292 0.2312
-13 7 12 -12.1058 0.1215
-13 7 13 -3.8785 0.0501
-13 7 14 6.9547 0.1854
-13 7 15 -16.2799 0.1950
-13 7 16 -4.2108 -0.1855
-13 7 17 -4.0296 -0.1518
-13 7 18 -3.0881 0.0261
-13 7 19 -9.9954 0.1024
-13 7 20 1.7174 0.1084
-13 7 21 -4.4771 -0.0166
-13 7 22 -4.4735 -0.1018
-13 7 23 7.9762 -0.0844
-13 7 24 -4.2332 -0.0615
-13 7 25 -2.7439 -0.1389
-13 7 26 3.0807 -0.3687
-13 7 27 1.9975 -0.4439
-13 7 28 -2.3416 0.6903
-13 9 1 6.9033 0.3864
-13 9 2 29.9711 0.1665
-13 9 3 18.8467 -0.1223
-13 9 4 -12.8115 -0.0868
-13 9 5 5.8561 -0.1536
-13 9 6 19.5062 -0.3366
-13 9 7 -12.4466 -0.4496
-13 9 8 -17.9574 -0.0760
-13 9 9 -7.9477 0.1309
-13 9 10 -1.9537 0.1311
-13 9 11 -14.8281 0.1400
-13 9 12 -16.3897 0.1899
-13 9 13 -11.0112 0.1403
-13 9 14 10.2889 -0.0535
-13 9 15 -21.3672 -0.3242
-13 9 16 0.0870 -0.2551
-13 9 17 0.8093 -0.1593
-13 9 18 5.1910 0.0083
-13 9 19 -6.7788 0.0732
-13 9 20 -1.4708 0.0385
-13 9 21 9.7043 -0.0059
-13 9 22 -1.5448 -0.0981
-13 9 23 1.7963 0.0913
-13 9 24 4.2775 -0.4073
-13 9 25 -0.0488 -0.5064
-13 9 26 1.9598 0.0795
-13 9 27 -1.5404 0.0560
-13 11 1 -5.5035 -0.1445
-13 11 2 0.1208 0.0515
-13 11 3 18.7108 0.2679
-13 11 4 6.2012 -0.2062
-13 11 5 -9.5396 -0.1242
-13 11 6 7.7530 -0.0295
-13 11 7 6.6762 0.1953
-13 11 8 -4.8019 0.2255
-13 11 9 2.5586 0.0013
-13 11 10 -8.3378 0.1353
-13 11 11 -0.1434 0.2521
-13 11 12 5.0333 0.1302
-13 11 13 -1.0268 -0.2563
-13 11 14 -10.2234 -0.2665
-13 11 15 2.8710 -0.0175
-13 11 16 7.9471 0.0818
-13 11 17 -4.7435 -0.0175
-13 11 18 -1.0549 0.0399
-13 11 19 5.5207 0.1377
-13 11 20 -2.4154 0.1623
-13 11 21 0.8806 0.2507
-13 11 22 0.1116 0.1504
-13 11 23 3.0174 -0.3074
-13 11 24 -2.9298 0.0747
-13 11 25 2.0574 0.3905
-13 11 26 0.9251 -0.2747
-13 11 27 -0.7482 0.5476
-13 13 1 -28.5059 0.0312
-13 13 2 -0.8354 -0.1710
-13 13 3 10.7346 -0.1185
-13 13 4 -9.7854 0.2521
-13 13 5 -10.0016 0.0035
-13 13 6 7.8076 -0.0423
-13 13 7 4.4097 0.1888
-13 13 8 -9.0372 0.1878
-13 13 9 14.6220 0.1097
-13 13 10 2.3192 -0.0676
-13 13 11 -7.5868 -0.0562
-13 13 12 18.5273 -0.1244
-13 13 13 8.8332 -0.1167
-13 13 14 -12.4392 -0.0944
-13 13 15 6.4513 0.1095
-13 13 16 7.2617 0.1840
-13 13 17 4.2142 0.1449
-13 13 18 -6.7460 0.0499
-13 13 19 0.2045 0.1841
-13 13 20 4.5591 0.0535
-13 13 21 -2.2010 -0.2845
-13 13 22 -4.0131 0.0138
-13 13 23 -1.2591 0.3981
-13 13 24 0.3180 0.0452
-13 13 25 -0.9253 -0.1074
-13 13 26 -2.4320 0.3695
-13 15 1 17.4110 0.1725
-13 15 2 -2.6124 -0.1242
-13 15 3 -19.2812 -0.3485
-13 15 4 5.7196 -0.0697
-13 15 5 7.1352 0.1406
-13 15 6 -24.9911 0.1361
-13 15 7 3.1847 -0.0126
-13 15 8 -1.6963 -0.0332
-13 15 9 -1.5850 -0.0014
-13 15 10 -17.2531 0.0243
-13 15 11 9.9614 -0.1293
-13 15 12 9.0295 -0.2496
-13 15 13 -10.6258 -0.0264
-13 15 14 -1.1464 0.1495
-13 15 15 10.3566 0.0081
-13 15 16 4.2376 -0.0420
-13 15 17 -3.7939 0.1606
-13 15 18 3.8516 -0.0114
-13 15 19 5.2307 -0.3583
-13 15 20 0.3204 -0.1178
-13 15 21 -0.7339 -0.0252
-13 15 22 -0.1627 -0.5970
-13 15 23 2.8109 -0.1648
-13 15 24 -3.7408 0.6613
-13 15 25 0.2891 0.0467
-13 15 26 -1.2876 -0.0525
-13 17 1 10.4969 -0.3522
-13 17 2 -1.2470 -0.1064
-13 17 3 2.8628 0.1202
-13 17 4 -0.0309 -0.0247
-13 17 5 -5.7452 -0.0830
-13 17 6 -1.1805 0.0073
-13 17 7 1.5986 0.1851
-13 17 8 -15.7741 0.1429
-13 17 9 -5.9357 -0.1773
-13 17 10 4.7059 -0.2418
-13 17 11 -2.5527 0.0181
-13 17 12 -14.9515 0.1511
-13 17 13 7.8134 -0.0689
-13 17 14 7.4449 -0.0272
-13 17 15 -10.6065 -0.0214
-13 17 16 5.9723 0.0034
-13 17 17 7.7023 0.0212
-13 17 18 -0.2115 0.1405
-13 17 19 2.1905 -0.0356
-13 17 20 1.5958 -0.3040
-13 17 21 7.9067 -0.1998
-13 17 22 -5.6695 0.3497
-13 17 23 5.2702 -0.0463
-13 17 24 2.1358 -0.0954
-13 17 25 -2.5518 0.3791
-13 19 1 -7.4701 0.2209
-13 19 2 14.7564 -0.0577
-13 19 3 -9.1014 -0.1529
-13 19 4 -9.6983 -0.0042
-13 19 5 7.5631 0.3255
-13 19 6 9.3516 0.1270
-13 19 7 -8.8464 -0.2588
-13 19 8 1.7266 -0.2822
-13 19 9 8.9884 0.0332
-13 19 10 7.5741 0.2198
-13 19 11 -4.8810 -0.0318
-13 19 12 1.0096 -0.1766
-13 19 13 9.3432 0.0626
-13 19 14 2.5918 0.0616
-13 19 15 -1.3600 0.1888
-13 19 16 -2.5464 0.1569
-13 19 17 5.7809 -0.1674
-13 19 18 2.1924 -0.0068
-13 19 19 -2.2572 0.6745
-13 19 20 -2.2525 0.3369
-13 19 21 3.2576 -0.4179
-13 19 22 0.7924 -0.1784
-13 19 23 0.1383 1.1905
-13 19 24 0.1211 -0.0250
-13 21 1 -7.8735 0.0376
-13 21 2 -11.9130 0.0077
-13 21 3 -1.3334 0.0682
-13 21 4 1.2591 0.0728
-13 21 5 -1.1172 -0.1254
-13 21 6 -2.1818 -0.0989
-13 21 7 14.7339 -0.1146
-13 21 8 5.4196 -0.2199
-13 21 9 2.0935 0.0539
-13 21 10 11.9790 0.1032
-13 21 11 8.8115 0.0326
-13 21 12 2.6286 0.0912
-13 21 13 0.2527 0.1452
-13 21 14 9.7776 0.0480
-13 21 15 -3.0676 -0.2668
-13 21 16 -0.9600 -0.0394
-13 21 17 0.6032 0.4808
-13 21 18 -0.6172 -0.0665
-13 21 19 -2.9353 -0.6592
-13 21 20 1.1026 0.2139
-13 21 21 -3.8436 0.5969
-13 21 22 -0.4200 -0.3118
-13 21 23 1.1057 -0.3410
-13 23 1 -3.7537 -0.3555
-13 23 2 -2.9833 0.2318
-13 23 3 4.2230 0.2103
-13 23 4 1.8690 0.0436
-13 23 5 -0.8878 -0.2778
-13 23 6 4.7349 -0.2959
-13 23 7 1.0596 0.0217
-13 23 8 7.1020 0.3398
-13 23 9 2.3490 0.0126
-13 23 10 -4.0753 -0.1966
-13 23 11 7.3646 0.0259
-13 23 12 5.2990 0.1862
-13 23 13 -9.7372 0.0516
-13 23 14 0.9291 -0.1234
-13 23 15 5.5253 -0.2036
-13 23 16 -3.9732 -0.3435
-13 23 17 -3.2723 -0.4020
-13 23 18 3.7865 0.0375
-13 23 19 -1.5608 0.0315
-13 23 20 3.1148 -0.7287
-13 23 21 -2.9452 -0.4305
-13 23 22 0.9379 0.3572
-13 25 1 8.7727 0.2430
-13 25 2 4.7319 -0.1001
-13 25 3 2.2128 -0.0540
-13 25 4 3.7123 -0.0819
-13 25 5 4.1074 0.1880
-13 25 6 -1.3045 0.1257
-13 25 7 -0.9165 0.0245
-13 25 8 -0.8514 0.0863
-13 25 9 1.0671 -0.1218
-13 25 10 -9.0939 -0.2106
-13 25 11 -3.4324 -0.0021
-13 25 12 2.4286 0.0297
-13 25 13 -6.5678 -0.2231
-13 25 14 -5.2064 -0.2148
-13 25 15 0.7583 0.2229
-13 25 16 0.9641 0.0204
-13 25 17 -0.5537 -0.3986
-13 25 18 -0.0860 -0.3396
-13 25 19 3.8526 0.1931
-13 25 20 0.9430 0.7341
-13 27 1 -1.4053 -0.0030
-13 27 2 -0.2541 -0.0464
-13 27 3 3.8747 -0.2478
-13 27 4 0.1166 -0.0115
-13 27 5 -4.6572 0.1873
-13 27 6 1.4991 0.1883
-13 27 7 0.7479 0.0522
-13 27 8 -4.6857 -0.3054
-13 27 9 -2.7282 -0.2151
-13 27 10 -0.5673 -0.1287
-13 27 11 -1.5605 -0.2511
-13 27 12 -4.4525 -0.0507
-13 27 13 -0.3724 0.3017
-13 27 14 1.9804 0.5124
-13 27 15 -5.0531 0.1878
-13 27 16 1.7752 0.2118
-13 27 17 4.0180 0.4780
-13 27 18 -3.0549 0.9879
-13 29 1 -2.7722 0.0636
-13 29 2 -1.0554 -0.0412
-13 29 3 -3.5419 -0.2908
-13 29 4 0.0812 -0.2304
-13 29 5 -3.7690 0.0621
-13 29 6 2.9714 0.0409
-13 29 7 -3.6692 -0.2374
-13 29 8 1.9743 -0.2377
-13 29 9 0.3682 -0.0806
-13 29 10 2.3445 -0.3229
-13 29 11 0.1215 0.1767
-13 29 12 -0.4483 0.1785
-13 29 13 3.5521 0.0809
-13 29 14 2.1102 0.8900
-13 29 15 -1.7661 1.2933
-13 29 16 2.0560 -0.7562
-13 31 1 1.7740 1.0879
-13 31 2 0.7442 -0.3757
-13 31 3 -2.1291 -0.7824
-13 31 4 3.2164 0.1624
-13 31 5 0.9903 0.2198
-13 31 6 -1.7822 -0.3114
-13 31 7 3.9875 -0.1796
-13 31 8 0.7235 0.4415
-13 31 9 0.4721 -0.5742
-13 31 10 2.8496 -0.0819
-13 31 11 1.4748 0.5838
-13 31 12 -1.9473 0.8041
-13 31 13 5.6131 -1.7725
-13 33 3 1.4624 -1.4360
-13 33 4 1.6549 0.7981
-13 33 5 2.8856 0.5687
-13 33 6 -1.7164 -0.7582
-13 33 7 1.6007 -0.1027
-12 0 1 -17.8212 3.9551
-12 0 2 -47.2130 -4.5239
-12 0 3 22.8132 -4.5555
-12 0 4 -44.2568 0.3272
-12 0 5 -51.3212 1.7153
-12 0 6 11.8038 0.4541
-12 0 7 -55.1334 -0.3036
-12 0 8 -49.4559 -0.3429
-12 0 9 -6.2128 -0.0567
-12 0 10 13.5169 -0.2201
-12 0 11 -52.9268 -0.0859
-12 0 12 -13.6578 0.1838
-12 0 13 34.6496 0.3294
-12 0 14 6.5791 0.3268
-12 0 15 -13.8624 0.3332
-12 0 17 19.2444 -0.6024
-12 0 18 15.1048 -0.6024
-12 0 19 -3.9249 -0.1156
-12 0 20 7.1847 0.3459
-12 0 21 14.0417 0.3781
-12 0 22 0.5382 0.2963
-12 0 23 -8.9463 0.3963
-12 0 24 1.7196 0.3873
-12 0 25 -0.0586 -0.3617
-12 0 26 -2.0813 -1.1461
-12 0 27 -2.7891 -0.7694
-12 0 28 -2.3880 0.7676
-12 2 1 -5.7869 -0.3260
-12 2 2 19.9307 -1.4531
-12 2 3 -40.0089 -1.3325
-12 2 4 -3.4656 -0.5758
-12 2 5 5.3545 0.7353
-12 2 6 -26.8335 1.0700
-12 2 7 -19.6074 0.3163
-12 2 8 -3.2515 -0.3184
-12 2 9 -6.3806 -0.6349
-12 2 10 -16.3872 -0.4023
-12 2 11 -5.1280 0.0683
-12 2 12 -7.4914 0.4378
-12 2 13 0.5541 0.2204
-12 2 14 -0.1955 0.0223
-12 2 15 4.5226 0.0235
-12 2 16 -1.3996 0.0857
-12 2 17 10.1203 -0.4114
-12 2 18 10.2819 -0.7128
-12 2 19 -6.2583 -0.4451
-12 2 20 1.5157 0.1668
-12 2 21 5.2286 0.4284
-12 2 22 4.6467 0.4938
-12 2 23 -8.2426 0.5870
-12 2 24 -1.8047 -0.2437
-12 2 25 1.8204 -0.1478
-12 2 26 -1.8319 0.1369
-12 2 27 -3.8767 -0.2983
-12 2 28 0.4244 -1.3541
-12 4 1 -11.1560 -1.1922
-12 4 2 -7.0304 0.4149
-12 4 3 29.5771 0.7049
-12 4 4 14.1374 0.0583
-12 4 5 -11.1796 0.3792
-12 4 6 -1.4094 0.6943
-12 4 7 54.5779 0.2753
-12 4 8 -0.3032 -0.2298
-12 4 9 -17.2599 -0.4426
-12 4 10 12.2143 -0.2814
-12 4 11 17.5345 -0.0593
-12 4 12 -1.5530 0.2259
-12 4 13 -31.4580 0.3477
-12 4 14 3.1155 0.2834
-12 4 15 -1.8290 0.0769
-12 4 16 -15.4172 -0.2519
-12 4 17 -10.0699 -0.2517
-12 4 18 -11.9654 -0.0328
-12 4 19 4.3701 -0.0341
-12 4 20 -5.0041 -0.3611
-12 4 21 -11.0348 0.1361
-12 4 22 0.9123 0.5963
-12 4 23 6.2525 0.2508
-12 4 24 -7.5032 0.1448
-12 4 25 -2.5549 -0.0601
-12 4 26 1.9130 -0.2939
-12 4 27 -1.2707 -0.0231
-12 4 28 -0.5329 0.7462
-12 6 1 13.1464 0.3104
-12 6 2 -2.3787 0.3609
-12 6 3 -3.4559 0.4475
-12 6 4 -10.2917 0.4287
-12 6 5 27.9688 -0.2259
-12 6 7 6.9815 0.1480
-12 6 8 3.5612 -0.0535
-12 6 9 22.2553 -0.2779
-12 6 10 -12.8005 -0.2204
-12 6 11 5.9760 0.2807
-12 6 12 12.1521 0.3879
-12 6 13 5.0232 0.0844
-12 6 14 -21.3211 -0.2652
-12 6 15 -4.8942 0.0847
-12 6 16 11.4213 0.3119
-12 6 17 -11.5877 -0.0921
-12 6 18 -18.0193 -0.3119
-12 6 19 2.3670 0.0687
-12 6 20 3.1789 0.3631
-12 6 21 -8.5372 -0.0793
-12 6 22 -5.8472 -0.1472
-12 6 23 6.2122 -0.1449
-12 6 24 -3.0106 -0.0382
-12 6 25 -1.1458 -0.0595
-12 6 26 -0.8922 0.1948
-12 6 27 1.3400 -0.0774
-12 6 28 -3.7961 -0.9555
-12 8 1 0.0539 0.3087
-12 8 2 -3.1894 -0.0349
-12 8 3 -24.0306 -0.2481
-12 8 4 -3.8265 -0.0929
-12 8 5 0.0012 -0.1269
-12 8 6 -15.6928 -0.4007
-12 8 7 -2.8911 -0.3928
-12 8 8 -11.2426 0.0288
-12 8 9 -1.0895 0.2991
-12 8 10 7.3373 0.2636
-12 8 11 3.2436 -0.0015
-12 8 12 -3.0166 -0.1033
-12 8 13 17.0854 -0.0517
-12 8 14 14.3000 0.0417
-12 8 15 -4.1429 -0.2874
-12 8 16 4.4760 -0.3870
-12 8 17 13.0438 0.1494
-12 8 18 4.2587 0.3492
-12 8 19 -4.7178 0.0310
-12 8 20 -3.2088 -0.1116
-12 8 21 8.7104 -0.0222
-12 8 22 -0.4406 -0.1682
-12 8 23 -8.1227 -0.0268
-12 8 24 0.3085 -0.1724
-12 8 25 6.3834 -0.4078
-12 8 26 -4.0141 -0.3145
-12 8 27 -3.9733 0.6989
-12 10 1 -21.1974 -0.0006
-12 10 2 19.2473 -0.1543
-12 10 3 14.3668 -0.0552
-12 10 4 -21.0524 -0.1613
-12 10 5 -11.8736 -0.2145
-12 10 6 21.4243 -0.0536
-12 10 7 6.1803 0.1149
-12 10 8 -29.5358 0.1242
-12 10 9 9.4028 0.0097
-12 10 10 21.8963 0.1512
-12 10 11 -13.2514 0.2394
-12 10 12 6.2711 -0.1111
-12 10 13 8.1958 -0.4768
-12 10 14 13.5773 -0.3116
-12 10 15 2.9472 0.1149
-12 10 16 -1.5241 0.1790
-12 10 17 13.3601 -0.2054
-12 10 18 2.9397 0.0033
-12 10 19 0.7774 0.3258
-12 10 20 1.3812 0.2019
-12 10 21 -1.7072 -0.0966
-12 10 22 0.8037 -0.1920
-12 10 23 0.0434 -0.0596
-12 10 24 -1.9744 0.0608
-12 10 25 0.5160 0.2406
-12 10 26 -0.3024 0.0278
-12 10 27 -0.1563 -0.4130
-12 12 1 13.0746 0.1053
-12 12 2 0.7539 -0.0100
-12 12 3 10.8707 -0.1005
-12 12 4 17.9868 -0.1513
-12 12 5 11.3196 0.2214
-12 12 6 0.0171 0.2479
-12 12 7 14.5661 -0.0392
-12 12 8 20.7400 -0.0778
-12 12 9 -6.8569 0.2105
-12 12 10 -2.8266 0.1732
-12 12 11 18.4522 -0.2535
-12 12 12 -4.0880 -0.2318
-12 12 13 -10.7795 0.0990
-12 12 14 2.1450 0.1513
-12 12 15 9.0904 0.0080
-12 12 16 -15.7505 0.0442
-12 12 17 0.3696 0.2053
-12 12 18 4.9356 0.0783
-12 12 19 -3.2616 0.0755
-12 12 20 -2.8976 -0.0746
-12 12 21 0.7453 -0.0981
-12 12 22 -1.3476 0.0218
-12 12 23 -1.2911 0.0184
-12 12 24 0.9837 0.1983
-12 12 25 1.9280 0.2347
-12 12 26 -0.7522 -0.0966
-12 12 27 2.6101 0.5439
-12 14 1 -2.8989 -0.3109
-12 14 2 -10.3671 -0.0342
-12 14 3 12.6499 0.0874
-12 14 4 14.4774 0.1144
-12 14 5 -3.6666 -0.1609
-12 14 6 3.6418 0.0251
-12 14 7 -5.1157 0.3395
-12 14 8 8.7365 0.0200
-12 14 9 3.6246 -0.2082
-12 14 10 -4.2188 -0.0970
-12 14 11 -8.6253 0.0595
-12 14 12 0.0683 -0.0275
-12 14 13 6.9288 0.1292
-12 14 14 -11.6633 0.2076
-12 14 15 -3.7681 0.0753
-12 14 16 4.5821 -0.0988
-12 14 17 -2.8413 -0.0016
-12 14 18 -3.9630 0.0175
-12 14 19 4.8228 -0.2603
-12 14 20 1.3371 -0.1629
-12 14 21 -2.5061 -0.0633
-12 14 22 -2.8169 0.0608
-12 14 23 5.5749 0.0541
-12 14 24 -0.6397 -0.0869
-12 14 25 -1.9468 -0.0840
-12 14 26 2.7335 0.9935
-12 16 1 10.9506 0.0101
-12 16 2 -1.6363 -0.0453
-12 16 3 -20.4381 -0.0937
-12 16 4 0.1273 0.0769
-12 16 5 0.5916 0.0335
-12 16 6 -18.9500 0.1472
-12 16 7 -16.4710 0.0999
-12 16 8 -5.0121 0.0410
-12 16 9 5.0193 -0.1553
-12 16 10 -12.4563 -0.2000
-12 16 11 -10.8212 0.0075
-12 16 12 3.6788 0.1258
-12 16 13 10.3428 -0.0326
-12 16 14 -2.5837 -0.0916
-12 16 15 -1.8122 0.0081
-12 16 16 8.7105 -0.0519
-12 16 17 8.5038 -0.3609
-12 16 18 0.4675 -0.3666
-12 16 19 2.6149 0.2347
-12 16 20 6.8813 0.2777
-12 16 21 2.0323 -0.2609
-12 16 22 -1.1320 -0.1706
-12 16 23 1.1371 0.9711
-12 16 24 3.2010 0.5014
-12 16 25 -1.8286 -2.0784
-12 18 1 -2.6381 0.0534
-12 18 2 -1.3906 0.0063
-12 18 3 1.5519 0.1612
-12 18 4 -5.2338 -0.1354
-12 18 5 -15.7906 0.1087
-12 18 6 -2.6807 0.0871
-12 18 7 6.3896 0.0219
-12 18 8 -5.6626 0.0119
-12 18 9 -17.4551 -0.1237
-12 18 10 7.3569 -0.1000
-12 18 11 13.8576 -0.1008
-12 18 12 -14.2476 0.1026
-12 18 13 -1.2498 0.0517
-12 18 14 15.7702 -0.1192
-12 18 15 0.9237 -0.2102
-12 18 16 -2.4987 0.1001
-12 18 17 4.6913 0.0300
-12 18 18 7.2572 -0.0617
-12 18 19 1.0715 -0.1254
-12 18 20 1.0972 0.3066
-12 18 21 0.4337 0.8138
-12 18 22 6.1660 0.5428
-12 18 23 0.0398 -0.8890
-12 18 24 -3.4641 -0.1206
-12 18 25 3.6204 3.0753
-12 20 1 -11.2215 -0.0538
-12 20 2 16.4905 0.1422
-12 20 3 7.0907 0.1080
-12 20 4 -9.5425 0.0376
-12 20 5 3.3935 -0.3658
-12 20 6 21.2079 -0.1841
-12 20 7 1.4899 0.2568
-12 20 8 9.8206 0.1151
-12 20 9 -2.5314 -0.0523
-12 20 10 9.8177 -0.0752
-12 20 11 8.9769 0.2148
-12 20 12 -7.2461 0.1964
-12 20 13 0.1247 0.0946
-12 20 14 1.4665 -0.0449
-12 20 15 -3.3981 0.2065
-12 20 16 -0.0323 -0.0033
-12 20 17 -4.7503 -0.1154
-12 20 18 -2.5494 0.0546
-12 20 19 0.3599 0.4445
-12 20 20 -1.1112 -0.1045
-12 20 21 -1.3815 -0.6189
-12 20 22 1.6013 0.2559
-12 20 23 0.0246 1.3991
-12 20 24 0.5001 -2.3451
-12 22 1 6.9496 0.2274
-12 22 2 -0.5495 0.0375
-12 22 3 -5.9872 -0.2871
-12 22 4 8.7490 -0.2428
-12 22 5 11.9679 0.1047
-12 22 6 1.6173 0.1459
-12 22 7 2.7247 -0.1063
-12 22 8 13.2476 -0.0656
-12 22 9 7.0473 0.2588
-12 22 10 -2.3655 0.3063
-12 22 11 0.2145 0.1269
-12 22 12 7.0822 0.0841
-12 22 13 -4.3844 -0.0087
-12 22 14 -4.7540 -0.0485
-12 22 15 1.5257 -0.1038
-12 22 16 -3.2006 0.1545
-12 22 17 -2.9396 -0.0125
-12 22 18 -1.2239 -0.6391
-12 22 19 -2.1376 -0.1907
-12 22 20 -2.0494 0.6946
-12 22 21 0.1663 -0.0948
-12 22 22 -0.6004 -3.3300
-12 24 1 -3.2801 -0.0147
-12 24 2 -11.0074 -0.1474
-12 24 3 4.6848 0.0815
-12 24 4 1.1854 0.2335
-12 24 5 -4.3537 0.0681
-12 24 6 -3.0134 0.0146
-12 24 7 -0.3417 0.0505
-12 24 8 -4.3269 0.1267
-12 24 9 3.4066 -0.2084
-12 24 10 -2.0142 -0.0304
-12 24 11 -4.5173 0.1792
-12 24 12 1.0538 -0.0335
-12 24 13 3.7710 -0.2017
-12 24 14 0.0054 -0.1787
-12 24 15 -0.7002 -0.2955
-12 24 16 3.7721 -0.1345
-12 24 17 3.6965 0.3067
-12 24 18 -0.4160 0.6388
-12 24 19 0.1882 -1.1226
-12 24 20 3.4216 -0.5047
-12 24 21 -1.5544 3.4498
-12 26 1 2.7682 -0.0566
-12 26 2 -3.3030 0.1476
-12 26 3 -3.3967 0.3471
-12 26 4 -0.9297 0.4070
-12 26 5 -1.6567 0.1821
-12 26 6 -6.4821 -0.2039
-12 26 7 -6.7825 -0.1048
-12 26 8 2.1967 -0.1565
-12 26 9 -4.7713 -0.2130
-12 26 10 -4.3064 -0.0996
-12 26 11 0.2337 0.0532
-12 26 12 2.8650 0.0790
-12 26 13 -2.1087 -0.0334
-12 26 14 2.0249 0.1538
-12 26 15 6.6616 0.5885
-12 26 16 -1.5784 -0.0864
-12 26 17 2.5787 -0.0669
-12 26 18 4.3837 0.3237
-12 26 19 0.4253 1.9052
-12 26 20 -0.9615 -0.8197
-12 28 1 -1.0527 0.3256
-12 28 2 3.3364 -0.1381
-12 28 3 -0.8964 -0.0065
-12 28 4 -0.0679 0.4017
-12 28 5 0.0143 0.3635
-12 28 6 2.7596 -0.2857
-12 28 7 -0.0117 -0.6552
-12 28 8 -1.9420 -0.3019
-12 28 9 2.2134 0.3934
-12 28 10 0.0730 0.0972
-12 28 11 -0.0052 -0.0136
-12 28 12 -1.1877 0.2197
-12 28 13 1.9537 0.7927
-12 28 14 -0.4029 0.6073
-12 28 15 -2.3393 -0.3202
-12 28 16 2.8491 0.9437
-12 28 17 -4.5520 0.4468
-12 28 18 1.9834 -2.7780
-12 30 1 0.3254 -0.4964
-12 30 2 1.8319 0.3565
-12 30 3 3.1071 0.4394
-12 30 4 -0.6542 -0.2150
-12 30 5 4.8629 -0.7405
-12 30 6 4.3582 -0.1327
-12 30 7 -0.4443 0.5038
-12 30 8 3.2911 0.4607
-12 30 9 -0.7236 -0.4276
-12 30 10 3.4383 -0.2790
-12 30 11 -0.2328 0.1529
-12 30 12 -2.5752 0.8022
-12 30 13 0.6817 0.4322
-12 30 14 -1.7731 -0.5336
-12 30 15 -1.0719 -1.5141
-12 32 1 1.9601 -0.3956
-12 32 2 -0.2772 0.0273
-12 32 3 1.5225 0.1787
-12 32 4 1.4953 -0.6111
-12 32 5 2.0237 -0.7102
-12 32 6 -0.1886 0.4216
-12 32 7 1.7952 1.2415
-12 32 8 0.0580 0.6154
-12 32 9 -0.6069 -0.4925
-12 32 10 -0.0602 -0.6738
-12 32 11 0.4982 -0.1693
-12 32 12 -0.2787 0.5042
-11 1 1 -27.9977 -1.6000
-11 1 2 -1.5451 0.3042
-11 1 3 3.0962 1.0627
-11 1 4 -21.2505 0.5923
-11 1 5 -9.1946 -0.3079
-11 1 6 1.3562 -0.5570
-11 1 7 8.2781 -0.3167
-11 1 8 5.4084 -0.3762
-11 1 9 -31.3603 -0.6287
-11 1 10 -0.6781 -0.3467
-11 1 11 23.1451 0.4491
-11 1 12 -18.1744 1.0126
-11 1 13 -28.0940 0.8770
-11 1 14 21.3813 0.2602
-11 1 15 8.1043 -0.6186
-11 1 16 -20.7740 -0.9153
-11 1 17 -4.3115 -0.3564
-11 1 18 12.7139 0.1295
-11 1 19 -6.9600 0.1099
-11 1 20 -11.1649 0.2675
-11 1 21 -0.6958 0.4746
-11 1 22 -0.6519 0.4301
-11 1 23 -0.0184 -0.1409
-11 1 24 0.9774 -0.4235
-11 1 25 -0.9360 -0.2396
-11 1 26 -1.3539 -0.1758
-11 1 27 3.3572 0.1496
-11 1 28 0.3518 0.4399
-11 3 1 4.8038 0.5951
-11 3 2 17.0129 -0.1968
-11 3 3 -14.1015 0.4158
-11 3 4 -6.2989 0.9209
-11 3 5 29.1139 0.2690
-11 3 6 3.1406 -0.8082
-11 3 7 -27.1537 -0.7803
-11 3 8 -4.1092 -0.0115
-11 3 9 8.4871 -0.1656
-11 3 10 -12.2764 -0.4406
-11 3 11 -29.2610 0.2775
-11 3 12 -12.4785 1.0175
-11 3 13 18.5869 0.5495
-11 3 14 -34.6442 -0.0600
-11 3 15 -6.7190 -0.1395
-11 3 16 10.3613 -0.2746
-11 3 17 -8.5147 -0.6482
-11 3 18 -2.1888 -0.2966
-11 3 19 1.6609 0.3849
-11 3 20 5.3756 0.4036
-11 3 21 -3.1679 -0.0612
-11 3 22 0.8571 -0.1574
-11 3 23 4.2128 0.3938
-11 3 24 -1.4914 -0.0153
-11 3 25 -1.7341 -0.3557
-11 3 26 -1.6964 -0.1631
-11 3 27 0.9005 0.0723
-11 3 28 -0.4347 -0.0911
-11 5 1 56.3681 -0.4600
-11 5 2 -38.9239 0.3038
-11 5 3 -6.1808 0.5873
-11 5 4 36.9601 -0.0394
-11 5 5 14.5417 -0.1580
-11 5 6 -33.3435 -0.1824
-11 5 7 -0.4780 -0.2212
-11 5 8 14.7130 -0.1903
-11 5 9 3.2407 -0.0565
-11 5 10 -29.6938 0.0968
-11 5 11 -2.2372 0.2210
-11 5 12 3.9472 0.2311
-11 5 13 -2.2236 0.1426
-11 5 14 -8.5061 -0.0458
-11 5 15 -14.9229 -0.1104
-11 5 16 7.4577 -0.1997
-11 5 17 5.6984 -0.1273
-11 5 18 -11.5512 0.0443
-11 5 19 3.3533 0.0693
-11 5 20 10.0965 -0.1590
-11 5 21 -0.3468 0.0909
-11 5 22 -4.6222 0.2041
-11 5 23 4.9423 -0.2806
-11 5 24 3.1647 -0.0608
-11 5 25 -7.1708 0.0407
-11 5 26 -3.7414 0.0175
-11 5 27 5.2850 0.2895
-11 5 28 -3.5077 0.0548
-11 7 1 -42.2998 -0.0465
-11 7 2 17.0779 0.0780
-11 7 3 0.5366 -0.3354
-11 7 4 -6.9335 -0.0152
-11 7 5 -20.6785 -0.1639
-11 7 6 4.5134 0.0189
-11 7 7 14.3467 0.1902
-11 7 8 1.7957 -0.0176
-11 7 9 14.7415 0.1738
-11 7 10 7.5954 0.3302
-11 7 11 4.6421 0.0691
-11 7 12 26.4342 -0.3756
-11 7 13 8.3960 -0.2383
-11 7 14 5.8791 0.0216
-11 7 15 2.3170 -0.0352
-11 7 16 4.4814 -0.1235
-11 7 17 8.8231 0.1641
-11 7 18 -12.5977 0.2346
-11 7 19 4.4047 -0.0322
-11 7 20 1.1270 -0.0346
-11 7 21 -4.6642 -0.0482
-11 7 22 -4.7261 0.0087
-11 7 23 2.4681 -0.2127
-11 7 24 -3.3275 -0.2013
-11 7 25 -4.4644 0.0883
-11 7 26 1.7764 0.3504
-11 7 27 -3.5923 -0.1837
-11 7 28 2.4926 0.0604
-11 9 1 -8.2768 0.5806
-11 9 2 -29.5508 -0.1816
-11 9 3 -1.8759 -0.3505
-11 9 4 -2.4884 -0.2440
-11 9 5 2.9854 0.2040
-11 9 6 -28.2979 0.2656
-11 9 7 29.6376 0.0671
-11 9 8 33.1013 0.2084
-11 9 9 -13.4017 0.1129
-11 9 10 15.2914 -0.0011
-11 9 11 41.7113 -0.1024
-11 9 12 4.1348 -0.1941
-11 9 13 6.3787 -0.3987
-11 9 14 19.4520 -0.2044
-11 9 15 12.0541 0.1719
-11 9 16 -2.1885 0.3540
-11 9 17 0.5461 0.0469
-11 9 18 6.8005 -0.1435
-11 9 19 -5.8526 0.0873
-11 9 20 -8.9169 0.3489
-11 9 21 4.3364 -0.0575
-11 9 22 -2.8431 -0.5459
-11 9 23 -6.3378 0.1713
-11 9 24 -8.3281 0.2205
-11 9 25 8.4402 -0.0818
-11 9 26 -2.9839 -0.0293
-11 9 27 -4.8121 0.1784
-11 11 1 -10.8636 -0.3215
-11 11 2 7.6671 -0.0030
-11 11 3 18.1499 0.1756
-11 11 4 -17.4178 -0.1456
-11 11 5 -1.8425 -0.0587
-11 11 6 38.9087 0.1143
-11 11 7 -4.5129 0.1016
-11 11 8 -13.9342 -0.0359
-11 11 9 13.4100 -0.0498
-11 11 10 28.9061 -0.0702
-11 11 11 -14.5352 -0.2496
-11 11 12 -14.0956 -0.1810
-11 11 13 16.6658 0.0888
-11 11 14 7.1553 0.2039
-11 11 15 -10.9698 0.0296
-11 11 16 2.5258 -0.0622
-11 11 17 3.0311 0.0894
-11 11 18 5.0653 0.2784
-11 11 19 -7.0986 0.0019
-11 11 20 1.6527 -0.4970
-11 11 21 3.8349 -0.0578
-11 11 22 1.0604 0.4082
-11 11 23 -6.1659 -0.1796
-11 11 24 2.9123 0.0082
-11 11 25 1.8622 0.3425
-11 11 26 0.6577 -0.2658
-11 11 27 -3.5728 0.2647
-11 13 1 30.9082 -0.0431
-11 13 2 13.3384 0.0623
-11 13 3 -9.4636 -0.0182
-11 13 4 19.8242 0.0740
-11 13 5 11.7603 -0.1464
-11 13 6 2.4478 -0.1420
-11 13 7 2.2641 0.0910
-11 13 8 -11.8225 -0.0257
-11 13 9 9.1205 -0.1581
-11 13 10 -9.9431 -0.1998
-11 13 11 -15.2328 0.1826
-11 13 12 1.8654 0.3483
-11 13 13 -11.1074 0.1211
-11 13 14 -15.0831 -0.1411
-11 13 15 8.3506 0.1486
-11 13 16 2.4617 0.2262
-11 13 17 -10.8274 -0.1238
-11 13 18 0.9624 -0.3589
-11 13 19 9.2548 -0.0200
-11 13 20 4.8510 0.1297
-11 13 21 -4.4547 -0.2547
-11 13 22 2.0673 -0.1801
-11 13 23 9.1089 0.3640
-11 13 24 1.1935 -0.0616
-11 13 25 -3.7230 -0.2885
-11 13 26 5.5486 0.4494
-11 15 1 11.6501 -0.0595
-11 15 2 -13.4403 -0.0652
-11 15 3 4.6940 -0.0100
-11 15 4 12.1340 0.1165
-11 15 5 0.6389 0.2274
-11 15 6 -19.0691 0.0300
-11 15 7 9.8772 -0.3374
-11 15 8 5.9813 -0.0855
-11 15 9 -12.3141 0.2643
-11 15 10 -9.5063 0.2035
-11 15 11 6.9250 -0.1004
-11 15 12 2.9355 0.0465
-11 15 13 -10.7514 0.3014
-11 15 14 -1.8657 0.0685
-11 15 15 7.2498 -0.3377
-11 15 16 0.9474 -0.2614
-11 15 17 -1.9829 0.0714
-11 15 18 -0.1564 -0.0191
-11 15 19 4.0409 -0.1812
-11 15 20 0.9338 0.0613
-11 15 21 4.2482 0.2453
-11 15 22 -4.2387 0.1331
-11 15 23 4.4952 0.0010
-11 15 24 1.4806 0.0047
-11 15 25 -1.4803 -0.4182
-11 15 26 0.7647 -0.0694
-11 17 1 -10.5273 -0.2010
-11 17 2 6.8794 -0.1032
-11 17 3 -10.8992 0.2573
-11 17 4 -7.9396 0.2249
-11 17 5 4.7119 -0.0386
-11 17 6 -4.7923 -0.0518
-11 17 7 -11.9741 0.0319
-11 17 8 8.3577 -0.0557
-11 17 9 3.5329 -0.0867
-11 17 10 -4.4040 0.1157
-11 17 11 1.8643 0.1215
-11 17 12 5.8219 -0.1562
-11 17 13 7.6835 -0.3100
-11 17 14 -1.8859 -0.0432
-11 17 15 -0.7887 -0.0037
-11 17 16 9.0223 -0.1986
-11 17 17 0.3444 -0.3471
-11 17 18 -4.1232 0.2405
-11 17 19 3.9160 0.3731
-11 17 20 1.2450 0.1008
-11 17 21 -1.3916 0.1892
-11 17 22 -0.1723 0.6059
-11 17 23 0.5158 0.0685
-11 17 24 -2.3430 -0.2656
-11 17 25 -0.3009 0.0351
-11 19 1 8.5677 0.0586
-11 19 2 -4.7934 -0.0214
-11 19 3 -4.4948 0.0122
-11 19 4 11.8866 0.0264
-11 19 5 -3.0351 0.0066
-11 19 6 -8.6773 -0.1666
-11 19 7 9.4437 -0.0996
-11 19 8 -3.5183 0.1761
-11 19 9 -9.2695 0.1538
-11 19 10 6.1762 -0.1937
-11 19 11 3.2626 -0.1505
-11 19 12 -15.5157 0.1766
-11 19 13 1.4891 -0.0042
-11 19 14 11.3288 -0.3176
-11 19 15 -11.8524 0.0597
-11 19 16 -3.7216 0.1844
-11 19 17 6.5506 -0.0068
-11 19 18 -0.1906 -0.1317
-11 19 19 -1.6738 0.3265
-11 19 20 -0.8610 0.1764
-11 19 21 3.8271 -0.0491
-11 19 22 1.2964 0.1423
-11 19 23 -0.4994 0.7121
-11 19 24 -1.2718 -0.4203
-11 21 1 -8.7020 -0.1162
-11 21 2 9.0101 0.0235
-11 21 3 15.4311 -0.0341
-11 21 4 -4.1175 -0.0896
-11 21 5 -2.3975 -0.0452
-11 21 6 11.4187 0.0113
-11 21 7 -0.4453 0.0897
-11 21 8 -7.8083 0.0593
-11 21 9 -2.2198 0.1874
-11 21 10 -1.2107 0.1916
-11 21 11 -4.1700 -0.0437
-11 21 12 -9.2500 -0.1855
-11 21 13 -4.5282 0.1555
-11 21 14 -0.8071 0.3153
-11 21 15 -1.5732 -0.0994
-11 21 16 -7.5425 -0.1240
-11 21 17 1.4758 0.1115
-11 21 18 1.5087 0.0059
-11 21 19 -1.2914 -0.3443
-11 21 20 -0.7147 -0.3305
-11 21 21 2.2082 0.0716
-11 21 22 2.9772 -0.1216
-11 21 23 0.1792 -0.2987
-11 23 1 0.4066 -0.0796
-11 23 2 -3.4523 -0.2226
-11 23 3 3.2035 0.0452
-11 23 4 -4.2028 0.1258
-11 23 5 4.0217 -0.1789
-11 23 6 -3.3522 0.0142
-11 23 7 -0.0429 0.2666
-11 23 8 3.0289 0.1909
-11 23 9 -0.1031 -0.1320
-11 23 10 -3.7219 -0.1507
-11 23 11 -1.8622 0.1352
-11 23 12 8.3237 0.0356
-11 23 13 -3.3562 -0.2591
-11 23 14 -4.7170 -0.1928
-11 23 15 6.0193 0.1740
-11 23 16 2.2042 0.0517
-11 23 17 -3.1634 -0.1839
-11 23 18 -0.3582 -0.0240
-11 23 19 1.0469 -0.1974
-11 23 20 -1.7717 -0.2114
-11 23 21 0.6570 -0.3480
-11 23 22 -1.1402 0.6402
-11 25 1 2.8055 -0.0510
-11 25 2 -11.5769 -0.0394
-11 25 3 -6.4683 -0.0013
-11 25 4 1.2636 -0.0242
-11 25 5 -2.2872 -0.0228
-11 25 6 -2.3285 -0.0394
-11 25 7 -1.6374 -0.0663
-11 25 8 3.7794 0.0396
-11 25 9 6.3143 -0.0219
-11 25 10 -2.4137 -0.0323
-11 25 11 5.2528 -0.2929
-11 25 12 8.3486 0.0341
-11 25 13 2.9459 0.1628
-11 25 14 0.4348 -0.1365
-11 25 15 6.4089 -0.2153
-11 25 16 3.3013 0.2157
-11 25 17 -0.5880 0.5219
-11 25 18 -1.1398 0.2261
-11 25 19 0.1554 0.3862
-11 25 20 -1.4855 0.4470
-11 25 21 -1.2857 -0.1588
-11 27 1 0.1246 0.2853
-11 27 2 4.9868 0.4643
-11 27 3 -2.6243 0.1256
-11 27 4 -4.8496 -0.2583
-11 27 5 2.7284 -0.1742
-11 27 6 7.3544 -0.0881
-11 27 7 -7.2770 0.0976
-11 27 8 1.8786 -0.0976
-11 27 9 2.0481 -0.0171
-11 27 10 6.6055 0.0968
-11 27 11 -3.6380 0.3248
-11 27 12 -0.0260 0.1037
-11 27 13 4.6665 0.3941
-11 27 14 1.0292 0.2296
-11 27 15 -0.0641 -0.6537
-11 27 16 -1.0422 0.1051
-11 27 17 0.9789 1.3256
-11 27 18 -0.8220 0.8711
-11 27 19 -1.3908 -1.1417
-11 29 1 2.6690 0.4670
-11 29 2 2.5570 0.1458
-11 29 3 6.9661 0.0206
-11 29 4 0.6217 0.1266
-11 29 5 -0.5605 0.0401
-11 29 6 0.8634 -0.0342
-11 29 7 5.7124 -0.2342
-11 29 8 -2.6620 -0.1397
-11 29 9 -7.9093 0.2811
-11 29 10 2.3894 0.2841
-11 29 11 1.8387 0.1272
-11 29 12 -9.5248 0.1639
-11 29 13 -3.5064 -0.3965
-11 29 14 0.7713 -0.6124
-11 29 15 -1.3224 0.0436
-11 29 16 -5.8427 -0.6181
-11 29 17 0.7551 -0.5171
-11 31 1 1.3945 -0.4517
-11 31 2 -0.0363 -0.1672
-11 31 3 3.9701 -0.1276
-11 31 4 0.1569 0.2329
-11 31 5 -1.4170 0.4782
-11 31 6 0.3800 0.0841
-11 31 7 0.1618 -0.4371
-11 31 8 -0.0578 0.0967
-11 31 9 -2.5691 0.3002
-11 31 10 -4.4920 0.3174
-11 31 11 0.4536 -0.5383
-11 31 12 -4.2642 -1.0641
-11 31 13 -1.2870 -1.0984
-11 31 14 -2.1399 -1.1311
-11 31 15 -2.7028 0.3005
-11 33 1 0.7761 -1.2413
-11 33 2 -1.9251 -0.2061
-11 33 3 -4.7429 -0.0176
-11 33 4 2.4699 -0.1674
-11 33 5 2.4227 0.3035
-11 33 6 -4.3588 0.4080
-11 33 7 -0.9838 0.2493
-11 33 8 4.9226 0.3396
-11 33 9 -0.2425 0.8771
-11 33 10 -3.2555 -0.5501
-11 33 11 1.3425 -1.4594
-10 0 1 -43.8910 5.5565
-10 0 2 123.9283 2.5201
-10 0 3 37.0572 -0.1775
-10 0 4 -63.2972 0.5090
-10 0 5 99.6554 -0.0051
-10 0 6 15.7139 -1.2441
-10 0 7 29.7638 -1.4199
-10 0 8 -12.1129 -0.4404
-10 0 9 0.2170 0.3578
-10 0 10 -13.3574 0.7567
-10 0 11 -19.6286 0.7658
-10 0 12 -19.2265 0.3882
-10 0 13 -19.4465 -0.2301
-10 0 14 -42.3646 -0.5528
-10 0 15 -6.2752 -0.2969
-10 0 16 -20.3724 -0.1645
-10 0 17 -38.0886 -0.1436
-10 0 18 2.2726 0.0359
-10 0 19 -5.7879 0.3614
-10 0 20 -12.2648 0.4028
-10 0 21 -2.1775 -0.0097
-10 0 22 10.5462 -0.4204
-10 0 23 7.3247 -0.5154
-10 0 24 -3.7463 -0.4412
-10 0 25 9.5945 0.0258
-10 0 26 11.4075 1.4704
-10 0 27 1.9003 1.6220
-10 0 28 1.9279 -1.5957
-10 2 1 -20.6057 4.1615
-10 2 2 -17.1191 1.1055
-10 2 3 83.3136 -0.0679
-10 2 4 1.2475 0.2467
-10 2 5 -35.8665 0.1734
-10 2 6 41.8578 -1.0837
-10 2 7 29.6913 -1.5472
-10 2 8 -22.3530 -0.4927
-10 2 9 -29.0593 0.6518
-10 2 10 15.2008 0.9839
-10 2 11 -15.1178 0.5822
-10 2 12 -18.9784 0.0486
-10 2 13 -19.2210 -0.0864
-10 2 14 -1.2963 0.2042
-10 2 15 -13.3767 -0.0446
-10 2 16 -12.4553 -0.4569
-10 2 17 -12.1373 -0.3196
-10 2 18 0.8779 0.1968
-10 2 19 -2.8186 0.4090
-10 2 20 -3.4638 0.2798
-10 2 21 6.0237 -0.2822
-10 2 22 -1.8215 -0.4819
-10 2 23 0.2952 -0.2062
-10 2 24 8.2119 -0.0502
-10 2 25 0.2538 0.2878
-10 2 26 -0.8516 -0.1298
-10 2 27 5.3931 -0.1893
-10 2 28 1.7249 1.8142
-10 4 1 30.0820 -0.7210
-10 4 2 -16.5017 0.5582
-10 4 3 -37.7415 0.5977
-10 4 4 10.5775 -0.3386
-10 4 5 0.5088 -0.6411
-10 4 6 -0.9683 -0.6472
-10 4 7 -67.3815 -0.4369
-10 4 8 10.5110 -0.1793
-10 4 9 42.8902 0.1195
-10 4 10 -46.5596 0.4129
-10 4 11 -19.2634 0.4617
-10 4 12 35.2983 0.0732
-10 4 13 12.1453 -0.2226
-10 4 14 -14.4488 -0.1121
-10 4 15 3.6148 0.0039
-10 4 16 27.3980 -0.1223
-10 4 17 2.3673 -0.1497
-10 4 18 -11.0931 0.0628
-10 4 19 15.1696 0.1090
-10 4 20 11.8293 -0.0840
-10 4 21 -5.4621 0.0674
-10 4 22 -2.8508 -0.0415
-10 4 23 -0.5355 -0.2471
-10 4 24 0.4568 -0.0784
-10 4 25 -4.4620 -0.0216
-10 4 26 -3.8361 0.3895
-10 4 27 0.1113 0.4951
-10 4 28 -1.9965 -1.5088
-10 6 1 20.0982 0.0808
-10 6 2 -40.0457 -0.3018
-10 6 3 -33.2736 -0.4487
-10 6 4 14.4878 0.0053
-10 6 5 10.8396 -0.1059
-10 6 6 -30.6081 -0.0938
-10 6 7 -27.9865 0.0250
-10 6 8 30.2858 0.1377
-10 6 9 1.5473 0.2212
-10 6 10 2.3571 0.0518
-10 6 11 8.7174 -0.1537
-10 6 12 9.2995 -0.1597
-10 6 13 10.8788 -0.0559
-10 6 14 14.9590 -0.1304
-10 6 15 6.4916 -0.0506
-10 6 16 3.4201 0.0377
-10 6 17 8.7709 0.0944
-10 6 18 0.0700 0.0789
-10 6 19 3.0219 0.0671
-10 6 20 1.3251 -0.0462
-10 6 21 -2.3880 -0.1522
-10 6 22 -0.8965 -0.0560
-10 6 23 -1.3178 0.1083
-10 6 24 -7.7404 0.2619
-10 6 25 1.8692 0.2452
-10 6 26 -2.0567 -0.2937
-10 6 27 -1.9100 -0.3546
-10 6 28 0.8362 1.6331
-10 8 1 -12.5066 -0.2541
-10 8 2 -2.8965 -0.1889
-10 8 3 17.3322 0.0954
-10 8 4 -24.9214 0.0660
-10 8 5 -0.6218 0.1021
-10 8 6 38.7496 0.3248
-10 8 7 3.5535 0.5338
-10 8 8 -8.9001 0.3017
-10 8 9 22.4722 -0.1985
-10 8 10 32.6245 -0.2742
-10 8 11 -0.1898 -0.0415
-10 8 12 -10.4273 -0.0128
-10 8 13 13.8813 -0.0812
-10 8 14 10.5694 -0.0081
-10 8 15 -6.7588 0.0631
-10 8 16 -7.9933 0.2704
-10 8 17 1.9124 0.2920
-10 8 18 -1.7672 -0.0644
-10 8 19 -4.3938 -0.2063
-10 8 20 -6.3748 0.0578
-10 8 21 -5.2666 -0.0524
-10 8 22 2.2958 -0.0363
-10 8 23 -1.1696 0.1770
-10 8 24 -1.8156 0.1228
-10 8 25 -3.3028 -0.0958
-10 8 26 2.1879 0.3296
-10 8 27 3.5181 -0.4071
-10 10 1 -25.0260 0.0986
-10 10 2 25.7325 0.0095
-10 10 3 -3.0335 0.0302
-10 10 4 -16.9266 0.1027
-10 10 5 5.4632 0.1692
-10 10 6 21.7846 0.2244
-10 10 7 7.8355 0.1711
-10 10 8 -3.2563 -0.0212
-10 10 9 18.9714 -0.2705
-10 10 10 -0.4344 -0.2136
-10 10 11 5.4963 -0.0870
-10 10 12 1.0650 0.0167
-10 10 13 -8.4731 -0.0144
-10 10 14 0.9842 0.1078
-10 10 15 4.7539 0.2304
-10 10 16 -7.1101 0.0921
-10 10 17 -4.3045 -0.1032
-10 10 18 6.3407 0.0115
-10 10 19 1.2534 -0.0934
-10 10 20 -10.0982 -0.1950
-10 10 21 0.5456 -0.0051
-10 10 22 7.0992 0.0537
-10 10 23 -5.4198 0.0422
-10 10 24 -0.9019 0.1029
-10 10 25 1.5427 0.1222
-10 10 26 -0.6189 -0.3793
-10 10 27 -0.9663 0.3026
-10 12 1 -24.4678 -0.1006
-10 12 2 -19.3498 -0.1030
-10 12 3 15.8879 0.0411
-10 12 4 6.9846 -0.0336
-10 12 5 -21.8842 -0.0586
-10 12 6 -13.5435 -0.1971
-10 12 7 16.7850 -0.2605
-10 12 8 2.1118 -0.0869
-10 12 9 -20.0380 0.0580
-10 12 10 -5.6574 -0.1896
-10 12 11 2.3607 -0.0982
-10 12 12 6.5771 0.2054
-10 12 13 -9.3388 0.1696
-10 12 14 -3.6912 -0.1040
-10 12 15 10.6144 -0.0520
-10 12 16 1.1622 0.0579
-10 12 17 7.6328 -0.0511
-10 12 18 5.6610 -0.1649
-10 12 19 -1.7887 0.0519
-10 12 20 5.9058 -0.1257
-10 12 21 9.6492 -0.0384
-10 12 22 -4.2362 0.1630
-10 12 23 -0.0970 0.0721
-10 12 24 2.8358 -0.3259
-10 12 25 -0.8346 -0.0685
-10 12 26 -0.7007 0.4828
-10 12 27 -2.5974 0.1795
-10 14 1 18.9160 -0.0667
-10 14 2 -2.4057 0.2313
-10 14 3 -5.6418 -0.1090
-10 14 4 -0.1020 -0.1042
-10 14 5 14.3681 -0.0073
-10 14 6 -7.1906 -0.0918
-10 14 7 -15.6084 -0.1680
-10 14 8 9.7268 -0.1523
-10 14 9 1.8444 0.1095
-10 14 10 -17.8430 0.3909
-10 14 11 -7.0062 0.2478
-10 14 12 15.0432 -0.0856
-10 14 13 4.4520 -0.0404
-10 14 14 -19.2530 0.1566
-10 14 15 5.2410 -0.0113
-10 14 16 14.8600 -0.2581
-10 14 17 -2.5623 -0.1107
-10 14 18 -5.5796 0.1320
-10 14 19 5.5241 0.1744
-10 14 20 7.7500 0.2665
-10 14 21 -0.3793 -0.0714
-10 14 22 -0.9893 -0.3740
-10 14 23 3.7028 -0.1102
-10 14 24 0.3362 0.6104
-10 14 25 -2.4632 -0.0930
-10 14 26 1.2332 -2.1073
-10 16 1 21.1821 0.2441
-10 16 2 -3.1712 -0.0406
-10 16 3 -0.0778 0.0891
-10 16 4 22.8424 0.1418
-10 16 5 -1.5653 -0.0087
-10 16 6 7.1094 -0.0157
-10 16 7 11.6678 -0.0488
-10 16 8 -1.4667 0.1359
-10 16 9 -6.0646 0.1009
-10 16 10 9.5362 0.0467
-10 16 11 3.8369 0.1897
-10 16 12 -9.8790 0.1854
-10 16 13 0.0885 -0.1222
-10 16 14 2.6952 -0.3246
-10 16 15 -9.1047 -0.1220
-10 16 16 -2.0105 0.0562
-10 16 17 -4.2769 0.0259
-10 16 18 -5.7121 0.0626
-10 16 19 0.5502 -0.0033
-10 16 20 -0.4583 0.1737
-10 16 21 -3.7675 0.2460
-10 16 22 -0.2788 -0.0268
-10 16 23 3.9502 -0.8604
-10 16 24 -3.8331 -0.6365
-10 16 25 -1.6647 2.2285
-10 18 1 0.6823 -0.1820
-10 18 2 21.4456 -0.0660
-10 18 3 -6.3927 0.0818
-10 18 4 -5.2413 -0.0288
-10 18 5 12.7104 -0.0529
-10 18 6 7.4642 -0.0540
-10 18 7 -9.2365 0.0537
-10 18 8 -1.5766 -0.0060
-10 18 9 4.5036 -0.0768
-10 18 10 1.2441 -0.0358
-10 18 11 -5.4609 0.0276
-10 18 12 -3.9768 0.0201
-10 18 13 -2.4229 -0.2307
-10 18 14 3.4068 -0.1857
-10 18 15 -9.1456 0.0524
-10 18 16 -4.9301 -0.0114
-10 18 17 -0.1885 -0.1076
-10 18 18 -1.4638 0.1450
-10 18 19 -3.6631 0.4064
-10 18 20 -1.0323 -0.2110
-10 18 21 1.4981 -0.4254
-10 18 22 -3.0036 -0.1807
-10 18 23 0.6529 0.4177
-10 18 24 -0.8374 0.2174
-10 18 25 0.7415 -2.3917
-10 20 1 -3.6128 -0.0694
-10 20 2 6.9660 0.0797
-10 20 3 -6.6509 -0.1979
-10 20 4 -12.1814 -0.1842
-10 20 5 3.8701 0.0612
-10 20 6 -11.4994 0.0804
-10 20 7 -13.8793 -0.0036
-10 20 8 -0.2783 -0.1514
-10 20 9 -9.1306 -0.1494
-10 20 10 -6.4440 0.0057
-10 20 11 -2.2706 0.2233
-10 20 12 -3.7344 0.0603
-10 20 13 -3.0914 -0.2087
-10 20 14 3.2801 -0.0892
-10 20 15 -1.2131 0.1778
-10 20 16 1.0204 0.4111
-10 20 17 -0.8534 0.1226
-10 20 18 5.0737 -0.2392
-10 20 19 1.8506 -0.2345
-10 20 20 -0.0497 0.3666
-10 20 21 -0.1597 0.2494
-10 20 22 1.4754 -0.5544
-10 20 23 3.0084 -0.3162
-10 20 24 -2.4828 1.0988
-10 22 1 -4.2657 0.1202
-10 22 2 -15.4064 -0.1473
-10 22 3 5.9926 0.0385
-10 22 4 0.2826 0.1305
-10 22 5 -18.1735 0.0751
-10 22 6 -4.9279 -0.0045
-10 22 7 3.5672 -0.1698
-10 22 8 -9.8128 0.0338
-10 22 9 -9.6757 0.1471
-10 22 10 0.9017 -0.0654
-10 22 11 3.3985 -0.1838
-10 22 12 -7.0683 -0.0502
-10 22 13 -0.6754 0.2444
-10 22 14 5.9132 0.1175
-10 22 15 -1.0560 -0.0068
-10 22 16 0.4091 -0.1874
-10 22 17 2.2630 0.1660
-10 22 18 1.5186 0.1139
-10 22 19 1.6856 -0.1188
-10 22 20 0.5873 -0.4417
-10 22 21 -0.5087 0.0852
-10 22 22 1.0528 0.7924
-10 22 23 0.0506 0.1848
-10 24 1 3.6533 -0.3387
-10 24 2 0.0347 0.0313
-10 24 3 -5.2062 0.0797
-10 24 4 1.0413 0.0068
-10 24 5 6.6945 -0.1391
-10 24 6 2.3287 -0.0144
-10 24 7 -3.5920 0.1389
-10 24 8 6.8990 0.0091
-10 24 9 8.7936 -0.0282
-10 24 10 -4.9161 0.0365
-10 24 11 0.0138 -0.2873
-10 24 12 10.9647 -0.3312
-10 24 13 -2.6059 -0.0739
-10 24 14 -4.8931 0.2389
-10 24 15 4.1338 0.0271
-10 24 16 -2.0039 -0.2697
-10 24 17 -1.2229 -0.5279
-10 24 18 -1.1191 0.1003
-10 24 19 -3.3248 0.2860
-10 24 20 0.4701 0.2133
-10 24 21 -0.9392 -1.5282
-10 26 1 -0.1190 -0.0611
-10 26 2 1.6844 -0.3289
-10 26 3 1.7277 -0.2180
-10 26 4 5.5053 -0.1518
-10 26 5 4.5608 -0.0279
-10 26 6 2.9001 0.0269
-10 26 7 6.6139 0.1193
-10 26 8 3.9800 0.2357
-10 26 9 4.0223 0.1133
-10 26 10 3.4410 -0.2414
-10 26 11 1.0966 -0.0772
-10 26 12 1.2652 0.2493
-10 26 13 3.4495 -0.0518
-10 26 14 -1.8166 -0.4803
-10 26 15 -3.6313 0.1077
-10 26 16 0.6318 0.8145
-10 26 17 0.1283 0.2428
-10 26 18 -2.5556 -0.8391
-10 26 19 -4.1903 -0.0019
-10 26 20 1.5604 1.4178
-10 28 1 0.0445 0.0387
-10 28 2 0.7284 -0.1224
-10 28 3 4.9662 -0.0185
-10 28 4 0.6645 0.1041
-10 28 5 -3.2978 -0.0420
-10 28 6 2.9146 -0.2339
-10 28 7 -1.2022 -0.0214
-10 28 8 0.1288 0.2721
-10 28 9 -2.6428 0.1260
-10 28 10 -0.0801 -0.0135
-10 28 11 -0.6573 -0.0571
-10 28 12 -1.2733 -0.0714
-10 28 13 -0.1979 0.2686
-10 28 14 -0.8379 0.2921
-10 28 15 0.4131 -0.4237
-10 28 16 -1.3806 0.1538
-10 28 17 1.6998 1.4274
-10 28 18 0.3119 0.4679
-10 30 1 -0.1081 0.4688
-10 30 2 1.2930 0.1619
-10 30 3 -2.0350 -0.1559
-10 30 4 -2.8790 0.0970
-10 30 5 -2.7200 0.2681
-10 30 6 -1.7738 -0.0828
-10 30 7 -4.5985 -0.5072
-10 30 8 -1.8029 -0.3640
-10 30 9 -5.3299 0.4816
-10 30 10 -0.0579 0.1324
-10 30 11 -1.8588 -0.5324
-10 30 12 -5.6189 -0.5116
-10 30 13 1.1621 -0.3702
-10 30 14 0.8760 0.0891
-10 30 15 -2.2546 0.6703
-10 30 16 1.0523 -3.2756
-10 32 1 0.0196 -0.5269
-10 32 2 -3.1118 -0.3527
-10 32 3 1.1417 -0.0718
-10 32 4 -3.2609 0.2166
-10 32 5 0.0605 0.1109
-10 32 6 -1.1923 0.0485
-10 32 7 -0.1003 0.2785
-10 32 8 0.8973 0.7249
-10 32 9 -4.3389 -0.3777
-10 32 10 1.7794 -0.2549
-10 32 11 2.6355 0.3287
-10 32 12 -6.5279 0.1996
-10 32 13 1.5932 -1.2969
-10 32 14 1.1848 -2.5478
-10 34 1 0.9689 -1.9953
-10 34 2 -0.1402 -0.9839
-10 34 3 0.4940 0.3709
-10 34 4 0.3268 0.5428
-10 34 5 2.8486 -0.1660
-10 34 6 1.8369 -0.0312
-10 34 7 -0.6157 1.9786
-10 34 8 2.6560 1.9210
-10 34 9 2.5612 -2.0014
-9 1 1 21.5889 1.2256
-9 1 2 23.0343 -0.1671
-9 1 3 20.5546 0.0343
-9 1 4 49.5961 0.1209
-9 1 5 27.0223 -0.7476
-9 1 6 -19.2798 -1.0264
-9 1 7 -7.5745 -0.1101
-9 1 8 -21.9705 0.5469
-9 1 9 2.2465 0.4826
-9 1 10 -19.9946 0.4481
-9 1 11 -55.5784 0.3630
-9 1 12 -29.3138 -0.2090
-9 1 13 -5.4841 -0.7747
-9 1 14 -30.9556 -0.5192
-9 1 15 -35.4277 0.1661
-9 1 16 0.7764 0.6415
-9 1 18 2.8804 0.0584
-9 1 19 -7.1196 -0.1178
-9 1 20 7.6341 -0.2584
-9 1 21 9.6722 -0.6373
-9 1 22 5.5429 -0.5129
-9 1 23 2.3237 0.0227
-9 1 24 10.1135 0.4337
-9 1 25 4.9325 0.2258
-9 1 26 2.3304 0.7141
-9 1 27 3.1257 0.8809
-9 1 28 2.1901 -0.5812
-9 3 1 4.1467 1.4891
-9 3 2 -5.0902 0.0983
-9 3 3 2.9819 -0.1921
-9 3 4 3.1555 -0.2650
-9 3 5 3.8557 -0.7200
-9 3 6 -12.4586 -0.6134
-9 3 7 8.0559 0.1946
-9 3 8 17.4269 0.4802
-9 3 9 -4.7480 0.0195
-9 3 10 -6.6043 0.0331
-9 3 11 22.2865 0.2901
-9 3 12 15.6785 0.0412
-9 3 13 -24.5804 -0.3770
-9 3 14 14.0904 -0.4098
-9 3 15 4.7212 -0.0435
-9 3 16 -3.1759 0.3899
-9 3 17 -4.8766 0.5629
-9 3 18 -0.5413 0.2625
-9 3 19 -0.5808 -0.3599
-9 3 20 2.5476 -0.4660
-9 3 21 -6.4567 -0.1723
-9 3 22 0.3862 0.0981
-9 3 23 1.0621 0.0236
-9 3 24 -5.7335 -0.1751
-9 3 25 -0.0518 0.2057
-9 3 26 1.3642 0.2091
-9 3 27 -0.2394 -0.1141
-9 3 28 -2.2386 0.0187
-9 5 1 -49.1148 -0.5208
-9 5 2 -1.9121 -0.2928
-9 5 3 2.5104 -0.0143
-9 5 4 -26.1593 -0.1788
-9 5 5 -52.7393 -0.2542
-9 5 6 40.6392 -0.2442
-9 5 7 19.0198 0.0500
-9 5 8 -23.3352 0.2009
-9 5 9 8.5638 0.2092
-9 5 10 39.7429 -0.2226
-9 5 11 27.6687 -0.3139
-9 5 12 1.1106 -0.0215
-9 5 13 32.5966 0.0098
-9 5 14 11.7948 -0.1845
-9 5 15 0.9814 -0.1345
-9 5 16 20.7499 0.1168
-9 5 17 5.4118 0.1771
-9 5 18 -13.7013 0.0713
-9 5 19 -1.7467 -0.0185
-9 5 20 12.8986 -0.1991
-9 5 21 -16.2900 -0.0827
-9 5 22 -7.3882 0.0139
-9 5 23 -0.2082 0.2089
-9 5 24 -1.5944 0.2275
-9 5 25 -5.2899 -0.0234
-9 5 26 -2.2371 -0.1762
-9 5 27 -0.8164 -0.0343
-9 5 28 2.3946 0.1394
-9 7 1 57.9281 -0.3238
-9 7 2 -15.8050 0.1178
-9 7 3 -64.5405 -0.0957
-9 7 4 11.2890 -0.0358
-9 7 5 38.3534 0.0801
-9 7 6 -40.1417 0.3288
-9 7 7 -33.2664 0.1533
-9 7 8 38.4402 -0.0211
-9 7 9 4.5339 -0.1423
-9 7 10 -43.7177 -0.0067
-9 7 11 29.0007 -0.0267
-9 7 12 12.4426 -0.0704
-9 7 13 -3.3202 0.1583
-9 7 14 -3.0945 0.2284
-9 7 15 2.4476 0.0413
-9 7 16 15.7479 -0.0194
-9 7 17 0.2425 -0.0016
-9 7 18 -14.1859 -0.1293
-9 7 19 12.4942 -0.1157
-9 7 20 -0.0864 0.0731
-9 7 21 -6.5778 0.1222
-9 7 22 2.8615 0.0821
-9 7 23 -1.2231 0.0033
-9 7 24 0.4999 0.1749
-9 7 25 4.0853 0.0997
-9 7 26 -2.6120 0.0175
-9 7 27 1.7036 0.0451
-9 7 28 1.9395 -0.4198
-9 9 1 -35.0117 0.2844
-9 9 2 3.7601 -0.0052
-9 9 3 14.0044 0.1081
-9 9 4 -8.9351 0.2436
-9 9 5 -24.9704 0.3288
-9 9 6 13.6492 0.2168
-9 9 7 4.9776 -0.0089
-9 9 8 -43.7237 -0.1741
-9 9 9 0.3038 -0.0779
-9 9 10 3.0261 0.0412
-9 9 11 -22.1504 -0.0283
-9 9 12 -19.9059 0.0536
-9 9 13 5.6712 0.2942
-9 9 14 -1.8435 0.3273
-9 9 15 -7.4491 0.0764
-9 9 16 -9.5553 -0.1856
-9 9 17 16.3303 -0.1803
-9 9 18 3.8452 -0.0993
-9 9 19 -9.8846 -0.1473
-9 9 20 8.7588 0.0300
-9 9 21 7.2587 0.0270
-9 9 22 -4.1098 0.1879
-9 9 23 0.1121 0.0927
-9 9 24 6.7128 -0.1988
-9 9 25 0.5874 0.1701
-9 9 26 -0.2567 0.3126
-9 9 27 1.6168 -0.7084
-9 11 1 -18.0366 -0.3030
-9 11 2 -21.9461 0.0282
-9 11 3 5.5707 0.2500
-9 11 4 -8.5692 0.0154
-9 11 5 -19.4621 -0.0534
-9 11 6 -2.9483 -0.0370
-9 11 7 10.3182 0.0231
-9 11 8 -2.5171 -0.1710
-9 11 9 -15.8530 -0.2928
-9 11 10 -3.0971 -0.1064
-9 11 11 11.6546 0.2342
-9 11 12 -1.3683 0.0613
-9 11 13 -9.7352 -0.3297
-9 11 14 -0.7489 -0.0722
-9 11 15 19.7392 0.2789
-9 11 16 -5.5705 0.0084
-9 11 17 -5.3197 -0.4425
-9 11 18 15.4023 -0.2154
-9 11 19 3.3174 0.2827
-9 11 20 -5.0636 0.1232
-9 11 21 3.0549 0.0013
-9 11 22 2.2746 -0.2494
-9 11 23 -3.2444 -0.0578
-9 11 24 -3.1018 0.2972
-9 11 25 0.5218 -0.1218
-9 11 26 1.6443 -0.2473
-9 11 27 -1.7616 0.8706
-9 13 1 -9.4111 0.0926
-9 13 2 -29.5428 0.0543
-9 13 3 -6.2627 -0.2661
-9 13 4 8.5405 -0.1199
-9 13 5 -12.6395 -0.0322
-9 13 6 -2.4537 -0.0795
-9 13 7 2.4037 -0.1927
-9 13 8 8.4332 -0.0690
-9 13 9 5.7951 0.1504
-9 13 10 1.1255 0.1915
-9 13 11 8.8694 -0.0743
-9 13 12 6.3742 -0.2224
-9 13 13 7.7380 -0.0498
-9 13 14 5.8965 0.0130
-9 13 15 -0.1272 -0.0711
-9 13 16 5.2286 -0.1003
-9 13 17 -0.8400 0.1276
-9 13 18 2.4675 0.3211
-9 13 19 2.6287 0.2096
-9 13 20 -4.3846 0.0102
-9 13 21 1.8606 0.0130
-9 13 22 0.3271 -0.0351
-9 13 23 -6.6536 -0.2395
-9 13 24 0.4098 -0.2855
-9 13 25 -2.6772 0.4592
-9 13 26 1.0480 -0.2065
-9 15 1 12.7899 0.1403
-9 15 2 -0.4692 0.0024
-9 15 3 -11.9774 0.0753
-9 15 4 17.3872 -0.0447
-9 15 5 22.5835 -0.1265
-9 15 6 -12.1654 -0.0733
-9 15 7 -11.6344 0.0960
-9 15 8 8.0793 0.2573
-9 15 9 20.8892 0.1732
-9 15 10 -13.2132 0.0284
-9 15 11 -15.6565 0.0704
-9 15 12 10.1764 0.0697
-9 15 13 9.7288 0.0107
-9 15 14 -12.8939 -0.0226
-9 15 15 -11.0096 -0.1751
-9 15 16 3.6645 0.0236
-9 15 17 0.3862 0.3777
-9 15 18 -9.8384 0.2385
-9 15 19 -0.6344 -0.0236
-9 15 20 5.6000 0.0908
-9 15 21 -4.1999 -0.1705
-9 15 22 -0.8697 -0.0723
-9 15 23 1.8300 -0.0245
-9 15 24 -0.3774 -0.1168
-9 15 25 -1.1527 -0.6537
-9 15 26 -0.0628 0.7313
-9 17 1 21.6430 0.0752
-9 17 2 17.2158 0.1269
-9 17 3 2.8928 -0.0243
-9 17 4 2.2333 -0.0835
-9 17 5 17.6351 -0.0608
-9 17 6 -4.8709 0.0621
-9 17 7 -7.5788 0.1873
-9 17 8 3.7832 0.0735
-9 17 9 -7.2889 -0.0898
-9 17 10 -8.0243 0.0560
-9 17 11 -4.1167 0.0690
-9 17 12 -10.0251 -0.1091
-9 17 13 -6.6921 -0.0779
-9 17 14 -5.4394 -0.0399
-9 17 15 -8.0206 0.0479
-9 17 16 -5.5189 -0.1733
-9 17 17 -5.8404 -0.1279
-9 17 18 -0.3413 0.1560
-9 17 19 -0.2939 -0.1413
-9 17 20 -0.9675 -0.4545
-9 17 21 -1.7124 -0.0313
-9 17 22 2.3395 -0.1908
-9 17 23 3.5427 -0.4724
-9 17 24 -3.6247 0.0156
-9 17 25 2.8172 0.1792
-9 19 1 -17.2336 -0.0686
-9 19 2 13.4408 -0.2437
-9 19 3 17.1420 -0.1122
-9 19 4 -18.0350 0.0849
-9 19 5 -26.9347 -0.0301
-9 19 6 17.8794 -0.2117
-9 19 7 11.8072 -0.0467
-9 19 8 -22.1880 0.1739
-9 19 9 -16.4416 0.1085
-9 19 10 15.4117 -0.3116
-9 19 11 10.3429 -0.2256
-9 19 12 -20.9997 0.2303
-9 19 13 -3.9050 0.0637
-9 19 14 12.4212 -0.0775
-9 19 15 -5.5066 -0.0984
-9 19 16 -3.5255 0.1635
-9 19 17 0.1371 0.0359
-9 19 18 0.8049 -0.2286
-9 19 19 -0.2726 -0.1108
-9 19 20 -1.2648 -0.1205
-9 19 21 -0.4658 -0.2845
-9 19 22 0.0460 -0.1563
-9 19 23 -0.7752 -0.1317
-9 19 24 1.3472 -1.3923
-9 21 1 -0.6578 -0.0223
-9 21 2 -8.3272 0.0608
-9 21 3 -16.7489 0.0028
-9 21 4 -3.9743 -0.0656
-9 21 5 -5.1562 0.0128
-9 21 6 -12.9492 -0.0982
-9 21 7 1.7733 -0.0684
-9 21 8 5.4862 0.0868
-9 21 9 -6.5214 -0.0552
-9 21 10 -0.4532 -0.0011
-9 21 11 12.7566 0.0913
-9 21 12 2.2677 -0.0204
-9 21 13 -2.3573 0.2378
-9 21 14 3.5286 0.3387
-9 21 15 7.9869 0.0086
-9 21 16 -1.6472 -0.0742
-9 21 17 -0.2272 0.2904
-9 21 18 3.3297 0.2345
-9 21 19 -0.5276 0.1105
-9 21 20 -3.0135 0.2461
-9 21 21 -0.0355 0.0618
-9 21 22 0.2561 -0.3327
-9 21 23 -2.4276 0.8959
-9 23 1 0.4830 0.2519
-9 23 2 -9.6093 0.1202
-9 23 3 -7.5285 -0.0611
-9 23 4 1.6575 -0.0401
-9 23 5 7.6299 -0.0022
-9 23 6 -7.4465 0.2599
-9 23 7 -8.1773 0.1079
-9 23 8 7.7666 -0.2748
-9 23 9 7.4563 -0.2284
-9 23 10 -8.4141 0.0950
-9 23 11 1.2352 0.2912
-9 23 12 -0.9577 0.0389
-9 23 13 7.6491 -0.2428
-9 23 14 -8.4175 -0.1903
-9 23 15 2.4484 0.3125
-9 23 16 -1.5066 -0.0605
-9 23 17 1.8214 -0.3470
-9 23 18 0.4780 0.0018
-9 23 19 -1.2420 0.1817
-9 23 20 -0.8482 0.4985
-9 23 21 1.0281 0.4417
-9 23 22 -2.1908 0.2132
-9 25 1 1.6733 -0.3245
-9 25 2 4.4219 -0.2634
-9 25 3 8.6015 -0.0268
-9 25 4 1.3445 0.1388
-9 25 5 4.0642 0.1799
-9 25 6 7.9591 0.0050
-9 25 7 -4.1454 0.0747
-9 25 8 -2.5664 0.1730
-9 25 9 5.2335 -0.0523
-9 25 10 -2.1211 -0.3492
-9 25 11 -5.6677 -0.2165
-9 25 12 -5.1743 0.3186
-9 25 13 1.4749 -0.0888
-9 25 14 -3.0783 -0.5772
-9 25 15 -3.2203 -0.3835
-9 25 16 -3.0352 0.3049
-9 25 17 1.7752 -0.4464
-9 25 18 0.3725 -0.9030
-9 25 19 0.0960 0.1988
-9 25 20 0.1162 0.1452
-9 25 21 1.2877 -1.1224
-9 27 1 4.0726 -0.2525
-9 27 2 3.4905 -0.2100
-9 27 3 0.2895 -0.1213
-9 27 4 7.8401 0.0327
-9 27 5 -0.1636 0.2816
-9 27 6 -0.5727 0.1693
-9 27 7 3.9711 -0.2274
-9 27 8 0.5565 -0.1964
-9 27 9 -1.5024 0.2215
-9 27 10 -4.4746 0.3090
-9 27 11 7.0788 -0.1635
-9 27 12 -2.9222 -0.4805
-9 27 13 -2.9900 0.3116
-9 27 14 1.9925 0.8785
-9 27 15 2.1792 0.1131
-9 27 16 -2.0138 -0.4164
-9 27 17 -1.0973 -0.0524
-9 27 18 2.9392 -0.0783
-9 27 19 0.8178 0.0432
-9 29 1 -8.6996 0.3016
-9 29 2 -0.0095 0.2084
-9 29 3 -0.4134 0.0888
-9 29 4 -2.5375 -0.1890
-9 29 5 -3.9688 -0.3796
-9 29 6 2.1180 -0.1169
-9 29 7 -0.1685 0.0552
-9 29 8 -0.9543 -0.1659
-9 29 9 0.9399 -0.3674
-9 29 10 2.1903 -0.0161
-9 29 11 2.2638 0.6471
-9 29 12 1.3108 0.3299
-9 29 13 1.9324 -0.1408
-9 29 14 3.8391 0.5405
-9 29 15 -0.7024 1.4509
-9 29 16 -0.2461 0.0173
-9 29 17 1.2019 -0.1257
-9 29 18 1.7327 1.4845
-9 31 1 -4.4787 0.2455
-9 31 2 -5.0777 0.2001
-9 31 3 -2.1812 -0.0338
-9 31 4 0.1837 -0.2523
-9 31 5 -2.1203 -0.5342
-9 31 6 -0.4517 -0.3568
-9 31 7 -2.6629 0.5715
-9 31 8 4.2233 0.5363
-9 31 9 0.1224 -0.2634
-9 31 10 -4.1064 -0.3341
-9 31 11 4.8039 0.1563
-9 31 12 2.7917 0.7010
-9 31 13 -3.7388 -0.0275
-9 31 14 0.2884 -0.6019
-9 31 15 3.2525 0.4459
-9 33 1 0.3067 0.0121
-9 33 2 0.2617 -0.7141
-9 33 3 -0.5831 -0.6901
-9 33 4 4.2777 0.0042
-9 33 5 -1.6646 0.5606
-9 33 6 2.6918 0.7529
-9 33 7 -2.0608 0.5714
-9 33 8 1.6687 1.2922
-9 33 9 1.2628 1.0781
-9 33 10 -5.7180 -0.0776
-9 33 11 2.7589 -0.1536
-9 33 12 0.6825 -0.5125
-9 35 1 1.0429 -0.3994
-9 35 2 3.2977 -1.3474
-9 35 3 -1.0807 -0.8596
-9 35 4 2.5161 0.2769
-9 35 5 1.2649 1.4815
-9 35 6 0.7552 1.6158
-9 35 7 -2.2293 -0.2681
-8 0 1 -58.9452 6.2690
-8 0 2 -51.8807 -1.8741
-8 0 3 87.6408 -3.2318
-8 0 4 -19.3068 -1.3003
-8 0 5 -154.6330 0.0757
-8 0 6 32.0933 1.1883
-8 0 7 67.7410 1.2343
-8 0 8 -105.2347 0.5141
-8 0 9 -44.9809 -0.2718
-8 0 10 45.1918 -0.3711
-8 0 11 -2.7443 -0.4970
-8 0 12 -27.2252 -0.7033
-8 0 13 -37.8163 -0.4451
-8 0 14 23.1382 0.2873
-8 0 15 13.7145 0.7003
-8 0 16 -12.9983 0.4426
-8 0 17 -10.1599 0.1106
-8 0 18 36.5488 0.1276
-8 0 19 2.1214 -0.0499
-8 0 20 -12.2821 -0.6025
-8 0 21 10.2756 -0.8058
-8 0 22 11.0664 -0.1502
-8 0 23 -9.1540 0.6519
-8 0 24 7.2369 0.5832
-8 0 25 6.2654 0.2227
-8 0 26 -6.5848 0.2173
-8 0 27 -1.1999 -0.0611
-8 0 28 1.5072 -0.3888
-8 2 1 -7.4606 0.9829
-8 2 2 9.9544 -0.6041
-8 2 3 23.3542 -1.3251
-8 2 4 -74.8560 -0.9559
-8 2 5 23.9287 0.0202
-8 2 6 21.4539 0.8510
-8 2 7 -4.8430 1.0392
-8 2 8 -39.7270 0.3444
-8 2 9 35.6218 -0.2287
-8 2 10 10.4320 -0.3505
-8 2 11 -13.0090 -0.4935
-8 2 12 -7.9241 -0.4760
-8 2 13 11.1656 0.0216
-8 2 14 -11.4658 0.4108
-8 2 15 -14.7090 0.4304
-8 2 16 19.9925 0.3260
-8 2 17 -10.0327 0.3050
-8 2 18 -2.5009 0.0594
-8 2 19 5.8264 -0.1772
-8 2 20 0.9252 -0.3839
-8 2 21 -8.8297 -0.4346
-8 2 22 5.4928 0.0139
-8 2 23 1.1071 0.3336
-8 2 24 -1.6287 0.2946
-8 2 25 0.2915 0.1161
-8 2 26 2.7328 -0.0711
-8 2 27 -1.8375 -0.1930
-8 2 28 -2.8671 -0.8287
-8 4 1 64.5322 0.4732
-8 4 2 -40.8998 -0.1483
-8 4 3 -27.1497 -0.6180
-8 4 4 21.2125 -0.1217
-8 4 5 80.9562 0.5929
-8 4 6 -18.1228 0.4897
-8 4 7 -16.9366 0.0274
-8 4 8 93.8379 -0.1883
-8 4 9 -1.4666 0.0566
-8 4 10 -4.7746 -0.1084
-8 4 11 39.3482 -0.4818
-8 4 12 7.5900 -0.4748
-8 4 13 -10.5747 0.0085
-8 4 14 10.7241 0.3810
-8 4 15 -11.6507 0.3078
-8 4 16 -7.8456 0.0483
-8 4 17 -0.2072 -0.1506
-8 4 18 -10.0178 -0.0532
-8 4 19 -7.8537 0.0456
-8 4 20 -8.0166 0.0406
-8 4 21 -0.3844 -0.1082
-8 4 22 -1.0653 -0.2175
-8 4 23 -7.7219 0.0123
-8 4 24 2.3961 0.4529
-8 4 25 2.3396 0.2374
-8 4 26 -1.4049 -0.5333
-8 4 27 -1.1722 -0.7133
-8 4 28 3.9045 0.9332
-8 6 1 34.8652 -0.0854
-8 6 2 -34.4269 0.0320
-8 6 3 3.5959 0.0519
-8 6 4 8.6834 0.0733
-8 6 5 1.5314 0.1164
-8 6 6 0.3784 0.0882
-8 6 7 -11.5879 -0.2145
-8 6 8 19.1726 -0.1452
-8 6 9 16.2841 -0.0274
-8 6 10 -9.1653 -0.0241
-8 6 11 -10.8855 -0.0933
-8 6 12 31.3121 0.0530
-8 6 13 7.9203 0.0648
-8 6 14 -3.6551 0.0294
-8 6 15 -6.5290 0.0223
-8 6 16 2.2760 -0.0566
-8 6 17 13.9810 -0.1818
-8 6 18 -18.0288 -0.1334
-8 6 19 -2.9181 0.0275
-8 6 20 8.2996 0.0071
-8 6 21 -5.5676 0.1290
-8 6 22 -0.4714 0.1227
-8 6 23 1.6909 0.1142
-8 6 24 2.7040 -0.3319
-8 6 25 0.1263 -0.2824
-8 6 26 -0.3758 0.2802
-8 6 27 0.3637 0.4588
-8 6 28 2.2719 -0.8656
-8 8 1 -41.1413 -0.3298
-8 8 2 -21.0723 -0.0719
-8 8 3 27.5164 0.3110
-8 8 4 -25.1834 0.1605
-8 8 5 -72.3252 -0.1872
-8 8 6 -14.0374 -0.1806
-8 8 7 3.0024 -0.0615
-8 8 8 -39.8285 -0.1374
-8 8 9 -36.5623 -0.0689
-8 8 10 -1.3414 0.2359
-8 8 11 1.0207 0.3874
-8 8 12 -14.8141 0.2057
-8 8 13 11.3518 0.1343
-8 8 14 7.1375 0.0455
-8 8 15 10.0567 -0.0618
-8 8 16 4.2443 -0.0845
-8 8 17 7.9124 -0.1938
-8 8 18 7.8929 -0.2742
-8 8 19 5.1691 -0.0323
-8 8 20 6.7764 0.3391
-8 8 21 2.4671 0.1655
-8 8 22 1.8790 0.0538
-8 8 23 6.1279 -0.1871
-8 8 24 -2.8588 0.1044
-8 8 25 5.1367 0.0784
-8 8 26 -2.1766 -0.4173
-8 8 27 -1.7895 -0.2797
-8 10 1 -24.2652 -0.0970
-8 10 2 -25.8006 0.1937
-8 10 3 2.5141 0.2454
-8 10 4 -20.6847 0.1129
-8 10 5 -46.9221 -0.0606
-8 10 6 -7.9607 -0.1556
-8 10 7 -9.9115 -0.0423
-8 10 8 -19.8316 -0.0173
-8 10 9 -27.1012 -0.0641
-8 10 10 -0.2349 0.0159
-8 10 11 8.4195 0.1603
-8 10 12 -18.7028 0.1629
-8 10 13 2.3287 0.0259
-8 10 14 8.8719 -0.0944
-8 10 15 12.4312 -0.1698
-8 10 16 -2.3581 -0.2496
-8 10 17 -0.4799 0.0350
-8 10 18 16.0401 0.1242
-8 10 19 4.1656 -0.1415
-8 10 20 -8.2701 -0.1889
-8 10 21 11.5917 0.2692
-8 10 22 -1.2743 0.3601
-8 10 23 -2.2827 0.0105
-8 10 24 1.6337 -0.3868
-8 10 25 -2.5250 -0.0343
-8 10 26 3.6165 0.6746
-8 10 27 -3.1155 -0.2178
-8 12 1 -13.1570 0.1493
-8 12 2 8.8198 0.0391
-8 12 3 -22.0664 -0.0558
-8 12 4 -22.4518 -0.0006
-8 12 5 21.2970 0.0638
-8 12 6 16.1578 -0.0340
-8 12 7 -6.6734 -0.0129
-8 12 8 -18.0867 0.0892
-8 12 9 35.9932 0.0259
-8 12 10 17.4460 -0.2122
-8 12 11 -28.4926 -0.1880
-8 12 12 10.7182 0.0108
-8 12 13 9.1519 -0.1573
-8 12 14 -7.9974 -0.2882
-8 12 15 -4.6484 -0.0647
-8 12 16 -2.0169 0.2316
-8 12 17 -1.9493 0.0249
-8 12 18 -3.7789 0.0678
-8 12 19 -2.4943 0.1819
-8 12 20 -2.6885 0.0298
-8 12 21 -4.1900 -0.2173
-8 12 22 -1.4196 -0.3387
-8 12 23 0.1766 0.1108
-8 12 24 -2.0529 0.3335
-8 12 25 -1.2115 -0.2294
-8 12 26 2.3115 -0.5344
-8 12 27 1.0630 1.2627
-8 14 1 22.7610 0.0378
-8 14 2 -19.6686 0.0210
-8 14 3 -23.1136 -0.1523
-8 14 4 26.6603 -0.2107
-8 14 5 17.3657 -0.0418
-8 14 6 -20.9388 0.2285
-8 14 7 12.9048 0.1484
-8 14 8 26.3194 -0.0077
-8 14 9 -12.3217 0.0311
-8 14 10 2.2674 0.1204
-8 14 11 13.7559 -0.0845
-8 14 12 0.0725 -0.2992
-8 14 13 -16.0266 -0.0119
-8 14 14 -1.5106 0.2058
-8 14 15 5.2192 -0.0135
-8 14 16 -13.5223 0.0861
-8 14 17 -6.3012 0.5188
-8 14 18 1.9113 0.1657
-8 14 19 -7.4780 -0.1096
-8 14 20 0.9338 0.0059
-8 14 21 -4.3620 0.0709
-8 14 22 -0.4851 -0.1268
-8 14 23 -0.3733 -0.4658
-8 14 24 0.8859 -0.0902
-8 14 25 0.3973 0.7095
-8 14 26 -0.0770 -0.7633
-8 16 1 9.0200 0.1831
-8 16 2 -2.9887 0.0008
-8 16 3 2.8686 -0.1298
-8 16 4 -4.0050 -0.0839
-8 16 5 -4.4178 0.0301
-8 16 6 -5.8704 0.1202
-8 16 7 -7.4927 0.0929
-8 16 8 -2.7382 0.0054
-8 16 9 -5.9163 -0.0251
-8 16 10 -9.6426 0.1188
-8 16 11 -1.4631 0.0264
-8 16 12 -5.2144 -0.1917
-8 16 13 0.9281 -0.0612
-8 16 14 -6.1301 0.1452
-8 16 15 -11.5897 0.2839
-8 16 16 13.8455 0.0481
-8 16 17 -0.1079 -0.1714
-8 16 18 -9.2554 0.0401
-8 16 19 2.6154 0.0419
-8 16 20 10.5919 0.1709
-8 16 21 -3.0803 -0.0923
-8 16 22 -3.9602 -0.1088
-8 16 23 2.9900 0.1695
-8 16 24 4.1301 0.2752
-8 16 25 -3.7486 0.0960
-8 18 1 -8.3865 -0.1102
-8 18 2 2.4885 -0.0903
-8 18 3 -0.5609 0.0524
-8 18 4 1.8996 0.0926
-8 18 5 -11.1118 -0.0584
-8 18 6 -8.1256 -0.1308
-8 18 7 -0.3702 0.0851
-8 18 8 -5.9019 0.0789
-8 18 9 -6.0735 -0.0554
-8 18 10 -5.5300 -0.2355
-8 18 11 1.3181 -0.1143
-8 18 12 -8.0777 0.1141
-8 18 13 -0.0175 -0.0831
-8 18 14 2.9579 -0.2091
-8 18 15 -5.8384 -0.0250
-8 18 16 2.1081 0.1610
-8 18 17 3.6930 -0.1170
-8 18 18 0.0516 -0.4688
-8 18 19 -0.3056 -0.1809
-8 18 20 2.9365 -0.0060
-8 18 21 -0.2640 0.2494
-8 18 22 1.4974 -0.1310
-8 18 23 -0.4732 -0.3542
-8 18 24 -1.6749 0.1861
-8 18 25 0.3576 0.3451
-8 20 1 -11.8475 0.0493
-8 20 2 -2.2173 0.0583
-8 20 3 6.2367 0.0213
-8 20 4 0.7673 -0.0897
-8 20 5 -1.3077 -0.0665
-8 20 6 2.8604 0.0461
-8 20 7 11.6376 0.0483
-8 20 8 0.9472 -0.0711
-8 20 9 2.0088 -0.0186
-8 20 10 7.0677 0.1963
-8 20 11 1.6326 0.0126
-8 20 12 -0.6561 -0.2673
-8 20 13 -1.5287 0.0139
-8 20 14 0.1413 0.3495
-8 20 15 3.0323 -0.0296
-8 20 16 -7.5683 -0.2417
-8 20 17 -2.6678 0.0101
-8 20 18 3.3896 0.2155
-8 20 19 -4.0195 0.0372
-8 20 20 -4.5920 -0.2666
-8 20 21 -0.0419 -0.3383
-8 20 22 1.8303 0.0690
-8 20 23 -3.7857 0.2266
-8 20 24 -1.9177 -1.2662
-8 22 1 -5.6898 0.1123
-8 22 2 1.2309 -0.0336
-8 22 3 6.8030 0.0129
-8 22 4 -6.9313 0.1362
-8 22 5 3.3286 -0.0478
-8 22 6 12.4050 -0.0727
-8 22 7 -0.1128 -0.0018
-8 22 8 5.5719 0.1825
-8 22 9 5.8321 0.0457
-8 22 10 3.3022 -0.0127
-8 22 11 -0.9953 0.2216
-8 22 12 2.1886 0.1820
-8 22 13 1.3381 -0.0617
-8 22 14 -3.3702 -0.1745
-8 22 15 -2.6510 0.1885
-8 22 16 2.4107 0.3072
-8 22 17 -2.3976 0.0547
-8 22 18 -3.9516 -0.0582
-8 22 19 -1.7705 0.3539
-8 22 20 0.2297 0.9041
-8 22 21 -0.7613 -0.2846
-8 22 22 -6.0374 -0.4281
-8 22 23 0.8218 1.3848
-8 24 1 9.6510 -0.0839
-8 24 2 -5.0111 0.0420
-8 24 3 -9.3284 0.0533
-8 24 4 9.1888 -0.0188
-8 24 5 -3.2794 0.0758
-8 24 6 -7.8638 -0.0003
-8 24 7 -2.3854 0.0900
-8 24 8 4.6137 -0.0554
-8 24 9 -6.2631 -0.0300
-8 24 10 -6.6539 0.0490
-8 24 11 3.0398 -0.0851
-8 24 12 0.0864 -0.0279
-8 24 13 -3.0976 0.0030
-8 24 14 -1.7089 -0.2531
-8 24 15 5.2245 -0.2494
-8 24 16 0.3816 -0.1404
-8 24 17 1.5198 0.1925
-8 24 18 1.9967 -0.0129
-8 24 19 0.9217 0.1427
-8 24 20 -0.5892 0.1207
-8 24 21 2.1877 1.2661
-8 26 1 2.1154 -0.1195
-8 26 2 4.0504 -0.1956
-8 26 3 -2.9458 0.0339
-8 26 4 -3.9779 0.2329
-8 26 5 1.1264 -0.0296
-8 26 6 -1.6455 -0.1075
-8 26 7 -7.1178 -0.0402
-8 26 8 -7.4108 0.2000
-8 26 9 5.1727 0.0889
-8 26 10 -2.9591 -0.3677
-8 26 11 -7.4058 -0.2068
-8 26 12 4.1611 0.2625
-8 26 13 3.8153 0.2149
-8 26 14 -3.8106 -0.1041
-8 26 15 4.3645 -0.5815
-8 26 16 3.6977 -0.1095
-8 26 17 1.5188 -0.5421
-8 26 18 1.9290 0.2771
-8 26 19 1.1080 -0.2371
-8 26 20 1.6361 -1.5018
-8 28 1 -1.4551 0.2583
-8 28 2 5.4588 0.1191
-8 28 3 2.3072 -0.0858
-8 28 4 -2.9857 -0.1203
-8 28 5 1.9094 0.0600
-8 28 6 7.3897 -0.1478
-8 28 7 0.8591 -0.2687
-8 28 8 -2.1420 0.0004
-8 28 9 1.1041 0.0576
-8 28 10 9.9752 0.1205
-8 28 11 0.5282 0.1375
-8 28 12 -4.3466 0.3638
-8 28 13 3.9542 0.5570
-8 28 14 5.2437 0.4130
-8 28 15 -3.2418 -0.0051
-8 28 16 -0.8013 -0.6857
-8 28 17 1.1468 0.6320
-8 28 18 -3.3549 -0.9143
-8 28 19 4.3800 -0.0088
-8 30 1 -2.4105 0.3435
-8 30 2 -1.0520 0.2515
-8 30 3 4.4070 -0.1941
-8 30 4 3.2466 -0.2838
-8 30 5 -2.1816 -0.1327
-8 30 6 5.0518 -0.0246
-8 30 7 8.2242 -0.1746
-8 30 8 0.7004 -0.4931
-8 30 9 1.2986 0.0211
-8 30 10 3.0216 0.6471
-8 30 11 6.0976 0.5379
-8 30 12 -1.9076 -0.3092
-8 30 13 -3.4158 0.1464
-8 30 14 1.7134 0.6392
-8 30 15 -0.6410 0.4748
-8 30 16 -4.0013 -0.0173
-8 30 17 -2.9506 -0.3884
-8 32 1 -0.0461 -0.7253
-8 32 2 3.2632 -0.5209
-8 32 3 -4.1186 0.2337
-8 32 4 2.7373 0.2278
-8 32 5 1.2346 -0.1715
-8 32 6 -0.4889 0.0169
-8 32 7 -1.7041 0.4969
-8 32 8 0.0990 0.4570
-8 32 9 5.6497 -0.0847
-8 32 10 -6.5891 -0.0784
-8 32 11 -2.8338 0.0106
-8 32 12 2.3136 -0.1742
-8 32 13 0.5527 -1.3184
-8 32 14 -6.9332 0.0048
-8 34 1 3.4513 -0.8491
-8 34 2 -2.6727 -0.2818
-8 34 3 0.0174 0.1650
-8 34 4 -0.4292 0.2873
-8 34 5 0.9966 0.1991
-8 34 6 -3.8707 0.5429
-8 34 7 -2.2736 1.1149
-8 34 8 -2.3427 1.4522
-8 34 9 -0.2470 0.1714
-8 34 10 -2.9357 -1.4269
-8 34 11 -3.7915 -0.6833
-7 1 1 -106.3254 -4.1857
-7 1 2 -9.9470 -1.1991
-7 1 3 -17.1253 0.4174
-7 1 4 -60.9136 -0.3850
-7 1 5 -40.5545 -0.3382
-7 1 6 54.6400 1.0908
-7 1 7 13.5496 1.4497
-7 1 8 31.4903 0.3283
-7 1 9 29.0785 -0.6750
-7 1 10 -4.4512 -0.7769
-7 1 11 67.4939 -0.4842
-7 1 12 7.1375 -0.1787
-7 1 13 7.0866 0.2828
-7 1 14 14.3159 0.5793
-7 1 15 18.0161 0.5387
-7 1 16 3.6873 0.1720
-7 1 17 -10.7259 -0.3260
-7 1 18 12.0674 -0.4944
-7 1 19 -0.6213 -0.2134
-7 1 20 -19.8318 0.0489
-7 1 21 -1.4399 0.3711
-7 1 22 -0.2481 0.3424
-7 1 23 -6.4624 0.1716
-7 1 24 -5.6956 -0.2837
-7 1 25 -1.2758 -0.5620
-7 1 26 4.7118 -0.2088
-7 1 27 -7.0104 -0.2295
-7 1 28 -2.2813 -0.4387
-7 3 1 -23.1600 -1.5603
-7 3 2 23.8061 -0.5134
-7 3 3 -37.0072 0.6743
-7 3 4 65.1634 0.7632
-7 3 5 -1.8757 0.3384
-7 3 6 -7.3149 0.2357
-7 3 7 47.2386 0.3697
-7 3 8 16.6337 0.0935
-7 3 9 22.8702 -0.2690
-7 3 10 -11.0671 -0.4735
-7 3 11 -12.0215 -0.4188
-7 3 12 15.4635 -0.1038
-7 3 13 1.1991 0.3335
-7 3 14 -17.5396 0.5506
-7 3 15 -10.0660 0.3888
-7 3 16 1.6119 -0.1682
-7 3 17 1.9020 -0.3836
-7 3 18 -4.5228 -0.2109
-7 3 19 -11.4474 0.0070
-7 3 20 3.7828 0.0752
-7 3 21 3.6787 0.1901
-7 3 22 -3.6559 0.4911
-7 3 23 -3.6176 0.0219
-7 3 24 7.5480 -0.3141
-7 3 25 0.3995 -0.1272
-7 3 26 -1.7392 -0.0645
-7 3 27 -0.2098 -0.1692
-7 3 28 1.0076 -0.3019
-7 5 1 38.1791 0.2689
-7 5 2 40.5145 0.4059
-7 5 3 -17.2309 0.4368
-7 5 4 5.1141 0.5019
-7 5 5 106.1084 0.2002
-7 5 6 -11.6356 -0.1777
-7 5 7 -93.3002 -0.1934
-7 5 8 74.5885 -0.0420
-7 5 9 39.8207 -0.1552
-7 5 10 -74.0011 -0.3117
-7 5 11 -34.4979 -0.0469
-7 5 12 41.8143 0.2702
-7 5 13 -19.7280 0.0819
-7 5 14 -30.1824 -0.1022
-7 5 15 -8.2619 -0.0526
-7 5 16 12.8513 0.0209
-7 5 17 -5.7683 -0.1991
-7 5 18 -20.0934 -0.1773
-7 5 19 13.6145 -0.0110
-7 5 20 7.0427 0.1706
-7 5 21 -6.8939 0.1912
-7 5 22 7.0414 -0.0504
-7 5 23 10.8491 -0.0325
-7 5 24 -4.2979 -0.1019
-7 5 25 5.1578 -0.0611
-7 5 26 3.2507 0.0905
-7 5 27 -1.7839 0.0698
-7 5 28 -0.5325 0.4936
-7 7 1 -7.1018 0.2155
-7 7 2 -0.3404 0.0867
-7 7 3 11.4338 -0.0821
-7 7 4 -26.3543 -0.3480
-7 7 5 -10.4346 -0.1400
-7 7 6 10.1435 -0.0370
-7 7 7 -44.3538 -0.3530
-7 7 8 -12.0381 -0.2540
-7 7 9 -7.0930 0.1511
-7 7 10 10.2610 0.3136
-7 7 11 -6.5591 0.1526
-7 7 12 -11.7362 0.1276
-7 7 13 8.2675 0.1382
-7 7 14 12.1390 -0.0921
-7 7 15 2.2890 -0.3300
-7 7 16 4.8661 -0.1822
-7 7 17 -7.1679 0.1508
-7 7 18 15.8252 0.1620
-7 7 19 -5.5007 -0.0181
-7 7 20 3.7638 -0.0606
-7 7 21 6.5734 0.0804
-7 7 22 -1.6179 -0.0755
-7 7 23 6.0450 -0.2250
-7 7 24 1.9176 -0.1134
-7 7 25 -0.7026 -0.0706
-7 7 26 0.6030 -0.1781
-7 7 27 -4.4711 0.1150
-7 9 1 -7.5155 0.1117
-7 9 2 -7.0259 -0.0021
-7 9 3 -29.6294 -0.1941
-7 9 4 -24.8193 -0.1932
-7 9 5 -34.4068 -0.2843
-7 9 6 -9.9689 -0.1341
-7 9 7 -27.4232 0.0575
-7 9 8 -4.5915 0.0058
-7 9 9 -9.6203 -0.0110
-7 9 10 14.8375 0.2071
-7 9 11 -11.3534 0.3473
-7 9 12 32.3942 0.1322
-7 9 13 -7.7284 -0.0548
-7 9 14 3.7035 -0.1733
-7 9 15 20.6430 -0.1309
-7 9 16 7.4336 -0.0365
-7 9 17 -4.6930 0.0984
-7 9 18 1.4109 0.1317
-7 9 19 14.7447 0.1606
-7 9 20 -7.9372 0.0632
-7 9 21 -4.5067 -0.1505
-7 9 22 8.7194 0.1541
-7 9 23 0.4367 0.0203
-7 9 24 -4.4186 -0.1320
-7 9 25 -0.3468 0.0207
-7 9 26 0.5220 0.0765
-7 9 27 -4.7589 -0.2175
-7 11 1 -38.0225 0.1627
-7 11 2 -22.2648 0.0486
-7 11 3 10.4374 -0.0005
-7 11 4 9.4716 0.0939
-7 11 5 -48.4252 0.1390
-7 11 6 -5.2454 -0.0999
-7 11 7 22.4583 0.0722
-7 11 8 -7.6138 0.1574
-7 11 9 -16.9941 0.0291
-7 11 10 5.9029 -0.1126
-7 11 11 2.7688 -0.0429
-7 11 12 -8.2263 -0.0162
-7 11 13 -3.8566 -0.1794
-7 11 14 -7.8549 -0.1339
-7 11 15 2.3917 0.0311
-7 11 16 -11.2928 0.0193
-7 11 17 4.3061 -0.0194
-7 11 18 4.1885 0.0608
-7 11 19 -12.4384 0.0356
-7 11 20 0.6485 0.0191
-7 11 21 7.0539 0.0564
-7 11 22 -2.1742 -0.3186
-7 11 23 -5.8787 0.1538
-7 11 24 8.1286 0.4840
-7 11 25 2.4811 -0.0427
-7 11 26 -7.3963 0.0397
-7 11 27 5.2986 0.0893
-7 13 1 3.9029 -0.1118
-7 13 2 -13.3014 -0.0040
-7 13 3 1.6139 0.1111
-7 13 4 5.9989 0.0152
-7 13 5 15.4480 -0.0026
-7 13 6 -17.0923 0.2799
-7 13 7 0.7380 0.1268
-7 13 8 26.9059 -0.0355
-7 13 9 -12.4943 -0.0315
-7 13 10 -27.6360 -0.0056
-7 13 11 0.8922 -0.1744
-7 13 12 1.0549 -0.2351
-7 13 13 -13.1459 -0.0712
-7 13 14 -30.5786 0.1285
-7 13 15 1.5559 0.0864
-7 13 16 3.2082 0.0410
-7 13 17 -17.2304 -0.0232
-7 13 18 -0.2897 0.0047
-7 13 19 -2.9937 -0.0690
-7 13 20 -1.6305 -0.2465
-7 13 21 3.1932 -0.2411
-7 13 22 -1.0079 0.0916
-7 13 23 -0.3955 -0.1658
-7 13 24 5.6124 -0.1844
-7 13 25 1.7644 0.3544
-7 13 26 2.3718 -0.3836
-7 15 1 -7.9635 -0.1677
-7 15 2 26.5846 -0.1518
-7 15 3 -33.2984 -0.0456
-7 15 4 -17.0517 0.0399
-7 15 5 21.2205 0.0573
-7 15 6 9.9430 0.1029
-7 15 7 -26.2732 0.0894
-7 15 8 3.1544 -0.0763
-7 15 9 11.6355 -0.1398
-7 15 10 -4.7811 -0.0005
-7 15 11 -16.9144 0.0557
-7 15 12 6.5244 -0.0839
-7 15 13 3.2656 -0.0506
-7 15 14 -8.7238 0.1270
-7 15 15 -1.2304 0.3285
-7 15 16 4.0658 0.2259
-7 15 17 -4.6871 -0.1270
-7 15 18 -0.0833 -0.2753
-7 15 19 0.0993 0.1920
-7 15 20 0.4963 0.3058
-7 15 21 -4.6779 -0.2525
-7 15 22 1.7637 -0.2028
-7 15 23 3.4367 0.4078
-7 15 24 -3.1436 -0.0158
-7 15 25 -2.0018 -0.5668
-7 15 26 7.1854 0.4477
-7 17 1 -8.4373 -0.2710
-7 17 2 -10.0339 -0.0312
-7 17 3 -11.9451 0.0974
-7 17 4 -3.7489 0.0956
-7 17 5 -7.8095 0.0580
-7 17 6 -4.3063 -0.1080
-7 17 7 7.7214 -0.0874
-7 17 8 -7.2997 0.0035
-7 17 9 -6.8691 -0.0041
-7 17 10 14.1120 -0.1770
-7 17 11 8.6321 -0.1971
-7 17 12 -11.2237 0.1233
-7 17 13 3.9928 0.2478
-7 17 14 19.9323 -0.0333
-7 17 15 -0.0947 -0.1371
-7 17 16 -5.3580 0.0367
-7 17 17 8.1320 0.3229
-7 17 18 6.7680 0.1354
-7 17 19 -6.0692 -0.2291
-7 17 20 2.3502 0.0803
-7 17 21 -1.3519 0.6380
-7 17 22 -0.4689 0.2621
-7 17 23 -2.6713 -0.0587
-7 17 24 -2.1371 0.3959
-7 17 25 -2.5845 -0.6400
-7 19 1 11.4597 0.0239
-7 19 2 -6.6826 -0.0672
-7 19 3 0.8431 0.0635
-7 19 4 8.6307 0.0759
-7 19 5 6.3289 -0.0207
-7 19 6 -6.8214 0.0051
-7 19 7 2.5819 -0.0321
-7 19 8 10.0649 -0.0538
-7 19 9 -3.9960 0.0240
-7 19 10 -2.3202 0.0009
-7 19 11 1.0913 -0.0661
-7 19 12 -2.3963 -0.0362
-7 19 13 1.0868 -0.0079
-7 19 14 -0.5497 -0.0550
-7 19 15 -3.0038 -0.1981
-7 19 16 4.0164 -0.0293
-7 19 17 -1.0964 -0.1130
-7 19 18 -1.3791 0.2492
-7 19 19 2.9393 0.2299
-7 19 20 -1.8367 -0.3976
-7 19 21 0.0169 -0.3137
-7 19 22 -1.0966 0.4546
-7 19 23 0.1504 0.0923
-7 19 24 -2.9790 -0.1308
-7 21 1 3.5228 0.1063
-7 21 2 5.9549 0.0754
-7 21 3 10.5581 0.0141
-7 21 4 15.7328 -0.0938
-7 21 5 2.5087 -0.0664
-7 21 6 3.8802 0.1598
-7 21 7 8.4418 0.1290
-7 21 8 2.0765 -0.1252
-7 21 9 -4.5681 -0.0492
-7 21 10 -2.2851 0.2209
-7 21 11 -0.6040 0.2136
-7 21 12 -7.8350 -0.0556
-7 21 13 -7.9164 -0.2658
-7 21 14 0.2266 -0.1922
-7 21 15 -1.3878 0.0436
-7 21 16 -9.6672 -0.0254
-7 21 17 -1.1669 0.1200
-7 21 18 3.4298 -0.2427
-7 21 19 -1.6552 0.0458
-7 21 20 -5.4674 0.3374
-7 21 21 3.5276 -0.4548
-7 21 22 -0.5089 -0.6951
-7 21 23 0.0979 0.3418
-7 23 1 0.4655 -0.1302
-7 23 2 5.9218 0.1284
-7 23 3 -1.3548 0.1538
-7 23 4 -0.5999 0.0074
-7 23 5 2.5166 -0.1005
-7 23 6 4.4977 -0.1347
-7 23 7 -1.1860 -0.0342
-7 23 8 -4.4552 0.2004
-7 23 9 5.9681 0.0746
-7 23 10 -0.3806 -0.0643
-7 23 11 -5.5285 -0.1165
-7 23 12 6.6461 0.0062
-7 23 13 -4.6625 0.1931
-7 23 14 -0.6191 -0.0947
-7 23 15 5.4474 -0.2033
-7 23 16 -4.6548 0.1334
-7 23 17 -0.2735 0.2114
-7 23 18 1.5180 0.3479
-7 23 19 -1.5340 0.1301
-7 23 20 0.8891 0.1652
-7 23 21 -5.4618 0.4005
-7 23 22 2.6868 -0.4963
-7 25 1 0.7704 -0.0696
-7 25 2 -4.7420 -0.2014
-7 25 3 -9.0907 -0.0359
-7 25 4 -8.2776 0.0739
-7 25 5 -0.7423 0.0153
-7 25 6 -1.3021 -0.1283
-7 25 7 -9.7465 -0.0303
-7 25 8 3.1915 0.0426
-7 25 9 4.0476 0.1319
-7 25 10 1.7510 -0.1232
-7 25 11 -0.6132 -0.0630
-7 25 12 6.7655 0.1389
-7 25 13 8.6894 -0.1481
-7 25 14 1.0580 -0.0767
-7 25 15 -1.4245 0.2683
-7 25 16 8.7948 0.3249
-7 25 17 3.5548 -0.2971
-7 25 18 -4.3690 -0.1012
-7 25 19 -1.4454 0.5581
-7 25 20 2.9966 0.1111
-7 25 21 -2.5128 0.4750
-7 27 1 -2.7818 0.0437
-7 27 2 -5.1667 0.0696
-7 27 3 3.1171 -0.1923
-7 27 4 2.9779 -0.1504
-7 27 5 -6.7983 0.0475
-7 27 6 -3.3170 0.2000
-7 27 7 6.2724 0.0285
-7 27 8 1.0155 -0.1020
-7 27 9 -4.0791 -0.0103
-7 27 10 5.3805 0.2377
-7 27 11 1.9096 0.1249
-7 27 12 3.3645 0.0394
-7 27 13 -0.5786 -0.0417
-7 27 14 4.5373 -0.3057
-7 27 15 -0.7225 -0.0852
-7 27 16 1.0499 0.0600
-7 27 17 2.6477 -0.0134
-7 27 18 -2.4689 -0.9298
-7 27 19 -2.7279 -0.5422
-7 29 1 -1.7347 0.1488
-7 29 2 7.5591 -0.0555
-7 29 3 6.3714 0.1283
-7 29 4 5.8576 0.1562
-7 29 5 1.5840 -0.0391
-7 29 6 1.3323 -0.2220
-7 29 7 6.7833 -0.1832
-7 29 8 1.5342 0.0632
-7 29 9 -0.9524 0.0095
-7 29 10 -2.2311 -0.0307
-7 29 11 2.4398 0.2384
-7 29 12 -0.7078 -0.1755
-7 29 13 -4.9284 -0.1825
-7 29 14 -3.8990 0.1763
-7 29 15 1.6775 -0.3826
-7 29 16 -2.8860 -0.6999
-7 29 17 -2.3068 -0.2967
-7 29 18 -2.6618 0.0444
-7 31 1 2.0944 -0.1140
-7 31 2 4.3064 -0.0105
-7 31 3 3.1206 0.2516
-7 31 4 0.2407 0.2604
-7 31 5 2.1816 -0.1913
-7 31 6 3.4463 -0.4264
-7 31 7 0.4877 0.1144
-7 31 8 -0.2082 -0.1762
-7 31 9 -2.4156 -0.5951
-7 31 10 2.1322 -0.1106
-7 31 11 -1.5056 -0.0987
-7 31 12 -7.0338 0.1596
-7 31 13 -1.5304 -0.0961
-7 31 14 -0.0307 -0.5973
-7 31 15 -4.3766 0.2316
-7 31 16 -2.3058 0.8841
-7 33 1 3.1431 -0.1766
-7 33 2 -2.0607 -0.3597
-7 33 3 -3.6667 -0.3436
-7 33 4 -0.8055 0.1182
-7 33 5 -0.3439 0.4804
-7 33 6 -2.0959 0.3147
-7 33 7 -3.8978 -0.6133
-7 33 8 1.3039 -0.1706
-7 33 9 -1.7876 0.4061
-7 33 10 -3.5857 -0.8082
-7 33 11 2.8066 -0.6091
-7 33 12 -6.6987 0.2903
-7 33 13 2.2066 1.4044
-7 35 1 -2.3171 -0.8411
-7 35 2 1.0289 -0.6975
-7 35 3 -2.6678 -0.1380
-7 35 4 -1.8520 0.1624
-7 35 5 -1.9876 0.4354
-7 35 6 0.0938 0.2190
-7 35 7 -5.1032 -0.1543
-7 35 8 0.5099 -0.3020
-7 35 9 0.3605 2.3066
-6 0 1 -20.0854 -9.7629
-6 0 2 -106.1551 -4.3592
-6 0 3 -20.5059 2.0315
-6 0 4 88.0108 2.2815
-6 0 5 42.0617 0.4047
-6 0 6 -10.9188 -0.2292
-6 0 7 68.2358 -0.1535
-6 0 8 47.1903 -0.1399
-6 0 10 53.2298 -0.0335
-6 0 11 -29.0746 -0.0319
-6 0 12 25.8871 0.0561
-6 0 13 45.6182 0.1807
-6 0 14 -8.0809 0.2313
-6 0 15 -21.2691 -0.2045
-6 0 16 2.7571 -0.6881
-6 0 17 -6.8643 -0.4495
-6 0 18 -19.3086 0.1947
-6 0 19 -18.4748 0.2476
-6 0 20 -6.9864 0.1010
-6 0 21 -3.4691 0.3136
-6 0 22 -10.2685 0.4649
-6 0 23 -6.5954 0.1307
-6 0 24 1.0239 -0.5765
-6 0 25 -4.2223 -0.9079
-6 0 26 -1.2846 -0.5576
-6 0 27 -2.4651 0.1841
-6 0 28 2.2738 0.2911
-6 2 1 -75.6662 -1.8633
-6 2 2 -26.9271 -1.5104
-6 2 3 7.4529 -0.1644
-6 2 4 35.8239 1.1176
-6 2 5 -5.0072 1.3225
-6 2 6 42.1521 0.3753
-6 2 7 6.2107 -0.6396
-6 2 8 44.6750 -0.7183
-6 2 9 28.3770 -0.1241
-6 2 10 2.2816 0.3432
-6 2 11 18.6300 0.4273
-6 2 12 -0.7069 0.1369
-6 2 13 1.2207 -0.0241
-6 2 14 3.6468 -0.0731
-6 2 15 16.5155 -0.0668
-6 2 16 -15.3124 -0.2736
-6 2 17 -17.8192 -0.3976
-6 2 18 12.5960 -0.2387
-6 2 19 -4.3318 0.2133
-6 2 20 -18.1528 0.4967
-6 2 21 3.6577 0.5164
-6 2 22 3.2149 0.2515
-6 2 23 -7.1813 -0.2906
-6 2 24 -2.4724 -0.3057
-6 2 25 2.9971 -0.1685
-6 2 26 -3.6592 -0.4281
-6 2 27 -4.8057 -0.9650
-6 2 28 6.6743 0.6055
-6 4 1 27.0609 0.9444
-6 4 3 31.2674 -0.0662
-6 4 5 28.7737 0.6436
-6 4 6 16.7662 0.0177
-6 4 7 -13.2364 -0.4848
-6 4 8 -42.4378 -0.4147
-6 4 9 -2.2511 -0.1561
-6 4 10 -11.1668 0.1414
-6 4 11 -4.6081 0.4275
-6 4 12 -34.7520 0.3883
-6 4 13 8.8853 -0.0680
-6 4 14 10.5712 -0.2886
-6 4 15 -11.8643 -0.2508
-6 4 16 13.2739 -0.2375
-6 4 17 9.2041 -0.1214
-6 4 18 -3.8356 0.0932
-6 4 19 8.3816 0.1348
-6 4 20 13.0676 0.0943
-6 4 21 -1.5722 0.2627
-6 4 22 -0.5554 0.3122
-6 4 23 12.0128 0.1606
-6 4 24 0.6957 -0.2045
-6 4 25 -4.0855 -0.3186
-6 4 26 -0.6778 0.0332
-6 4 27 1.3572 0.8052
-6 4 28 -0.4963 -0.5349
-6 6 1 84.0434 0.3827
-6 6 2 36.3124 0.3770
-6 6 3 -63.2536 0.2165
-6 6 4 19.5470 -0.3333
-6 6 5 42.8162 -0.3375
-6 6 6 -61.7815 -0.0573
-6 6 7 -3.1422 -0.1624
-6 6 8 -3.9047 -0.1738
-6 6 9 -26.8505 0.0976
-6 6 10 -27.7572 0.2855
-6 6 11 3.5426 0.1342
-6 6 12 -0.5862 -0.0505
-6 6 13 -15.6726 -0.0339
-6 6 14 6.2034 -0.0145
-6 6 15 -1.7368 -0.1885
-6 6 16 3.6087 -0.1638
-6 6 17 15.4635 0.0376
-6 6 18 -11.4759 0.2138
-6 6 19 8.3329 0.0101
-6 6 20 9.9018 0.0139
-6 6 21 1.2975 -0.0591
-6 6 22 3.1720 -0.2013
-6 6 23 5.8706 -0.2341
-6 6 24 2.7512 0.1255
-6 6 25 0.6090 0.4337
-6 6 26 -0.4169 0.1531
-6 6 27 0.0747 -0.6442
-6 8 3 9.2714 -0.0323
-6 8 4 29.9706 -0.3566
-6 8 5 1.6523 -0.5375
-6 8 6 7.6057 -0.1579
-6 8 7 -22.0033 0.2263
-6 8 8 15.7533 0.2235
-6 8 9 24.8736 0.0670
-6 8 10 -16.5516 0.0191
-6 8 11 -12.5305 -0.0057
-6 8 12 26.0986 -0.0405
-6 8 13 2.7804 -0.0606
-6 8 14 -18.6144 0.0137
-6 8 15 -1.4988 0.1222
-6 8 16 0.6787 0.0875
-6 8 17 1.4152 0.0947
-6 8 18 -8.8005 0.0885
-6 8 19 -4.2940 0.1691
-6 8 20 3.1237 -0.1872
-6 8 21 -0.3187 -0.2828
-6 8 22 1.6556 -0.1465
-6 8 23 -0.0275 -0.0164
-6 8 24 2.1281 -0.1677
-6 8 25 -1.5040 -0.1187
-6 8 26 5.7912 0.1611
-6 8 27 -4.4794 0.6214
-6 10 3 77.0221 0.0086
-6 10 4 -2.1749 0.0288
-6 10 5 -54.1829 -0.0393
-6 10 6 28.6371 -0.0914
-6 10 7 54.6534 0.1643
-6 10 8 -39.9650 0.2474
-6 10 9 -13.3496 0.0825
-6 10 10 40.8187 -0.1153
-6 10 11 -2.5731 -0.1352
-6 10 12 -29.6316 -0.1266
-6 10 13 6.9531 0.0371
-6 10 14 3.2162 0.0863
-6 10 15 -13.5039 0.0675
-6 10 16 -4.6910 0.1317
-6 10 17 -4.9725 0.1443
-6 10 18 3.5051 -0.0276
-6 10 19 -5.4557 -0.1283
-6 10 20 -0.7368 0.1581
-6 10 21 3.6135 0.1365
-6 10 22 -3.3860 -0.0955
-6 10 23 2.9591 -0.1334
-6 10 24 -1.4767 0.2272
-6 10 25 1.7103 0.2577
-6 10 26 2.3475 -0.0522
-6 10 27 -3.4744 -0.4702
-6 12 1 -12.8149 -0.0148
-6 12 2 14.4760 -0.0663
-6 12 3 -17.8505 0.0155
-6 12 4 -12.8994 0.1759
-6 12 5 -3.1313 0.1592
-6 12 6 -6.9877 0.1049
-6 12 7 -7.6772 0.0696
-6 12 8 -5.0445 0.0321
-6 12 9 -16.4512 -0.0195
-6 12 10 -12.8021 -0.0046
-6 12 11 -6.2587 -0.0463
-6 12 12 -6.7755 -0.0691
-6 12 13 -16.4900 -0.0988
-6 12 14 -9.0772 0.0705
-6 12 15 13.1849 0.1056
-6 12 16 -5.6158 -0.0815
-6 12 17 -12.3179 -0.1965
-6 12 18 8.7614 -0.0424
-6 12 19 12.1726 -0.0680
-6 12 20 -10.2746 -0.1231
-6 12 21 1.9947 0.0853
-6 12 22 9.7684 0.2568
-6 12 23 -2.2668 0.0786
-6 12 24 -1.8062 -0.1830
-6 12 25 3.1572 -0.0972
-6 12 26 1.4972 0.7559
-6 14 1 5.4114 -0.1446
-6 14 2 -20.8014 -0.1548
-6 14 3 -21.1394 0.0735
-6 14 4 -7.8313 0.0438
-6 14 5 15.3553 0.0274
-6 14 6 -18.1559 0.1761
-6 14 7 -20.0347 0.0175
-6 14 8 -6.5562 -0.1749
-6 14 9 8.0965 -0.1345
-6 14 10 -5.6506 -0.0359
-6 14 11 -31.2082 0.0822
-6 14 12 0.8535 0.1238
-6 14 13 17.7207 0.0330
-6 14 14 -9.6975 -0.1243
-6 14 15 -10.2003 -0.0183
-6 14 16 8.0623 0.0317
-6 14 17 6.2193 -0.1857
-6 14 18 -8.0331 -0.3314
-6 14 19 -2.4278 -0.0460
-6 14 20 6.1367 0.0744
-6 14 21 0.3454 -0.0430
-6 14 22 -3.6429 -0.1297
-6 14 23 1.6738 -0.0283
-6 14 24 1.6988 0.0045
-6 14 25 1.3107 0.1638
-6 14 26 -3.4588 -1.0450
-6 16 1 10.2713 -0.1130
-6 16 2 -11.8529 0.0448
-6 16 3 -30.0868 0.0250
-6 16 4 18.4858 0.0658
-6 16 5 26.8341 0.1097
-6 16 6 -18.9694 -0.0126
-6 16 7 -8.9171 -0.1061
-6 16 8 32.5566 -0.1087
-6 16 9 0.8449 -0.1389
-6 16 10 -5.5688 -0.1183
-6 16 11 7.3771 -0.0457
-6 16 12 3.4940 0.1621
-6 16 13 7.7676 0.2560
-6 16 14 1.5540 0.0562
-6 16 15 -2.6045 -0.2257
-6 16 16 2.3143 -0.0812
-6 16 17 -1.2972 0.2444
-6 16 18 -4.4679 0.1897
-6 16 19 -3.1335 -0.0629
-6 16 20 -2.6504 -0.0602
-6 16 21 -2.4803 0.0682
-6 16 22 -3.4945 0.2413
-6 16 23 -0.2633 0.1540
-6 16 24 -2.1385 -0.2522
-6 16 25 0.0668 -0.4789
-6 18 1 -5.9525 0.0411
-6 18 2 17.0895 0.0144
-6 18 3 12.2339 -0.0405
-6 18 4 -10.2534 -0.0140
-6 18 5 -1.4085 0.1690
-6 18 6 20.8898 0.0529
-6 18 7 16.7896 -0.0469
-6 18 8 -11.4572 -0.0420
-6 18 9 -2.5015 0.0219
-6 18 10 22.1252 0.0302
-6 18 11 1.3495 0.0614
-6 18 12 -6.5580 0.0032
-6 18 13 -0.1676 -0.1201
-6 18 14 10.3472 0.0568
-6 18 15 -1.6400 0.2242
-6 18 16 -2.7595 0.0235
-6 18 17 0.8340 -0.1559
-6 18 18 -1.7574 0.2371
-6 18 19 3.2964 0.4102
-6 18 20 -3.4854 0.1459
-6 18 21 -6.0119 -0.0929
-6 18 22 -0.1087 -0.4239
-6 18 23 1.7084 -0.1353
-6 18 24 -4.2479 1.3076
-6 20 1 -0.1907 -0.0199
-6 20 2 9.8434 -0.1526
-6 20 3 17.5355 -0.0656
-6 20 4 -1.0322 0.0293
-6 20 5 -17.3439 -0.0850
-6 20 6 7.1615 0.0770
-6 20 7 18.7341 0.0425
-6 20 8 -22.2185 0.0729
-6 20 9 -15.0761 0.2777
-6 20 10 8.8543 0.1302
-6 20 11 1.0323 -0.1148
-6 20 12 -9.6701 -0.1697
-6 20 13 -9.3018 0.0137
-6 20 14 6.1983 -0.1337
-6 20 15 3.5700 -0.1773
-6 20 16 -3.7975 -0.1324
-6 20 17 2.9071 0.1191
-6 20 18 2.2649 0.0840
-6 20 19 3.9372 -0.1912
-6 20 20 1.5628 -0.2439
-6 20 21 -2.8442 0.3176
-6 20 22 1.6116 0.1765
-6 20 23 0.6184 -2.3244
-6 22 1 19.2669 -0.0106
-6 22 2 -1.6085 0.1592
-6 22 3 -7.5721 0.0347
-6 22 4 3.9704 -0.2036
-6 22 5 11.9636 -0.0906
-6 22 6 -11.8942 -0.0630
-6 22 7 -14.4374 -0.0057
-6 22 8 8.3652 0.0712
-6 22 9 -0.0140 -0.0503
-6 22 10 -16.0788 -0.0176
-6 22 11 -3.8081 0.0162
-6 22 12 9.1944 0.0078
-6 22 13 -3.7720 -0.2455
-6 22 14 -9.0265 -0.0887
-6 22 15 2.5278 -0.0160
-6 22 16 6.6630 -0.0807
-6 22 17 -4.3152 -0.2277
-6 22 18 -0.3315 -0.0273
-6 22 19 4.3820 0.2129
-6 22 20 -0.6772 0.0406
-6 22 21 1.2013 -0.6442
-6 22 22 1.5542 0.9729
-6 24 1 1.0437 0.0813
-6 24 2 -5.9346 -0.0936
-6 24 3 -0.1985 -0.0982
-6 24 4 -5.9164 0.0668
-6 24 5 9.1332 0.0684
-6 24 6 1.6807 -0.1628
-6 24 7 -6.7794 -0.1802
-6 24 8 1.0004 0.0458
-6 24 9 12.1799 0.0141
-6 24 10 2.0205 -0.2179
-6 24 11 -4.9874 -0.1082
-6 24 12 2.9305 0.2701
-6 24 13 8.1890 0.3499
-6 24 14 -0.3395 -0.0288
-6 24 15 -8.0902 -0.0359
-6 24 16 2.4579 0.2278
-6 24 17 -0.1557 0.3564
-6 24 18 -1.8014 -0.0108
-6 24 19 -5.4321 -0.3957
-6 24 20 2.4695 -0.2090
-6 24 21 0.0724 1.9166
-6 26 1 -5.6454 -0.2357
-6 26 2 3.0434 -0.1793
-6 26 3 -5.1146 -0.0449
-6 26 4 -0.7224 0.1034
-6 26 5 0.2580 0.1266
-6 26 6 4.6749 0.1363
-6 26 7 2.3191 0.0163
-6 26 8 -0.5745 0.0159
-6 26 9 5.4975 0.1988
-6 26 10 4.5888 0.0363
-6 26 11 2.4700 -0.0881
-6 26 12 1.6253 -0.1502
-6 26 13 0.6787 0.1826
-6 26 14 2.5862 0.5930
-6 26 15 1.9358 0.1739
-6 26 16 -5.1153 -0.5566
-6 26 17 -1.6962 -0.4811
-6 26 18 -0.4526 1.1659
-6 26 19 -0.0670 0.2027
-6 26 20 -3.8733 -3.4593
-6 28 1 -1.1210 0.0337
-6 28 2 -2.0269 -0.0042
-6 28 3 6.2692 0.0283
-6 28 4 0.0996 0.0750
-6 28 5 -1.4421 0.1036
-6 28 6 -2.6350 0.1219
-6 28 7 6.4469 0.2484
-6 28 8 -3.7885 0.0306
-6 28 9 -2.6397 -0.1383
-6 28 10 1.0359 -0.0488
-6 28 11 -2.6714 -0.0814
-6 28 12 4.5216 -0.1277
-6 28 13 -3.9535 -0.5366
-6 28 14 0.5716 -0.5382
-6 28 15 1.8770 0.3445
-6 28 16 0.9619 -0.1305
-6 28 17 -3.8466 -0.6721
-6 28 18 1.3734 -1.4016
-6 30 1 -0.1286 0.4287
-6 30 2 0.8560 0.2613
-6 30 3 2.7464 0.1076
-6 30 4 2.9305 -0.0290
-6 30 5 -3.2512 -0.1569
-6 30 6 -0.6562 -0.0982
-6 30 7 -0.0474 -0.1644
-6 30 8 -0.1529 -0.0966
-6 30 9 -4.6929 -0.4224
-6 30 10 -2.3347 -0.1797
-6 30 11 -0.3527 -0.1092
-6 30 12 -1.9423 -0.3489
-6 30 13 -2.0354 0.3545
-6 30 14 0.2692 0.1084
-6 30 15 0.0293 -1.5953
-6 30 16 -0.8440 0.3877
-6 30 17 1.0485 3.0757
-6 32 1 -1.3588 -0.0336
-6 32 2 -0.0826 0.2767
-6 32 3 -0.2903 0.3380
-6 32 4 -3.4667 -0.1232
-6 32 5 2.4194 -0.5062
-6 32 6 1.0969 -0.4256
-6 32 7 -3.4354 -0.1485
-6 32 8 0.5585 -0.3703
-6 32 9 1.3896 0.3213
-6 32 10 -0.6572 0.1816
-6 32 11 -4.0564 -0.1264
-6 32 12 1.0234 0.5729
-6 32 13 -0.7907 1.0458
-6 32 14 -2.1187 2.3285
-6 34 1 1.3949 -0.3134
-6 34 2 -1.1016 -0.0774
-6 34 3 -2.6003 -0.0728
-6 34 4 -0.1894 -0.2264
-6 34 5 1.4374 -0.1926
-6 34 6 0.1178 -0.0002
-6 34 7 0.7157 -0.1518
-6 34 8 -2.2068 0.2372
-6 34 9 1.6612 0.4885
-6 34 10 4.3939 1.3916
-6 34 11 -6.2498 0.8157
-6 36 1 -0.3425 0.5037
-6 36 2 -1.6387 0.1415
-6 36 3 0.7062 -1.0928
-6 36 4 0.8519 -0.7722
-6 36 5 0.3046 1.0237
-6 36 6 -2.5532 1.0748
-6 36 7 2.8313 -2.0916
-5 1 1 -7.9989 0.5089
-5 1 2 9.7652 1.0938
-5 1 3 30.8078 -0.4201
-5 1 4 28.9715 -1.1163
-5 1 5 -60.2290 -0.3204
-5 1 6 43.0250 0.4602
-5 1 7 41.2848 0.2739
-5 1 8 -36.5274 -0.4441
-5 1 9 -54.3785 -0.5297
-5 1 10 50.3481 0.3392
-5 1 11 11.5812 1.0682
-5 1 12 -43.0233 0.5753
-5 1 13 -14.1874 -0.3534
-5 1 14 -6.4579 -0.7393
-5 1 15 10.2947 -0.6084
-5 1 16 -26.1021 -0.3865
-5 1 17 -21.7530 0.0482
-5 1 18 14.3090 0.5337
-5 1 19 -6.8136 0.4317
-5 1 20 -13.3616 0.1640
-5 1 21 5.3471 0.1745
-5 1 22 -1.8213 0.0373
-5 1 23 -0.9795 -0.4432
-5 1 24 0.2354 -0.5291
-5 1 25 -3.2713 0.3055
-5 1 26 -2.4629 0.2884
-5 1 27 5.1203 -0.7033
-5 3 1 13.9338 0.1692
-5 3 2 -39.4150 0.5857
-5 3 3 -23.8235 0.5730
-5 3 4 -46.0971 -0.3130
-5 3 5 13.0594 -0.8365
-5 3 6 55.0186 -0.3267
-5 3 7 -81.2699 0.3139
-5 3 8 -17.4186 0.0188
-5 3 9 56.2946 -0.2763
-5 3 10 -7.9789 0.2589
-5 3 11 -20.8013 0.8240
-5 3 12 26.2566 0.3956
-5 3 13 15.7715 -0.3620
-5 3 14 4.2141 -0.5365
-5 3 15 -3.1648 -0.4742
-5 3 16 16.7157 -0.3438
-5 3 17 8.4641 0.0167
-5 3 18 -11.5532 0.3236
-5 3 19 6.3727 0.4619
-5 3 20 4.5816 0.2782
-5 3 21 -6.9163 0.0512
-5 3 22 2.8076 -0.1353
-5 3 23 -1.5442 -0.1225
-5 3 24 -3.9343 0.0158
-5 3 25 -4.1497 -0.2253
-5 3 26 1.1985 -0.1098
-5 3 27 -1.8484 0.1802
-5 5 1 -10.3525 0.6917
-5 5 2 18.5039 0.5895
-5 5 3 -65.6648 -0.1808
-5 5 4 -36.3801 -0.3289
-5 5 5 37.4183 -0.2545
-5 5 6 1.4142 -0.1450
-5 5 7 -48.9759 -0.0744
-5 5 8 -12.4018 0.0815
-5 5 9 61.8344 0.1539
-5 5 10 -29.6298 0.4401
-5 5 11 -9.5061 0.3449
-5 5 12 34.3110 -0.1559
-5 5 13 26.9905 -0.3376
-5 5 14 -1.5461 -0.1507
-5 5 15 10.1686 -0.0477
-5 5 16 20.0011 -0.1569
-5 5 17 -3.9117 -0.0689
-5 5 18 17.1678 0.1587
-5 5 19 -11.6796 0.1708
-5 5 20 8.0881 0.1700
-5 5 21 5.5141 0.0632
-5 5 22 -0.4513 -0.0687
-5 5 23 -3.7518 -0.0899
-5 5 24 3.2568 0.1276
-5 5 25 -2.8655 0.3099
-5 5 26 -1.0220 0.1434
-5 5 27 -1.1001 0.2003
-5 7 1 -19.9929 -0.1989
-5 7 2 45.3986 -0.3627
-5 7 3 23.9533 -0.0225
-5 7 4 21.4565 0.0085
-5 7 5 -11.0233 -0.1011
-5 7 6 27.1117 -0.1052
-5 7 7 -8.1526 0.0435
-5 7 8 15.5577 0.1888
-5 7 9 -10.1491 0.2841
-5 7 10 -4.4152 -0.0707
-5 7 11 -15.5931 -0.3125
-5 7 12 7.6520 -0.0879
-5 7 13 2.4149 0.0580
-5 7 14 -10.7707 -0.0011
-5 7 15 -5.8376 0.0457
-5 7 16 5.0961 0.2334
-5 7 17 -2.9126 0.1263
-5 7 18 -12.8440 -0.1023
-5 7 19 7.2102 -0.2205
-5 7 20 9.3594 -0.1195
-5 7 21 -4.5365 -0.0740
-5 7 22 2.6084 -0.0862
-5 7 23 9.6124 0.0197
-5 7 24 0.9285 0.0465
-5 7 25 -2.9813 0.2187
-5 7 26 4.9903 0.1382
-5 7 27 2.0510 -0.6326
-5 9 1 45.6803 -0.2610
-5 9 2 50.2861 -0.3141
-5 9 3 24.8777 -0.0670
-5 9 4 57.9999 0.1418
-5 9 5 -7.1599 0.2923
-5 9 6 21.8659 0.1072
-5 9 7 12.5035 -0.0937
-5 9 8 20.0187 -0.0136
-5 9 9 -30.5195 -0.0321
-5 9 10 -21.6558 -0.1847
-5 9 11 21.2572 -0.2818
-5 9 12 -29.2766 -0.1673
-5 9 13 -36.8043 0.0596
-5 9 14 9.3826 0.2473
-5 9 15 -1.5903 0.2628
-5 9 16 -27.3885 0.1853
-5 9 17 -7.6419 0.0222
-5 9 18 10.0729 -0.1995
-5 9 19 -4.8457 -0.0722
-5 9 20 -3.9319 -0.1190
-5 9 21 9.9440 -0.1798
-5 9 22 2.5181 -0.0902
-5 9 23 -0.8461 0.2179
-5 9 24 3.8488 0.2833
-5 9 25 3.1703 -0.3999
-5 9 26 -0.7597 -0.6427
-5 9 27 4.8150 0.6090
-5 11 1 29.2812 0.0241
-5 11 2 -10.2102 0.0994
-5 11 3 5.8747 -0.1160
-5 11 4 13.0072 0.0850
-5 11 5 4.0776 0.1872
-5 11 6 4.5667 0.1728
-5 11 7 -15.0131 0.0638
-5 11 8 8.1794 -0.1767
-5 11 9 0.2864 -0.1589
-5 11 10 -10.0977 0.0390
-5 11 11 -19.6490 0.0080
-5 11 12 13.1592 -0.1142
-5 11 13 -8.4850 0.1066
-5 11 14 -14.2276 0.2051
-5 11 15 10.7807 0.0365
-5 11 16 0.5867 -0.1157
-5 11 17 -8.2993 0.0412
-5 11 18 3.5305 0.1310
-5 11 19 5.9037 -0.1408
-5 11 20 -2.4148 -0.1336
-5 11 21 -4.6622 0.1465
-5 11 22 6.0782 0.3650
-5 11 23 0.7518 0.1063
-5 11 24 -6.3034 -0.2466
-5 11 25 -0.7448 -0.0579
-5 11 26 4.1089 -0.0917
-5 13 1 -31.5357 -0.0442
-5 13 2 -3.7923 -0.0629
-5 13 3 -38.7116 0.0707
-5 13 4 -7.8023 -0.1011
-5 13 5 -20.4539 -0.0901
-5 13 6 10.4204 0.0770
-5 13 7 -12.5126 0.0243
-5 13 8 -25.1970 -0.0284
-5 13 9 11.2505 0.0337
-5 13 10 20.6893 0.0239
-5 13 11 -15.7452 0.1639
-5 13 12 -0.6404 0.2183
-5 13 13 27.4095 0.0331
-5 13 14 -2.7708 -0.1002
-5 13 15 3.8944 -0.1239
-5 13 16 5.3897 -0.1285
-5 13 17 4.6871 -0.1510
-5 13 18 2.1804 -0.0119
-5 13 19 -5.6507 0.0517
-5 13 20 2.4354 0.1465
-5 13 21 -1.2879 0.0932
-5 13 22 -4.6973 0.0178
-5 13 23 -1.4179 -0.0251
-5 13 24 -0.7819 0.1070
-5 13 25 -2.5348 -0.2194
-5 13 26 -3.7257 0.1323
-5 15 1 7.0845 -0.0582
-5 15 2 -2.7763 0.3019
-5 15 3 -18.9625 0.1887
-5 15 4 -8.7474 -0.1359
-5 15 5 8.0079 -0.2057
-5 15 6 -3.4990 -0.0817
-5 15 7 -5.8189 -0.0207
-5 15 8 4.9186 0.0036
-5 15 9 -0.6849 -0.1106
-5 15 10 -7.2876 -0.0206
-5 15 11 16.5117 0.0652
-5 15 12 6.0874 0.2073
-5 15 13 -6.1446 0.0377
-5 15 14 0.9499 -0.2109
-5 15 15 5.0093 -0.1031
-5 15 16 3.6920 -0.0719
-5 15 17 -7.3507 -0.1793
-5 15 18 -3.9415 -0.1418
-5 15 19 2.3343 0.2357
-5 15 20 -3.6551 0.0780
-5 15 21 -1.1517 -0.0325
-5 15 22 -1.5828 -0.0424
-5 15 23 -3.6793 0.0468
-5 15 24 0.4625 -0.2322
-5 15 25 1.1133 0.2501
-5 17 1 -4.0917 0.1946
-5 17 2 6.4283 0.1603
-5 17 3 22.7920 0.0650
-5 17 4 7.3531 0.1056
-5 17 5 -2.9314 0.0735
-5 17 6 12.0234 -0.1214
-5 17 7 6.8477 -0.0555
-5 17 8 3.2746 0.0000
-5 17 9 -5.3346 0.0224
-5 17 10 1.2575 -0.0536
-5 17 11 -0.0894 -0.0500
-5 17 12 -1.5624 -0.0900
-5 17 13 -3.5193 -0.0535
-5 17 14 -2.6997 0.1611
-5 17 15 -10.3560 -0.0598
-5 17 16 4.1740 -0.0101
-5 17 17 2.8711 0.0823
-5 17 18 -12.1411 -0.0441
-5 17 19 -0.0108 -0.0894
-5 17 20 7.5962 0.2830
-5 17 21 -4.1970 0.0122
-5 17 22 -5.5736 -0.4487
-5 17 23 5.2901 -0.1069
-5 17 24 -2.1268 0.5140
-5 17 25 0.2478 -0.1827
-5 19 1 6.2773 -0.0752
-5 19 2 -8.3783 0.0534
-5 19 3 1.7660 0.0079
-5 19 4 18.2958 -0.1113
-5 19 5 3.1987 -0.0308
-5 19 6 -17.9445 0.1997
-5 19 7 7.5476 0.2457
-5 19 8 19.1470 0.1951
-5 19 9 -15.6967 0.0209
-5 19 10 -7.8928 -0.0280
-5 19 11 14.7854 0.1192
-5 19 12 -2.2858 -0.0978
-5 19 13 -12.9756 -0.1947
-5 19 14 10.2988 -0.1366
-5 19 15 1.4827 0.2828
-5 19 16 -0.8350 0.1482
-5 19 17 -3.1408 -0.0285
-5 19 18 10.7081 0.1058
-5 19 19 -1.8752 -0.1008
-5 19 20 -1.9482 -0.2224
-5 19 21 3.3450 0.0580
-5 19 22 -1.8160 -0.0655
-5 19 23 -0.6124 -0.6397
-5 19 24 -0.7043 0.2761
-5 21 1 -3.0370 -0.1210
-5 21 2 -0.7817 -0.1095
-5 21 3 -4.6095 -0.0939
-5 21 4 -6.8329 -0.0768
-5 21 5 -5.2661 -0.1486
-5 21 6 -2.8886 0.0106
-5 21 7 2.1219 0.1994
-5 21 8 -10.1060 0.1286
-5 21 9 6.1141 0.0836
-5 21 10 4.1964 0.0497
-5 21 11 -6.8596 -0.0900
-5 21 12 5.6450 -0.0210
-5 21 13 5.2626 -0.1225
-5 21 14 1.1982 -0.1979
-5 21 15 -0.1192 -0.0615
-5 21 16 8.7652 0.0418
-5 21 17 -0.7911 0.1722
-5 21 18 -0.2345 -0.1441
-5 21 19 5.5045 -0.0963
-5 21 20 0.8363 -0.0202
-5 21 21 -2.4862 -0.0263
-5 21 22 0.0978 0.0381
-5 21 23 -1.0952 -0.0067
-5 23 1 -5.0985 0.1723
-5 23 2 0.0217 -0.0613
-5 23 3 1.7435 -0.1239
-5 23 4 -2.0369 -0.0672
-5 23 5 -13.6557 0.0789
-5 23 6 10.5141 -0.1576
-5 23 7 -1.7734 -0.3035
-5 23 8 -10.3086 -0.1201
-5 23 9 5.3493 -0.0491
-5 23 10 0.2413 0.1270
-5 23 11 -3.5235 0.1023
-5 23 12 -1.2173 -0.1674
-5 23 13 2.7377 -0.0650
-5 23 14 -2.9657 0.3943
-5 23 15 -2.9302 -0.1672
-5 23 16 0.4087 -0.2703
-5 23 17 0.5775 0.0299
-5 23 18 -3.8015 0.2636
-5 23 19 2.0913 -0.3532
-5 23 20 -0.5709 -0.1285
-5 23 21 2.8931 0.5992
-5 23 22 -2.8013 0.2111
-5 25 1 8.5512 0.0841
-5 25 2 -3.8161 0.0647
-5 25 3 3.7456 -0.0369
-5 25 4 -1.0662 0.0959
-5 25 5 5.6287 0.0761
-5 25 6 -0.4394 -0.0781
-5 25 7 -5.0621 -0.1130
-5 25 8 1.8880 0.0019
-5 25 9 -1.0192 -0.0382
-5 25 10 -3.7765 -0.1069
-5 25 11 -5.7654 0.1741
-5 25 12 2.1733 0.3122
-5 25 13 -4.8963 0.1410
-5 25 14 -6.0330 0.0894
-5 25 15 0.4121 0.3776
-5 25 16 -5.3833 -0.1312
-5 25 17 -2.6444 -0.4968
-5 25 18 0.3337 0.1088
-5 25 19 -0.9028 0.2841
-5 25 20 -0.4804 -0.7057
-5 25 21 0.9374 -0.1860
-5 27 1 3.3191 0.0370
-5 27 2 3.2168 0.0289
-5 27 3 -0.8016 -0.0592
-5 27 4 -2.7095 0.0976
-5 27 5 4.1663 0.2378
-5 27 6 0.1916 0.2025
-5 27 7 -1.7253 0.0888
-5 27 8 -4.0826 -0.0195
-5 27 9 -0.6336 0.2016
-5 27 10 5.6847 -0.0219
-5 27 11 -6.8726 -0.2705
-5 27 12 -2.1617 -0.1425
-5 27 13 7.1783 0.2423
-5 27 14 -2.4660 0.0436
-5 27 15 -2.0378 -0.1105
-5 27 16 -0.5268 -0.4962
-5 27 17 1.4625 0.0538
-5 27 18 -0.4347 -0.2015
-5 27 19 -2.6217 -0.0112
-5 29 1 -3.1224 -0.3365
-5 29 2 0.3489 0.0816
-5 29 3 -2.6386 0.4338
-5 29 4 0.7437 -0.0882
-5 29 5 -4.3063 -0.2896
-5 29 6 1.0291 0.1461
-5 29 7 0.1030 0.2483
-5 29 8 0.0352 -0.0946
-5 29 9 -1.9722 -0.2695
-5 29 10 2.7211 0.1426
-5 29 11 4.5736 -0.1382
-5 29 12 0.2910 -0.6076
-5 29 13 0.8312 -0.2151
-5 29 14 5.7534 0.3353
-5 29 15 0.6690 -0.5826
-5 29 16 0.3478 -0.2372
-5 29 17 0.5899 -0.0887
-5 29 18 0.4785 0.8068
-5 31 1 -3.8951 0.1578
-5 31 2 -6.5667 -0.3440
-5 31 3 3.7124 -0.1172
-5 31 4 0.3028 0.1842
-5 31 5 -5.3353 -0.1844
-5 31 6 -0.4194 -0.4615
-5 31 7 3.7552 -0.1965
-5 31 8 2.0881 0.1695
-5 31 9 -1.7672 0.0276
-5 31 10 -0.6740 0.2699
-5 31 11 4.5691 0.5696
-5 31 12 1.3886 0.5467
-5 31 13 -0.8377 -0.2400
-5 31 14 -1.4936 0.2869
-5 31 15 2.8351 1.4198
-5 31 16 0.6675 -0.3522
-5 33 1 0.5884 -0.0356
-5 33 2 1.6606 0.0748
-5 33 3 -2.5071 -0.1796
-5 33 4 1.1869 -0.3162
-5 33 5 1.8762 -0.0873
-5 33 6 1.4873 0.0273
-5 33 7 0.2087 -0.1836
-5 33 8 2.2777 0.0195
-5 33 9 -1.1971 1.1299
-5 33 10 2.8402 0.7120
-5 33 11 -1.7519 1.1296
-5 33 12 -2.1796 1.5808
-5 33 13 0.3984 0.5062
-5 35 1 3.7877 0.2861
-5 35 2 5.6680 0.5790
-5 35 3 -5.0262 -0.1009
-5 35 4 0.0916 -0.6656
-5 35 5 6.0066 0.1461
-5 35 6 2.5338 0.4153
-5 35 7 -3.4694 0.0710
-5 35 8 0.9542 0.3950
-5 35 9 2.9619 1.0150
-5 35 10 -1.1519 0.7539
-4 0 2 37.9252 -0.6228
-4 0 3 -7.6471 -0.7369
-4 0 4 -109.9279 -0.7752
-4 0 5 -201.1078 -1.2646
-4 0 6 67.2919 -1.0725
-4 0 7 -78.5206 0.1243
-4 0 8 -140.8780 0.7162
-4 0 9 -5.5184 0.8513
-4 0 10 -31.6648 0.7127
-4 0 11 -16.6866 -0.0158
-4 0 12 -11.1483 -0.5193
-4 0 13 -5.4381 -0.3341
-4 0 14 -21.0532 -0.0143
-4 0 15 20.7975 -0.0577
-4 0 16 -0.2311 -0.0538
-4 0 17 -16.3698 0.2298
-4 0 18 18.3954 0.3269
-4 0 19 18.6046 0.0432
-4 0 20 -8.9402 -0.0457
-4 0 21 -2.8340 -0.0180
-4 0 22 11.0805 -0.2107
-4 0 23 0.8917 -0.4569
-4 0 24 -7.4335 0.1398
-4 0 25 -1.4863 1.4146
-4 0 26 6.2077 1.1467
-4 0 27 -3.9136 -2.1018
-4 2 1 30.3990 -0.0568
-4 2 2 -32.6386 -0.9894
-4 2 3 -39.8150 0.1793
-4 2 4 -61.4946 -0.0112
-4 2 5 -26.9216 -1.4745
-4 2 6 -103.3460 -1.4905
-4 2 7 26.8681 0.0522
-4 2 8 -20.1045 1.1905
-4 2 9 -52.2546 0.9641
-4 2 10 3.7162 0.1752
-4 2 11 11.1250 -0.2119
-4 2 12 8.7734 -0.2706
-4 2 13 -3.2031 -0.1357
-4 2 14 2.4335 -0.0292
-4 2 15 -2.9281 -0.1711
-4 2 16 6.6400 -0.1631
-4 2 17 -0.0820 0.1484
-4 2 18 4.9330 0.3411
-4 2 19 -5.1043 0.2372
-4 2 20 5.6511 -0.2031
-4 2 21 0.5376 -0.4817
-4 2 22 -6.1097 -0.2444
-4 2 23 0.1424 0.1811
-4 2 24 -0.7057 0.1822
-4 2 25 -1.8314 -0.4007
-4 2 26 -2.4242 -0.1567
-4 2 27 2.6531 1.9593
-4 4 1 -83.6757 0.0566
-4 4 2 3.1744 0.0059
-4 4 3 -75.0162 -0.1314
-4 4 4 58.7128 -0.1749
-4 4 5 24.1596 -0.6453
-4 4 6 -67.4211 -0.6877
-4 4 7 57.0672 0.0606
-4 4 8 72.9022 0.7420
-4 4 9 -1.7276 0.7174
-4 4 10 15.6702 0.2770
-4 4 11 37.9549 -0.2497
-4 4 12 32.6887 -0.3806
-4 4 13 12.3634 -0.0414
-4 4 14 3.0445 0.0140
-4 4 15 1.4933 -0.2623
-4 4 16 5.1184 -0.1915
-4 4 17 1.3827 0.2337
-4 4 18 -10.1518 0.3228
-4 4 19 -5.0977 -0.0578
-4 4 20 1.8486 -0.1615
-4 4 21 -3.7291 0.0811
-4 4 22 -5.1246 0.0163
-4 4 23 -1.7380 -0.1583
-4 4 24 -2.6996 -0.1819
-4 4 25 1.6782 0.3288
-4 4 26 -1.8015 0.5113
-4 4 27 -1.9303 -1.3575
-4 6 1 69.0561 -0.0085
-4 6 2 5.3959 -0.1745
-4 6 3 -36.0100 -0.1229
-4 6 4 18.8747 -0.0788
-4 6 5 62.3544 0.0486
-4 6 6 53.7830 0.2087
-4 6 7 -42.5476 0.2197
-4 6 8 23.1465 0.1411
-4 6 9 82.5339 0.0997
-4 6 10 -4.1689 0.0197
-4 6 11 -3.0057 -0.0850
-4 6 12 17.8711 -0.1079
-4 6 13 12.8603 -0.0816
-4 6 14 14.7869 -0.0950
-4 6 15 -18.9791 0.0189
-4 6 16 3.0220 0.1419
-4 6 17 8.8258 0.0408
-4 6 18 -10.9694 -0.0987
-4 6 19 -0.5695 0.0144
-4 6 20 4.5300 0.0909
-4 6 21 -0.6385 -0.1595
-4 6 22 1.2426 0.0747
-4 6 23 1.3123 0.3162
-4 6 24 2.3582 0.2935
-4 6 25 -1.8376 -0.3903
-4 6 26 3.0271 -0.7226
-4 6 27 -3.3663 1.5520
-4 8 1 -2.2311 -0.1305
-4 8 2 89.8571 0.0744
-4 8 3 8.1460 0.0060
-4 8 4 4.0739 -0.0390
-4 8 5 36.2843 0.3648
-4 8 6 -14.6350 0.4871
-4 8 7 23.5680 0.0320
-4 8 8 -38.8446 -0.3875
-4 8 9 -9.2495 -0.4119
-4 8 10 -2.1739 -0.1831
-4 8 11 1.2188 -0.0091
-4 8 12 -18.5772 0.1156
-4 8 13 -27.2955 0.0084
-4 8 14 11.1515 0.0382
-4 8 15 8.2173 0.1904
-4 8 16 -16.3743 0.1165
-4 8 17 -0.3794 -0.0717
-4 8 18 11.6469 -0.1854
-4 8 19 6.3823 -0.1892
-4 8 20 -2.3525 -0.1026
-4 8 21 3.2191 0.2850
-4 8 22 10.5368 0.1040
-4 8 23 3.3617 -0.1056
-4 8 24 -2.0087 -0.2911
-4 8 25 3.0474 0.2463
-4 8 26 1.7529 0.6082
-4 8 27 -0.6358 -2.6088
-4 10 1 -31.6240 0.0554
-4 10 2 50.9970 0.0841
-4 10 3 47.1624 0.0920
-4 10 4 1.7764 0.1788
-4 10 5 -13.7158 0.1735
-4 10 6 -3.6464 0.0436
-4 10 7 6.7122 -0.1034
-4 10 8 -12.9909 -0.3294
-4 10 9 -19.8655 -0.3401
-4 10 10 -12.5427 -0.2056
-4 10 11 -10.9328 -0.0100
-4 10 12 4.0845 0.1150
-4 10 13 -6.8262 0.2209
-4 10 14 -30.0260 0.1769
-4 10 15 18.3986 -0.0997
-4 10 16 3.3443 -0.0474
-4 10 17 -9.2012 -0.0404
-4 10 18 2.9733 -0.0605
-4 10 19 5.9102 -0.0578
-4 10 20 -0.1488 0.0403
-4 10 21 -5.3657 -0.0425
-4 10 22 3.5683 0.1382
-4 10 23 3.5419 0.0338
-4 10 24 -2.2552 -0.2242
-4 10 25 -1.3150 -0.3888
-4 10 26 2.5965 0.5400
-4 12 1 -4.2192 -0.0572
-4 12 2 -58.4882 0.1262
-4 12 3 48.0358 0.0670
-4 12 4 7.4762 -0.0536
-4 12 5 -19.6785 -0.1491
-4 12 6 -14.8781 -0.0235
-4 12 7 31.8409 0.0621
-4 12 8 23.7931 0.0110
-4 12 9 -19.1754 -0.0956
-4 12 10 7.6577 0.0553
-4 12 11 21.6360 0.2925
-4 12 12 5.1362 0.0867
-4 12 13 -0.1266 -0.0273
-4 12 14 2.9776 -0.0228
-4 12 15 -4.7448 0.1145
-4 12 16 2.9180 -0.1400
-4 12 17 0.3134 -0.0973
-4 12 18 -3.5437 0.0349
-4 12 19 -10.3961 0.2100
-4 12 20 -5.8081 0.1212
-4 12 21 5.9195 -0.0353
-4 12 22 -10.6820 -0.1359
-4 12 23 -9.2224 -0.1309
-4 12 24 6.5896 0.0687
-4 12 25 1.3619 0.1820
-4 12 26 -6.2628 -0.5721
-4 14 1 -21.9412 -0.0279
-4 14 2 24.4340 -0.1411
-4 14 3 -36.5450 -0.1021
-4 14 4 -21.8596 0.0774
-4 14 5 20.9092 0.0002
-4 14 6 4.6147 -0.2578
-4 14 7 -13.8693 -0.1822
-4 14 8 12.6101 0.2553
-4 14 9 25.6517 0.4077
-4 14 10 0.4679 0.1271
-4 14 11 -3.1723 -0.1030
-4 14 12 21.2087 0.1280
-4 14 13 12.0435 0.0470
-4 14 14 -8.7469 -0.1432
-4 14 15 0.8701 -0.0934
-4 14 16 5.9204 0.0129
-4 14 17 -4.8161 -0.0655
-4 14 18 -4.0173 0.1557
-4 14 19 0.2944 0.1259
-4 14 20 -5.6025 -0.0015
-4 14 21 -4.0590 -0.0365
-4 14 22 2.9166 -0.0096
-4 14 23 -7.4865 0.2347
-4 14 24 -1.2688 -0.0109
-4 14 25 2.8948 -0.7228
-4 16 1 17.5723 0.1562
-4 16 2 17.5850 -0.0277
-4 16 3 -29.6538 0.0291
-4 16 4 -18.1081 -0.0216
-4 16 5 16.9153 0.0536
-4 16 6 -5.8396 -0.1111
-4 16 7 -16.5992 -0.2323
-4 16 8 -12.4466 -0.0647
-4 16 9 2.3838 0.1429
-4 16 10 8.6601 0.1296
-4 16 11 -12.4536 -0.0757
-4 16 12 -11.9922 -0.1877
-4 16 13 11.1359 -0.1780
-4 16 14 7.5481 0.0216
-4 16 15 -6.8598 -0.0451
-4 16 16 -3.2134 0.1351
-4 16 17 9.9383 0.0508
-4 16 18 5.0828 -0.2975
-4 16 19 -3.0607 -0.0441
-4 16 20 5.5093 0.2778
-4 16 21 1.7629 0.1279
-4 16 22 -0.4912 -0.0591
-4 16 23 2.4408 -0.2299
-4 16 24 -2.1307 0.2066
-4 16 25 -1.4050 1.5101
-4 18 1 11.9019 -0.0019
-4 18 2 -4.5520 0.0542
-4 18 3 -6.2448 -0.0273
-4 18 4 11.1216 0.1359
-4 18 5 -1.9291 0.0306
-4 18 6 -16.4858 -0.0388
-4 18 7 0.2268 0.0477
-4 18 8 5.5069 -0.0257
-4 18 9 -14.2574 -0.0926
-4 18 10 -10.0295 -0.0126
-4 18 11 11.3175 -0.0464
-4 18 12 -12.3497 -0.2786
-4 18 13 -6.9242 -0.0073
-4 18 14 8.8076 0.1917
-4 18 15 0.3624 0.1007
-4 18 16 0.0177 -0.1754
-4 18 17 7.3550 0.1395
-4 18 18 0.7953 0.3214
-4 18 19 5.2844 -0.1927
-4 18 20 4.1186 -0.6671
-4 18 21 -0.1723 -0.0726
-4 18 22 3.5205 0.7519
-4 18 23 0.3363 0.5532
-4 18 24 -0.8559 -2.4658
-4 20 1 -14.0396 -0.2383
-4 20 2 -0.5356 -0.1327
-4 20 3 2.8491 -0.0005
-4 20 4 11.6767 0.0533
-4 20 5 -7.7611 0.0582
-4 20 6 8.4405 0.1536
-4 20 7 10.0897 0.1049
-4 20 8 2.9817 0.0624
-4 20 9 7.5714 0.0887
-4 20 10 2.3063 -0.0974
-4 20 11 0.2684 -0.0958
-4 20 12 2.2710 0.0198
-4 20 13 1.6421 0.1027
-4 20 14 -0.2646 0.0143
-4 20 15 -1.9693 0.1368
-4 20 16 3.5807 0.1326
-4 20 17 2.5396 -0.0177
-4 20 18 -4.6345 0.0707
-4 20 19 3.0632 0.1630
-4 20 20 0.5062 0.0820
-4 20 21 -2.6028 -0.8225
-4 20 22 1.2976 -0.3812
-4 20 23 2.0535 2.0626
-4 22 1 -8.2064 0.0127
-4 22 2 0.0527 0.0087
-4 22 3 -0.3107 0.0731
-4 22 4 -2.1198 -0.1902
-4 22 5 7.7672 -0.0821
-4 22 6 1.1552 0.1216
-4 22 7 4.9941 0.1497
-4 22 8 5.6537 -0.0915
-4 22 9 -0.3442 -0.1963
-4 22 10 5.0560 0.1433
-4 22 11 4.0958 0.0112
-4 22 12 -2.7994 -0.0366
-4 22 13 -5.1750 0.0867
-4 22 14 5.4169 0.1003
-4 22 15 1.5069 -0.2837
-4 22 16 -8.8012 -0.0883
-4 22 17 -1.6635 0.3195
-4 22 18 6.8491 0.0019
-4 22 19 -5.2590 -0.1344
-4 22 20 -4.3030 0.0068
-4 22 21 3.2950 0.6331
-4 22 22 -2.0612 -0.2670
-4 24 1 -2.1366 0.0916
-4 24 2 10.3583 0.1161
-4 24 3 -3.5720 -0.0451
-4 24 4 -19.2100 0.0942
-4 24 5 5.1706 -0.1143
-4 24 6 4.8166 -0.1922
-4 24 7 -21.7192 -0.0602
-4 24 8 -6.7840 -0.0297
-4 24 9 6.4596 -0.1174
-4 24 10 -11.0244 0.0523
-4 24 11 -7.3500 0.1932
-4 24 12 0.2078 -0.0128
-4 24 13 -1.0009 -0.1090
-4 24 14 -4.3550 0.3288
-4 24 15 -3.6573 -0.0199
-4 24 16 5.8226 -0.4005
-4 24 17 -4.1730 -0.4009
-4 24 18 -1.3924 0.2887
-4 24 19 4.0030 0.3356
-4 24 20 -2.0148 -0.0346
-4 24 21 -0.3383 -1.4043
-4 26 1 7.3598 0.0077
-4 26 2 -8.2165 -0.1046
-4 26 3 -0.6064 0.0059
-4 26 4 0.2866 0.0328
-4 26 5 -8.4497 0.0868
-4 26 6 -7.9488 -0.0284
-4 26 7 -6.5133 -0.0958
-4 26 8 -4.9721 -0.0559
-4 26 9 -6.8742 0.0808
-4 26 10 -5.2792 0.0328
-4 26 11 -0.9654 0.2576
-4 26 12 -2.8075 0.0859
-4 26 13 -0.1406 -0.0330
-4 26 14 0.0678 -0.2442
-4 26 15 -3.6569 0.3839
-4 26 16 6.8097 0.1887
-4 26 17 -3.6589 -0.1083
-4 26 18 0.1935 -0.5859
-4 26 19 1.4914 -0.0030
-4 26 20 -0.1838 1.4406
-4 28 1 -2.9691 -0.0337
-4 28 2 -2.9895 -0.1329
-4 28 3 2.5548 -0.0782
-4 28 4 8.4590 0.0283
-4 28 5 -5.5798 0.0344
-4 28 6 -4.9204 0.0857
-4 28 7 8.4231 0.1088
-4 28 8 3.7753 0.0598
-4 28 9 -5.3893 0.0943
-4 28 10 1.1356 0.0196
-4 28 11 8.9631 -0.1845
-4 28 12 0.5998 0.0257
-4 28 13 -1.6498 0.0521
-4 28 14 1.1426 -0.4590
-4 28 15 4.6530 -0.3314
-4 28 16 -1.8061 0.5894
-4 28 17 -4.0614 0.7752
-4 28 18 3.5392 -0.5563
-4 30 1 -7.0839 -0.2811
-4 30 2 0.6796 0.0459
-4 30 3 4.2289 0.0238
-4 30 4 -0.3773 -0.2528
-4 30 5 1.0221 -0.0581
-4 30 6 5.1217 0.2501
-4 30 7 4.4242 0.1587
-4 30 8 2.3348 0.0337
-4 30 9 4.7212 0.0997
-4 30 10 3.6913 0.4254
-4 30 11 2.1140 -0.2239
-4 30 12 2.6700 -0.6039
-4 30 13 2.1644 -0.1691
-4 30 14 -1.0037 0.7667
-4 30 15 -0.9098 -0.7608
-4 30 16 -0.2369 -1.1292
-4 32 1 0.7888 0.0696
-4 32 2 -1.4533 0.1459
-4 32 3 -3.5212 -0.2593
-4 32 4 0.2017 -0.3703
-4 32 5 -0.1695 -0.0337
-4 32 6 2.1829 0.3814
-4 32 7 0.6312 0.0716
-4 32 8 0.2148 -0.0820
-4 32 9 0.3400 0.0980
-4 32 10 3.8782 0.1545
-4 32 11 -1.0647 0.7280
-4 32 12 -2.0143 -0.0740
-4 32 13 1.4853 -0.7930
-4 32 14 0.1141 1.7736
-4 34 1 1.7598 0.4046
-4 34 2 -0.2127 0.1305
-4 34 3 0.9363 -0.1357
-4 34 4 -4.2343 -0.0431
-4 34 5 4.4217 0.0404
-4 34 6 -4.7692 -0.6993
-4 34 7 5.9950 -0.2223
-4 34 8 -5.0748 0.2472
-4 34 9 0.8826 -0.0780
-4 34 10 2.6203 -0.9247
-4 34 11 -3.4459 -0.1099
-4 34 12 0.5304 3.2598
-4 36 1 -5.1204 0.3316
-4 36 2 4.7254 0.1226
-4 36 3 2.4769 0.6254
-4 36 4 -3.8305 0.5064
-4 36 5 2.9881 -1.1256
-4 36 6 0.1156 -1.7044
-4 36 7 -0.1561 0.9920
-3 1 1 -73.5622 -1.4486
-3 1 2 -187.6777 -1.7860
-3 1 3 -75.5350 -0.9025
-3 1 4 3.4870 -0.5193
-3 1 5 -113.9860 -0.4838
-3 1 6 -182.1541 -0.1395
-3 1 7 0.0498 0.3416
-3 1 8 15.8558 0.4202
-3 1 9 -44.1578 0.5659
-3 1 10 4.9693 0.2822
-3 1 11 1.6032 -0.3959
-3 1 12 31.4206 -0.6479
-3 1 13 1.0664 -0.3744
-3 1 14 5.7864 0.2433
-3 1 15 16.5924 0.6627
-3 1 16 7.8504 0.5122
-3 1 17 3.3790 0.0608
-3 1 18 -0.2053 -0.3160
-3 1 19 12.2301 -0.5932
-3 1 20 -1.8061 -0.5076
-3 1 21 2.5819 -0.3307
-3 1 22 -2.1275 0.1416
-3 1 23 -1.3741 0.2287
-3 1 24 -1.9382 0.4252
-3 1 25 2.2709 0.7710
-3 1 26 -3.7589 0.2255
-3 1 27 -1.0872 -0.5300
-3 3 1 -15.2614 0.0107
-3 3 2 -5.1675 -0.2743
-3 3 3 7.2027 -0.9156
-3 3 4 -47.2742 -1.3058
-3 3 5 -62.0052 -0.2899
-3 3 6 110.7827 0.9163
-3 3 7 -35.8499 0.5217
-3 3 8 -29.5140 -0.3520
-3 3 9 68.6665 -0.1002
-3 3 10 38.6351 0.5683
-3 3 11 -35.9764 0.2726
-3 3 12 8.4855 -0.5490
-3 3 13 21.0594 -0.5768
-3 3 14 -11.0203 0.0535
-3 3 15 -9.7477 0.4636
-3 3 16 3.4103 0.5559
-3 3 17 -15.4677 0.0989
-3 3 18 4.6568 -0.4851
-3 3 19 4.4053 -0.5382
-3 3 20 -8.2988 -0.1083
-3 3 21 0.2962 0.1521
-3 3 22 -0.6282 -0.2109
-3 3 23 2.5855 -0.1044
-3 3 24 1.9498 0.2492
-3 3 25 -0.9470 0.2856
-3 3 26 -0.3312 0.0876
-3 3 27 1.7950 -0.2970
-3 5 1 -5.1340 -0.1897
-3 5 2 15.4805 -0.0496
-3 5 3 16.4562 -0.0555
-3 5 4 78.5903 -0.1863
-3 5 5 -41.0469 -0.2116
-3 5 6 109.0803 0.2741
-3 5 7 52.1152 0.5034
-3 5 8 16.8379 0.1484
-3 5 9 -2.8909 -0.2415
-3 5 10 72.3572 -0.1660
-3 5 11 -10.6927 0.0884
-3 5 12 -4.7255 0.0484
-3 5 13 -3.7306 -0.1126
-3 5 14 4.1041 -0.2175
-3 5 15 -19.5051 0.0873
-3 5 16 -11.8624 0.2282
-3 5 17 9.5030 0.1204
-3 5 18 -13.5917 -0.1391
-3 5 19 -3.2812 -0.0764
-3 5 20 8.7307 -0.0578
-3 5 21 -7.3360 -0.0065
-3 5 22 0.2384 0.1822
-3 5 23 3.6101 0.0925
-3 5 24 3.3994 -0.0053
-3 5 25 2.6016 -0.1910
-3 5 26 -5.1436 -0.1672
-3 5 27 5.9879 0.3516
-3 7 1 25.3070 0.0733
-3 7 2 37.6613 0.0453
-3 7 3 -42.2730 0.0667
-3 7 4 40.2340 0.3408
-3 7 5 57.0811 0.3061
-3 7 6 -36.4298 -0.0896
-3 7 7 25.6881 -0.0691
-3 7 8 38.4939 0.1658
-3 7 9 6.0060 -0.0500
-3 7 10 -20.2341 -0.3130
-3 7 11 16.3535 -0.0847
-3 7 12 36.8988 0.3276
-3 7 13 -19.0433 0.1331
-3 7 14 -11.1547 -0.0984
-3 7 15 16.7782 0.0010
-3 7 16 1.9350 0.0479
-3 7 17 0.0361 -0.2185
-3 7 18 4.7828 -0.0925
-3 7 19 -0.0296 0.1711
-3 7 20 3.1170 0.2825
-3 7 21 1.7300 -0.0011
-3 7 22 -2.6204 0.0056
-3 7 23 0.8867 0.1013
-3 7 24 -0.3543 -0.1745
-3 7 25 2.7669 -0.1558
-3 7 26 -2.8634 0.0236
-3 9 1 57.1498 -0.0770
-3 9 2 -86.4303 0.1194
-3 9 3 17.4868 0.4010
-3 9 4 40.6504 0.0730
-3 9 5 -18.3876 0.0133
-3 9 6 -50.7633 -0.0754
-3 9 7 9.3608 -0.2530
-3 9 8 24.2253 -0.2562
-3 9 9 -22.3911 -0.0290
-3 9 10 -11.5175 0.0394
-3 9 11 16.0594 -0.0527
-3 9 12 13.5650 0.0768
-3 9 13 0.7394 0.2302
-3 9 14 -2.1912 0.1740
-3 9 15 9.2072 -0.1865
-3 9 16 8.5417 -0.2963
-3 9 17 6.3094 -0.1106
-3 9 18 -2.4876 0.0148
-3 9 19 6.0976 0.0731
-3 9 20 0.0856 0.1600
-3 9 21 -2.7243 0.3195
-3 9 22 -3.8279 -0.0859
-3 9 23 -2.5501 -0.1880
-3 9 24 2.7630 0.0065
-3 9 25 -4.0107 -0.2321
-3 9 26 2.7827 -0.5459
-3 11 1 -23.3439 0.0063
-3 11 2 31.1724 0.0628
-3 11 3 -13.3384 0.0434
-3 11 4 22.4246 0.2245
-3 11 5 -27.0631 -0.1798
-3 11 6 17.7795 -0.2472
-3 11 7 16.8577 -0.1021
-3 11 8 -12.9054 -0.1162
-3 11 9 -5.3754 -0.0527
-3 11 10 21.4521 0.0945
-3 11 11 1.5582 0.1513
-3 11 12 -12.3409 -0.1100
-3 11 13 -6.6957 -0.0304
-3 11 14 7.3224 0.1004
-3 11 15 4.1207 0.0235
-3 11 16 -17.1611 -0.2053
-3 11 17 -5.0042 -0.1481
-3 11 18 8.0419 0.0633
-3 11 19 -4.3650 0.2283
-3 11 20 -11.6972 0.0080
-3 11 21 1.1008 -0.2155
-3 11 22 -0.7939 0.1950
-3 11 23 -5.8639 -0.0086
-3 11 24 2.5386 -0.4437
-3 11 25 4.9488 -0.0829
-3 11 26 -4.1904 0.2894
-3 13 1 3.9569 0.0434
-3 13 2 20.5113 -0.0591
-3 13 3 -38.4426 -0.0855
-3 13 4 28.2233 -0.0146
-3 13 5 12.9844 0.1067
-3 13 6 2.6061 -0.0362
-3 13 7 5.7278 -0.0242
-3 13 8 5.1208 0.1514
-3 13 9 13.2514 0.1263
-3 13 10 15.2554 0.0391
-3 13 11 -27.7392 0.0286
-3 13 12 4.9715 -0.0017
-3 13 13 7.0435 -0.0338
-3 13 14 -19.9669 -0.1032
-3 13 15 -2.0782 0.0424
-3 13 16 -1.4026 0.1693
-3 13 17 -11.4502 0.1460
-3 13 18 -3.0335 0.0103
-3 13 19 -2.0101 -0.1907
-3 13 20 -2.0850 -0.0109
-3 13 21 -2.0534 0.0315
-3 13 22 -3.7402 -0.3290
-3 13 23 6.2622 -0.0498
-3 13 24 -0.6886 0.2355
-3 13 25 0.6280 -0.2479
-3 15 1 3.2508 0.0586
-3 15 2 -31.8507 -0.0438
-3 15 3 -18.9547 -0.0840
-3 15 4 11.1772 -0.2072
-3 15 5 -12.5565 0.0234
-3 15 6 -15.0462 0.2358
-3 15 7 -5.4362 0.1251
-3 15 8 0.1725 0.0184
-3 15 9 -2.3436 -0.0253
-3 15 10 8.7819 0.0452
-3 15 11 -4.4384 -0.0423
-3 15 12 -16.2743 0.0360
-3 15 13 22.6269 -0.1485
-3 15 14 6.5468 -0.0269
-3 15 15 -13.2719 0.0764
-3 15 16 5.7918 0.0690
-3 15 17 15.1358 0.1037
-3 15 18 -2.7684 0.1640
-3 15 19 -6.7919 -0.0747
-3 15 20 8.0948 -0.4234
-3 15 21 7.2987 -0.0059
-3 15 22 -7.6544 0.4718
-3 15 23 0.8977 -0.0813
-3 15 24 5.3607 -0.0558
-3 15 25 -3.6881 0.6916
-3 17 1 10.9785 0.0646
-3 17 2 -5.8491 -0.0567
-3 17 3 -26.6899 -0.1232
-3 17 4 -22.4333 0.0208
-3 17 5 2.6627 -0.1381
-3 17 6 -18.5015 -0.0955
-3 17 7 -21.3091 0.2034
-3 17 8 0.5597 0.0533
-3 17 9 5.0967 -0.2356
-3 17 10 -19.1588 -0.2430
-3 17 11 12.5545 0.0643
-3 17 12 7.3519 0.0760
-3 17 13 -2.7601 0.0080
-3 17 14 10.9560 -0.0716
-3 17 15 10.9535 -0.0706
-3 17 16 9.5422 0.1981
-3 17 17 0.5783 0.0056
-3 17 18 9.8854 -0.1829
-3 17 19 9.8559 0.0626
-3 17 20 -4.6998 0.0098
-3 17 21 -0.3963 -0.3656
-3 17 22 8.0895 0.1280
-3 17 23 -1.7245 1.0169
-3 17 24 -4.6600 -0.2663
-3 19 1 -11.2293 -0.0645
-3 19 2 8.4281 0.0249
-3 19 3 15.9567 -0.0321
-3 19 4 -16.5220 -0.0860
-3 19 5 -0.9847 0.0388
-3 19 6 2.4000 0.0807
-3 19 7 19.0085 -0.0670
-3 19 8 -10.6826 -0.1499
-3 19 9 -13.8144 -0.0468
-3 19 10 14.1167 -0.0355
-3 19 11 3.2122 0.0620
-3 19 12 -8.8523 0.0585
-3 19 13 -3.7365 0.1232
-3 19 14 6.3401 0.0761
-3 19 15 3.2802 0.2772
-3 19 16 -2.4506 0.0279
-3 19 17 4.0529 -0.0574
-3 19 18 0.3366 -0.1691
-3 19 19 4.4267 -0.1450
-3 19 20 2.7609 0.1754
-3 19 21 -4.4365 0.1765
-3 19 22 1.9843 -0.3813
-3 19 23 4.8314 -0.6750
-3 21 1 -4.0057 -0.1033
-3 21 2 7.5051 0.1056
-3 21 3 11.9423 0.1597
-3 21 4 15.7798 0.0082
-3 21 5 6.5920 0.0537
-3 21 6 5.5918 0.1351
-3 21 7 12.5738 -0.0885
-3 21 8 9.8329 -0.1085
-3 21 9 -6.5958 0.0184
-3 21 10 -8.9885 0.1043
-3 21 11 5.8806 -0.1157
-3 21 12 -0.5004 0.0405
-3 21 13 -14.5606 0.2102
-3 21 14 -6.0160 0.0875
-3 21 15 -0.2956 0.0784
-3 21 16 -0.3526 0.1061
-3 21 17 -7.1092 -0.2064
-3 21 18 -1.1716 -0.0069
-3 21 19 0.7836 0.3841
-3 21 20 0.6552 -0.1160
-3 21 21 1.7191 -0.2275
-3 21 22 -0.6371 1.1158
-3 23 1 8.9597 0.0322
-3 23 2 -8.1127 -0.0328
-3 23 3 -9.4877 0.1585
-3 23 4 11.7657 0.1719
-3 23 5 0.6954 0.0068
-3 23 6 2.3026 -0.0261
-3 23 7 -11.7710 0.0473
-3 23 8 1.4767 -0.0902
-3 23 9 8.3017 -0.0001
-3 23 10 -9.7656 0.0508
-3 23 11 -9.1815 -0.1645
-3 23 12 5.9586 -0.1656
-3 23 13 2.9483 -0.0160
-3 23 14 -8.3376 0.1837
-3 23 15 -3.5729 -0.3374
-3 23 16 4.9109 -0.1432
-3 23 17 -2.2774 0.0468
-3 23 18 -2.1993 -0.1981
-3 23 19 -0.7638 0.0066
-3 23 20 -0.2135 0.8744
-3 23 21 0.8925 -0.3712
-3 25 1 -7.0797 0.1934
-3 25 2 -6.0700 0.0979
-3 25 3 -8.9766 -0.2212
-3 25 4 -15.6290 -0.1159
-3 25 5 -5.6509 0.0481
-3 25 6 -2.9435 0.0161
-3 25 7 -10.2287 -0.0311
-3 25 8 -9.7532 -0.0184
-3 25 9 -0.0331 -0.1074
-3 25 10 6.9806 0.0672
-3 25 11 -6.1302 0.1817
-3 25 12 -0.8460 -0.1223
-3 25 13 8.7948 -0.1973
-3 25 14 2.6572 -0.0198
-3 25 15 0.6340 0.3283
-3 25 16 -1.8115 -0.1310
-3 25 17 4.1355 -0.3709
-3 25 18 -0.1001 0.0288
-3 25 19 -4.2944 0.2502
-3 25 20 0.2475 -0.7053
-3 27 1 -5.6809 -0.1302
-3 27 2 6.1775 -0.1367
-3 27 3 -4.4775 -0.0126
-3 27 4 -9.1093 -0.1204
-3 27 5 -0.3095 -0.2544
-3 27 6 0.9698 -0.1228
-3 27 7 -5.0780 0.0487
-3 27 8 -1.3157 0.1366
-3 27 9 0.5478 0.1799
-3 27 10 1.5341 -0.1256
-3 27 11 -1.4844 0.1194
-3 27 12 5.7527 0.2081
-3 27 13 -3.6178 -0.0166
-3 27 14 1.5978 -0.1008
-3 27 15 3.4094 0.6180
-3 27 16 -1.2740 0.4678
-3 27 17 -1.6166 -0.1374
-3 27 18 -2.7769 -0.0030
-3 27 19 1.1589 1.7317
-3 29 1 3.8591 -0.0449
-3 29 2 -4.0128 -0.0390
-3 29 3 8.6960 -0.1522
-3 29 4 11.6482 -0.2433
-3 29 5 -3.0537 0.1559
-3 29 6 2.6681 0.3645
-3 29 7 5.7945 0.0781
-3 29 8 3.8027 -0.1760
-3 29 9 -1.6058 0.1770
-3 29 10 1.8267 0.5302
-3 29 11 -2.7746 -0.3788
-3 29 12 2.8400 -0.6176
-3 29 13 -2.7352 0.1292
-3 29 14 -3.7979 0.1350
-3 29 15 1.8033 -0.3816
-3 29 16 -0.7597 0.9992
-3 29 17 -3.8768 1.0247
-3 31 1 2.6343 -0.3134
-3 31 2 -2.0559 -0.1290
-3 31 3 1.1801 0.2191
-3 31 4 3.9076 0.3863
-3 31 5 0.8089 0.0829
-3 31 6 0.3603 0.0025
-3 31 7 1.6270 0.2633
-3 31 8 1.6371 0.4777
-3 31 9 2.8302 -0.1460
-3 31 10 -0.0268 -0.5645
-3 31 11 -2.0309 -0.4069
-3 31 12 0.5364 -0.3025
-3 31 13 0.0856 -0.6949
-3 31 14 1.0082 0.2722
-3 31 15 -3.5639 -1.7331
-3 33 1 -0.5353 -0.0696
-3 33 2 -2.3042 -0.0796
-3 33 3 -5.1876 0.2692
-3 33 4 -4.0088 0.5830
-3 33 5 0.5226 -0.2605
-3 33 6 -1.1909 -1.0832
-3 33 7 -2.5602 -0.3812
-3 33 8 1.3294 0.3032
-3 33 9 2.7997 -0.3573
-3 33 10 -0.0922 -1.4302
-3 33 11 -0.9458 -0.3790
-3 33 12 2.5662 -0.0777
-3 33 13 1.1944 -0.9871
-3 35 1 -0.5193 1.1800
-3 35 2 -1.9213 -0.0051
-3 35 3 0.5520 -0.6231
-3 35 4 -2.7372 -0.3002
-3 35 5 -2.0912 -0.0633
-3 35 6 2.6055 -1.6059
-3 35 7 0.3647 -2.1889
-3 35 8 -2.3512 -0.9413
-3 35 9 0.6865 -0.1158
-3 35 10 4.1712 -0.7300
-3 37 1 1.4821 1.8576
-3 37 2 -1.1042 0.6116
-3 37 3 0.4218 -1.0168
-3 37 4 1.0034 -2.4389
-2 0 2 -13.7710 -1.6358
-2 0 3 28.9634 -0.8882
-2 0 4 -151.4993 -0.4128
-2 0 7 -41.4304 0.7145
-2 0 8 39.2651 -0.6806
-2 0 9 41.1209 -0.9459
-2 0 10 1.0090 -0.6503
-2 0 11 37.8727 -0.6542
-2 0 12 21.8395 -0.1830
-2 0 13 -13.3698 0.5461
-2 0 14 1.4710 0.6620
-2 0 15 -1.6221 0.2753
-2 0 16 19.1176 0.0645
-2 0 17 -26.6600 0.0713
-2 0 18 4.4415 -0.2212
-2 0 19 9.7737 -0.7498
-2 0 20 -4.8468 -0.6559
-2 0 21 -7.2933 0.0572
-2 0 22 0.7497 0.5706
-2 0 23 1.0346 0.3845
-2 0 24 -0.6098 0.2227
-2 0 25 -5.0551 0.2977
-2 0 26 -0.2641 -0.2835
-2 0 27 1.2905 -0.4560
-2 2 1 -103.1504 -1.5040
-2 2 2 11.9007 -0.6070
-2 2 3 -34.3169 -0.3144
-2 2 4 58.1509 -0.3290
-2 2 5 -106.5366 0.5348
-2 2 6 86.6096 1.1702
-2 2 7 18.3201 0.6301
-2 2 8 -39.1884 -0.2522
-2 2 9 41.9372 -0.6353
-2 2 10 22.1022 -0.7760
-2 2 11 13.2559 -0.4868
-2 2 12 -17.3322 0.2688
-2 2 13 1.6767 0.6203
-2 2 14 -2.3237 0.3309
-2 2 15 -2.2697 -0.0228
-2 2 16 -2.6811 0.0536
-2 2 17 -1.3004 0.1941
-2 2 18 -0.4159 -0.1653
-2 2 19 4.1774 -0.6159
-2 2 20 0.8284 -0.4910
-2 2 21 -1.2922 0.2017
-2 2 22 2.1366 0.3520
-2 2 23 1.7243 0.2360
-2 2 24 -0.7247 0.0634
-2 2 25 -2.2184 -0.0984
-2 2 26 4.2035 -0.0676
-2 2 27 -1.5465 -0.3904
-2 4 1 173.3543 -0.1463
-2 4 2 37.1498 -1.1440
-2 4 3 -179.9238 -0.2868
-2 4 4 93.7647 0.7656
-2 4 5 69.3509 0.2954
-2 4 6 14.0589 -0.2642
-2 4 7 -69.1754 -0.1028
-2 4 8 53.3847 0.1228
-2 4 9 38.3857 -0.0692
-2 4 10 -32.6930 -0.5277
-2 4 11 -22.8545 -0.3357
-2 4 12 3.6871 0.1462
-2 4 13 -13.2368 0.4333
-2 4 14 -2.1212 0.2633
-2 4 15 -11.7814 0.0338
-2 4 16 -8.6410 -0.0778
-2 4 17 14.9353 -0.1368
-2 4 18 4.3401 0.0459
-2 4 19 -9.2432 0.1035
-2 4 20 4.2431 -0.0479
-2 4 21 14.0568 -0.3178
-2 4 22 0.8257 0.1284
-2 4 23 -2.4275 0.4137
-2 4 24 3.4641 0.1263
-2 4 25 4.8896 -0.4280
-2 4 26 0.9237 -0.6092
-2 6 1 55.5610 0.0396
-2 6 2 25.1720 0.1721
-2 6 3 -66.0903 0.0518
-2 6 4 25.9783 0.0824
-2 6 5 42.6918 0.1767
-2 6 6 -2.5520 -0.1731
-2 6 7 -19.0750 -0.3313
-2 6 8 60.6293 0.0731
-2 6 9 -11.3868 0.1097
-2 6 10 1.5527 0.0148
-2 6 11 2.7361 -0.0345
-2 6 12 -17.5961 0.1024
-2 6 13 16.6459 0.1199
-2 6 14 1.3900 0.0198
-2 6 15 -11.7614 -0.0408
-2 6 16 5.3064 -0.0844
-2 6 17 7.2854 -0.0167
-2 6 18 -4.1058 -0.0431
-2 6 19 -1.2023 0.0976
-2 6 20 1.2313 0.0512
-2 6 21 3.8767 0.2274
-2 6 22 -0.1620 -0.0575
-2 6 23 -1.3907 -0.3399
-2 6 24 2.0792 -0.1630
-2 6 25 1.2572 0.3584
-2 6 26 -0.0435 0.5046
-2 8 1 45.3290 0.0628
-2 8 2 -30.0344 0.2937
-2 8 3 -0.1295 0.1424
-2 8 4 19.3491 -0.0975
-2 8 5 -40.0364 -0.0209
-2 8 6 41.2932 -0.0424
-2 8 7 14.7194 -0.1424
-2 8 8 22.4772 0.0053
-2 8 9 3.4264 0.3526
-2 8 10 39.8672 0.3313
-2 8 11 5.4683 0.0252
-2 8 12 2.8597 -0.0065
-2 8 13 17.7357 0.0211
-2 8 14 14.3209 -0.0708
-2 8 15 -2.0063 -0.2682
-2 8 16 1.6269 -0.2667
-2 8 17 5.6853 -0.0381
-2 8 18 -12.1612 0.2762
-2 8 19 -3.0120 0.0586
-2 8 20 1.4552 0.0480
-2 8 21 -7.9090 -0.0169
-2 8 22 -6.5486 0.1150
-2 8 23 0.8398 0.0430
-2 8 24 -1.6544 -0.1200
-2 8 25 -2.6057 -0.4014
-2 8 26 -0.9927 -0.2363
-2 10 1 38.1938 0.0638
-2 10 2 -33.8456 0.1851
-2 10 3 3.1059 0.0794
-2 10 4 25.4890 -0.1862
-2 10 5 11.0916 -0.2992
-2 10 6 -15.7426 0.0105
-2 10 7 24.2061 0.1960
-2 10 8 39.2444 -0.0837
-2 10 9 0.5620 -0.0877
-2 10 10 -2.8547 0.1826
-2 10 11 19.4235 0.3541
-2 10 12 21.9914 -0.0014
-2 10 13 -23.6832 -0.3916
-2 10 14 4.7746 -0.3048
-2 10 15 23.0671 -0.0217
-2 10 16 -14.1898 0.1347
-2 10 17 -9.1599 -0.0030
-2 10 18 3.0384 -0.1601
-2 10 19 0.3080 0.1243
-2 10 20 -13.1601 0.2848
-2 10 21 -1.7191 0.2255
-2 10 22 1.7659 -0.0992
-2 10 23 -2.8975 -0.0964
-2 10 24 -4.4355 -0.0336
-2 10 25 1.6597 0.3110
-2 10 26 0.4423 -0.2036
-2 12 1 -20.2891 0.0209
-2 12 2 7.1095 0.0784
-2 12 3 27.5718 0.0319
-2 12 4 -28.5427 -0.0914
-2 12 5 12.6300 -0.1283
-2 12 6 25.4951 0.0810
-2 12 7 -21.6640 0.0691
-2 12 8 -6.8544 -0.0996
-2 12 9 9.0514 -0.1731
-2 12 10 -7.7928 -0.0106
-2 12 11 -14.3451 0.0490
-2 12 12 -20.4812 -0.1311
-2 12 13 12.0852 -0.0051
-2 12 14 -17.9245 0.0019
-2 12 15 -3.8267 0.0817
-2 12 16 2.5887 0.1065
-2 12 17 -3.3387 0.1198
-2 12 18 0.7515 0.0221
-2 12 19 -1.0329 -0.0460
-2 12 20 1.7752 -0.1806
-2 12 21 2.3169 -0.1176
-2 12 22 1.0472 0.1139
-2 12 23 2.7729 0.0650
-2 12 24 3.3737 -0.0771
-2 12 25 -2.0870 -0.2218
-2 14 1 31.3624 0.0139
-2 14 2 16.6590 0.0496
-2 14 3 -43.1108 0.0183
-2 14 4 -28.9947 0.0333
-2 14 5 21.2183 0.1100
-2 14 6 -3.3013 0.0901
-2 14 7 -33.4687 0.0982
-2 14 8 -7.4237 0.0473
-2 14 9 -10.4177 -0.1648
-2 14 10 -9.6848 -0.2080
-2 14 11 -3.0560 -0.1518
-2 14 12 -10.2527 0.0787
-2 14 13 -11.5291 0.0573
-2 14 14 7.5479 0.1919
-2 14 15 -0.5935 0.2380
-2 14 16 -2.2875 0.0693
-2 14 17 2.2418 -0.0372
-2 14 18 6.5111 -0.0371
-2 14 19 1.0920 -0.1861
-2 14 20 -1.5431 -0.0880
-2 14 21 10.4215 -0.1847
-2 14 22 0.3762 -0.2232
-2 14 23 -1.2349 0.0067
-2 14 24 4.5322 0.4174
-2 14 25 1.6899 -0.1530
-2 16 1 -19.2899 -0.1050
-2 16 2 14.6152 -0.2313
-2 16 3 -29.5683 0.0594
-2 16 4 -19.9078 0.0954
-2 16 5 -9.9268 0.0978
-2 16 6 -6.2851 0.0456
-2 16 7 -2.2831 0.0473
-2 16 8 -12.4818 0.0778
-2 16 9 0.5998 0.0409
-2 16 10 1.0398 -0.1517
-2 16 11 7.8950 -0.2431
-2 16 12 9.3265 -0.0846
-2 16 13 4.6256 0.1471
-2 16 14 0.8829 0.2706
-2 16 15 5.4536 -0.0326
-2 16 16 11.7506 -0.1809
-2 16 17 0.1343 -0.1862
-2 16 18 -5.8867 0.1039
-2 16 19 5.8174 0.0538
-2 16 20 4.7967 -0.2372
-2 16 21 -6.6093 0.0088
-2 16 22 1.3529 0.2115
-2 16 23 0.9539 0.1396
-2 16 24 -1.5073 0.6094
-2 18 1 -19.4698 -0.0122
-2 18 2 -17.3747 -0.0550
-2 18 3 15.0161 -0.1586
-2 18 4 -2.0790 0.0924
-2 18 5 -12.3524 -0.0891
-2 18 6 -4.8093 -0.0701
-2 18 7 7.8776 0.0654
-2 18 8 6.7244 0.0034
-2 18 9 -4.8031 0.0026
-2 18 10 1.8946 0.0286
-2 18 11 16.5471 0.0641
-2 18 12 -4.5886 -0.0304
-2 18 13 7.4809 0.0603
-2 18 14 7.3280 0.0260
-2 18 15 -3.7803 0.0892
-2 18 16 3.6037 -0.1667
-2 18 17 3.9465 -0.2314
-2 18 18 -2.3215 -0.2221
-2 18 19 -3.4305 0.1800
-2 18 20 5.6072 0.0306
-2 18 21 -2.9249 -0.1386
-2 18 22 -5.3634 0.0337
-2 18 23 4.4750 0.0821
-2 20 1 21.0375 0.0009
-2 20 2 -9.3384 0.1306
-2 20 3 -5.5959 0.1049
-2 20 4 23.1859 -0.1504
-2 20 5 10.3606 -0.0099
-2 20 6 -19.3879 -0.1187
-2 20 7 -3.6874 -0.1610
-2 20 8 19.9774 0.0674
-2 20 9 -12.7812 0.0458
-2 20 10 -17.2244 -0.0680
-2 20 11 7.1465 0.1638
-2 20 12 -2.8174 0.3148
-2 20 13 -14.0154 0.0376
-2 20 14 1.9776 -0.1073
-2 20 15 3.8650 0.0256
-2 20 16 -6.4203 0.0619
-2 20 17 -4.4684 -0.0421
-2 20 18 7.1995 0.0207
-2 20 19 3.5132 -0.2789
-2 20 20 -4.7101 -0.0649
-2 20 21 3.6404 0.1395
-2 20 22 3.1966 0.0909
-2 20 23 -0.4805 -0.5291
-2 22 1 -4.5752 -0.0124
-2 22 2 12.9923 0.0149
-2 22 3 8.7854 0.2035
-2 22 4 -7.5416 0.1812
-2 22 5 -0.5462 0.0208
-2 22 6 13.0224 0.0430
-2 22 7 -8.2070 -0.1637
-2 22 8 -15.5005 -0.1596
-2 22 9 6.9512 0.0511
-2 22 10 -1.7698 0.0786
-2 22 11 -17.1751 -0.1419
-2 22 12 -1.8445 -0.0406
-2 22 13 2.6988 -0.0130
-2 22 14 -4.0355 -0.1395
-2 22 15 -4.9527 -0.0178
-2 22 16 1.9131 0.1106
-2 22 17 0.4199 -0.1223
-2 22 18 -2.0910 0.2006
-2 22 19 2.7724 0.5365
-2 22 20 3.6094 -0.0987
-2 22 21 -0.3783 -0.1109
-2 22 22 2.0995 1.0929
-2 24 1 -7.0338 0.0057
-2 24 2 2.6914 -0.0393
-2 24 3 -0.1314 0.0774
-2 24 4 -11.6619 0.2274
-2 24 5 -1.1850 0.0777
-2 24 6 10.4309 -0.0433
-2 24 7 -3.8530 0.2120
-2 24 8 0.5075 0.0100
-2 24 9 0.5768 -0.3074
-2 24 10 6.3442 -0.1152
-2 24 11 1.3868 0.1340
-2 24 12 2.0816 -0.0538
-2 24 13 0.8110 -0.4542
-2 24 14 2.3638 -0.1969
-2 24 15 2.6564 0.0081
-2 24 16 -5.2146 0.0102
-2 24 17 0.7689 0.0398
-2 24 18 -3.0232 -0.1101
-2 24 19 -1.1019 0.4243
-2 24 20 -0.5230 0.0372
-2 26 1 -5.7219 -0.1349
-2 26 2 -6.1713 -0.0183
-2 26 3 -1.9941 -0.0476
-2 26 4 -4.1647 -0.1990
-2 26 5 -1.3407 -0.1821
-2 26 6 4.0550 -0.0146
-2 26 7 1.0057 0.0643
-2 26 8 3.9706 0.0693
-2 26 9 1.4133 0.0222
-2 26 10 4.6781 -0.1096
-2 26 11 3.4858 0.1360
-2 26 12 0.8009 0.1790
-2 26 13 3.1032 0.1374
-2 26 14 -0.4385 -0.1684
-2 26 15 0.6361 -0.1272
-2 26 16 -2.9578 0.0737
-2 26 17 -2.4302 0.1254
-2 26 18 -2.0998 0.0240
-2 26 19 -2.4481 -1.4920
-2 28 1 4.2294 -0.0942
-2 28 2 1.0300 -0.0746
-2 28 3 -1.4506 -0.0315
-2 28 4 2.6410 -0.2612
-2 28 5 0.9307 -0.3122
-2 28 6 -2.4903 -0.1057
-2 28 7 0.6774 -0.0598
-2 28 8 -2.7523 0.1938
-2 28 9 -0.7199 0.1577
-2 28 10 -1.6543 -0.0539
-2 28 11 -4.0614 -0.0202
-2 28 12 0.3672 0.2093
-2 28 13 -1.2554 0.2862
-2 28 14 -2.0484 0.0948
-2 28 15 0.2015 0.3856
-2 28 16 -0.0842 -0.0437
-2 28 17 -0.2087 -0.0646
-2 28 18 -1.6903 1.1259
-2 30 1 0.0361 0.1712
-2 30 2 2.1914 0.1371
-2 30 3 2.5972 -0.0946
-2 30 4 4.6912 0.0852
-2 30 5 -6.5282 0.3274
-2 30 6 1.5749 0.2023
-2 30 7 -3.2440 0.1885
-2 30 8 1.1875 -0.1749
-2 30 9 -7.1479 0.0034
-2 30 10 -0.5166 0.1769
-2 30 11 -0.1604 -0.4966
-2 30 12 -1.1089 -0.3514
-2 30 13 -2.0135 0.1253
-2 30 14 0.2593 0.3928
-2 30 15 2.2915 -0.2129
-2 30 16 3.1470 1.3858
-2 32 1 -3.2800 0.2726
-2 32 2 -2.6065 0.0253
-2 32 3 2.1531 -0.0763
-2 32 4 -4.5683 0.2632
-2 32 5 -1.3172 0.6535
-2 32 6 2.3087 0.6174
-2 32 7 -1.3050 -0.3827
-2 32 8 1.1869 -0.5203
-2 32 9 -1.4074 -0.2218
-2 32 10 6.7891 0.1216
-2 32 11 -1.4404 0.0432
-2 32 12 -0.7304 -1.0207
-2 32 13 5.5922 -0.6547
-2 32 14 -1.7636 0.8936
-2 34 1 2.6845 0.0305
-2 34 2 0.7423 -0.1519
-2 34 3 -7.9603 0.0749
-2 34 4 -0.9855 0.0011
-2 34 5 2.5468 -0.6886
-2 34 6 1.3074 -0.9732
-2 34 7 -0.6060 0.0532
-2 34 8 1.0386 -0.4843
-2 34 9 1.0963 -1.2240
-2 34 10 5.9443 -0.2205
-2 34 11 -1.0901 1.6651
-2 36 1 -1.0140 -0.3516
-2 36 2 0.6907 -0.0375
-2 36 3 2.0528 0.2195
-2 36 4 -3.6388 -0.8104
-2 36 5 2.2145 -2.1311
-2 36 6 0.9932 -1.7376
-2 36 7 0.0877 0.6557
-1 1 2 129.3360 1.9143
-1 1 3 143.4605 0.7351
-1 1 4 -10.2568 0.4202
-1 1 5 63.8522 1.5925
-1 1 6 121.1120 1.3893
-1 1 7 -4.7089 -0.2467
-1 1 8 16.3227 -1.1892
-1 1 9 25.4193 -0.7699
-1 1 10 -20.6280 -0.4085
-1 1 11 -8.3266 -0.3026
-1 1 12 -1.0036 0.1738
-1 1 13 -31.8122 0.6137
-1 1 14 -19.7118 0.5487
-1 1 15 -0.1167 0.1038
-1 1 16 -20.5477 -0.2345
-1 1 17 1.1784 -0.3203
-1 1 18 0.8380 -0.3568
-1 1 19 0.3103 -0.1006
-1 1 20 -2.6087 0.5873
-1 1 21 0.9801 0.5991
-1 1 22 2.9323 -0.2948
-1 1 23 -1.9777 -0.4236
-1 1 24 -0.9905 -0.1370
-1 1 25 -2.5892 -0.3166
-1 1 26 4.9532 -0.3916
-1 3 1 -44.6339 -0.3560
-1 3 2 3.5264 0.9014
-1 3 3 38.0232 0.6987
-1 3 4 47.5835 0.4269
-1 3 5 3.9789 0.3963
-1 3 6 -13.4000 0.0735
-1 3 7 8.9808 -0.4396
-1 3 8 90.4291 -0.4777
-1 3 9 -65.0183 -0.2356
-1 3 10 -21.7269 -0.2726
-1 3 11 38.2503 -0.2500
-1 3 12 -3.9524 0.1185
-1 3 13 -25.0423 0.5749
-1 3 14 8.3025 0.4601
-1 3 15 2.4556 -0.0812
-1 3 16 2.4897 -0.4278
-1 3 17 9.6435 -0.2037
-1 3 18 -3.6847 0.2062
-1 3 19 4.9780 0.2818
-1 3 20 6.1325 0.1778
-1 3 21 -1.3154 0.1412
-1 3 22 2.0726 0.0452
-1 3 23 -0.9258 -0.2297
-1 3 24 0.6276 -0.2284
-1 3 25 1.9125 0.0917
-1 3 26 -4.9706 -0.2144
-1 5 1 -16.1619 0.2814
-1 5 2 4.0225 -0.1295
-1 5 3 -95.0636 0.0873
-1 5 4 -0.2010 0.1353
-1 5 5 -29.5628 -0.3146
-1 5 6 22.3254 -0.4157
-1 5 7 -19.0570 -0.2166
-1 5 8 -26.7823 -0.1076
-1 5 9 36.3527 -0.0806
-1 5 10 14.0786 0.0510
-1 5 11 -23.4455 0.1953
-1 5 12 15.0289 0.1291
-1 5 13 12.0735 0.0614
-1 5 14 13.9239 0.0475
-1 5 15 1.9668 -0.0518
-1 5 16 5.5401 -0.0690
-1 5 17 13.6299 -0.0172
-1 5 18 -5.8862 0.0504
-1 5 19 4.3650 0.2199
-1 5 20 2.6666 0.1249
-1 5 21 4.3405 -0.0564
-1 5 22 -5.3863 -0.1488
-1 5 23 4.7347 -0.0890
-1 5 24 2.9901 0.0757
-1 5 25 -3.8419 -0.0921
-1 5 26 -2.8928 0.3357
-1 7 1 163.2486 0.1781
-1 7 2 -61.5569 -0.0936
-1 7 3 -175.5610 -0.2814
-1 7 4 122.1080 -0.1900
-1 7 5 -8.6942 0.0778
-1 7 6 -41.4107 -0.1087
-1 7 7 21.1469 -0.0764
-1 7 8 22.9659 0.2280
-1 7 9 -2.8126 0.2028
-1 7 10 18.3525 0.2161
-1 7 11 27.5131 0.2067
-1 7 12 -9.2827 0.0689
-1 7 13 -4.0356 -0.2940
-1 7 14 18.5659 -0.3236
-1 7 15 12.0099 -0.0430
-1 7 16 -26.1600 0.0718
-1 7 17 4.6827 0.0525
-1 7 18 5.5539 0.0043
-1 7 19 -12.4761 -0.1078
-1 7 20 -5.3824 0.0433
-1 7 21 2.8291 0.0003
-1 7 22 4.4644 -0.2316
-1 7 23 -3.5601 -0.2543
-1 7 24 0.4532 0.0642
-1 7 25 1.1213 0.2729
-1 7 26 -3.5335 -0.2492
-1 9 1 -28.0539 -0.3092
-1 9 2 16.4698 -0.0517
-1 9 3 87.9209 -0.0065
-1 9 4 -47.3103 -0.1253
-1 9 5 25.4901 -0.1399
-1 9 6 54.1922 0.1564
-1 9 7 6.0430 0.3154
-1 9 8 12.9638 0.2139
-1 9 9 14.5092 0.1436
-1 9 10 10.8814 0.0535
-1 9 11 14.7300 0.0443
-1 9 12 -4.3378 -0.0707
-1 9 13 4.7563 -0.2752
-1 9 14 -16.6194 -0.3662
-1 9 15 4.0575 -0.1673
-1 9 16 0.6115 0.1521
-1 9 17 -17.6091 0.1469
-1 9 18 -3.1054 0.0249
-1 9 19 -0.0695 -0.0086
-1 9 20 -9.9381 0.0257
-1 9 21 -2.8794 0.1010
-1 9 22 3.6126 0.0659
-1 9 23 3.0227 -0.0704
-1 9 24 -5.2806 -0.1153
-1 9 25 1.9730 0.3568
-1 11 1 -10.3226 0.1130
-1 11 2 -47.6755 -0.2235
-1 11 3 82.6681 -0.1071
-1 11 4 24.0718 0.1187
-1 11 5 -21.7946 -0.0110
-1 11 6 2.7792 -0.0823
-1 11 7 24.9587 0.0366
-1 11 8 16.9275 0.1042
-1 11 9 -14.1885 0.1294
-1 11 10 -11.4008 -0.1604
-1 11 11 1.5507 -0.2770
-1 11 12 15.2979 -0.0467
-1 11 13 -3.8741 0.1846
-1 11 14 -20.7620 0.0277
-1 11 15 5.3435 -0.1124
-1 11 16 15.3965 -0.0178
-1 11 17 -2.1741 0.1950
-1 11 18 -13.0202 0.0906
-1 11 19 8.2587 0.0228
-1 11 20 2.3117 -0.0221
-1 11 21 -1.1484 0.0325
-1 11 22 -2.3979 0.0161
-1 11 23 1.8689 0.2613
-1 11 24 1.9140 0.3235
-1 11 25 -1.9917 -0.2683
-1 13 1 -7.9085 -0.0271
-1 13 2 -8.1346 0.1542
-1 13 3 -23.6517 0.0474
-1 13 4 6.7129 -0.0406
-1 13 5 -31.4012 0.1296
-1 13 6 -22.7000 0.0291
-1 13 7 1.4642 -0.2021
-1 13 8 -14.3076 -0.1029
-1 13 9 -11.2558 -0.1328
-1 13 10 -18.8748 -0.0823
-1 13 11 -2.1808 -0.0803
-1 13 12 8.6209 0.0239
-1 13 13 -5.9255 0.2709
-1 13 14 3.2335 0.3502
-1 13 15 5.1271 0.1677
-1 13 16 3.7821 -0.0305
-1 13 17 10.2992 -0.1558
-1 13 18 3.5985 -0.0787
-1 13 19 0.9746 -0.0558
-1 13 20 2.5663 -0.1283
-1 13 21 6.2989 -0.2354
-1 13 22 4.2918 0.0698
-1 13 23 -9.6537 0.0447
-1 13 24 4.5361 -0.1859
-1 13 25 2.7106 0.0414
-1 15 1 -5.2320 -0.0158
-1 15 2 35.9805 -0.0253
-1 15 3 -39.7078 0.0917
-1 15 4 -50.9574 0.1459
-1 15 5 10.1824 0.1867
-1 15 6 7.0128 0.1039
-1 15 7 -35.8900 -0.1489
-1 15 8 -26.2743 -0.2878
-1 15 9 20.8112 -0.0471
-1 15 10 -0.8592 0.0718
-1 15 11 -23.4375 -0.0962
-1 15 12 1.4944 -0.0785
-1 15 13 17.7072 0.0977
-1 15 14 -5.6823 0.3250
-1 15 15 -3.8294 0.0978
-1 15 16 2.9714 -0.1624
-1 15 17 0.5925 -0.0662
-1 15 18 3.9465 -0.0048
-1 15 19 -1.1652 -0.2455
-1 15 20 2.4782 0.0293
-1 15 21 -0.4583 0.3568
-1 15 22 1.4319 -0.0646
-1 15 23 3.3479 -0.4213
-1 15 24 -3.5393 0.6411
-1 17 1 22.4538 0.0594
-1 17 2 -4.4650 -0.0151
-1 17 3 -3.2063 -0.0348
-1 17 4 -3.5803 0.1094
-1 17 5 14.6910 0.0989
-1 17 6 -7.0090 0.1070
-1 17 7 -0.7485 0.0886
-1 17 8 8.3548 -0.1335
-1 17 9 -10.3208 -0.1572
-1 17 10 13.0422 0.0772
-1 17 11 6.2964 0.2301
-1 17 12 -14.8040 -0.1112
-1 17 13 -1.5324 -0.3635
-1 17 14 8.0264 -0.1651
-1 17 15 -4.9818 0.2685
-1 17 16 -14.4658 0.0772
-1 17 17 0.6052 -0.2776
-1 17 18 0.8519 -0.2116
-1 17 19 -6.9747 0.2526
-1 17 20 -0.0551 0.2958
-1 17 21 0.8091 0.3447
-1 17 22 -1.5883 0.1279
-1 17 23 1.7853 -0.3325
-1 19 1 -1.9048 -0.0939
-1 19 2 -1.9784 0.0297
-1 19 3 5.7914 0.0717
-1 19 4 6.7233 -0.0040
-1 19 5 5.5629 -0.1071
-1 19 6 -11.7684 -0.1455
-1 19 7 7.5663 0.0079
-1 19 8 2.8613 0.1774
-1 19 9 7.2096 0.0902
-1 19 10 -9.8081 -0.0023
-1 19 11 0.2565 0.0499
-1 19 12 10.6563 0.0605
-1 19 13 -10.4254 0.0617
-1 19 14 -5.3856 -0.0960
-1 19 15 0.9777 -0.3656
-1 19 16 1.4651 -0.0597
-1 19 17 -4.8411 0.1484
-1 19 18 -2.8248 -0.0634
-1 19 19 -3.5016 -0.2570
-1 19 20 5.6033 -0.1250
-1 19 21 -4.2329 -0.0330
-1 19 22 0.0086 -0.0665
-1 19 23 2.1738 0.4570
-1 21 1 -5.3841 0.0823
-1 21 2 -8.2906 0.1516
-1 21 3 -0.0520 -0.0449
-1 21 4 -2.5813 -0.2401
-1 21 5 -10.4790 -0.0512
-1 21 6 -4.7731 0.0347
-1 21 7 0.4577 -0.1628
-1 21 8 -7.2996 -0.0735
-1 21 9 -3.8866 0.0997
-1 21 10 3.3620 0.0883
-1 21 11 -0.1902 0.0090
-1 21 12 -4.1380 0.0047
-1 21 13 1.3981 -0.0621
-1 21 14 4.1893 0.0986
-1 21 15 0.2324 0.1558
-1 21 16 -2.7715 -0.4463
-1 21 17 5.5289 -0.0946
-1 21 18 2.7160 0.6456
-1 21 19 -5.4571 0.0275
-1 21 20 4.5708 -0.5439
-1 21 21 0.5706 -0.2911
-1 21 22 -1.4104 -0.0669
-1 23 1 2.4359 0.0361
-1 23 2 -3.3768 0.1417
-1 23 3 6.1753 0.0683
-1 23 4 -11.3907 -0.0666
-1 23 5 2.9471 -0.0399
-1 23 6 4.4208 0.1866
-1 23 7 -5.6631 0.2361
-1 23 8 2.5604 -0.1360
-1 23 9 -3.7491 -0.3062
-1 23 10 3.2651 -0.0223
-1 23 11 3.7270 0.1301
-1 23 12 -1.6910 -0.0750
-1 23 13 -0.3299 -0.2123
-1 23 14 -0.0747 -0.1427
-1 23 15 3.8604 0.1041
-1 23 16 -2.1432 0.4304
-1 23 17 -4.4642 0.0684
-1 23 18 4.9329 0.1130
-1 23 19 -1.0930 0.9766
-1 23 20 -3.1629 0.6574
-1 23 21 3.0877 -0.5378
-1 25 1 -0.8892 -0.0076
-1 25 2 5.4711 -0.2810
-1 25 3 9.4215 0.0356
-1 25 4 -1.1516 0.3959
-1 25 5 5.7384 0.1255
-1 25 6 11.7802 -0.1686
-1 25 7 0.2931 0.0672
-1 25 8 -1.6392 0.2412
-1 25 9 11.1324 0.1479
-1 25 10 -0.0266 -0.1003
-1 25 11 -8.6947 -0.1766
-1 25 12 6.5029 -0.0230
-1 25 13 2.4959 0.0897
-1 25 14 -10.6428 0.0872
-1 25 15 -3.1867 -0.4066
-1 25 16 2.2106 -0.3358
-1 25 17 -3.0374 0.4167
-1 25 18 -6.7032 0.3342
-1 25 19 0.6432 0.0134
-1 25 20 0.1376 1.1729
-1 27 1 0.4390 -0.0819
-1 27 2 -6.9558 0.1341
-1 27 3 2.9882 -0.1701
-1 27 4 12.6532 -0.3924
-1 27 5 -6.8303 -0.0497
-1 27 6 -4.5309 0.0713
-1 27 7 9.2755 -0.2208
-1 27 8 -0.4738 -0.0619
-1 27 9 -6.2231 0.1368
-1 27 10 1.0180 0.2434
-1 27 11 -1.6062 0.1951
-1 27 12 -2.1046 -0.0860
-1 27 13 0.9681 -0.1435
-1 27 14 -4.3539 -0.0655
-1 27 15 -1.2467 -0.0294
-1 27 16 -1.4600 -0.9374
-1 27 17 1.9734 -0.9250
-1 27 18 -4.1848 0.4289
-1 29 1 -5.6349 0.1178
-1 29 2 -1.3290 0.0868
-1 29 3 -0.2019 -0.1429
-1 29 4 -4.0554 -0.2697
-1 29 5 -5.5217 -0.1854
-1 29 6 -3.3522 -0.0308
-1 29 7 -2.4279 -0.1191
-1 29 8 -3.6506 -0.1617
-1 29 9 -2.2052 0.1266
-1 29 10 -4.3855 -0.0473
-1 29 11 4.0085 -0.1264
-1 29 12 -1.1877 0.1950
-1 29 13 1.2804 0.4003
-1 29 14 2.3626 -0.2431
-1 29 15 1.6360 -0.3976
-1 29 16 1.1155 0.1500
-1 29 17 1.2745 -0.8274
-1 31 1 3.4852 -0.0380
-1 31 2 -0.3088 0.0374
-1 31 3 -6.2393 0.2454
-1 31 4 -0.5791 0.2602
-1 31 5 0.3545 0.2357
-1 31 6 -3.3998 0.2008
-1 31 7 -0.6674 0.2496
-1 31 8 -0.5806 -0.0382
-1 31 9 1.2055 -0.1090
-1 31 10 -1.5738 0.2369
-1 31 11 4.0559 -0.0825
-1 31 12 2.5716 0.2191
-1 31 13 0.5770 0.6436
-1 31 14 1.9747 1.1103
-1 31 15 3.4060 0.1293
-1 33 1 -0.1620 0.0600
-1 33 2 4.4828 -0.1630
-1 33 3 -1.0486 0.0348
-1 33 4 -1.7938 0.3998
-1 33 5 2.3766 0.2611
-1 33 6 3.4993 0.2485
-1 33 7 0.3381 0.3341
-1 33 8 0.4617 0.3907
-1 33 9 0.9076 -0.0135
-1 33 10 1.5035 0.0344
-1 33 11 2.1860 1.0525
-1 33 12 -1.5616 0.9503
-1 35 1 -1.1564 0.2126
-1 35 2 0.3052 -0.4753
-1 35 3 3.7114 -0.6198
-1 35 4 -0.6700 -0.2674
-1 35 5 -0.1522 -0.0336
-1 35 6 3.1202 -0.3077
-1 35 7 -1.8426 -0.1555
-1 35 8 1.5171 0.6977
-1 35 9 0.3570 0.9712
-1 37 1 -0.3747 0.0284
-1 37 2 -1.6700 -1.0308
-1 37 3 3.3750 -1.3976
-1 37 4 0.7549 1.5614
0 0 5 -131.3194 -0.8298
0 0 6 15.0398 -0.2505
0 0 8 -28.1105 -0.2031
0 0 9 -76.4389 -0.1957
0 0 10 -18.3896 -0.1268
0 0 11 -9.7806 0.1475
0 0 12 -58.2978 0.5413
0 0 13 -17.3253 0.3079
0 0 14 -6.7460 -0.4241
0 0 15 -11.7873 -0.6885
0 0 16 -5.9725 -0.1753
0 0 17 8.2615 0.4134
0 0 18 -0.7173 0.3328
0 0 19 -2.2371 0.0322
0 0 20 12.8773 0.2446
0 0 21 -4.6411 0.4513
0 0 22 4.0896 -0.0448
0 0 23 0.4678 -0.7427
0 0 24 0.4262 -0.8634
0 0 25 2.9315 -0.2933
0 0 26 0.5482 0.0440
0 2 2 139.0415 1.8705
0 2 4 -1.7673 1.0840
0 2 5 130.1780 -0.0409
0 2 6 31.0893 -0.5969
0 2 7 -71.9927 -0.6307
0 2 8 29.7799 -0.4026
0 2 9 37.7917 0.0570
0 2 10 -38.1685 0.4207
0 2 11 -47.7146 0.3548
0 2 12 25.2864 -0.0887
0 2 13 -10.3140 -0.2164
0 2 14 -17.5586 -0.1588
0 2 15 5.2170 -0.1870
0 2 16 4.4953 -0.2658
0 2 17 -8.8443 -0.0342
0 2 18 4.0779 0.3980
0 2 19 7.3919 0.5088
0 2 20 -3.4867 0.2385
0 2 21 -3.8828 0.0493
0 2 22 4.2247 -0.2443
0 2 23 -1.5997 -0.2804
0 2 24 0.9391 -0.3695
0 2 25 1.6346 -0.5901
0 2 26 -2.4720 0.1121
0 4 1 -3.1359 0.9450
0 4 2 39.9577 -0.1192
0 4 4 -95.9275 0.2041
0 4 5 59.7482 -0.2965
0 4 6 38.9624 -0.4818
0 4 7 34.1515 -0.1810
0 4 8 -34.8383 -0.0965
0 4 9 52.3796 0.0483
0 4 10 35.6059 0.2628
0 4 11 15.9590 0.3828
0 4 12 -4.0890 0.1445
0 4 13 26.5562 -0.3504
0 4 14 15.3348 -0.4971
0 4 15 4.4530 -0.1511
0 4 16 -6.8721 0.2535
0 4 17 0.3570 0.3103
0 4 18 5.9584 -0.0202
0 4 19 -0.6307 0.0643
0 4 20 -8.0477 0.3719
0 4 21 -1.1018 0.1344
0 4 22 1.9762 -0.1760
0 4 23 -5.5469 -0.3299
0 4 24 1.5506 -0.1509
0 4 25 -0.6729 0.4087
0 4 26 -5.9791 -0.0020
0 6 1 -77.3318 0.0490
0 6 2 -1.3371 -0.0470
0 6 3 -38.7322 -0.3574
0 6 4 -109.5756 -0.4808
0 6 5 18.4312 -0.0825
0 6 6 25.4763 0.0697
0 6 7 15.6395 -0.0416
0 6 8 -10.9879 0.1653
0 6 9 20.9141 0.1992
0 6 10 35.6318 0.2092
0 6 11 20.7340 -0.0209
0 6 12 9.4676 -0.2318
0 6 13 20.4402 -0.0803
0 6 14 4.6230 0.0676
0 6 15 -3.6254 -0.1243
0 6 16 -1.3793 -0.0679
0 6 17 4.7481 0.1472
0 6 18 -1.5667 0.3364
0 6 19 -6.7461 -0.0337
0 6 20 6.2440 -0.4057
0 6 21 2.5844 -0.2225
0 6 22 -3.8561 0.0369
0 6 23 1.7135 0.1122
0 6 24 -3.6168 0.0275
0 6 25 1.4313 -0.3503
0 6 26 -5.7827 0.3580
0 8 1 -55.6636 0.0488
0 8 2 -45.9549 -0.1034
0 8 3 6.4924 -0.3232
0 8 4 17.4221 -0.1362
0 8 5 -26.3603 0.0709
0 8 6 -29.1954 0.1490
0 8 7 14.9491 0.2151
0 8 8 14.1539 0.1532
0 8 9 -30.2317 0.1162
0 8 10 3.0218 -0.1306
0 8 11 2.7223 -0.2889
0 8 12 8.1714 -0.0747
0 8 13 1.6049 0.0293
0 8 14 -16.5598 -0.0384
0 8 15 -8.0628 0.0273
0 8 16 6.6784 0.1590
0 8 17 -0.3904 0.1910
0 8 18 -9.9032 -0.1774
0 8 19 7.3917 -0.2628
0 8 20 9.5962 0.0620
0 8 21 -0.6266 -0.0200
0 8 22 0.0223 -0.2363
0 8 23 2.7679 -0.3011
0 8 24 0.6220 0.2035
0 8 25 -0.9055 0.4008
0 10 0 107.0218 0.0108
0 10 1 21.2314 -0.0862
0 10 2 -61.1208 -0.0671
0 10 3 76.4053 -0.0637
0 10 4 30.3552 -0.0162
0 10 5 -30.8174 0.0522
0 10 6 -0.8903 0.1116
0 10 7 10.3530 0.1285
0 10 8 -5.4681 0.0466
0 10 9 -22.6644 -0.0722
0 10 10 -2.6033 -0.1850
0 10 11 5.6888 -0.0815
0 10 12 -17.4856 -0.1006
0 10 13 -0.4317 0.0070
0 10 14 4.1356 0.1494
0 10 15 -9.2678 0.2348
0 10 16 -3.7870 -0.0416
0 10 17 3.1113 -0.1783
0 10 18 3.1091 0.0692
0 10 19 0.7704 0.1767
0 10 20 2.9076 -0.1303
0 10 21 0.3985 -0.0325
0 10 22 1.5203 0.1430
0 10 23 -1.7242 0.4835
0 10 24 0.5244 -0.1840
0 10 25 3.8086 -0.0943
0 12 0 5.7818 -0.0504
0 12 1 -14.9994 -0.1776
0 12 2 18.1204 -0.0539
0 12 3 27.4508 0.1701
0 12 4 -71.4396 0.1587
0 12 5 46.9585 -0.0240
0 12 6 31.3020 -0.0267
0 12 7 -58.2836 -0.0313
0 12 8 9.7896 -0.0241
0 12 9 34.0487 -0.0911
0 12 10 -13.6166 0.0008
0 12 11 -14.6150 0.0375
0 12 12 25.2731 0.1414
0 12 13 -1.9109 0.1482
0 12 14 -3.9299 0.1052
0 12 15 17.3226 -0.0967
0 12 16 -1.6951 0.0195
0 12 17 -11.1345 -0.1167
0 12 18 12.3311 -0.2703
0 12 19 7.5281 -0.1707
0 12 20 -13.2820 0.1049
0 12 21 -1.5422 0.1917
0 12 22 4.1202 0.1034
0 12 23 0.2192 -0.1749
0 12 24 -8.5790 0.1967
0 14 0 3.3740 -0.1444
0 14 1 -39.1416 -0.0132
0 14 2 -7.1555 0.0568
0 14 3 -22.3686 0.1610
0 14 4 -11.5801 0.0262
0 14 5 -6.2238 0.0632
0 14 6 -6.1973 -0.0297
0 14 7 -6.0125 -0.1305
0 14 8 -8.1453 -0.1935
0 14 9 7.0606 -0.0885
0 14 10 11.6537 0.0939
0 14 11 -3.7338 0.1995
0 14 12 -8.1793 0.1267
0 14 13 17.5634 -0.0085
0 14 14 3.7219 -0.0355
0 14 15 -4.3074 0.0664
0 14 16 3.7835 -0.1697
0 14 17 2.4882 -0.1285
0 14 18 1.8101 -0.1229
0 14 19 -3.0179 -0.0777
0 14 20 0.1049 0.0993
0 14 21 3.6953 -0.1308
0 14 22 -6.2572 0.0358
0 14 23 0.6869 -0.1331
0 14 24 1.6546 -0.0843
0 16 0 -15.7962 -0.0496
0 16 1 8.5777 -0.1625
0 16 2 4.9094 0.1246
0 16 3 -16.2788 0.1317
0 16 4 2.4967 0.1173
0 16 5 -5.0773 -0.1323
0 16 6 -13.9093 -0.1376
0 16 7 -5.6295 0.0590
0 16 8 -3.8856 0.0418
0 16 9 -8.3529 -0.1698
0 16 10 -6.0310 -0.1802
0 16 11 0.4579 0.1253
0 16 12 -10.7222 0.1769
0 16 13 -7.7986 -0.0383
0 16 14 4.9787 -0.2400
0 16 15 -8.3084 -0.1459
0 16 16 -5.4154 0.2816
0 16 17 5.4054 0.3295
0 16 18 1.7608 0.1739
0 16 19 -6.2529 -0.0013
0 16 20 1.7266 0.1568
0 16 21 8.0750 0.6192
0 16 22 -3.3306 -0.2537
0 16 23 1.1698 -0.3474
0 18 0 14.3446 0.1655
0 18 1 6.0914 0.1524
0 18 2 15.7839 -0.1448
0 18 3 8.0420 0.0155
0 18 4 0.4590 0.1273
0 18 5 -3.0749 0.0307
0 18 6 0.1833 -0.0597
0 18 7 3.3998 -0.0495
0 18 8 -3.7442 0.0969
0 18 9 -11.2746 0.2073
0 18 10 -2.2299 0.0276
0 18 11 -0.1374 -0.2458
0 18 12 -9.6858 -0.0347
0 18 13 -9.3803 0.1841
0 18 14 -5.5364 0.0032
0 18 15 -0.5543 -0.2727
0 18 16 -7.0437 0.0132
0 18 17 -1.0682 0.4425
0 18 18 -1.3314 0.2624
0 18 19 1.1147 0.0262
0 18 20 -0.4751 -0.0498
0 18 21 -3.0035 -0.1270
0 18 22 3.9376 0.4186
0 18 23 3.4663 0.4212
0 20 0 9.6749 0.0757
0 20 1 -8.9683 0.0016
0 20 2 -7.0211 0.0249
0 20 3 5.6117 -0.0931
0 20 4 -0.1181 -0.1222
0 20 5 -3.7562 0.0027
0 20 6 -0.9299 -0.0431
0 20 7 12.4334 0.0000
0 20 8 7.5955 0.0845
0 20 9 -11.3009 0.0271
0 20 10 7.8618 0.1069
0 20 11 9.5390 0.1319
0 20 12 -3.3640 -0.1702
0 20 13 -4.9877 -0.1673
0 20 14 0.4822 0.0418
0 20 15 0.5787 0.0898
0 20 16 -2.3921 -0.1166
0 20 17 -3.5515 -0.1819
0 20 18 -2.8649 -0.3226
0 20 19 -0.2626 -0.2513
0 20 20 -0.8186 0.0618
0 20 21 -4.7486 -0.1081
0 20 22 -1.3444 -1.4155
0 22 0 -7.6172 -0.0549
0 22 1 -8.0533 -0.0733
0 22 2 -3.8380 -0.0847
0 22 3 -12.2947 -0.1569
0 22 4 -0.4847 -0.0196
0 22 5 4.4549 -0.0066
0 22 6 -0.6007 -0.0967
0 22 7 -5.3614 -0.1418
0 22 8 12.6498 0.0979
0 22 9 6.9332 0.2158
0 22 10 -4.3224 -0.1366
0 22 11 0.4391 -0.2653
0 22 12 16.3613 0.0192
0 22 13 -2.4187 0.0950
0 22 14 -5.8847 0.0321
0 22 15 3.7243 -0.0490
0 22 16 0.4350 0.0666
0 22 17 0.2470 0.2164
0 22 18 -6.6307 0.3394
0 22 19 0.7649 -0.6392
0 22 20 -1.9975 -0.2448
0 22 21 -1.6828 1.4731
0 24 0 17.2432 -0.0681
0 24 1 -4.1452 -0.0688
0 24 2 -4.6513 -0.1084
0 24 3 7.3763 0.1697
0 24 4 0.3987 0.0854
0 24 5 -5.2224 -0.0019
0 24 6 9.7169 0.1260
0 24 7 -6.0183 0.2434
0 24 8 -8.9821 -0.0036
0 24 9 8.1294 -0.0199
0 24 10 0.6983 0.2274
0 24 11 -8.3246 -0.0042
0 24 12 -4.7969 -0.2471
0 24 13 9.1285 0.0285
0 24 14 -1.2949 0.2246
0 24 15 -8.2327 0.4095
0 24 16 -0.9497 0.2976
0 24 17 4.8197 0.3235
0 24 18 0.1957 0.0241
0 24 19 -5.7001 1.4281
0 24 20 1.9989 0.4251
0 26 0 -3.1465 0.1044
0 26 1 5.6486 0.0170
0 26 2 9.3683 0.0545
0 26 3 1.2273 0.0512
0 26 4 -8.0727 0.2209
0 26 5 7.7394 0.0533
0 26 6 2.6805 -0.1215
0 26 7 -9.4603 0.0811
0 26 8 -3.3968 0.3898
0 26 9 -0.5592 0.1607
0 26 10 -3.7240 -0.1745
0 26 11 -4.6831 0.0775
0 26 12 -2.2930 0.3031
0 26 13 -3.9400 -0.0546
0 26 14 -0.6436 -0.4703
0 26 15 2.4077 -0.7012
0 26 16 -3.5632 0.9605
0 26 17 -2.6582 0.5124
0 26 18 6.0703 -2.5560
0 28 0 -3.3703 0.2004
0 28 1 1.2256 0.1969
0 28 2 -4.0835 -0.0721
0 28 3 -3.3194 -0.2746
0 28 4 3.4811 -0.1038
0 28 5 -1.6281 0.1497
0 28 6 -5.9892 -0.1971
0 28 7 2.1327 -0.5655
0 28 8 2.4746 -0.1462
0 28 9 -4.2117 0.3465
0 28 10 -1.9012 0.1570
0 28 11 4.0542 -0.3880
0 28 12 0.8135 -0.2900
0 28 13 -4.7996 -0.1723
0 28 14 3.6749 -0.4613
0 28 15 1.4650 -0.3804
0 28 16 0.9737 -1.9490
0 28 17 -3.4077 0.5152
0 30 0 9.3820 -0.0464
0 30 1 -7.3220 -0.0488
0 30 2 -5.8494 -0.0049
0 30 3 -0.8483 0.0029
0 30 4 5.2885 -0.1894
0 30 5 -4.1472 -0.2007
0 30 6 -3.0190 0.1173
0 30 7 3.1914 0.0061
0 30 8 2.3064 -0.4594
0 30 9 3.0508 -0.4320
0 30 10 -1.0623 0.1536
0 30 11 3.7722 0.9604
0 30 12 1.2434 -0.2008
0 30 13 3.5729 -1.2526
0 30 14 -0.2322 -0.2885
0 30 15 0.7298 3.1674
0 32 0 6.1148 -0.5750
0 32 1 -4.1709 -0.2888
0 32 2 3.1141 0.2653
0 32 3 1.6428 0.4041
0 32 4 -1.1183 0.0759
0 32 5 -0.2311 -0.0686
0 32 6 1.6777 0.0504
0 32 7 -1.6852 0.5958
0 32 8 0.6008 0.3337
0 32 9 2.1817 0.1757
0 32 10 -1.0969 0.4202
0 32 11 -1.3409 0.0330
0 32 12 2.2555 1.7760
0 32 13 -0.1116 1.7422
0 34 0 -4.7916 -0.0513
0 34 1 4.2991 -0.2617
0 34 2 3.2381 -0.2607
0 34 3 1.9090 0.0568
0 34 4 -3.5263 0.4015
0 34 5 1.7777 0.2706
0 34 6 -1.5108 0.1898
0 34 7 1.2963 -0.3341
0 34 8 -4.6861 1.0085
0 34 9 0.0898 1.6716
0 34 10 -1.1374 0.6983
0 34 11 -3.1760 -1.1227
0 36 0 -3.9026 -0.2154
0 36 1 2.9249 -0.0641
0 36 2 3.3496 -0.3534
0 36 3 0.0358 -0.7509
0 36 4 -2.3968 -0.0150
0 36 5 0.7295 1.0652
0 36 6 1.8233 0.0426
0 36 7 -1.1772 -1.4712
1 1 2 119.3217 0.2224
1 1 3 0.3989 -1.1748
1 1 4 54.9750 -0.0217
1 1 5 50.7719 0.5722
1 1 6 -70.5763 -0.2196
1 1 7 -2.2263 -0.6752
1 1 8 25.6689 -0.1079
1 1 9 -54.5684 0.7129
1 1 10 -26.4886 0.8779
1 1 11 18.5213 0.3189
1 1 12 7.1589 -0.4163
1 1 13 -28.0998 -0.7206
1 1 14 6.6014 -0.6716
1 1 15 16.6781 -0.2814
1 1 16 4.0729 0.0974
1 1 17 -10.2223 0.4496
1 1 18 7.9400 0.4790
1 1 19 11.8202 0.3570
1 1 20 -0.9048 0.0345
1 1 21 -4.1832 -0.3641
1 1 22 6.7226 -0.6489
1 1 23 0.2472 0.2005
1 1 24 1.5886 0.1879
1 1 25 -1.9403 -0.3454
1 3 0 134.2500 1.2639
1 3 1 -26.2302 0.4692
1 3 2 -0.6821 0.4018
1 3 3 89.9674 -0.5672
1 3 4 16.7089 -0.7096
1 3 5 -6.3588 -0.1059
1 3 6 63.2167 0.2458
1 3 7 59.5101 0.0062
1 3 8 -65.3663 0.0214
1 3 9 41.6546 0.5739
1 3 10 57.5332 0.6865
1 3 11 -32.9069 0.0376
1 3 12 -9.0175 -0.5819
1 3 13 22.5943 -0.5766
1 3 14 2.7005 -0.3831
1 3 15 -18.3242 -0.2514
1 3 16 -6.5464 0.0046
1 3 17 13.5701 0.4222
1 3 18 -10.4558 0.5276
1 3 19 -13.1411 0.2279
1 3 20 12.1432 -0.2208
1 3 21 -1.1248 -0.1658
1 3 22 -3.7641 0.0315
1 3 23 0.5426 -0.1994
1 3 24 0.0843 -0.0724
1 3 25 -0.9625 0.1733
1 5 0 -183.4833 0.0122
1 5 1 93.6201 0.5877
1 5 2 -2.6810 -0.4528
1 5 3 -148.2368 -0.6941
1 5 4 98.0838 -0.1999
1 5 5 58.7323 0.3513
1 5 6 -38.9746 0.2835
1 5 7 14.2589 -0.0668
1 5 8 84.5628 0.1300
1 5 9 20.7222 0.4977
1 5 10 -0.3622 0.3539
1 5 11 20.8692 -0.3889
1 5 12 13.7258 -0.6469
1 5 13 -0.5355 -0.2391
1 5 14 -1.2423 0.1311
1 5 15 -7.4062 0.0229
1 5 16 -9.2514 0.0635
1 5 17 3.3141 0.0727
1 5 18 -5.4597 0.1189
1 5 19 -7.0174 0.1282
1 5 20 5.3316 0.1338
1 5 21 -1.4933 -0.2849
1 5 22 1.8147 -0.2542
1 5 23 -4.8597 0.1956
1 5 24 -2.3432 0.3435
1 5 25 1.6493 0.2393
1 7 1 -18.5694 -0.3351
1 7 2 -22.7131 -0.0669
1 7 3 2.8554 0.3247
1 7 4 -69.0758 -0.0085
1 7 5 -37.4472 -0.2424
1 7 6 12.8967 0.0453
1 7 7 -17.7611 0.4001
1 7 8 3.7858 0.0666
1 7 9 14.1562 -0.2929
1 7 10 6.3319 -0.2879
1 7 11 1.4357 -0.0714
1 7 12 9.0340 0.0048
1 7 13 -0.5364 0.0190
1 7 14 10.5638 0.1649
1 7 15 -10.3191 0.3132
1 7 16 7.7528 0.0940
1 7 17 5.7732 -0.0657
1 7 18 -4.9606 -0.1168
1 7 19 12.4127 -0.1311
1 7 20 2.7479 -0.2017
1 7 21 2.5469 -0.1792
1 7 22 -2.6845 -0.0157
1 7 23 -1.2834 0.1867
1 7 24 -0.4715 0.2143
1 7 25 -3.0538 -0.4283
1 9 0 -24.9509 -0.1150
1 9 1 65.4947 -0.5028
1 9 2 -34.8358 0.1558
1 9 3 -81.1470 0.0672
1 9 4 26.3815 0.1430
1 9 5 -19.9611 -0.0244
1 9 6 -89.1768 -0.1877
1 9 7 -19.6376 -0.1718
1 9 8 21.0890 0.0283
1 9 9 -16.2937 -0.0791
1 9 10 -46.7254 -0.3012
1 9 11 23.1818 -0.1069
1 9 12 16.2255 0.2405
1 9 13 -24.1134 0.4148
1 9 14 0.7275 0.2639
1 9 15 26.0317 0.0496
1 9 16 -4.8830 -0.0110
1 9 17 -0.8807 -0.0174
1 9 18 14.4093 -0.0187
1 9 19 6.3056 -0.1278
1 9 20 0.4457 -0.3342
1 9 21 1.6871 0.0339
1 9 22 1.1613 0.4221
1 9 23 0.8725 0.0410
1 9 24 -5.5562 -0.4379
1 9 25 0.5000 0.4210
1 11 0 70.1958 -0.1345
1 11 1 10.7483 0.2426
1 11 2 -37.2645 -0.1301
1 11 3 26.3815 0.0453
1 11 4 -2.1265 0.0785
1 11 5 -0.6508 0.0878
1 11 6 -22.4414 0.0440
1 11 7 -5.9904 -0.0627
1 11 8 -1.5499 -0.1397
1 11 9 4.1906 -0.0403
1 11 10 -17.8775 0.1102
1 11 11 6.9425 0.0953
1 11 12 -5.2576 0.1848
1 11 13 -3.7049 0.1581
1 11 14 3.7176 -0.0812
1 11 15 -1.2298 -0.1361
1 11 16 2.0061 0.0323
1 11 17 -4.6284 0.0196
1 11 18 5.4744 -0.2872
1 11 19 0.3237 -0.2308
1 11 20 -4.1000 0.3603
1 11 21 -0.7072 0.3773
1 11 22 0.6535 -0.2130
1 11 23 0.2964 0.2561
1 11 24 -0.8728 0.1545
1 13 0 -27.3542 0.1045
1 13 1 17.0812 0.0545
1 13 2 -0.4266 0.1106
1 13 3 7.5114 0.0654
1 13 4 -3.2916 0.0061
1 13 5 7.0894 0.0895
1 13 6 35.3271 0.0759
1 13 7 5.5727 -0.0233
1 13 8 -15.0047 -0.0466
1 13 9 18.4059 -0.0010
1 13 10 15.6185 0.1332
1 13 11 -5.1249 0.1710
1 13 12 -9.3980 -0.0511
1 13 13 5.2829 -0.2256
1 13 14 3.1555 -0.0947
1 13 15 -9.1261 -0.1876
1 13 16 -4.1945 -0.3063
1 13 17 2.1794 -0.2217
1 13 18 -5.0068 0.1095
1 13 19 -4.8297 0.1314
1 13 20 -1.9053 -0.2208
1 13 21 2.5959 -0.1384
1 13 22 -4.5978 0.5572
1 13 23 -1.2262 -0.3210
1 13 24 3.8989 -0.0048
1 15 0 -66.5489 -0.0003
1 15 1 7.2448 0.0847
1 15 2 31.7746 0.1053
1 15 3 -31.4462 -0.1706
1 15 4 -8.1345 -0.1217
1 15 5 -0.7314 -0.0480
1 15 6 18.2318 -0.0324
1 15 7 -3.8870 -0.0800
1 15 8 -5.8690 -0.1066
1 15 9 -0.9940 0.0908
1 15 10 -0.4155 0.1312
1 15 11 7.3064 -0.0661
1 15 12 3.5097 -0.1950
1 15 13 -9.5133 -0.0590
1 15 14 -1.6990 -0.1021
1 15 15 11.4963 -0.0506
1 15 16 -4.1926 -0.0090
1 15 17 -3.1664 0.0738
1 15 18 2.9693 0.1123
1 15 19 1.8147 0.2168
1 15 20 -3.6229 0.2564
1 15 21 4.5681 -0.3246
1 15 22 -0.0822 -0.6690
1 15 23 -3.0945 0.4058
1 17 0 3.0397 0.1034
1 17 1 -19.8428 0.0263
1 17 2 2.2077 -0.0500
1 17 3 11.3300 0.0492
1 17 4 -16.1264 -0.1479
1 17 5 -17.0022 -0.1841
1 17 6 -6.5901 -0.0005
1 17 7 0.0359 0.1419
1 17 8 -14.9830 0.0691
1 17 9 -11.6196 0.0025
1 17 10 -1.8814 0.0445
1 17 11 -7.3159 0.0407
1 17 12 1.7706 -0.0342
1 17 13 0.7797 -0.0746
1 17 14 -2.5808 0.1421
1 17 15 -1.9366 0.2721
1 17 16 8.9143 0.1647
1 17 17 3.0047 0.2241
1 17 18 -4.1113 0.3325
1 17 19 4.1324 0.2555
1 17 20 5.5622 -0.1151
1 17 21 -0.0241 -0.0601
1 17 22 -5.8796 -0.3686
1 17 23 7.4518 -0.3736
1 19 0 15.0403 0.1015
1 19 1 14.2139 0.2162
1 19 2 -23.1656 0.0784
1 19 3 16.5139 -0.1111
1 19 4 0.4738 0.0117
1 19 5 0.2629 0.0847
1 19 6 -6.7526 0.1428
1 19 7 -6.5136 0.0588
1 19 8 9.7536 0.0860
1 19 9 -12.6130 0.0620
1 19 10 -4.8859 0.1265
1 19 11 1.9204 0.0207
1 19 12 -8.7866 -0.1037
1 19 13 -6.1111 0.0313
1 19 14 6.5364 0.1580
1 19 15 -6.0909 -0.0246
1 19 16 -4.9945 0.1925
1 19 17 3.1703 -0.0970
1 19 18 -2.9761 -0.1774
1 19 19 1.4539 0.0678
1 19 20 -0.9008 -0.2720
1 19 21 -2.3194 -0.5923
1 19 22 -1.0148 0.7010
1 21 0 0.7419 -0.1189
1 21 1 1.4719 0.0257
1 21 2 0.8242 0.0243
1 21 3 2.3186 -0.0952
1 21 4 1.8198 -0.1254
1 21 5 11.9127 0.0410
1 21 6 4.2201 0.0429
1 21 7 -2.7299 0.0050
1 21 8 9.2859 -0.1546
1 21 9 6.7177 -0.0137
1 21 10 -4.6749 0.0555
1 21 11 -0.9608 -0.0833
1 21 12 -2.4131 -0.1830
1 21 13 -1.4208 -0.1551
1 21 14 -4.0191 -0.0368
1 21 15 -2.3829 0.1370
1 21 16 -4.0154 -0.4274
1 21 17 -4.9316 -0.1339
1 21 18 -2.4987 -0.0235
1 21 19 -0.8346 -0.5262
1 21 20 -2.4719 0.0132
1 21 21 -4.2219 -0.1719
1 23 0 -7.6446 -0.0769
1 23 1 -12.1144 -0.2892
1 23 2 12.6754 -0.1428
1 23 3 -1.3889 -0.0577
1 23 4 -13.2439 -0.0579
1 23 5 -0.9734 0.0039
1 23 6 11.3624 -0.0582
1 23 7 -4.7550 -0.0901
1 23 8 -6.7030 0.0847
1 23 9 6.9554 0.0096
1 23 10 4.8888 -0.2026
1 23 11 -6.6252 -0.0360
1 23 12 0.9085 0.0204
1 23 13 3.6759 0.0235
1 23 14 -3.0480 -0.0756
1 23 15 3.3120 0.0341
1 23 16 -2.6716 0.3400
1 23 17 -1.9922 0.0580
1 23 18 0.1677 0.0482
1 23 19 -1.1178 0.5202
1 23 20 -1.8183 -0.4415
1 25 0 -6.6504 0.1479
1 25 1 1.9275 0.0531
1 25 2 -5.9083 -0.1402
1 25 3 -2.0369 0.0594
1 25 4 -10.4473 0.1781
1 25 5 -9.6699 -0.0352
1 25 6 -1.7528 0.1695
1 25 7 -2.7116 0.2309
1 25 8 -6.7914 -0.0298
1 25 9 -5.2587 0.0241
1 25 10 2.5364 0.2679
1 25 11 1.8052 0.1005
1 25 12 -2.4852 0.1995
1 25 13 0.3283 0.1197
1 25 14 5.4483 0.0924
1 25 15 3.3877 -0.0977
1 25 16 -0.5074 0.6447
1 25 17 2.6763 0.5463
1 25 18 -0.3649 -0.0370
1 25 19 2.8616 0.1146
1 27 0 4.0848 -0.0034
1 27 1 -2.2626 0.2954
1 27 2 -3.1003 0.3290
1 27 3 -1.8182 0.0577
1 27 4 -0.7739 -0.0573
1 27 5 -3.2645 0.0884
1 27 6 -2.1504 -0.0560
1 27 7 0.6437 -0.0072
1 27 8 -3.9226 0.0669
1 27 9 -0.1543 -0.1442
1 27 10 -0.4210 0.0910
1 27 11 1.3544 0.3108
1 27 12 -4.6315 -0.1060
1 27 13 2.0584 -0.3629
1 27 14 3.9692 -0.2572
1 27 15 -2.1396 0.3778
1 27 16 0.9358 -0.4237
1 27 17 3.7074 0.0404
1 29 0 4.8811 -0.1324
1 29 1 0.9848 0.0341
1 29 2 3.4022 0.3410
1 29 3 -0.2947 0.0534
1 29 4 5.3287 -0.2381
1 29 5 7.3356 -0.2241
1 29 6 -2.6367 -0.1332
1 29 7 2.8761 -0.2706
1 29 8 7.3344 -0.1066
1 29 9 -3.4767 -0.0249
1 29 10 0.0897 -0.5971
1 29 11 0.2599 -0.2225
1 29 12 1.6322 0.0958
1 29 13 -3.5513 -0.4475
1 29 14 -4.5573 -0.7726
1 29 15 4.9338 -0.4166
1 29 16 -2.5597 0.6995
1 31 0 -0.9056 -0.0201
1 31 1 -0.7254 -0.0435
1 31 2 1.2418 -0.2042
1 31 3 5.1689 -0.1100
1 31 4 1.2803 -0.1008
1 31 5 -0.1216 -0.0558
1 31 6 1.8908 0.0341
1 31 7 2.7573 0.0242
1 31 8 -0.5809 -0.3720
1 31 9 -1.7213 0.0072
1 31 10 2.7658 0.5136
1 31 11 -1.5403 -0.2673
1 31 12 -1.6345 -0.3583
1 31 13 0.8152 0.6502
1 31 14 -4.6007 0.1848
1 33 0 -5.9755 0.2330
1 33 1 5.0643 -0.2739
1 33 2 -2.0891 -0.4811
1 33 3 -4.8556 -0.0599
1 33 4 -0.1521 0.1211
1 33 5 0.6966 0.0747
1 33 6 -3.2426 0.0327
1 33 7 -3.0932 0.0182
1 33 8 -2.8991 0.2465
1 33 9 1.8081 0.2092
1 33 10 -0.3395 1.0887
1 33 11 -3.7222 1.2534
1 33 12 0.0821 -0.8036
1 35 0 1.2836 0.2880
1 35 1 -0.4545 -0.1960
1 35 2 -1.9873 -0.2853
1 35 3 0.6868 0.0354
1 35 4 -4.0688 0.5322
1 35 5 0.2665 -0.3558
1 35 6 -1.8017 -0.5771
1 35 7 -0.2897 0.4599
1 35 8 -3.8819 0.5144
1 37 0 4.8244 0.5002
1 37 1 -1.6775 0.0981
1 37 2 -1.9680 -0.6527
1 37 3 4.3844 1.0318
2 0 0 -94.7278 -1.0475
2 0 1 67.1980 2.0136
2 0 2 31.4242 -0.0217
2 0 5 48.0060 -1.0000
2 0 6 88.0367 0.1451
2 0 8 -17.8189 0.8800
2 0 9 52.1661 0.2734
2 0 10 39.8634 -0.1704
2 0 11 -23.7381 -0.2542
2 0 12 30.6693 -0.2050
2 0 13 21.7766 -0.2896
2 0 14 -6.0946 -0.3259
2 0 15 1.4384 0.1228
2 0 16 11.5286 0.4878
2 0 17 -4.1516 0.2969
2 0 18 2.0403 -0.1028
2 0 19 5.9726 -0.1942
2 0 20 -1.5225 -0.1016
2 0 21 2.9498 -0.2691
2 0 22 -1.5078 -0.1961
2 0 23 2.1933 0.8630
2 0 24 -5.7833 1.2921
2 0 25 -1.4826 -1.2440
2 2 0 131.7039 0.5094
2 2 1 -35.3032 -1.2777
2 2 2 -67.2867 0.0531
2 2 3 127.2553 -0.3027
2 2 5 -38.6455 -1.4731
2 2 6 36.7254 0.2811
2 2 8 5.0384 1.1425
2 2 9 -11.4457 0.0481
2 2 10 -0.2007 -0.4487
2 2 11 43.2153 -0.2364
2 2 12 -9.1230 -0.0934
2 2 13 -14.2274 -0.2008
2 2 14 11.5710 -0.3187
2 2 15 2.6832 -0.0786
2 2 16 -3.8599 0.3579
2 2 17 -6.2875 0.4112
2 2 18 11.6419 0.0044
2 2 19 0.2412 -0.3403
2 2 20 -2.6488 -0.3626
2 2 21 2.9025 0.0914
2 2 22 6.6160 0.3368
2 2 23 -3.3535 -0.5147
2 2 24 -3.4047 -0.3605
2 2 25 1.4999 1.9968
2 4 0 -116.2098 -1.0059
2 4 1 -78.4867 -0.3213
2 4 2 123.4763 -0.0052
2 4 3 37.6827 0.0071
2 4 4 -98.2512 -0.7360
2 4 5 36.5971 -0.4037
2 4 6 105.6586 0.7461
2 4 7 -89.8270 1.1735
2 4 8 16.3692 0.5225
2 4 9 33.6066 -0.2018
2 4 10 -11.9805 -0.2762
2 4 11 -34.2668 -0.3168
2 4 12 14.7837 -0.3008
2 4 13 -10.2818 -0.2385
2 4 14 -22.8538 -0.0646
2 4 15 2.0642 0.1559
2 4 16 5.3201 0.1999
2 4 17 -11.8877 0.1317
2 4 18 2.7958 -0.0637
2 4 19 5.3701 0.0248
2 4 20 2.3719 0.0977
2 4 21 -0.0994 -0.1000
2 4 22 1.1277 -0.5194
2 4 23 3.4804 0.5949
2 4 24 -1.7162 0.6368
2 4 25 1.3178 -1.5293
2 6 0 -110.1299 0.0096
2 6 1 -11.1065 -0.2245
2 6 2 63.0856 -0.1364
2 6 3 -99.3012 0.1812
2 6 4 -17.6224 0.3994
2 6 5 16.3205 0.2800
2 6 6 1.9401 0.1326
2 6 7 -11.8716 0.1379
2 6 8 -33.9973 0.0497
2 6 9 15.3224 -0.2001
2 6 10 32.4530 -0.4501
2 6 11 -23.9485 -0.1862
2 6 12 -20.5616 0.0812
2 6 13 3.2671 0.0477
2 6 14 6.0616 -0.0259
2 6 15 -4.5617 0.0747
2 6 16 -8.5988 0.2645
2 6 17 6.4444 -0.0485
2 6 18 6.4014 -0.1449
2 6 19 -4.3038 -0.2049
2 6 20 2.2046 0.0447
2 6 21 0.6078 0.1037
2 6 22 -1.9085 0.6578
2 6 23 -0.0256 -0.4146
2 6 24 -2.0502 -0.5474
2 6 25 0.4989 1.6473
2 8 0 -128.1667 0.1546
2 8 1 67.6703 0.1714
2 8 2 -60.7371 -0.0423
2 8 3 -71.7182 -0.1044
2 8 4 -10.7963 0.2552
2 8 5 -3.1639 0.3083
2 8 6 -66.2062 -0.1772
2 8 7 7.9676 -0.5299
2 8 8 -0.5659 -0.4533
2 8 9 -9.6807 -0.0828
2 8 10 0.0807 0.1216
2 8 11 38.5212 0.1405
2 8 12 -17.5317 0.1845
2 8 13 -7.2581 0.1799
2 8 14 24.8575 0.1293
2 8 15 4.5932 0.1522
2 8 16 -8.3797 -0.1055
2 8 17 8.9872 -0.1667
2 8 18 11.1116 -0.2444
2 8 19 -3.3715 0.0045
2 8 20 -9.5568 0.0209
2 8 21 1.5805 0.1801
2 8 22 0.9048 -0.0971
2 8 23 -3.6561 0.3804
2 8 24 -6.4448 -0.1598
2 10 0 -14.0768 0.1008
2 10 1 0.5633 -0.0209
2 10 2 -51.6827 0.0056
2 10 3 23.4803 -0.0298
2 10 4 -23.1712 0.0213
2 10 5 -38.5487 0.0181
2 10 6 6.1065 -0.1371
2 10 7 -28.3596 -0.3439
2 10 8 5.3769 -0.1550
2 10 9 -2.0863 0.0962
2 10 10 -6.4454 0.2232
2 10 11 -1.5107 0.1981
2 10 12 15.2475 0.1610
2 10 13 1.1689 0.1628
2 10 14 -13.0132 0.0747
2 10 15 9.1252 -0.1285
2 10 16 14.1495 -0.1515
2 10 17 -1.5703 -0.1049
2 10 18 -8.1755 0.1348
2 10 19 8.3065 0.1016
2 10 20 -0.2770 -0.0821
2 10 21 -8.6794 0.0703
2 10 22 0.9798 0.3163
2 10 23 0.4590 -0.0914
2 10 24 -0.4103 -0.1239
2 12 0 40.1522 -0.1183
2 12 1 -0.3047 0.2877
2 12 2 -6.7051 0.1485
2 12 3 1.5699 0.0017
2 12 4 54.4660 -0.0497
2 12 5 -33.4529 0.0881
2 12 6 -9.3462 0.1276
2 12 7 28.8632 -0.0330
2 12 8 -5.6476 -0.0053
2 12 9 -16.0212 0.1644
2 12 10 -9.1942 0.2130
2 12 11 -1.8134 -0.0365
2 12 12 4.7265 -0.1885
2 12 13 -13.7335 -0.0703
2 12 14 -12.8891 0.0761
2 12 15 7.2382 -0.1016
2 12 16 -0.3208 -0.2095
2 12 17 -1.1872 -0.0825
2 12 18 -5.3058 0.1508
2 12 19 -1.0060 0.2979
2 12 20 4.7161 0.2358
2 12 21 0.7908 -0.3189
2 12 22 -2.2147 -0.2914
2 12 23 -0.4965 0.5864
2 12 24 4.1154 0.3674
2 14 0 -38.2708 0.0716
2 14 1 -37.2826 0.0218
2 14 2 68.7857 0.0597
2 14 3 8.2725 0.0796
2 14 4 -31.5622 -0.1324
2 14 5 15.8808 -0.2087
2 14 6 39.4414 -0.0313
2 14 7 -12.9279 0.2638
2 14 8 -13.8806 0.1023
2 14 9 22.5345 -0.0159
2 14 10 -0.0188 -0.1139
2 14 11 -20.9372 -0.1224
2 14 12 7.4015 -0.0663
2 14 13 3.6245 -0.0831
2 14 14 -5.3128 -0.2576
2 14 15 -6.8773 -0.0935
2 14 16 0.0487 0.0781
2 14 17 1.3176 0.2655
2 14 18 -2.6404 0.0671
2 14 19 -1.3751 -0.3423
2 14 20 -0.6435 -0.1793
2 14 21 4.0917 0.5994
2 14 22 -1.7340 0.3011
2 14 23 2.4166 -2.5954
2 16 0 -35.3550 0.0438
2 16 1 6.0154 -0.1702
2 16 2 7.3782 -0.0649
2 16 3 -14.9196 -0.2553
2 16 4 -10.5707 -0.1455
2 16 5 5.8324 -0.0762
2 16 6 3.7273 -0.0699
2 16 7 -3.4864 -0.0202
2 16 8 0.7235 0.1757
2 16 9 -1.7191 0.1107
2 16 10 16.4899 -0.1140
2 16 11 6.6007 -0.1410
2 16 12 -12.2646 -0.1106
2 16 13 12.4509 -0.0393
2 16 14 17.4091 0.0766
2 16 15 -8.1619 0.0467
2 16 16 -6.3229 0.0649
2 16 17 10.8294 0.0596
2 16 18 -2.1158 0.2244
2 16 19 -3.5968 0.1097
2 16 20 1.2851 -0.8200
2 16 21 -1.1857 -0.6876
2 16 22 -0.6064 2.0595
2 18 0 5.7858 -0.0198
2 18 1 17.1232 0.0165
2 18 2 -25.6318 -0.1328
2 18 3 -21.8240 0.1371
2 18 4 20.8829 0.0401
2 18 5 -2.2858 -0.0157
2 18 6 -30.6051 0.1173
2 18 7 -2.4172 0.1002
2 18 8 17.0607 0.0847
2 18 9 -15.3411 0.0628
2 18 10 -5.8815 0.0307
2 18 11 10.3482 -0.1248
2 18 12 5.5545 0.0377
2 18 13 -6.6832 0.0940
2 18 14 3.7921 0.0365
2 18 15 7.2310 0.0089
2 18 16 1.4244 0.2450
2 18 17 -2.3663 0.1318
2 18 18 -1.0715 -0.3899
2 18 19 3.1587 -0.5757
2 18 20 -0.6031 0.4055
2 18 21 -3.5844 0.4330
2 18 22 0.4730 -2.5980
2 20 0 15.4506 0.0383
2 20 1 -11.6728 0.0732
2 20 2 5.6993 0.1286
2 20 3 2.3827 0.0751
2 20 4 1.0757 0.1694
2 20 5 -0.6307 0.0688
2 20 6 -11.2509 0.0025
2 20 7 -5.8447 0.0426
2 20 8 -3.4376 -0.0032
2 20 9 -5.4416 -0.0064
2 20 10 -8.9570 -0.0472
2 20 11 -11.2293 -0.1151
2 20 12 4.4232 -0.0869
2 20 13 -2.2409 0.2475
2 20 14 -12.2731 0.1201
2 20 15 2.1671 -0.1180
2 20 16 7.3798 -0.2773
2 20 17 -3.5915 -0.0001
2 20 18 -3.8022 0.1466
2 20 19 3.0350 -0.1116
2 20 20 1.2848 -0.7466
2 20 21 -1.2622 0.8004
2 22 0 5.5471 -0.0114
2 22 1 2.9017 0.0095
2 22 2 -1.3253 -0.0658
2 22 3 5.4624 -0.2094
2 22 4 -4.0690 -0.1777
2 22 5 -6.1453 0.0728
2 22 6 4.9417 -0.0168
2 22 7 -2.0044 -0.0647
2 22 8 -11.9315 -0.1527
2 22 9 -4.1731 -0.2162
2 22 10 2.2355 -0.1148
2 22 11 -1.3946 0.0924
2 22 12 -10.5655 -0.0503
2 22 13 -0.2181 -0.2985
2 22 14 4.0941 0.0352
2 22 15 -3.0871 0.1925
2 22 16 -0.7659 -0.1389
2 22 17 -1.5439 -0.2179
2 22 18 5.1987 0.0509
2 22 19 -3.4829 0.2803
2 22 20 -0.5682 1.2925
2 24 0 -10.6259 -0.0256
2 24 1 -10.1996 -0.0992
2 24 2 -2.6143 -0.1240
2 24 3 -2.9495 -0.1318
2 24 4 -11.3134 -0.1867
2 24 5 -5.2668 -0.0833
2 24 6 6.0711 0.1869
2 24 7 -4.1530 -0.0163
2 24 8 -2.9476 -0.1526
2 24 9 5.8978 0.0636
2 24 10 1.5438 0.0217
2 24 11 0.9460 -0.1554
2 24 12 7.4097 0.0482
2 24 13 0.7456 0.2303
2 24 14 0.4926 -0.1634
2 24 15 6.0371 -0.4236
2 24 16 -1.3015 0.0787
2 24 17 -0.2826 0.4525
2 24 18 2.2448 0.0633
2 24 19 -2.3156 -1.4449
2 26 0 -5.3531 0.1351
2 26 1 -8.5851 0.2001
2 26 2 -10.3400 -0.0330
2 26 3 -0.5946 -0.0154
2 26 4 -3.0231 0.1905
2 26 5 -3.4658 0.0840
2 26 6 -2.5834 -0.1494
2 26 7 1.4727 -0.1327
2 26 8 5.6886 0.1986
2 26 9 -0.2762 0.2144
2 26 10 0.3788 0.2006
2 26 11 3.4246 -0.0692
2 26 12 6.0499 -0.1110
2 26 13 0.3183 0.3312
2 26 14 0.0433 0.5250
2 26 15 2.8323 -0.3706
2 26 16 -0.0459 -0.7637
2 26 17 3.7774 -0.2454
2 26 18 -3.7590 1.4721
2 28 0 2.0866 0.0984
2 28 1 2.9596 0.3068
2 28 2 1.1972 0.2559
2 28 3 1.0879 -0.0080
2 28 4 5.9467 0.0161
2 28 5 1.2998 -0.0166
2 28 6 -3.0873 -0.2026
2 28 7 0.5770 0.0051
2 28 8 4.5170 -0.0368
2 28 9 -3.1037 -0.0890
2 28 10 -6.1580 -0.0210
2 28 11 0.4905 0.0910
2 28 12 0.2379 0.1785
2 28 13 -1.5907 -0.1244
2 28 14 -4.6005 -0.0520
2 28 15 -0.3436 0.9129
2 28 16 4.1950 -0.0895
2 30 0 8.7325 -0.1939
2 30 1 5.8878 -0.2144
2 30 2 3.4623 0.1146
2 30 3 0.2151 0.1932
2 30 4 7.7200 -0.1671
2 30 5 0.5580 -0.0815
2 30 6 -1.8622 0.0733
2 30 7 0.2456 -0.0892
2 30 8 -0.7526 0.1889
2 30 9 -3.0391 -0.0458
2 30 10 -4.3583 -0.8579
2 30 11 -1.7423 0.0393
2 30 12 -2.8801 0.3452
2 30 13 -1.2615 0.2333
2 30 14 -2.5439 -0.9032
2 32 0 -1.9256 0.0794
2 32 1 0.4012 -0.3207
2 32 2 0.4673 -0.4671
2 32 3 -2.6127 -0.1102
2 32 4 -1.5062 0.2527
2 32 5 -0.6567 -0.0078
2 32 6 2.5752 -0.1402
2 32 7 -1.4855 0.2774
2 32 8 -3.8085 -0.1110
2 32 9 1.5539 0.0558
2 32 10 -0.2755 0.3984
2 32 11 -1.8976 -1.1889
2 32 12 1.5545 1.2461
2 34 0 -12.2996 0.2504
2 34 1 -1.4931 0.2411
2 34 2 1.0106 0.2553
2 34 3 -2.9733 -0.2793
2 34 4 -5.0329 -0.8759
2 34 5 -0.3634 -0.1178
2 34 6 3.6891 0.8299
2 34 7 -1.5933 -0.6224
2 34 8 -0.3179 -1.0243
2 34 9 -1.7695 -0.0411
2 34 10 4.5580 3.2557
2 36 0 -0.0285 0.3480
2 36 1 -1.3107 1.2385
2 36 2 -1.5418 0.9564
2 36 3 1.0277 -0.1035
2 36 4 -0.7677 -1.0155
2 36 5 -0.9077 -1.1237
2 36 6 0.1436 2.3474
3 1 0 113.6195 -0.6084
3 1 2 -142.6069 -1.9624
3 1 3 153.6611 -0.0051
3 1 4 73.8762 0.4587
3 1 5 18.9418 -0.4113
3 1 6 -1.4947 -0.5045
3 1 7 38.7588 0.3290
3 1 8 85.5529 0.7704
3 1 9 -4.7351 0.3647
3 1 10 1.5175 -0.4730
3 1 11 9.5900 -0.7477
3 1 12 20.7479 -0.0306
3 1 13 -0.0440 0.6339
3 1 14 -19.0529 0.6423
3 1 15 1.0902 0.3451
3 1 16 9.3690 -0.1402
3 1 17 -5.7736 -0.4543
3 1 18 0.9689 -0.5208
3 1 19 2.9860 -0.2617
3 1 20 0.4956 -0.1886
3 1 21 -2.6584 -0.0771
3 1 22 -1.7711 0.4778
3 1 23 -3.1980 0.7946
3 1 24 -1.0371 0.4902
3 1 25 -1.2611 -0.2191
3 3 0 -91.7051 -0.4639
3 3 1 4.4394 -0.8369
3 3 2 89.1894 -1.2160
3 3 3 -117.5940 -0.9855
3 3 4 3.5981 0.1920
3 3 5 51.9500 1.0817
3 3 6 -28.3510 0.5667
3 3 7 -15.6553 -0.3863
3 3 8 3.6276 -0.0154
3 3 9 12.8632 0.5138
3 3 10 -19.1744 0.0381
3 3 11 0.3035 -0.6583
3 3 12 3.2434 -0.4020
3 3 13 -5.1554 0.3694
3 3 14 3.3738 0.6559
3 3 15 7.8312 0.3110
3 3 16 -0.4688 -0.0281
3 3 17 3.9241 -0.3681
3 3 18 6.8283 -0.4064
3 3 19 5.2804 -0.1157
3 3 20 4.3068 -0.0418
3 3 21 -4.0334 -0.0139
3 3 22 -3.5660 -0.0905
3 3 23 6.4448 0.1217
3 3 24 -4.8411 0.1919
3 5 0 14.8535 -0.4743
3 5 1 -78.5191 -0.3598
3 5 2 -64.5818 -0.0905
3 5 3 101.3610 0.2040
3 5 4 -120.9318 0.1509
3 5 5 -106.1405 0.3935
3 5 6 52.4737 0.4594
3 5 7 32.7564 0.1877
3 5 8 -115.1674 -0.2006
3 5 9 5.0377 -0.4011
3 5 10 -8.2803 -0.2296
3 5 11 23.6842 0.0404
3 5 12 -42.4033 0.0883
3 5 13 -0.4609 0.0128
3 5 14 23.2600 0.0497
3 5 15 -10.2346 0.2476
3 5 16 -4.3261 0.1290
3 5 17 14.8232 -0.1161
3 5 18 4.1769 -0.2064
3 5 19 -5.0495 -0.1354
3 5 20 4.0030 0.2085
3 5 21 6.0960 0.1078
3 5 22 -3.9704 0.0629
3 5 23 -1.3543 0.0193
3 5 24 -1.3603 -0.2559
3 7 0 -41.5958 0.3618
3 7 1 6.2325 0.3239
3 7 2 1.0725 0.2539
3 7 3 -51.7801 0.1835
3 7 4 -17.3067 0.2177
3 7 5 3.3136 -0.0322
3 7 6 -29.2308 -0.1159
3 7 7 -21.7015 -0.0542
3 7 8 21.6102 -0.3204
3 7 9 -1.9356 -0.2144
3 7 10 -51.0308 0.0756
3 7 11 19.2070 0.2361
3 7 12 9.8384 0.0746
3 7 13 -4.3931 -0.0512
3 7 14 -27.2265 0.0444
3 7 15 6.3869 -0.0065
3 7 16 4.7383 -0.2826
3 7 17 -7.3383 -0.2404
3 7 18 -5.4623 0.1572
3 7 19 -1.7744 0.3114
3 7 20 1.8386 0.0095
3 7 21 1.1542 -0.0234
3 7 22 -6.5808 0.2241
3 7 23 1.3600 0.1288
3 7 24 -1.8469 0.0350
3 9 0 21.0633 -0.0372
3 9 1 25.9306 0.2432
3 9 2 -39.1829 0.3600
3 9 3 8.9182 -0.0172
3 9 4 36.1866 -0.2402
3 9 5 -8.7669 -0.2272
3 9 6 -13.9345 -0.2263
3 9 7 12.1281 -0.1816
3 9 8 13.6733 0.0496
3 9 9 -14.9443 0.0275
3 9 10 7.4903 0.0702
3 9 11 -15.1695 0.2206
3 9 12 11.7601 0.1310
3 9 13 -4.6304 -0.1703
3 9 14 -2.2027 -0.1922
3 9 15 -13.8123 -0.1437
3 9 16 3.7175 -0.1642
3 9 17 -0.1717 -0.1253
3 9 18 -11.0307 0.2175
3 9 19 -2.9180 0.3226
3 9 20 5.4707 -0.0426
3 9 21 -2.8515 0.0380
3 9 22 -8.3078 0.0926
3 9 23 1.7325 -0.1235
3 9 24 2.6479 -0.0951
3 11 0 23.9947 -0.0410
3 11 1 11.9033 -0.0470
3 11 2 16.6628 -0.0236
3 11 3 -14.4585 0.1599
3 11 4 14.8127 -0.0850
3 11 5 9.8633 -0.2463
3 11 6 -6.8749 -0.0806
3 11 7 -3.8081 0.0564
3 11 8 -0.5722 0.1880
3 11 9 -4.1082 0.0829
3 11 10 -11.9624 -0.0321
3 11 11 5.6584 -0.0886
3 11 12 -3.7586 0.0310
3 11 13 -5.2560 0.0279
3 11 14 7.8989 -0.1913
3 11 15 3.3383 -0.1578
3 11 16 -4.7904 0.1752
3 11 17 -0.4054 0.3221
3 11 18 7.5185 -0.0203
3 11 19 -1.8986 -0.1204
3 11 20 -1.3310 0.2746
3 11 21 0.1328 -0.0202
3 11 22 2.6181 -0.3388
3 11 23 -3.1384 0.1481
3 13 0 1.6614 0.0829
3 13 1 -25.6881 0.0276
3 13 2 13.3878 -0.0977
3 13 3 22.1585 -0.0632
3 13 4 -37.2838 0.1717
3 13 5 4.5539 0.1053
3 13 6 26.6763 -0.0631
3 13 7 -27.5064 0.0873
3 13 8 -11.2435 0.1152
3 13 9 14.3510 0.1266
3 13 10 -9.0324 -0.0206
3 13 11 2.5220 -0.0773
3 13 12 -10.3817 -0.0806
3 13 13 9.4732 0.0711
3 13 14 3.7296 0.1859
3 13 15 -1.9304 0.1658
3 13 16 3.7536 0.0372
3 13 17 -1.1596 0.1059
3 13 18 4.5692 0.1908
3 13 19 0.6715 -0.1593
3 13 20 0.8595 -0.4974
3 13 21 -1.6513 0.1248
3 13 22 3.0031 0.4229
3 13 23 -1.7116 -0.4581
3 15 0 6.5559 -0.0504
3 15 1 -10.1049 -0.2054
3 15 2 -25.2922 -0.1105
3 15 3 18.8449 -0.1043
3 15 4 19.4426 -0.0693
3 15 5 -23.3807 0.0886
3 15 6 10.7206 0.0694
3 15 7 18.0546 -0.0069
3 15 8 -10.1435 0.0440
3 15 9 10.7590 0.0701
3 15 10 13.3787 -0.0282
3 15 11 -4.2141 -0.0520
3 15 12 4.8650 0.0330
3 15 13 0.3754 -0.0115
3 15 14 2.3977 0.0089
3 15 15 -3.8700 0.1937
3 15 16 -6.1108 0.1539
3 15 17 4.8068 -0.1198
3 15 18 -5.3104 -0.2268
3 15 19 -2.2231 -0.1015
3 15 20 -1.7376 0.0002
3 15 21 -0.1695 -0.2929
3 15 22 -1.7095 -0.0533
3 17 0 -29.8050 0.0373
3 17 1 -2.0486 -0.1303
3 17 2 20.8266 -0.1730
3 17 3 -12.1753 -0.0840
3 17 4 9.0923 -0.0466
3 17 5 -2.9788 0.0734
3 17 6 13.2390 0.1243
3 17 7 2.3900 -0.0830
3 17 8 2.9123 -0.1487
3 17 9 10.5274 -0.0241
3 17 10 5.1898 0.0247
3 17 11 3.8329 -0.1765
3 17 12 4.2406 -0.2282
3 17 13 -0.8441 0.0015
3 17 14 -3.8200 0.1270
3 17 15 0.9270 -0.2161
3 17 16 -2.4880 -0.1556
3 17 17 -5.4223 0.0577
3 17 18 0.2392 -0.0658
3 17 19 0.6893 -0.3621
3 17 20 -8.8471 -0.2812
3 17 21 0.3710 0.2554
3 17 22 0.5000 -0.1843
3 19 0 -9.7381 0.0298
3 19 1 12.5072 0.1389
3 19 2 0.4268 0.0440
3 19 3 -12.6274 0.0109
3 19 4 -6.3479 0.1517
3 19 5 3.6484 0.0893
3 19 6 -15.1870 0.0382
3 19 7 -3.7882 -0.1175
3 19 8 7.5370 -0.1051
3 19 9 -17.1844 -0.0884
3 19 10 -3.2782 -0.0438
3 19 11 14.3098 0.0397
3 19 12 -6.4016 0.0283
3 19 13 -6.7091 -0.1144
3 19 14 6.7908 -0.0076
3 19 15 3.2348 0.2692
3 19 16 0.3526 -0.1231
3 19 17 0.0259 -0.4164
3 19 18 2.6872 0.0290
3 19 19 1.2725 0.3212
3 19 20 0.1936 -0.3316
3 19 21 -3.1283 -0.8547
3 21 0 7.7140 -0.0228
3 21 1 2.5806 0.0942
3 21 2 -14.7403 0.1587
3 21 3 -5.5099 0.0607
3 21 4 -4.6058 -0.1190
3 21 5 -13.1700 0.0298
3 21 6 -17.2758 0.0836
3 21 7 -2.1423 0.0380
3 21 8 -4.4522 -0.2202
3 21 9 -13.6304 -0.0290
3 21 10 -8.3414 0.2737
3 21 11 4.5273 0.1337
3 21 12 4.2121 -0.0143
3 21 13 -4.8918 0.2790
3 21 14 0.6527 0.0847
3 21 15 8.4450 -0.0290
3 21 16 5.3653 0.3006
3 21 17 -1.8513 0.4071
3 21 18 4.5356 -0.3142
3 21 19 2.1287 -0.2931
3 21 20 0.6091 1.2308
3 23 0 1.7333 -0.1065
3 23 1 -14.7045 -0.1271
3 23 2 -2.5949 -0.0487
3 23 3 2.7147 -0.0558
3 23 4 -8.6617 -0.0413
3 23 5 -6.0974 0.0207
3 23 6 2.7677 -0.0502
3 23 7 -4.3763 -0.0425
3 23 8 -4.3204 0.0971
3 23 9 4.4885 0.0921
3 23 10 -0.8545 -0.1427
3 23 11 -4.3064 0.0296
3 23 12 4.2637 0.0640
3 23 13 8.2204 -0.2357
3 23 14 -3.6581 0.0909
3 23 15 -0.9732 0.0929
3 23 16 3.5806 -0.1364
3 23 17 1.5555 0.0653
3 23 18 -1.8900 0.4959
3 23 19 -0.5023 0.0286
3 25 0 -7.1938 -0.0465
3 25 1 -4.0798 -0.2389
3 25 2 -0.3586 -0.0414
3 25 3 5.2328 0.1768
3 25 4 -8.5930 0.0408
3 25 5 4.4933 -0.2325
3 25 6 17.3502 -0.0155
3 25 7 -7.0824 0.0599
3 25 8 -0.1498 0.0352
3 25 9 10.5195 -0.0742
3 25 10 4.6801 0.0018
3 25 11 -4.7257 -0.2514
3 25 12 -0.8940 -0.1581
3 25 13 5.3394 -0.0866
3 25 14 -0.0881 -0.4163
3 25 15 -5.0971 -0.4989
3 25 16 -2.6980 0.1326
3 25 17 0.5037 -0.5510
3 25 18 -1.1964 -1.3594
3 27 0 -5.8875 0.1065
3 27 1 5.4550 0.1837
3 27 2 0.9610 -0.0068
3 27 3 -1.6308 0.0065
3 27 4 -1.2924 -0.0151
3 27 5 6.8887 -0.1742
3 27 6 -1.1907 -0.0587
3 27 7 -0.1384 0.1244
3 27 8 2.8343 -0.0249
3 27 9 -0.4164 -0.0591
3 27 10 -3.8821 0.0638
3 27 11 2.3933 0.2163
3 27 12 -3.1877 0.0643
3 27 13 -1.9599 0.1869
3 27 14 -2.6347 -0.3839
3 27 15 1.3206 -0.4059
3 27 16 -3.4861 0.0567
3 29 0 11.3383 -0.0198
3 29 1 -0.2959 0.0554
3 29 2 -4.5643 -0.0018
3 29 3 0.8249 -0.1971
3 29 4 2.7450 0.0478
3 29 5 -3.0530 0.4464
3 29 6 -8.4449 -0.0090
3 29 7 0.6779 -0.1142
3 29 8 -1.5359 0.1882
3 29 9 -3.2669 0.0358
3 29 10 -6.4457 0.0805
3 29 11 2.1348 0.4732
3 29 12 -4.6597 0.3866
3 29 13 0.6138 -0.3299
3 29 14 -1.1024 0.8467
3 29 15 -0.1489 1.5171
3 31 0 -0.4869 -0.1479
3 31 1 0.7713 0.0248
3 31 2 -0.9072 -0.0963
3 31 3 -4.2421 -0.0819
3 31 4 1.4692 0.3382
3 31 5 0.0095 0.4342
3 31 6 -4.4692 0.3095
3 31 7 -2.7525 0.0553
3 31 8 0.4287 -0.1902
3 31 9 0.7675 0.1738
3 31 10 -2.6984 -0.2657
3 31 11 -3.2012 -0.0082
3 31 12 2.1169 0.6303
3 31 13 1.4890 -0.3906
3 33 0 -6.0823 -0.0647
3 33 1 -3.4794 0.1179
3 33 2 1.5187 0.1441
3 33 3 1.7592 0.1560
3 33 4 -0.8791 -0.1486
3 33 5 -1.7708 -0.0231
3 33 6 3.0586 0.0505
3 33 7 4.9355 -0.5087
3 33 8 -3.0049 0.1891
3 33 9 0.8558 -0.0271
3 33 10 2.0075 -1.4241
3 35 0 -2.9088 1.1640
3 35 1 -1.0028 -0.1234
3 35 2 1.2512 0.1756
3 35 3 1.5806 0.3429
3 35 4 -0.5601 -0.0398
3 35 5 0.3724 -0.9111
3 35 6 2.2109 -0.9731
3 35 7 2.7398 -0.6117
3 37 0 1.5729 1.6396
3 37 1 -4.0873 -1.3323
4 0 0 -44.9091 1.8429
4 0 1 151.5633 0.3090
4 0 2 20.7050 -0.2567
4 0 3 -11.9291 -0.5675
4 0 4 88.5310 1.1610
4 0 5 56.5583 1.6923
4 0 6 -25.2271 0.2161
4 0 7 29.2227 -1.1383
4 0 8 14.6448 -1.3037
4 0 9 1.8579 -0.5325
4 0 10 -23.7464 -0.0160
4 0 11 3.4417 0.3938
4 0 12 7.6495 0.6918
4 0 13 -32.7321 0.5526
4 0 14 0.5096 0.0507
4 0 15 16.1063 0.0149
4 0 16 -4.4262 -0.0522
4 0 17 -16.8291 -0.5975
4 0 18 11.9710 -0.7986
4 0 19 12.1809 -0.1950
4 0 20 -2.6872 0.3805
4 0 21 -18.1513 0.4103
4 0 22 9.5176 0.4397
4 0 23 1.4642 0.4720
4 0 24 -6.6249 -0.3609
4 2 0 -91.7876 -2.1185
4 2 1 41.6892 0.7371
4 2 2 31.1520 0.6290
4 2 3 -11.9971 -0.2370
4 2 4 4.8993 0.0197
4 2 5 2.7081 1.1796
4 2 6 50.7541 0.7675
4 2 7 -14.8467 -0.7893
4 2 8 -15.6129 -1.1859
4 2 9 15.8281 -0.6235
4 2 10 23.9847 0.0226
4 2 11 -22.2139 0.5172
4 2 12 -0.2880 0.7765
4 2 13 13.6118 0.2688
4 2 14 -2.2074 -0.0949
4 2 15 1.7274 0.0242
4 2 16 8.0924 0.1110
4 2 17 0.2111 -0.3430
4 2 18 -1.1159 -0.6692
4 2 19 3.0392 -0.2194
4 2 20 1.0755 0.1842
4 2 21 -3.9875 0.2596
4 2 22 -4.9043 0.1630
4 2 23 -1.2734 -0.1848
4 2 24 -1.0675 0.5459
4 4 0 0.5574 -0.0728
4 4 1 -54.3666 -1.3708
4 4 2 -77.3783 -0.4119
4 4 3 -13.0412 0.7546
4 4 4 -33.2268 0.5220
4 4 5 -19.1361 -0.1170
4 4 6 -28.3779 -0.1579
4 4 7 16.2121 -0.0906
4 4 8 -5.3053 -0.2335
4 4 9 -11.2930 -0.5390
4 4 10 24.9275 -0.2514
4 4 11 12.1857 0.3922
4 4 12 -8.3190 0.5295
4 4 13 11.5929 0.2558
4 4 14 19.5261 -0.0351
4 4 15 2.0766 -0.0424
4 4 16 -4.3400 0.0521
4 4 17 7.6071 -0.0357
4 4 18 6.7566 -0.1537
4 4 19 -9.0035 -0.2811
4 4 20 -1.7225 0.0033
4 4 21 2.6178 0.2158
4 4 22 -2.1758 -0.0030
4 4 23 -6.0129 -0.0770
4 4 24 -3.7136 -0.7624
4 6 0 -85.4767 -0.3458
4 6 1 -37.0149 0.1700
4 6 2 17.8446 0.2748
4 6 3 -46.4591 0.0103
4 6 4 -20.3160 0.0795
4 6 5 -13.5586 -0.0158
4 6 6 -19.5392 -0.2049
4 6 7 -20.9443 0.0026
4 6 8 4.4605 -0.0084
4 6 9 3.7059 0.0225
4 6 10 -14.9136 0.0701
4 6 11 -9.8081 0.1813
4 6 12 7.0318 0.1395
4 6 13 -7.7532 -0.0045
4 6 14 -3.2358 -0.0683
4 6 15 1.4877 0.0107
4 6 16 -10.4153 -0.1306
4 6 17 1.4184 -0.0415
4 6 18 -1.8274 0.0129
4 6 19 3.4083 0.1616
4 6 20 -0.7473 0.0655
4 6 21 -1.7328 -0.1509
4 6 22 0.7814 -0.1631
4 6 23 2.9023 0.0179
4 6 24 -7.2333 0.3925
4 8 0 47.7720 0.4449
4 8 1 19.3142 0.3239
4 8 2 44.9257 0.0710
4 8 3 7.7324 0.1572
4 8 4 39.8079 0.0419
4 8 5 -25.2792 -0.2638
4 8 6 -3.8840 -0.3014
4 8 7 -0.9116 0.1470
4 8 8 -7.5029 0.4973
4 8 9 -24.2896 0.2570
4 8 10 -15.8277 -0.0544
4 8 11 -7.3639 -0.0412
4 8 12 -26.7799 -0.0350
4 8 13 -9.5266 -0.1718
4 8 14 -9.0582 -0.2343
4 8 15 -12.5413 -0.2289
4 8 16 -5.5839 -0.0262
4 8 17 -4.2430 0.0843
4 8 18 -2.1532 0.3189
4 8 19 3.9464 0.0891
4 8 20 4.0708 -0.1072
4 8 21 -0.2426 -0.0274
4 8 22 2.4108 0.0534
4 8 23 1.5997 -0.0986
4 10 0 54.1441 0.1533
4 10 1 83.1280 0.1111
4 10 2 1.1385 -0.0525
4 10 3 9.8184 -0.2410
4 10 4 37.3207 -0.1938
4 10 5 39.4263 -0.0817
4 10 6 -42.6481 0.0718
4 10 7 -10.7681 -0.0303
4 10 8 27.3651 -0.0047
4 10 9 -21.7575 0.1074
4 10 10 -24.3365 0.1727
4 10 11 1.8450 -0.2298
4 10 12 -4.1615 -0.5010
4 10 13 -6.7573 -0.3389
4 10 14 -6.4784 0.1610
4 10 15 0.7568 0.1115
4 10 16 2.1626 -0.0545
4 10 17 -6.1150 0.0496
4 10 18 2.3553 0.1908
4 10 19 5.3157 0.2932
4 10 20 -1.7565 -0.0405
4 10 21 1.6777 -0.2904
4 10 22 0.5237 -0.0952
4 10 23 2.7623 0.0299
4 12 0 18.4786 -0.1840
4 12 1 6.0419 -0.0059
4 12 2 -37.8921 -0.0158
4 12 3 33.2303 -0.1447
4 12 4 -7.4684 -0.2161
4 12 5 -18.6989 0.0768
4 12 6 33.6852 0.2098
4 12 7 -10.4539 -0.0028
4 12 8 -16.1504 -0.1997
4 12 9 20.7002 -0.1239
4 12 10 19.5271 -0.0526
4 12 11 -19.5767 0.0246
4 12 12 14.9231 -0.0648
4 12 13 16.7973 0.0239
4 12 14 2.5871 -0.0239
4 12 15 -1.4013 0.2599
4 12 16 9.1300 0.2010
4 12 17 1.4870 0.0598
4 12 18 -1.8479 -0.2471
4 12 19 0.0283 -0.3321
4 12 20 1.0129 0.1114
4 12 21 -2.3568 0.1481
4 12 22 -2.7406 -0.3393
4 12 23 2.5262 0.3133
4 14 0 -36.9540 0.1030
4 14 1 -12.9275 -0.0203
4 14 2 3.3199 -0.0055
4 14 3 -13.9932 -0.0256
4 14 4 -8.1580 0.1116
4 14 5 -7.7025 0.1895
4 14 6 12.3092 0.1499
4 14 7 20.8531 0.0789
4 14 8 -5.1969 -0.1545
4 14 9 5.1352 -0.0268
4 14 10 8.5892 0.2223
4 14 11 22.2738 0.1652
4 14 12 -3.3920 0.0791
4 14 13 0.7436 0.2455
4 14 14 1.8554 0.3922
4 14 15 10.5278 0.0174
4 14 16 -6.7836 -0.2418
4 14 17 -5.0344 -0.2178
4 14 18 4.2437 -0.0100
4 14 19 -3.7602 -0.1251
4 14 20 -3.5918 -0.3200
4 14 21 -1.1989 0.0441
4 14 22 0.8871 -0.0445
4 16 0 -18.8005 -0.1313
4 16 1 -14.6095 0.0043
4 16 2 29.8852 0.0246
4 16 3 3.7134 0.0020
4 16 4 -15.9495 -0.0032
4 16 5 15.3997 0.1479
4 16 6 10.2893 0.0689
4 16 7 -3.4472 -0.0880
4 16 8 18.6657 0.0031
4 16 9 -5.6633 -0.0624
4 16 10 -8.5346 -0.0998
4 16 11 11.7174 0.0784
4 16 12 -2.2050 0.2512
4 16 13 -10.3663 -0.0059
4 16 14 -8.2147 -0.0188
4 16 15 3.9953 -0.0224
4 16 16 -5.5501 -0.0435
4 16 17 -4.6422 -0.1859
4 16 18 -2.3556 -0.1443
4 16 19 0.3589 0.1081
4 16 20 -0.0382 0.2822
4 16 21 -3.3891 0.0646
4 18 0 8.2495 -0.1162
4 18 1 7.7268 -0.1270
4 18 2 -0.7125 0.0560
4 18 3 2.2781 0.0731
4 18 4 10.9545 -0.0303
4 18 5 5.2697 -0.2001
4 18 6 -11.8751 -0.0708
4 18 7 4.2588 -0.0110
4 18 8 6.9298 -0.1207
4 18 9 -5.7834 -0.2462
4 18 10 -5.2355 -0.2185
4 18 11 -5.2789 -0.0249
4 18 12 1.0532 0.0245
4 18 13 -2.7854 0.0429
4 18 14 -3.5954 -0.2081
4 18 15 -3.1883 -0.2197
4 18 16 0.5128 -0.0343
4 18 17 6.2687 0.2765
4 18 18 -4.6142 0.0890
4 18 19 -0.4187 -0.2808
4 18 20 4.0903 -0.0391
4 18 21 0.2330 0.4855
4 20 0 2.1800 0.0110
4 20 1 -0.0339 0.1693
4 20 2 -2.6284 0.0256
4 20 3 -26.6019 -0.0635
4 20 4 11.0032 0.0164
4 20 5 0.0776 0.0634
4 20 6 -15.4163 -0.0755
4 20 7 -3.1616 -0.1467
4 20 8 3.6977 0.0529
4 20 9 1.6670 0.1779
4 20 10 -0.7621 0.0638
4 20 11 -2.7848 0.0313
4 20 12 3.0787 0.1881
4 20 13 7.9261 0.1116
4 20 14 0.3764 -0.1299
4 20 15 1.6750 0.0227
4 20 16 4.8649 0.0895
4 20 17 3.2068 -0.0617
4 20 18 0.9131 0.1323
4 20 19 1.0060 0.1401
4 20 20 1.0653 -1.0353
4 22 0 -2.0201 -0.0857
4 22 1 -12.2704 -0.0543
4 22 2 -4.7532 0.1771
4 22 3 -3.3814 0.1986
4 22 4 -8.6286 -0.0085
4 22 5 -4.0946 0.0092
4 22 6 0.4665 0.0528
4 22 7 -5.5491 0.1719
4 22 8 0.9379 0.1471
4 22 9 3.0429 0.1653
4 22 10 4.7272 0.2487
4 22 11 -2.0397 0.1490
4 22 12 2.2976 0.0849
4 22 13 7.3916 0.1564
4 22 14 -1.1009 0.1540
4 22 15 3.2674 -0.0486
4 22 16 0.4709 0.1038
4 22 17 0.3398 0.2808
4 22 18 0.2791 -0.1877
4 22 19 -0.9550 0.8092
4 24 0 -7.8653 0.0641
4 24 1 2.5035 0.0257
4 24 2 3.1666 0.0499
4 24 3 7.1915 0.0555
4 24 4 -4.4255 0.0950
4 24 5 -2.9073 0.1250
4 24 6 6.7836 0.0084
4 24 7 2.8876 -0.0956
4 24 8 -7.4542 -0.0589
4 24 9 0.9934 0.0830
4 24 10 2.3277 -0.1830
4 24 11 -1.8138 -0.1856
4 24 12 -3.0308 -0.0345
4 24 13 -4.3808 -0.0763
4 24 14 -0.2521 0.0109
4 24 15 1.5002 -0.1975
4 24 16 -5.3661 0.0162
4 24 17 -3.0239 0.0127
4 24 18 0.8162 0.4946
4 26 0 3.4809 0.0599
4 26 1 -3.2385 0.0922
4 26 2 4.8048 -0.0871
4 26 3 7.9174 -0.1592
4 26 4 -0.0662 0.0257
4 26 5 -3.5533 0.0608
4 26 6 7.0593 0.0379
4 26 7 -0.6894 -0.3379
4 26 8 -5.6409 -0.1766
4 26 9 0.7496 -0.0554
4 26 10 -1.9382 0.0538
4 26 11 -5.1122 -0.2397
4 26 12 -5.1004 -0.1692
4 26 13 -2.1483 -0.1047
4 26 14 -2.8747 -0.5813
4 26 15 -4.5798 0.1048
4 26 16 0.6834 -0.2307
4 26 17 -3.0612 -1.3228
4 28 0 1.0066 0.0810
4 28 1 4.0974 -0.2118
4 28 2 -4.8618 -0.2056
4 28 3 -5.5344 0.0834
4 28 4 0.4341 0.0573
4 28 5 4.0457 -0.1708
4 28 6 -5.5104 -0.0428
4 28 7 -4.7409 0.2875
4 28 8 5.5200 0.0889
4 28 9 -2.0317 0.0436
4 28 10 -2.0406 0.1736
4 28 11 -2.6088 0.3411
4 28 12 0.2562 -0.0667
4 28 13 -2.1157 -0.1159
4 28 14 -1.1636 -0.0764
4 28 15 -1.8865 -0.5409
4 30 0 0.1331 -0.3235
4 30 1 -2.4068 0.0867
4 30 2 -2.9004 0.2007
4 30 3 -6.6809 0.0671
4 30 4 -0.4135 0.0327
4 30 5 0.0289 0.2867
4 30 6 -2.9986 -0.0067
4 30 7 0.3097 0.3955
4 30 8 -0.5750 0.3679
4 30 9 4.6077 -0.1292
4 30 10 -2.0338 -0.1770
4 30 11 -0.7521 0.1793
4 30 12 7.0605 0.3960
4 30 13 -5.2705 0.3281
4 32 0 -2.3414 -0.2294
4 32 1 -3.7016 0.0675
4 32 2 -1.1936 0.2971
4 32 3 3.4356 0.3434
4 32 4 -1.3595 0.2305
4 32 5 -1.7802 -0.2701
4 32 6 2.5457 0.1420
4 32 7 0.9483 -0.2042
4 32 8 -0.8373 -0.1859
4 32 9 0.3695 -0.2374
4 32 10 2.2602 -0.5850
4 32 11 0.4059 0.1366
4 34 0 -0.9612 0.4563
4 34 1 0.2797 0.2979
4 34 2 2.0056 0.4121
4 34 3 1.6458 -0.2387
4 34 4 2.2200 -0.4303
4 34 5 0.0716 0.1625
4 34 6 0.3454 -0.7534
4 34 7 1.1093 -1.4802
4 34 8 0.2482 -0.1880
4 36 0 2.7368 1.0160
4 36 1 2.3051 0.9579
4 36 2 -1.7604 0.3321
4 36 3 1.5671 -0.1839
4 36 4 0.2473 -2.0060
5 1 0 -10.9861 2.7750
5 1 1 8.5200 3.1278
5 1 2 11.4398 2.2876
5 1 3 -23.9350 1.3792
5 1 4 -56.2884 1.2669
5 1 5 16.7851 0.4448
5 1 6 -4.5818 -0.9626
5 1 7 -39.3449 -1.3294
5 1 8 -16.2579 -0.6124
5 1 9 8.0333 -0.2305
5 1 10 -18.0032 -0.1202
5 1 11 -4.2247 0.2720
5 1 12 10.2501 0.7007
5 1 13 -1.7993 0.4417
5 1 14 1.5659 0.0422
5 1 15 4.8367 -0.5027
5 1 16 8.9796 -0.6255
5 1 17 2.7971 -0.2506
5 1 18 -1.2986 0.4785
5 1 19 -1.5071 0.5298
5 1 20 7.6196 -0.0233
5 1 21 -2.8827 -0.2434
5 1 22 -2.4140 -0.0279
5 1 23 3.2123 -0.4983
5 3 0 -29.2568 -0.2320
5 3 1 -6.3571 1.3532
5 3 2 -108.7202 0.7900
5 3 3 70.4376 0.5388
5 3 4 34.2525 0.5112
5 3 5 -75.5413 -0.2553
5 3 6 15.6931 -1.0616
5 3 7 57.9598 -0.7109
5 3 8 -4.9571 0.1056
5 3 9 4.9318 -0.1365
5 3 10 -5.3428 -0.5076
5 3 11 23.7845 0.1422
5 3 12 17.0805 0.8591
5 3 13 -13.4067 0.4606
5 3 14 -1.9535 -0.3460
5 3 15 8.7245 -0.3922
5 3 16 -0.1988 0.0302
5 3 17 -5.9455 0.0874
5 3 18 -4.0176 0.0830
5 3 19 -2.3827 0.2971
5 3 20 -3.4701 0.2365
5 3 21 -1.6726 -0.2611
5 3 22 -2.7192 -0.2946
5 3 23 -0.3071 0.0046
5 5 0 -27.0989 0.1040
5 5 1 -55.4087 -0.4546
5 5 2 47.0624 -0.3264
5 5 3 -33.1324 0.0084
5 5 4 13.1605 -0.1506
5 5 5 23.0585 -0.3699
5 5 6 19.5317 -0.3662
5 5 7 8.9121 -0.1257
5 5 8 14.0460 -0.0238
5 5 9 14.7916 0.1074
5 5 10 13.4707 0.0597
5 5 11 0.3853 0.0326
5 5 12 -5.7877 0.0272
5 5 13 4.0317 0.1778
5 5 14 -8.4400 0.0468
5 5 15 -8.4809 -0.1236
5 5 16 -1.3892 -0.2111
5 5 17 -0.1745 0.2127
5 5 18 -8.2716 0.2221
5 5 19 -1.8193 -0.0580
5 5 20 -2.9309 -0.1486
5 5 21 6.1159 0.0215
5 5 22 -10.8506 -0.1045
5 5 23 0.7840 0.2085
5 7 0 50.5516 0.2389
5 7 1 23.7252 -0.2259
5 7 2 3.7419 -0.1119
5 7 3 29.5281 -0.1392
5 7 4 -25.7283 0.0809
5 7 5 25.0255 0.0765
5 7 6 3.4904 0.1028
5 7 7 -15.8543 0.2530
5 7 8 -24.9987 0.2578
5 7 9 -14.8292 0.2142
5 7 10 21.6953 0.2920
5 7 11 -23.2831 0.0066
5 7 12 -28.9597 -0.2932
5 7 13 -3.9521 -0.2225
5 7 14 7.5778 0.0474
5 7 15 -17.4675 0.0066
5 7 16 -6.7898 0.0224
5 7 17 10.9671 -0.0012
5 7 18 5.3581 0.0365
5 7 19 -1.1146 -0.1506
5 7 20 2.8616 -0.2347
5 7 21 4.5757 -0.0487
5 7 22 -0.2343 0.0136
5 7 23 -1.1755 -0.1539
5 9 0 30.8919 -0.2503
5 9 1 46.9416 0.3833
5 9 2 46.5255 0.0131
5 9 3 -15.1342 -0.1447
5 9 4 6.3417 -0.1452
5 9 5 23.6468 0.2073
5 9 6 -32.9189 0.4550
5 9 7 -34.5172 0.2871
5 9 8 -11.1861 0.0603
5 9 9 -6.9622 0.0173
5 9 10 -27.3930 0.0628
5 9 11 -12.9721 -0.0109
5 9 12 2.3600 -0.2172
5 9 13 -7.9889 -0.3647
5 9 14 -12.9468 -0.1052
5 9 15 5.8985 0.2159
5 9 16 7.8859 0.3793
5 9 17 -0.1665 0.0880
5 9 18 2.3937 -0.2038
5 9 19 14.7622 -0.1118
5 9 20 -0.1369 0.0904
5 9 21 -2.2859 -0.1370
5 9 22 4.2666 -0.0486
5 9 23 3.3073 -0.1961
5 11 0 24.7221 0.1515
5 11 1 -2.4758 -0.4587
5 11 2 1.9917 -0.2248
5 11 3 32.2502 -0.0077
5 11 4 5.0018 -0.0414
5 11 5 -3.5242 -0.1050
5 11 6 -2.1661 0.0138
5 11 7 2.9389 0.0323
5 11 8 4.4487 -0.0778
5 11 9 0.2602 -0.1833
5 11 10 -11.0139 -0.2542
5 11 11 12.8708 -0.1969
5 11 12 14.2511 -0.1005
5 11 13 -5.5623 0.0605
5 11 14 -4.2076 0.1048
5 11 15 7.0120 0.1165
5 11 16 9.9044 -0.0097
5 11 17 -3.5505 0.1236
5 11 18 -4.9240 0.1005
5 11 19 3.8380 -0.0101
5 11 20 1.7041 -0.1246
5 11 21 1.0393 0.0056
5 11 22 -4.3369 0.4087
5 13 0 5.3610 -0.1888
5 13 1 -35.1645 0.1147
5 13 2 -16.0523 0.0908
5 13 3 23.7002 -0.1203
5 13 4 7.9252 0.0230
5 13 5 -1.0986 0.0621
5 13 6 6.7580 -0.0844
5 13 7 27.1851 -0.1968
5 13 8 24.0600 -0.1311
5 13 9 1.6396 -0.0373
5 13 10 6.5986 -0.0281
5 13 11 16.6906 -0.0704
5 13 12 14.6462 0.1176
5 13 13 -4.2752 0.3296
5 13 14 0.1008 0.0083
5 13 15 7.1628 -0.1716
5 13 16 -5.7752 -0.1363
5 13 17 -1.3050 -0.2317
5 13 18 -2.7665 -0.2946
5 13 19 -4.1753 -0.0012
5 13 20 -2.7873 0.3110
5 13 21 -0.1261 0.3904
5 13 22 1.9365 -0.6679
5 15 0 -30.8822 -0.0012
5 15 1 -22.9563 0.2828
5 15 2 8.4011 0.2724
5 15 3 5.9879 0.2399
5 15 4 -16.5425 -0.0452
5 15 5 -9.8589 0.0437
5 15 6 32.7537 0.0170
5 15 7 4.5499 0.0062
5 15 8 -19.2346 -0.0507
5 15 9 17.8826 0.0167
5 15 10 17.6030 0.1179
5 15 11 -14.1956 0.2471
5 15 12 -8.0649 0.2627
5 15 13 12.7781 0.0856
5 15 14 6.1947 0.1005
5 15 15 -12.0695 -0.2266
5 15 16 -1.1989 -0.2887
5 15 17 2.9870 -0.1188
5 15 18 1.7168 -0.0049
5 15 19 -6.4014 -0.1338
5 15 20 1.5901 0.1013
5 15 21 1.2803 0.5387
5 17 0 3.4979 0.1572
5 17 1 15.0678 -0.1088
5 17 2 -3.0934 -0.0704
5 17 3 -14.9703 0.0179
5 17 4 5.3306 0.2689
5 17 5 1.1595 0.0105
5 17 6 -12.3355 -0.2390
5 17 7 -4.7526 -0.2174
5 17 8 -6.0579 0.0833
5 17 9 -6.6382 0.1659
5 17 10 -5.0992 -0.0256
5 17 11 -4.1733 -0.1799
5 17 12 -6.5071 0.0421
5 17 13 -4.6321 0.3249
5 17 14 6.5434 0.1202
5 17 15 2.1631 -0.2240
5 17 16 -2.8512 0.0113
5 17 17 3.9930 0.2854
5 17 18 2.3300 0.1308
5 17 19 0.6742 0.0349
5 17 20 5.1489 0.3507
5 17 21 -3.9045 -0.0899
5 19 0 15.0766 -0.2245
5 19 1 -1.1922 -0.0252
5 19 2 4.8189 -0.0467
5 19 3 -8.5925 -0.0790
5 19 4 12.2559 -0.0641
5 19 5 5.6106 -0.0377
5 19 6 -12.0526 -0.0098
5 19 7 -5.4279 -0.0686
5 19 8 9.5824 -0.0500
5 19 9 -7.7617 -0.0087
5 19 10 -9.3552 0.0988
5 19 11 -0.8086 -0.0141
5 19 12 3.4667 -0.3172
5 19 13 -4.1048 -0.2153
5 19 14 -3.4542 0.1954
5 19 15 4.2652 0.4408
5 19 16 5.4052 -0.3733
5 19 17 -0.9433 -0.3331
5 19 18 -1.5326 0.4713
5 19 19 4.8121 0.3860
5 19 20 1.6317 -0.5055
5 21 0 -9.8288 0.0763
5 21 1 9.2310 0.0435
5 21 2 5.1248 0.0489
5 21 3 -7.4295 0.0190
5 21 4 5.6782 -0.0708
5 21 5 14.8427 0.0134
5 21 6 -0.7621 0.0586
5 21 7 0.0678 0.1567
5 21 8 8.8876 0.1702
5 21 9 0.3519 0.1303
5 21 10 0.2315 -0.0534
5 21 11 -0.2420 0.0146
5 21 12 1.7458 -0.0198
5 21 13 -2.8848 -0.1760
5 21 14 -1.9396 -0.2466
5 21 15 0.2512 -0.0613
5 21 16 -1.2113 0.2036
5 21 17 1.4626 -0.3758
5 21 18 -4.7430 -0.6661
5 21 19 3.1890 0.9114
5 23 0 2.6951 0.2056
5 23 1 -3.1189 0.2089
5 23 2 -1.4362 0.0583
5 23 3 9.2379 -0.0722
5 23 4 -4.0467 0.0397
5 23 5 -6.6152 0.1394
5 23 6 13.9752 -0.0075
5 23 7 2.8506 -0.0456
5 23 8 -10.7217 -0.0037
5 23 9 3.3412 -0.0292
5 23 10 6.0849 0.0573
5 23 11 -5.5172 -0.0414
5 23 12 -1.1080 0.0887
5 23 13 -2.3006 -0.0276
5 23 14 -2.3364 0.0652
5 23 15 1.6829 -0.0592
5 23 16 -5.3213 0.3077
5 23 17 1.5151 0.2017
5 23 18 -2.6580 -0.7535
5 25 0 4.8999 0.0015
5 25 1 -7.9259 0.0116
5 25 2 -3.7791 0.0368
5 25 3 10.1681 0.0945
5 25 4 -6.5766 -0.0086
5 25 5 -7.1439 -0.1488
5 25 6 -0.4667 -0.1250
5 25 7 -1.6155 -0.0357
5 25 8 -0.9693 -0.1405
5 25 9 -9.5769 -0.2873
5 25 10 1.0003 -0.1830
5 25 11 -3.1872 0.3907
5 25 12 -0.7713 0.3349
5 25 13 -2.6527 -0.1269
5 25 14 -3.4207 -0.0642
5 25 15 2.3499 0.8331
5 25 16 -2.7937 0.1428
5 25 17 3.4773 -0.1983
5 27 0 -3.9351 -0.1699
5 27 1 0.1189 -0.3114
5 27 2 2.1799 0.0562
5 27 3 -4.8725 0.0525
5 27 4 -0.1870 -0.0527
5 27 5 2.7613 -0.1115
5 27 6 -5.1720 0.1082
5 27 7 -3.6130 -0.1631
5 27 8 4.2165 0.0085
5 27 9 -2.0017 0.3231
5 27 10 -5.7880 0.0935
5 27 11 0.1280 -0.0688
5 27 12 0.9877 -0.0262
5 27 13 -2.2887 0.1481
5 27 14 -3.8227 -0.3352
5 27 15 0.9963 0.3447
5 29 0 -2.9058 -0.0774
5 29 1 1.9169 0.1907
5 29 2 -0.3948 -0.1135
5 29 3 -2.6187 -0.0920
5 29 4 3.3049 -0.0190
5 29 5 3.4667 0.1088
5 29 6 1.0998 0.0231
5 29 7 0.5951 0.2813
5 29 8 3.2359 0.1210
5 29 9 3.0751 -0.1946
5 29 10 -0.4438 0.3951
5 29 11 0.8506 -0.2625
5 29 12 -2.5693 -0.7729
5 29 13 3.3897 -0.8425
5 29 14 -4.1778 -0.0351
5 31 0 0.4731 0.6217
5 31 1 1.1619 0.1520
5 31 2 -2.9407 -0.3926
5 31 3 1.3491 -0.0564
5 31 4 0.8914 0.3127
5 31 5 2.9247 0.0605
5 31 6 0.6363 -0.5532
5 31 7 3.1050 -0.1008
5 31 8 1.8720 -0.0254
5 31 9 -1.5742 0.0291
5 31 10 4.0851 -1.0942
5 31 11 3.0621 -0.3836
5 31 12 -3.7234 -0.3916
5 33 0 -2.8361 0.0720
5 33 1 1.1204 0.6633
5 33 2 0.5182 0.1813
5 33 3 -0.4748 -0.9047
5 33 4 -3.6267 -0.2322
5 33 5 3.0648 0.2921
5 33 6 -0.1629 -0.0540
5 33 7 -2.1394 -1.9950
5 33 8 -0.9369 -0.4078
5 33 9 2.5220 1.2370
5 35 0 -1.5225 -0.1508
5 35 1 -1.2715 -0.2277
5 35 2 -0.1078 0.8062
5 35 3 2.1864 0.3580
5 35 4 -2.2572 -1.7816
5 35 5 -3.1197 -1.0178
5 35 6 2.3443 1.7783
6 0 0 -6.8343 -7.6315
6 0 1 -59.1245 7.2422
6 0 2 -119.1318 6.4108
6 0 3 -84.1513 0.7287
6 0 4 86.8358 -0.8398
6 0 5 -97.9762 -0.7020
6 0 6 -65.3760 -0.6979
6 0 7 14.2638 -0.5554
6 0 8 14.0793 -0.0698
6 0 9 -6.1388 0.0393
6 0 10 -13.7681 0.3429
6 0 11 4.0857 0.5698
6 0 12 26.8977 0.0933
6 0 13 13.4660 -0.5915
6 0 14 -13.8506 -0.6360
6 0 15 6.2303 0.0927
6 0 16 11.7594 0.4140
6 0 17 7.3354 0.1200
6 0 18 -5.6559 -0.0011
6 0 19 2.6659 0.2965
6 0 20 4.6580 0.3219
6 0 21 4.6109 -0.1912
6 0 22 -5.8384 -0.7911
6 0 23 -2.6567 -1.0138
6 2 0 34.5160 0.3253
6 2 1 -53.6485 3.3553
6 2 2 -54.1497 2.2619
6 2 3 4.1978 0.7870
6 2 4 -35.4892 -0.0580
6 2 5 12.5676 -0.5358
6 2 6 -16.2633 -0.9352
6 2 7 -11.9627 -0.5454
6 2 8 8.4755 0.1225
6 2 9 4.8250 0.4446
6 2 10 -0.7174 0.4003
6 2 11 -4.9151 0.1726
6 2 12 7.4106 -0.2533
6 2 13 -0.6766 -0.4664
6 2 14 0.6698 -0.1326
6 2 15 -0.4923 0.1229
6 2 16 -2.1743 0.2150
6 2 17 -2.5507 0.1558
6 2 18 3.6183 0.1917
6 2 19 0.3278 0.2308
6 2 20 0.6661 0.0198
6 2 21 -1.4699 -0.1550
6 2 22 0.1941 -0.7601
6 2 23 0.4219 -0.1741
6 4 0 -58.6458 0.8269
6 4 1 8.8696 0.0193
6 4 2 95.7017 0.0189
6 4 3 4.4352 -0.2692
6 4 4 -33.7539 -0.5073
6 4 5 41.9470 -0.3467
6 4 6 64.0928 0.0038
6 4 7 -6.0137 -0.2132
6 4 8 -12.1229 -0.3348
6 4 9 7.3872 0.2413
6 4 10 13.0717 0.4900
6 4 11 -13.9380 -0.0626
6 4 12 -18.7643 -0.5663
6 4 13 -8.3748 -0.3019
6 4 14 3.0100 0.2244
6 4 15 -10.9168 0.3455
6 4 16 -15.8752 0.1037
6 4 17 2.7565 0.0958
6 4 18 -1.0887 0.2574
6 4 19 -4.3847 0.1853
6 4 20 -0.1800 0.0372
6 4 21 2.0784 -0.4894
6 4 22 -4.1848 0.6577
6 4 23 3.8836 -0.5327
6 6 0 -38.6254 -0.3223
6 6 1 20.7656 -0.2164
6 6 2 52.2233 -0.4940
6 6 3 42.7434 -0.4562
6 6 4 1.9569 -0.1090
6 6 5 4.5136 0.1003
6 6 6 15.2045 0.0481
6 6 7 42.8065 0.1375
6 6 8 -5.1226 0.1423
6 6 9 -22.3358 -0.0621
6 6 10 -5.7773 -0.1586
6 6 11 15.3767 -0.1611
6 6 12 -16.5722 -0.0518
6 6 13 -15.6915 -0.0002
6 6 14 -0.0050 -0.1459
6 6 15 -4.9908 0.0966
6 6 16 1.1624 0.3164
6 6 17 -4.9982 0.1449
6 6 18 1.6804 -0.3689
6 6 19 1.2454 -0.2267
6 6 20 0.4989 0.1327
6 6 21 -2.0361 0.7515
6 6 22 1.5724 -1.1019
6 6 23 0.3551 1.1645
6 8 0 22.6034 0.2047
6 8 1 5.3366 -0.1153
6 8 2 -3.2729 -0.0765
6 8 3 17.9204 0.1837
6 8 4 -19.4057 0.1001
6 8 5 21.9848 0.1231
6 8 6 -24.8738 0.3787
6 8 7 -14.3973 0.3974
6 8 8 21.3318 0.0605
6 8 9 -0.9077 -0.1687
6 8 10 -22.4870 -0.1024
6 8 11 4.4684 0.0380
6 8 12 13.9555 -0.0189
6 8 13 4.6399 -0.0909
6 8 14 -11.1051 0.1718
6 8 15 4.3338 0.1104
6 8 16 18.5774 -0.0095
6 8 17 -2.5585 -0.3584
6 8 18 -3.2719 -0.1417
6 8 19 6.9049 0.0342
6 8 20 4.5573 -0.0201
6 8 21 -2.9590 -0.6815
6 8 22 -2.0726 0.5504
6 10 0 70.2075 -0.0340
6 10 1 7.2904 -0.1101
6 10 2 -29.5595 -0.1417
6 10 3 -2.8515 0.0079
6 10 4 15.9701 0.2754
6 10 5 -9.0627 0.1618
6 10 6 -13.7581 0.0237
6 10 7 -0.3051 0.0561
6 10 8 6.5368 0.1624
6 10 9 -7.1889 -0.0288
6 10 10 11.6247 -0.2317
6 10 11 -1.7209 -0.1221
6 10 12 4.6285 0.2144
6 10 13 11.0698 0.2960
6 10 14 2.8779 0.0348
6 10 15 0.8837 -0.0249
6 10 16 4.6546 0.0333
6 10 17 3.4813 0.1758
6 10 18 2.5856 -0.0453
6 10 19 -4.6737 -0.1391
6 10 20 5.3793 0.0131
6 10 21 0.2197 0.0595
6 10 22 -1.7674 -0.0073
6 12 0 -22.0384 -0.3386
6 12 1 23.1657 -0.2279
6 12 2 3.6166 0.0377
6 12 3 0.7612 0.0208
6 12 4 3.7243 -0.0836
6 12 5 16.8176 -0.0656
6 12 6 9.2602 -0.0548
6 12 7 6.8881 -0.1235
6 12 8 1.3797 -0.1973
6 12 9 4.4819 -0.0580
6 12 10 11.0673 -0.0066
6 12 11 -1.0251 0.0306
6 12 12 -3.0463 0.0464
6 12 13 2.5348 0.0269
6 12 14 5.1012 -0.0067
6 12 15 -4.3648 0.1203
6 12 16 -4.0521 -0.1055
6 12 17 0.2761 -0.1543
6 12 18 0.4243 0.2317
6 12 19 0.0536 0.4725
6 12 20 -1.9871 -0.1514
6 12 21 2.9017 -0.2772
6 14 0 -9.0957 0.0873
6 14 1 -19.5621 0.1132
6 14 2 -5.0182 0.1525
6 14 3 14.3145 0.1038
6 14 4 0.7952 -0.0436
6 14 5 -5.0810 -0.0430
6 14 6 26.8781 -0.1666
6 14 7 -3.2646 -0.2646
6 14 8 -1.7115 -0.0701
6 14 9 10.9634 0.1071
6 14 10 2.6820 0.1186
6 14 11 0.6780 0.0320
6 14 12 -1.2550 0.0043
6 14 13 -1.0739 -0.0045
6 14 14 4.0206 -0.2508
6 14 15 -1.4641 -0.4329
6 14 16 -3.6343 0.0521
6 14 17 0.4152 0.1238
6 14 18 1.3485 -0.2166
6 14 19 -0.2283 -0.1795
6 14 20 0.8669 0.4640
6 14 21 2.5736 0.5777
6 16 0 -7.4116 0.0098
6 16 1 -33.8245 0.3217
6 16 2 -3.5895 0.1682
6 16 3 -7.8482 0.0281
6 16 4 -4.9357 0.0108
6 16 5 -7.8476 -0.0327
6 16 6 -9.4729 -0.0535
6 16 7 -0.9320 -0.0482
6 16 8 -0.6305 -0.1019
6 16 9 -0.6497 0.0191
6 16 10 -3.4075 0.3023
6 16 11 5.5083 0.1965
6 16 12 4.5365 -0.0453
6 16 13 3.9520 -0.2280
6 16 14 -0.4352 0.0929
6 16 15 4.1022 0.0990
6 16 16 4.1918 -0.1197
6 16 17 1.8683 -0.0528
6 16 18 1.3041 0.2941
6 16 19 -0.1431 0.0626
6 16 20 1.9974 -0.7417
6 18 0 -22.5067 0.0246
6 18 1 10.9034 -0.0852
6 18 2 11.8135 -0.0092
6 18 3 -29.4386 -0.0141
6 18 4 2.5677 0.0314
6 18 5 -3.9799 0.0149
6 18 6 -7.8556 0.0453
6 18 7 -8.7593 0.0409
6 18 8 -5.2834 -0.0640
6 18 9 -5.4472 0.0241
6 18 10 -1.5561 0.0203
6 18 11 0.2781 0.0497
6 18 12 -0.5918 -0.0352
6 18 13 1.2492 0.1202
6 18 14 3.2298 0.0182
6 18 15 -1.2314 0.2202
6 18 16 4.5704 0.3056
6 18 17 3.0823 0.2596
6 18 18 -1.7823 -0.1773
6 18 19 2.0234 -0.1473
6 18 20 1.1398 0.7360
6 20 0 -0.4490 -0.0465
6 20 1 24.7331 0.0226
6 20 2 3.5210 -0.0897
6 20 3 -1.2329 -0.1359
6 20 4 16.4384 0.0146
6 20 5 -4.0862 0.1185
6 20 6 -5.3778 0.0998
6 20 7 4.9143 -0.0387
6 20 8 -1.1651 0.0907
6 20 9 -13.1953 -0.0160
6 20 10 -7.7650 -0.1434
6 20 11 2.2201 -0.2556
6 20 12 -5.6787 -0.2019
6 20 13 -6.8598 -0.0441
6 20 14 -4.2260 0.0213
6 20 15 0.0909 -0.1303
6 20 16 1.9144 -0.1208
6 20 17 -2.1244 0.1435
6 20 18 -0.6284 0.2108
6 20 19 1.9787 -0.6293
6 22 0 4.4647 -0.0817
6 22 1 -2.4762 0.1089
6 22 2 8.3383 0.0943
6 22 3 13.5362 -0.0698
6 22 4 5.0809 -0.2516
6 22 5 -3.5238 -0.0778
6 22 6 4.9875 0.1268
6 22 7 3.0624 0.1135
6 22 8 1.2656 -0.1859
6 22 9 -6.9573 -0.2018
6 22 10 -4.1098 -0.0199
6 22 11 -4.9256 -0.0757
6 22 12 -0.4332 -0.2040
6 22 13 -4.2423 -0.3804
6 22 14 -5.6688 -0.1243
6 22 15 0.7215 0.0504
6 22 16 -2.0915 0.1622
6 22 17 1.7200 -0.2012
6 22 18 0.1861 -1.0385
6 24 0 -2.1154 0.1978
6 24 1 -1.8976 -0.0607
6 24 2 -6.1488 -0.2318
6 24 3 0.8087 -0.0188
6 24 4 -1.3523 0.1371
6 24 5 0.4311 -0.0355
6 24 6 1.4251 -0.4490
6 24 7 -2.1461 -0.1535
6 24 8 1.4354 0.1216
6 24 9 4.3328 0.1259
6 24 10 -1.3119 -0.0812
6 24 11 -2.4111 -0.0701
6 24 12 1.3142 0.1503
6 24 13 2.7933 0.6351
6 24 14 1.2554 0.3785
6 24 15 -0.6590 -0.4923
6 24 16 -1.1375 0.0465
6 24 17 2.7318 2.3055
6 26 0 -6.8685 -0.0923
6 26 1 -1.4047 0.1211
6 26 2 -1.4898 0.0918
6 26 3 -4.6691 -0.2213
6 26 4 -6.4809 0.0389
6 26 5 2.1002 0.0486
6 26 6 2.9587 0.1121
6 26 7 -2.5784 -0.1759
6 26 8 -1.7477 0.0769
6 26 9 6.0060 0.2326
6 26 10 1.1677 0.1944
6 26 11 -0.0854 0.3591
6 26 12 1.3284 0.3516
6 26 13 1.3142 0.0488
6 26 14 3.3710 0.4364
6 26 15 -0.2552 1.0165
6 28 0 6.9586 -0.0153
6 28 1 -0.9164 -0.1405
6 28 2 1.5048 0.1092
6 28 3 2.5089 0.2811
6 28 4 -0.4982 -0.2423
6 28 5 1.2430 -0.2169
6 28 6 2.0080 0.2484
6 28 7 -0.8253 0.5217
6 28 8 1.8581 0.2346
6 28 9 -0.3196 -0.4559
6 28 10 -0.4718 -0.4523
6 28 11 -0.1627 0.2720
6 28 12 1.1780 0.5516
6 28 13 -3.1970 -0.5290
6 28 14 2.0457 -3.2755
6 30 0 5.9008 0.2413
6 30 1 5.0530 -0.1737
6 30 2 2.3869 -0.3229
6 30 3 0.0557 0.0162
6 30 4 3.1360 0.1970
6 30 5 7.6215 -0.0875
6 30 6 -5.1469 -0.4019
6 30 7 -0.3524 0.1145
6 30 8 5.8992 -0.1130
6 30 9 -1.9783 -0.2535
6 30 10 -3.7784 -0.7519
6 30 11 2.0312 -1.8167
6 30 12 -0.5069 0.1102
6 32 0 1.4040 -0.1637
6 32 1 -0.5173 0.1579
6 32 2 -0.1580 -0.0567
6 32 3 1.3600 -0.3080
6 32 4 2.1028 -0.4540
6 32 5 -2.7068 -0.0483
6 32 6 1.5261 0.4573
6 32 7 1.5719 -0.4932
6 32 8 -0.9209 -1.2731
6 32 9 0.3053 -0.8773
6 32 10 0.9276 2.0277
6 34 0 -3.3908 -0.1525
6 34 1 -2.5757 -0.0257
6 34 2 -0.8314 0.1726
6 34 3 1.7631 -0.6285
6 34 4 -4.6802 -0.0463
6 34 5 -1.9685 -0.0177
6 34 6 2.5725 -0.2949
6 34 7 -1.3127 1.0326
6 36 0 1.4696 -0.8411
6 36 1 -2.0970 -0.5859
6 36 2 -1.3209 1.9246
7 1 0 -37.8881 4.2039
7 1 1 -18.7690 0.5818
7 1 2 -51.2477 -0.8691
7 1 3 13.8205 0.2115
7 1 4 -26.9449 0.3993
7 1 5 -11.9352 -0.7033
7 1 6 20.9730 -0.6698
7 1 7 2.5875 0.3453
7 1 8 -9.7648 1.0067
7 1 9 4.7134 0.5996
7 1 10 11.5389 0.1159
7 1 11 -0.9714 -0.1913
7 1 12 -5.9586 -0.5404
7 1 13 1.8318 -0.4948
7 1 14 -3.2145 -0.3002
7 1 15 3.2849 -0.2141
7 1 16 -3.2044 0.3676
7 1 17 -1.6717 0.7038
7 1 18 3.6809 0.3109
7 1 19 0.3195 -0.6506
7 1 20 4.7569 -0.6144
7 1 21 -0.6312 0.0310
7 1 22 -1.0764 -0.0504
7 3 0 5.7724 0.6559
7 3 1 2.1464 0.0335
7 3 2 -2.8989 -0.4148
7 3 3 -12.3505 -0.2922
7 3 4 16.5237 0.0713
7 3 5 -2.3631 0.0297
7 3 6 -10.2684 -0.0128
7 3 7 -0.7032 0.4221
7 3 8 -8.8920 0.6255
7 3 9 -7.2571 0.3251
7 3 10 -13.0067 -0.2125
7 3 11 -2.7198 -0.3663
7 3 12 -15.1312 -0.2785
7 3 13 4.2700 -0.3299
7 3 14 -4.3632 -0.2831
7 3 15 -9.6094 0.1940
7 3 16 5.4633 0.3809
7 3 17 5.6930 0.3148
7 3 18 -5.1094 0.0776
7 3 19 -0.3873 -0.0777
7 3 20 5.6470 -0.4951
7 3 21 2.6530 -0.7379
7 3 22 1.6041 0.2596
7 5 0 27.9424 -0.0966
7 5 1 6.1070 -0.5259
7 5 2 13.3939 -0.5356
7 5 3 17.0696 -0.1605
7 5 4 25.1921 0.2236
7 5 5 0.6985 0.3565
7 5 6 -4.3251 0.1368
7 5 7 -4.9631 0.0156
7 5 8 2.3146 0.1086
7 5 9 -4.7796 0.1743
7 5 10 -12.8097 -0.3462
7 5 11 -14.9230 -0.6004
7 5 12 -1.2337 -0.0542
7 5 13 -2.8105 0.3250
7 5 14 -3.6066 0.1631
7 5 15 -2.5967 0.0213
7 5 16 -0.6047 0.2172
7 5 17 0.6802 0.3243
7 5 18 -0.2879 0.0746
7 5 19 0.7578 -0.1055
7 5 20 1.3182 -0.0874
7 5 21 -3.9211 0.1552
7 5 22 8.0196 -0.1908
7 7 0 40.8346 -0.2631
7 7 1 -19.7641 -0.0776
7 7 2 23.1790 0.1659
7 7 3 4.8545 0.1616
7 7 4 35.4236 -0.1571
7 7 5 10.9992 -0.0437
7 7 6 -13.7008 0.1976
7 7 7 34.2257 -0.0669
7 7 8 14.2233 -0.2636
7 7 9 -3.2162 -0.3808
7 7 10 10.2665 -0.1378
7 7 11 7.4403 -0.0114
7 7 12 -6.0418 0.0393
7 7 13 2.9221 0.1953
7 7 14 5.7518 0.1804
7 7 15 -3.2134 -0.0483
7 7 16 -4.2489 -0.0758
7 7 17 1.1867 -0.1403
7 7 18 -3.7227 0.0077
7 7 19 -0.3520 -0.1666
7 7 20 -3.0038 -0.0938
7 7 21 -0.8291 0.5126
7 7 22 -0.0671 0.4491
7 9 0 -38.6786 -0.2339
7 9 1 19.8184 0.1390
7 9 2 -9.7707 0.2504
7 9 3 20.7029 0.1051
7 9 4 -7.2542 0.0015
7 9 5 17.5523 -0.0869
7 9 6 15.8278 -0.1160
7 9 7 14.4537 -0.0388
7 9 8 11.8590 -0.1093
7 9 9 16.5299 -0.0783
7 9 10 15.1498 -0.0014
7 9 11 4.5962 0.1457
7 9 12 6.3637 0.1824
7 9 13 6.7241 0.0830
7 9 14 1.5501 0.0512
7 9 15 -1.5299 -0.0052
7 9 16 1.0883 -0.2129
7 9 17 -2.0508 -0.2594
7 9 18 -2.6300 -0.2861
7 9 19 -4.5558 0.1810
7 9 20 -1.3034 0.2433
7 9 21 2.5669 -0.7487
7 11 0 10.4418 0.0258
7 11 1 11.2189 0.0045
7 11 2 -21.6083 0.0145
7 11 3 -1.6712 -0.0701
7 11 4 -0.7171 0.0794
7 11 5 16.0414 0.1174
7 11 6 -1.8800 0.0504
7 11 7 -11.3653 -0.0244
7 11 8 8.2214 -0.0728
7 11 9 16.6084 0.1297
7 11 10 -7.2339 0.2609
7 11 11 -5.7561 0.2181
7 11 12 10.2400 -0.0180
7 11 13 7.6703 -0.0179
7 11 14 -9.0353 0.1409
7 11 15 4.7189 0.1607
7 11 16 4.6372 -0.1485
7 11 17 -4.2252 -0.0148
7 11 18 0.7710 0.3221
7 11 19 2.4161 -0.1303
7 11 20 -1.0704 -0.2702
7 11 21 0.1449 0.6487
7 13 0 -0.1553 -0.0663
7 13 1 -17.8776 0.0336
7 13 2 0.0536 0.0690
7 13 3 6.2049 0.0246
7 13 4 -16.8271 -0.0906
7 13 5 -12.1041 -0.0091
7 13 6 7.6804 0.0993
7 13 7 -1.2621 -0.0285
7 13 8 -19.3976 0.0536
7 13 9 -1.8882 -0.0126
7 13 10 5.0394 0.0546
7 13 11 -8.8259 0.0695
7 13 12 -3.0260 0.0434
7 13 13 5.0534 -0.2356
7 13 14 -0.6781 -0.2740
7 13 15 0.9549 0.0423
7 13 16 3.0737 0.2673
7 13 17 0.8187 -0.0601
7 13 18 4.0358 -0.0164
7 13 19 0.5715 0.4203
7 13 20 0.1494 -0.1210
7 13 21 6.7388 -0.6269
7 15 0 -27.7609 0.1608
7 15 1 -4.0115 0.0632
7 15 2 -6.0886 -0.0551
7 15 3 1.6692 0.0451
7 15 4 -13.1344 -0.0796
7 15 5 -10.6722 -0.1309
7 15 6 0.3879 -0.1516
7 15 7 4.3814 0.0491
7 15 8 2.0204 0.0024
7 15 9 -10.3986 0.0103
7 15 10 -1.4808 -0.0793
7 15 11 12.3933 -0.1333
7 15 12 1.4023 -0.1702
7 15 13 -7.0873 -0.0722
7 15 14 2.6569 -0.1276
7 15 15 5.5911 -0.3369
7 15 16 -0.3537 -0.0476
7 15 17 -0.1908 0.3489
7 15 18 -2.4608 -0.0881
7 15 19 6.2480 -0.3342
7 15 20 -0.6091 0.6401
7 17 0 -3.0310 0.1138
7 17 1 -11.6890 0.0865
7 17 2 -6.6292 -0.0427
7 17 3 -5.7119 -0.1970
7 17 4 5.5205 0.0227
7 17 5 -11.6246 0.0754
7 17 6 -5.4773 -0.0015
7 17 7 10.3235 -0.0909
7 17 8 2.1306 0.0216
7 17 9 -6.5705 0.0901
7 17 10 4.5768 -0.0484
7 17 11 7.8551 -0.1191
7 17 12 -2.1366 0.0704
7 17 13 -0.6562 0.1422
7 17 14 2.9574 0.0535
7 17 15 -4.8610 0.1196
7 17 16 3.3902 0.0400
7 17 17 -3.9029 0.0211
7 17 18 0.3119 0.4098
7 17 19 -0.6665 -0.1136
7 19 0 -3.7428 -0.0264
7 19 1 1.7755 -0.1073
7 19 2 11.3442 -0.0410
7 19 3 -18.9733 0.0721
7 19 4 -0.5488 0.0922
7 19 5 11.8600 0.0208
7 19 6 -12.1241 0.1493
7 19 7 -18.9027 0.1211
7 19 8 8.1205 -0.0295
7 19 9 0.7820 -0.0875
7 19 10 -9.5658 0.0357
7 19 11 -8.7849 0.0309
7 19 12 3.8680 0.0944
7 19 13 1.6201 0.2339
7 19 14 -6.0954 0.0401
7 19 15 -4.2297 -0.0095
7 19 16 3.7953 0.4118
7 19 17 -1.7107 0.3606
7 19 18 1.7939 -0.6218
7 21 0 12.2305 0.0291
7 21 1 6.3939 -0.0955
7 21 2 -1.2810 -0.1056
7 21 3 -4.7111 0.0777
7 21 4 4.5266 0.0545
7 21 5 -2.8500 0.0724
7 21 6 -7.0244 -0.0294
7 21 7 -9.9039 -0.0502
7 21 8 -6.5300 0.0422
7 21 9 0.5538 0.0118
7 21 10 -7.5051 -0.2263
7 21 11 -7.9919 -0.0973
7 21 12 -1.1252 0.0129
7 21 13 -0.8490 -0.1084
7 21 14 0.5147 -0.0707
7 21 15 -0.5831 -0.0059
7 21 16 -1.2218 -0.2513
7 21 17 3.0289 0.0553
7 21 18 2.3768 0.4484
7 23 0 -1.9646 -0.1646
7 23 1 3.2293 0.0857
7 23 2 -2.8716 0.0511
7 23 3 4.4470 -0.1006
7 23 4 0.7727 -0.0728
7 23 5 0.0468 -0.0064
7 23 6 -0.0874 -0.0404
7 23 7 2.8421 -0.0537
7 23 8 -0.1386 -0.0738
7 23 9 -2.6862 -0.0943
7 23 10 1.5385 0.0458
7 23 11 3.9802 -0.2390
7 23 12 -2.9718 -0.1006
7 23 13 -0.7130 0.2777
7 23 14 2.8145 0.1571
7 23 15 3.7687 -0.4658
7 23 16 -0.1443 0.0885
7 25 0 -4.7742 0.0288
7 25 1 -11.3324 -0.0692
7 25 2 7.1631 -0.0628
7 25 3 9.7883 0.1746
7 25 4 -6.5858 0.1351
7 25 5 -0.2181 -0.1218
7 25 6 17.6324 0.0026
7 25 7 3.1438 0.2118
7 25 8 -3.9949 -0.0948
7 25 9 9.0135 -0.0371
7 25 10 7.1017 0.0621
7 25 11 -0.6548 0.2885
7 25 12 0.2738 0.1445
7 25 13 2.9206 0.1541
7 25 14 0.1264 0.2501
7 25 15 1.3543 0.4964
7 27 0 2.5962 0.0668
7 27 1 2.5405 0.0062
7 27 2 -2.3637 0.1088
7 27 3 0.4529 -0.0769
7 27 4 1.8620 0.1433
7 27 5 2.0541 0.3028
7 27 6 2.5528 -0.0617
7 27 7 -1.1220 -0.2248
7 27 8 3.8067 0.3777
7 27 9 2.2558 0.1432
7 27 10 3.8552 -0.2778
7 27 11 -3.8214 0.0265
7 27 12 0.8993 0.0975
7 27 13 3.0421 -0.0939
7 27 14 -2.3573 -0.0138
7 29 0 3.5461 0.1901
7 29 1 5.9875 0.2145
7 29 2 -0.1891 -0.0290
7 29 3 -4.1230 -0.1087
7 29 4 -3.1378 -0.0915
7 29 5 3.5651 -0.0457
7 29 6 -5.1039 0.2903
7 29 7 -6.3796 -0.1712
7 29 8 4.6541 -0.4769
7 29 9 -2.4175 -0.0957
7 29 10 -1.4760 0.2351
7 29 11 -1.0744 -1.2103
7 29 12 0.7918 -1.0028
7 31 0 -0.0817 0.0326
7 31 1 1.5768 0.0882
7 31 2 1.1058 -0.0456
7 31 3 1.2126 0.2529
7 31 4 -4.4950 -0.2047
7 31 5 0.9503 0.0284
7 31 6 -1.7515 -0.1712
7 31 7 -2.3012 0.4595
7 31 8 -0.8345 -0.6115
7 31 9 0.7559 -0.9723
7 31 10 -3.5663 -0.1834
7 33 0 -1.2366 0.0135
7 33 1 -2.4679 -0.4261
7 33 2 0.5804 -0.1041
7 33 3 4.3141 0.1778
7 33 4 0.3080 1.2646
7 33 5 -2.0485 -0.3404
7 33 6 1.2306 -0.6602
7 33 7 1.7173 1.0928
7 35 0 -0.6403 -0.2706
7 35 1 -0.4076 0.6644
7 35 2 -0.9345 -0.3545
7 35 3 2.1150 -0.5698
8 0 0 34.7165 6.0551
8 0 1 86.5490 -1.0026
8 0 2 -51.6000 -4.3348
8 0 3 50.2933 -1.6611
8 0 4 -8.7459 0.0177
8 0 5 16.7544 -0.0088
8 0 6 29.7687 0.3745
8 0 7 -31.5646 0.8470
8 0 8 -8.2802 0.7781
8 0 9 0.5035 -0.0428
8 0 10 -0.4306 -0.2652
8 0 11 -24.3423 -0.3291
8 0 12 -13.0676 -0.3899
8 0 13 5.2812 -0.1794
8 0 14 -9.3981 0.1829
8 0 15 -12.8226 0.3084
8 0 16 11.2781 -0.0205
8 0 17 -1.1619 -0.1136
8 0 18 -2.7061 0.1723
8 0 19 4.4250 -0.0869
8 0 20 3.6621 -0.3971
8 0 21 0.6019 0.4473
8 0 22 -0.0198 1.0405
8 2 0 -25.3166 0.0615
8 2 1 36.8448 -0.6376
8 2 2 11.7203 -0.9720
8 2 3 -37.4791 -1.5103
8 2 4 39.7186 -0.7323
8 2 5 -8.6714 0.4186
8 2 6 -10.5050 1.1195
8 2 7 -7.4973 0.8731
8 2 8 -3.0441 0.1054
8 2 9 0.9590 -0.2331
8 2 10 -17.0932 -0.3577
8 2 11 -9.9611 -0.2694
8 2 12 7.4853 -0.4373
8 2 13 -2.9139 -0.3018
8 2 14 -8.5791 -0.0039
8 2 15 5.0846 0.2427
8 2 16 -0.1152 0.0830
8 2 17 3.6771 -0.3181
8 2 18 0.9958 -0.5331
8 2 19 1.5820 -0.0244
8 2 20 0.4696 0.2274
8 2 21 3.0350 -0.4837
8 2 22 0.4551 -1.4985
8 4 0 18.7271 -0.9424
8 4 1 -87.1482 0.3016
8 4 2 -14.1039 0.3860
8 4 3 52.4111 -0.5248
8 4 4 -22.9859 -0.1840
8 4 5 -39.1127 1.1087
8 4 6 -7.4331 1.1916
8 4 7 28.2567 0.3011
8 4 8 -11.5074 -0.3153
8 4 9 -20.7191 -0.2246
8 4 10 4.7029 -0.1206
8 4 11 15.6123 -0.2666
8 4 12 2.7613 -0.1183
8 4 13 -8.9616 0.0801
8 4 14 11.4300 0.2762
8 4 15 6.9674 0.2385
8 4 16 -1.9302 -0.0653
8 4 17 0.1822 0.0469
8 4 18 2.5580 -0.0242
8 4 19 1.2908 -0.6191
8 4 20 0.3850 -0.3135
8 4 21 -2.5236 1.6991
8 6 0 -8.3225 -0.1228
8 6 1 -42.6413 0.0454
8 6 2 44.0833 0.1816
8 6 3 0.7883 0.5311
8 6 4 -29.7138 0.3140
8 6 5 25.8210 0.1089
8 6 6 35.6586 0.1013
8 6 7 -21.9662 -0.0750
8 6 8 9.4942 -0.2205
8 6 9 10.1108 -0.3559
8 6 10 6.3100 -0.1745
8 6 11 8.2745 0.2143
8 6 12 -6.7052 0.2996
8 6 13 3.7044 0.0203
8 6 14 5.1339 0.1146
8 6 15 -6.7751 0.2981
8 6 16 -1.7041 0.2238
8 6 17 1.6514 -0.5529
8 6 18 -4.4427 -0.1983
8 6 19 -1.7194 0.7207
8 6 20 -0.1984 0.4134
8 6 21 2.7231 -1.5454
8 8 0 25.2050 0.2320
8 8 1 1.9114 -0.1663
8 8 2 48.2435 -0.1060
8 8 3 -26.2102 0.1364
8 8 4 23.8279 0.0182
8 8 5 50.6149 -0.3451
8 8 6 16.3542 -0.5783
8 8 7 -0.2997 -0.4372
8 8 8 12.9416 -0.1967
8 8 9 14.0606 0.0425
8 8 10 10.7626 0.1459
8 8 11 -7.5839 0.0459
8 8 12 -3.8361 -0.0212
8 8 13 4.7350 0.1913
8 8 14 -8.3749 0.0315
8 8 15 -5.9658 -0.3704
8 8 16 -6.1670 -0.4440
8 8 17 -3.6410 0.3427
8 8 18 0.4067 0.1772
8 8 19 -2.8191 -0.5342
8 8 20 -1.2334 -0.3856
8 8 21 -1.1179 1.8593
8 10 0 6.3884 -0.0245
8 10 1 6.0324 -0.1845
8 10 2 -11.8815 0.0261
8 10 3 8.2289 0.0038
8 10 4 18.6767 -0.0914
8 10 5 10.9899 -0.3115
8 10 6 -6.9312 -0.2342
8 10 7 21.6631 0.0104
8 10 8 -1.8643 0.1284
8 10 9 0.9653 0.0670
8 10 10 5.4458 0.1095
8 10 11 -1.5409 0.2784
8 10 12 0.8333 0.0967
8 10 13 2.6012 -0.2255
8 10 14 -4.0998 -0.2565
8 10 15 -3.5677 0.1292
8 10 16 0.7956 0.1680
8 10 17 1.6824 -0.3032
8 10 18 -3.9158 -0.2068
8 10 19 0.8485 0.2827
8 10 20 0.2985 0.5532
8 10 21 0.8467 -2.2406
8 12 0 -21.4098 0.0663
8 12 1 -17.1087 0.2144
8 12 2 -26.3021 -0.0071
8 12 3 -5.0979 -0.0607
8 12 4 -0.1810 0.2100
8 12 5 -24.7492 0.2016
8 12 6 -13.4623 0.0096
8 12 7 -2.1354 0.1073
8 12 8 9.4577 0.2805
8 12 9 -8.6559 0.2935
8 12 10 -18.3626 0.0287
8 12 11 15.8009 -0.1885
8 12 12 12.3254 0.0289
8 12 13 -4.8742 0.0733
8 12 14 -5.5506 0.0625
8 12 15 14.6064 -0.0953
8 12 16 4.4845 0.1745
8 12 17 -3.0814 0.3373
8 12 18 2.3962 -0.4153
8 12 19 1.0531 -0.5079
8 12 20 -1.8051 1.2780
8 14 0 -4.5051 0.0819
8 14 1 -42.2246 0.0903
8 14 2 -17.1162 0.0382
8 14 3 18.9527 0.0364
8 14 4 -28.8598 -0.1982
8 14 5 -20.8578 0.0801
8 14 6 1.4314 0.2620
8 14 7 -6.0672 0.0206
8 14 8 -5.9867 0.0112
8 14 9 -2.4938 -0.0015
8 14 10 0.4125 -0.1131
8 14 11 -5.5184 -0.2210
8 14 12 1.9922 -0.2654
8 14 13 3.8526 -0.0693
8 14 14 1.1310 0.0219
8 14 15 -1.2657 0.1596
8 14 16 3.1171 -0.1123
8 14 17 0.6420 -0.4485
8 14 18 -0.1453 0.1967
8 14 19 -0.3654 0.3305
8 14 20 -2.4586 -1.7532
8 16 0 -5.3626 -0.0620
8 16 1 -5.2909 -0.1148
8 16 2 21.0220 -0.0792
8 16 3 -9.4363 -0.1350
8 16 4 -11.1083 -0.0882
8 16 5 11.9760 -0.1338
8 16 6 5.4506 -0.0234
8 16 7 -10.9239 0.1875
8 16 8 -3.3502 -0.0157
8 16 9 4.8534 -0.2358
8 16 10 -0.2101 -0.2381
8 16 11 -8.3065 -0.1205
8 16 12 -9.4631 -0.0471
8 16 13 -1.7828 0.0276
8 16 14 2.9216 0.0068
8 16 15 -6.6783 -0.1477
8 16 16 -5.8461 0.1520
8 16 17 0.2336 0.3272
8 16 18 0.1116 -0.5966
8 16 19 -2.9609 -0.4547
8 18 0 9.1140 0.0261
8 18 1 9.2444 0.0664
8 18 2 3.5683 -0.1153
8 18 3 -6.7962 -0.1699
8 18 4 7.1376 0.0405
8 18 5 9.5469 0.2232
8 18 6 -7.9167 0.0890
8 18 7 -3.0560 -0.1183
8 18 8 6.3282 -0.0565
8 18 9 -1.1881 0.2334
8 18 10 -11.9829 0.1429
8 18 11 4.5761 -0.1288
8 18 12 -6.3514 -0.0731
8 18 13 -5.4904 0.1737
8 18 14 -3.5958 0.5510
8 18 15 0.0071 0.4340
8 18 16 -2.9197 -0.5983
8 18 17 -2.0538 -0.3237
8 18 18 -1.6667 2.4490
8 20 0 1.0871 -0.0158
8 20 1 5.2828 -0.0593
8 20 2 -12.6565 0.2469
8 20 3 -8.9581 0.1305
8 20 4 4.0671 -0.0618
8 20 5 -5.0615 -0.0630
8 20 6 -8.0433 0.2314
8 20 7 1.2257 0.1234
8 20 8 0.5932 0.0100
8 20 9 -3.2525 -0.0849
8 20 10 1.5699 0.1839
8 20 11 0.1111 0.3417
8 20 12 2.1147 -0.0002
8 20 13 -0.5542 -0.2773
8 20 14 0.8498 -0.1714
8 20 15 2.0480 0.5555
8 20 16 -1.3856 0.6301
8 20 17 2.2696 -2.0926
8 22 0 -13.4155 0.0959
8 22 1 5.9541 0.1746
8 22 2 -4.2349 -0.0964
8 22 3 -9.8570 0.1069
8 22 4 -7.1966 0.0584
8 22 5 4.8983 0.0627
8 22 6 -1.2487 -0.1428
8 22 7 -3.6536 -0.0573
8 22 8 1.2628 0.0885
8 22 9 5.0731 0.0658
8 22 10 2.1978 -0.1755
8 22 11 0.0271 -0.1325
8 22 12 4.9878 0.2319
8 22 13 4.6075 -0.0310
8 22 14 -1.7877 -0.4212
8 22 15 2.8315 -0.6526
8 22 16 2.7909 0.5097
8 24 0 5.1745 -0.0933
8 24 1 -11.0130 0.0675
8 24 2 4.6392 0.2184
8 24 3 16.3581 -0.0406
8 24 4 -3.3155 -0.0043
8 24 5 -5.4289 0.1878
8 24 6 11.7382 0.1838
8 24 7 8.3896 -0.1070
8 24 8 -5.0741 -0.4146
8 24 9 0.3293 -0.1145
8 24 10 5.0979 0.1951
8 24 11 0.8132 0.0538
8 24 12 -0.3044 -0.1621
8 24 13 -0.9893 0.1685
8 24 14 -0.2291 0.1587
8 24 15 0.1927 0.4344
8 26 0 8.1575 0.0964
8 26 1 -0.7275 -0.1020
8 26 2 1.8313 -0.1064
8 26 3 10.2834 0.1925
8 26 4 5.4891 0.3911
8 26 5 -0.4967 -0.0834
8 26 6 1.7186 -0.1368
8 26 7 4.9561 0.0770
8 26 8 4.5341 0.0808
8 26 9 -3.9953 -0.2689
8 26 10 -3.3114 -0.4132
8 26 11 3.4251 0.2529
8 26 12 -0.3485 0.6602
8 26 13 -5.9832 0.0769
8 26 14 -1.5141 -0.6793
8 28 0 0.6434 0.0884
8 28 1 -4.3932 -0.1750
8 28 2 3.4766 -0.1694
8 28 3 -6.0878 0.1769
8 28 4 -1.6143 0.1234
8 28 5 2.7246 0.0025
8 28 6 -2.8886 -0.4956
8 28 7 -3.7839 -0.2575
8 28 8 3.7346 0.5370
8 28 9 1.7298 -0.0325
8 28 10 -2.5973 -0.5157
8 28 11 -1.0484 -0.4510
8 28 12 2.6793 1.0120
8 30 0 -1.9829 -0.0835
8 30 1 -2.3111 0.1173
8 30 2 -5.8728 0.3537
8 30 3 -4.6071 -0.0372
8 30 4 -2.0709 -0.1257
8 30 5 -4.7712 -0.1694
8 30 6 0.0296 0.2549
8 30 7 -2.4357 -0.1879
8 30 8 -1.5478 -0.6916
8 30 9 0.7770 0.6703
8 30 10 3.9639 0.2026
8 32 0 -1.6627 0.2332
8 32 1 1.3160 0.5702
8 32 2 -0.9603 0.1310
8 32 3 1.3276 0.4127
8 32 4 -4.8313 -0.0910
8 32 5 3.1496 0.2989
8 32 6 0.1795 0.5544
8 32 7 -3.9842 0.5734
8 32 8 0.1027 -2.5934
8 34 0 5.1014 -0.9157
8 34 1 -1.4477 -0.3173
8 34 2 1.9089 1.4542
8 34 3 2.1424 0.9418
8 34 4 3.6336 -1.6742
9 1 0 82.2810 -4.2768
9 1 1 -1.6320 -2.9836
9 1 2 7.5731 -0.6150
9 1 3 -9.9905 0.1041
9 1 4 31.7671 -0.7385
9 1 5 -10.5064 -0.7361
9 1 6 -40.0171 0.4645
9 1 7 -5.2668 0.7035
9 1 8 -12.4725 -0.1085
9 1 9 -1.2504 -0.6773
9 1 10 -27.3465 -0.4420
9 1 11 -14.0748 0.0306
9 1 12 12.0778 0.2354
9 1 13 -5.3445 0.5323
9 1 14 -6.7397 0.0544
9 1 15 1.9814 -0.2088
9 1 16 2.8845 -0.3557
9 1 17 6.3001 -0.2658
9 1 18 2.1963 -0.2388
9 1 19 -0.5223 -0.4551
9 1 20 5.0114 0.0787
9 1 21 5.7367 0.4856
9 3 0 -1.6349 -0.5329
9 3 1 -26.9524 -1.5711
9 3 2 25.9813 -0.6911
9 3 3 9.7592 0.5456
9 3 4 -34.1059 0.9870
9 3 5 -0.6757 0.1793
9 3 6 45.0689 -0.3353
9 3 7 -19.6586 0.1815
9 3 8 -8.3842 0.2844
9 3 9 11.7134 -0.4077
9 3 10 21.1305 -0.5906
9 3 11 -8.3617 0.0611
9 3 12 -1.4951 0.4503
9 3 13 12.0946 0.2294
9 3 14 2.4692 0.1270
9 3 15 -0.9662 0.0114
9 3 16 2.1190 -0.2953
9 3 17 -4.1368 -0.2736
9 3 18 2.6647 -0.2680
9 3 19 -0.5374 -0.1101
9 3 20 0.3749 -0.1252
9 3 21 1.8066 -0.1964
9 5 0 -16.4533 -0.6183
9 5 1 -9.1212 0.4134
9 5 2 4.1609 0.7577
9 5 3 -3.5443 0.4519
9 5 4 1.9669 0.5224
9 5 5 13.3564 0.4701
9 5 6 1.1165 0.0167
9 5 7 35.2059 -0.1825
9 5 8 8.5805 -0.1763
9 5 9 -5.2140 -0.1187
9 5 10 16.8066 -0.0015
9 5 11 23.9507 0.2129
9 5 12 -15.8759 0.3475
9 5 13 3.6126 0.1372
9 5 14 16.6818 0.1947
9 5 15 -8.1516 -0.0062
9 5 16 -7.0989 -0.1145
9 5 17 1.1052 -0.1621
9 5 18 3.7714 0.0065
9 5 19 -6.8247 -0.0687
9 5 20 -1.8996 -0.1084
9 5 21 0.6849 0.4265
9 7 0 -33.2948 0.2338
9 7 1 -23.5321 0.4530
9 7 2 26.1665 0.1107
9 7 3 17.8615 0.2385
9 7 4 4.7484 -0.2269
9 7 5 -7.1834 -0.2410
9 7 6 10.4290 -0.0295
9 7 7 13.5964 -0.2559
9 7 8 1.5757 -0.2461
9 7 9 -5.0572 0.0856
9 7 10 -1.6879 0.2884
9 7 11 -3.6322 0.1032
9 7 12 3.5131 -0.1277
9 7 13 -7.2383 0.0591
9 7 14 0.8191 -0.0626
9 7 15 -7.5372 -0.2002
9 7 16 2.4116 -0.1693
9 7 17 3.8123 -0.0289
9 7 18 -6.1591 0.2052
9 7 19 1.3733 0.0217
9 7 20 2.8345 -0.0099
9 9 0 25.4766 0.6246
9 9 1 21.0743 -0.1627
9 9 2 -10.1311 -0.2730
9 9 3 -18.0824 -0.3779
9 9 4 31.7890 -0.1893
9 9 5 3.5310 -0.2566
9 9 6 -24.1192 -0.3138
9 9 7 -9.2666 0.0265
9 9 8 16.4478 0.1595
9 9 9 -10.2041 0.0762
9 9 10 -22.9627 0.0485
9 9 11 4.5707 0.0084
9 9 12 2.0332 -0.1301
9 9 13 -4.9637 -0.2391
9 9 14 -8.3069 -0.1844
9 9 15 5.2386 -0.0564
9 9 16 5.2039 -0.0013
9 9 17 -3.7765 0.2057
9 9 18 1.8313 -0.1248
9 9 19 4.5078 0.0578
9 9 20 0.4031 0.0462
9 11 0 -11.2011 -0.3259
9 11 1 -5.1464 0.2464
9 11 2 -12.4177 0.2179
9 11 3 -3.8009 -0.3526
9 11 4 -16.1759 -0.2450
9 11 5 -3.4669 0.1593
9 11 6 13.9307 0.3455
9 11 7 -17.3484 0.0521
9 11 8 -11.2529 -0.0710
9 11 9 14.9645 0.1567
9 11 10 4.7156 0.1888
9 11 11 -12.4074 -0.0970
9 11 12 3.0595 -0.2224
9 11 13 13.3839 0.0028
9 11 14 -3.3227 0.2077
9 11 15 0.9916 0.1339
9 11 16 1.8991 0.1022
9 11 17 -1.3629 0.0758
9 11 18 5.5499 0.1094
9 11 19 -1.7362 -0.3944
9 11 20 -2.8872 -0.3218
9 13 0 -11.0562 0.1019
9 13 1 -12.8160 -0.0308
9 13 2 -28.2626 -0.0934
9 13 3 -0.2307 0.2553
9 13 4 -14.0862 0.1092
9 13 5 1.0381 -0.0267
9 13 6 -1.9810 0.0584
9 13 7 1.5144 0.2622
9 13 8 -10.7012 0.1555
9 13 9 13.5671 -0.2533
9 13 10 -1.6267 -0.2756
9 13 11 3.7268 0.1344
9 13 12 -2.7133 0.2441
9 13 13 -0.1758 -0.1954
9 13 14 11.2233 -0.1368
9 13 15 -6.5481 0.2975
9 13 16 -3.8082 0.3357
9 13 17 0.7078 -0.3984
9 13 18 -1.4057 -0.6102
9 13 19 -2.5247 0.1412
9 15 0 8.6321 -0.0728
9 15 1 -12.9037 -0.1407
9 15 2 -4.9801 -0.1470
9 15 3 -0.6088 -0.1002
9 15 4 -2.2867 0.0659
9 15 5 1.9640 0.1935
9 15 6 -15.8533 0.0031
9 15 7 2.1157 -0.1801
9 15 8 -0.8586 -0.0650
9 15 9 -11.5945 0.0614
9 15 10 -11.3303 -0.1097
9 15 11 7.3355 -0.2918
9 15 12 -7.1359 -0.0504
9 15 13 -12.6817 0.3155
9 15 14 4.9549 -0.0740
9 15 15 -2.6690 -0.3165
9 15 16 -4.6025 -0.0976
9 15 17 -3.6912 0.1564
9 15 18 0.1101 -0.4810
9 15 19 -3.5071 -0.8129
9 17 0 -2.3045 -0.3195
9 17 1 7.5488 -0.3042
9 17 2 13.8177 -0.0099
9 17 3 4.1553 0.0973
9 17 4 -8.7336 0.0619
9 17 5 2.2732 -0.0085
9 17 6 3.7287 0.0260
9 17 7 -14.3604 0.1150
9 17 8 -7.1262 -0.0016
9 17 9 -4.5336 -0.1534
9 17 10 -6.9792 -0.0713
9 17 11 -10.3968 0.2218
9 17 12 -4.4013 0.0697
9 17 13 -0.6595 -0.1194
9 17 14 -2.8583 0.1686
9 17 15 -7.3330 0.3216
9 17 16 2.4612 -0.0332
9 17 17 3.3624 -0.2564
9 17 18 -6.4625 0.3816
9 19 0 -9.7569 0.1204
9 19 1 22.1197 0.0374
9 19 2 4.5576 -0.0033
9 19 3 -11.4319 -0.0191
9 19 4 8.8664 0.1826
9 19 5 7.0312 0.0291
9 19 6 -5.1872 -0.0772
9 19 7 4.9190 -0.0055
9 19 8 1.3390 0.1510
9 19 9 -2.7469 0.1660
9 19 10 0.8901 -0.0699
9 19 11 1.4832 -0.1425
9 19 12 0.8842 0.2565
9 19 13 -3.6770 0.1088
9 19 14 3.3690 -0.1154
9 19 15 -0.6614 -0.0764
9 19 16 -0.6358 0.3915
9 19 17 2.8491 0.4788
9 21 0 -12.5501 0.0849
9 21 1 -11.8190 0.1191
9 21 2 6.9344 0.1086
9 21 3 -1.3008 0.0620
9 21 4 -1.2104 -0.2819
9 21 5 5.0429 -0.1219
9 21 6 6.5186 0.0086
9 21 7 3.0076 -0.0563
9 21 8 11.3768 0.0316
9 21 9 5.8455 -0.0437
9 21 10 1.3712 0.2038
9 21 11 4.7840 0.0230
9 21 12 7.1781 -0.5288
9 21 13 0.1702 -0.2468
9 21 14 -2.0909 0.0368
9 21 15 1.3176 -0.0845
9 21 16 2.6621 -1.1815
9 23 0 8.8708 -0.0305
9 23 1 -12.7665 -0.0268
9 23 2 -9.6096 -0.0392
9 23 3 11.3311 0.0232
9 23 4 2.7277 0.1401
9 23 5 -8.1981 -0.1187
9 23 6 4.1642 -0.3400
9 23 7 6.8614 -0.0474
9 23 8 0.4653 0.1009
9 23 9 3.6136 0.1186
9 23 10 2.5666 -0.2942
9 23 11 -1.4371 0.1917
9 23 12 1.2470 0.3275
9 23 13 2.1120 -0.6588
9 23 14 -0.9299 -0.5064
9 23 15 -1.9711 0.8962
9 25 0 4.6969 -0.0203
9 25 1 9.5489 0.0409
9 25 2 -3.4542 0.0307
9 25 3 -3.7416 -0.0000
9 25 4 4.4507 0.1251
9 25 5 2.7789 0.2551
9 25 6 -5.9665 0.0763
9 25 7 -6.0462 -0.3463
9 25 8 4.5034 -0.2914
9 25 9 -2.5346 0.2685
9 25 10 -4.9205 0.5389
9 25 11 -2.9562 -0.2656
9 25 12 -0.6321 0.0054
9 25 13 -2.0006 1.1612
9 25 14 -0.6552 0.4249
9 27 0 3.5677 -0.0709
9 27 1 -3.8498 0.0318
9 27 2 7.8680 0.1012
9 27 3 0.6211 0.0239
9 27 4 -7.4223 -0.1039
9 27 5 0.9311 -0.1095
9 27 6 6.3278 0.1672
9 27 7 -4.7698 0.2635
9 27 8 -5.8048 -0.2308
9 27 9 2.0037 -0.6145
9 27 10 1.3765 0.5349
9 27 11 -3.6582 1.3572
9 27 12 -4.9585 -1.4020
9 29 0 -1.8896 0.0383
9 29 1 2.6559 0.0061
9 29 2 -5.2337 0.0341
9 29 3 -1.9693 -0.0406
9 29 4 -1.6383 -0.2121
9 29 5 2.3099 -0.3139
9 29 6 0.4144 -0.0727
9 29 7 1.5950 0.0558
9 29 8 -1.3698 0.5163
9 29 9 2.9095 0.1764
9 29 10 1.8526 -1.5045
9 31 0 0.5681 0.0381
9 31 1 -2.5010 0.1326
9 31 2 -5.0897 -0.1379
9 31 3 -0.7685 -0.0794
9 31 4 0.3831 0.0160
9 31 5 -0.9994 0.2072
9 31 6 -0.6976 -0.3884
9 31 7 -0.5695 -0.1876
9 31 8 3.2199 0.9484
9 33 0 3.2766 0.3994
9 33 1 -1.9210 -0.9593
9 33 2 -1.0570 -0.4370
9 33 3 3.8547 0.5015
9 33 4 -3.9888 0.2576
9 33 5 -0.6404 0.2011
9 35 0 2.7826 1.2396
10 0 0 -41.7239 4.1751
10 0 1 33.7266 -1.9729
10 0 2 31.5102 -2.6268
10 0 3 -58.1240 1.1059
10 0 4 -30.7370 1.9214
10 0 5 7.7628 0.0179
10 0 6 0.3172 -1.4785
10 0 7 -32.3497 -1.1613
10 0 8 -13.9862 -0.2886
10 0 9 6.7394 0.2916
10 0 10 1.8371 0.5438
10 0 11 -12.2555 0.4725
10 0 12 4.6176 0.2876
10 0 13 10.2910 0.2642
10 0 14 -11.4446 0.1007
10 0 15 14.4662 -0.3692
10 0 16 3.1092 -0.6337
10 0 17 -4.3958 -0.5662
10 0 18 5.1308 -0.2745
10 0 19 8.3172 0.1345
10 0 20 -2.9848 0.8796
10 2 0 30.8119 1.8662
10 2 1 20.7984 -0.4460
10 2 2 -44.1907 -0.8815
10 2 3 25.8379 0.1245
10 2 4 4.0968 1.1816
10 2 5 -16.3391 0.3254
10 2 6 -3.9868 -0.8952
10 2 7 18.5148 -1.1985
10 2 8 -6.6757 -0.5172
10 2 9 -12.3973 0.3233
10 2 10 9.5241 0.7492
10 2 11 5.9983 0.4702
10 2 12 -3.9603 0.1978
10 2 13 -4.0972 0.1801
10 2 14 5.6971 0.0264
10 2 15 2.6380 -0.1406
10 2 16 -4.5720 -0.5780
10 2 17 2.1000 -0.2800
10 2 18 2.7175 0.1350
10 2 19 -0.7324 0.2059
10 2 20 0.6724 -0.3912
10 4 0 -1.2227 -1.3037
10 4 1 -14.5177 0.3087
10 4 2 34.5982 0.8631
10 4 3 -0.4249 0.3400
10 4 4 19.7980 0.1150
10 4 5 23.1368 -0.0900
10 4 6 16.3238 -0.4594
10 4 7 -4.1577 -0.5180
10 4 8 16.1829 -0.2946
10 4 9 19.1836 0.0286
10 4 10 -13.4148 0.4042
10 4 11 2.7704 0.5986
10 4 12 7.0024 0.2676
10 4 13 -7.6749 0.0873
10 4 14 2.3759 0.0575
10 4 15 -6.1499 -0.2234
10 4 16 -1.7385 -0.1501
10 4 17 0.9583 -0.0967
10 4 18 -3.4979 0.0786
10 4 19 -0.5200 0.1147
10 4 20 -3.2294 0.5692
10 6 0 29.7437 0.4351
10 6 1 -41.8929 0.3215
10 6 2 -1.5820 0.0253
10 6 3 27.7796 0.2148
10 6 4 6.1611 -0.1105
10 6 5 -3.5792 -0.2684
10 6 6 3.9501 -0.1509
10 6 7 0.6466 -0.0201
10 6 8 13.1737 -0.0824
10 6 9 -13.4330 0.0644
10 6 10 7.5816 0.2156
10 6 11 -0.4211 0.1490
10 6 12 -3.0834 0.0616
10 6 13 -2.4718 -0.1595
10 6 14 5.5150 -0.0237
10 6 15 -1.0689 -0.1524
10 6 16 0.8411 -0.1884
10 6 17 -1.1889 0.1374
10 6 18 1.4651 0.2225
10 6 19 1.2294 0.0877
10 6 20 -0.5921 -0.5797
10 8 0 -20.9634 0.0925
10 8 1 3.9060 0.0228
10 8 2 -17.9230 0.0250
10 8 3 -14.5257 -0.1211
10 8 4 -12.8962 -0.2913
10 8 5 -12.2605 -0.1274
10 8 6 -13.7984 0.2667
10 8 7 -10.8922 0.2973
10 8 8 -5.7214 0.1176
10 8 9 -9.8339 -0.0089
10 8 10 2.2043 0.0049
10 8 11 3.5214 -0.1645
10 8 12 -4.2434 -0.3539
10 8 13 3.3969 -0.0793
10 8 14 10.2581 -0.2285
10 8 15 1.4695 0.0301
10 8 16 2.9301 0.1317
10 8 17 7.3013 0.0136
10 8 18 3.2487 -0.0273
10 8 19 -1.3800 0.0206
10 8 20 2.8038 0.5808
10 10 0 -37.4444 0.0722
10 10 1 12.6399 -0.2852
10 10 2 10.1184 -0.0489
10 10 3 -44.3855 0.0315
10 10 4 -10.6019 0.0345
10 10 5 2.9483 -0.0035
10 10 6 -2.6270 0.1345
10 10 7 -22.7523 0.3029
10 10 8 -6.7719 0.1882
10 10 9 16.1198 -0.0716
10 10 10 -8.2393 -0.2460
10 10 11 -3.0473 -0.2013
10 10 12 7.4454 -0.0490
10 10 13 6.7909 -0.0170
10 10 14 -2.7385 0.1972
10 10 15 3.5752 0.0945
10 10 16 6.5903 0.1542
10 10 17 2.8005 0.1372
10 10 18 -1.6949 0.0777
10 10 19 2.7078 -0.2790
10 12 0 15.0591 -0.0039
10 12 1 11.2576 0.0580
10 12 2 -23.5321 -0.1466
10 12 3 6.2195 -0.1832
10 12 4 10.6878 0.1612
10 12 5 -1.6749 0.1656
10 12 6 -2.3332 -0.0989
10 12 7 8.2420 -0.1233
10 12 8 2.0044 0.0241
10 12 9 -6.8923 -0.0347
10 12 10 6.3389 -0.1856
10 12 11 0.9626 -0.0756
10 12 12 -6.2663 0.2402
10 12 13 -3.2573 0.2454
10 12 14 2.7556 0.1363
10 12 15 -2.2032 0.0538
10 12 16 -6.2880 0.0663
10 12 17 1.5876 0.2567
10 12 18 -0.9849 -0.3364
10 12 19 -1.5191 -0.1550
10 14 0 -4.7673 -0.1832
10 14 1 -14.2054 -0.0115
10 14 2 18.1705 -0.1500
10 14 3 9.5470 -0.0110
10 14 4 -13.5408 0.0242
10 14 5 2.0832 0.0024
10 14 6 9.9620 -0.0716
10 14 7 -5.0422 -0.0961
10 14 8 -2.6470 -0.0186
10 14 9 -2.5156 -0.0833
10 14 10 -6.6519 -0.0639
10 14 11 -0.4863 0.1543
10 14 12 -6.5802 0.2269
10 14 13 -2.3527 0.0951
10 14 14 -8.6387 -0.2069
10 14 15 -0.1604 0.0137
10 14 16 -3.1951 -0.0911
10 14 17 -4.9436 -0.6207
10 14 18 -0.3906 1.0402
10 16 0 2.8181 0.1022
10 16 1 -8.8639 -0.0912
10 16 2 -8.4606 -0.1327
10 16 3 17.0455 0.0670
10 16 4 -5.9114 0.1830
10 16 5 -23.2698 0.2347
10 16 6 -1.9252 -0.0433
10 16 7 8.8139 -0.1345
10 16 8 -13.0810 0.0013
10 16 9 -14.5374 0.2205
10 16 10 1.8483 0.0829
10 16 11 2.4418 -0.0564
10 16 12 -6.6553 0.0048
10 16 13 -2.2538 0.1686
10 16 14 1.4487 0.0868
10 16 15 -3.1444 -0.2946
10 16 16 -0.0173 -0.2341
10 16 17 1.3222 -0.4400
10 18 0 -7.4259 -0.0705
10 18 1 8.2895 0.1488
10 18 2 13.1383 0.2328
10 18 3 -16.7205 -0.1202
10 18 4 3.6192 0.0490
10 18 5 9.6886 0.0997
10 18 6 -12.0311 0.1343
10 18 7 -6.2930 -0.0211
10 18 8 7.4688 -0.2236
10 18 9 -2.4860 -0.1696
10 18 10 -5.4558 0.2524
10 18 11 1.9214 0.2406
10 18 12 6.3211 -0.1327
10 18 13 -1.1374 -0.3089
10 18 14 -0.4551 0.2845
10 18 15 2.7837 0.3993
10 18 16 -1.0081 -0.3123
10 18 17 2.8350 0.3651
10 20 0 -0.9866 0.1645
10 20 1 10.3002 0.1568
10 20 2 11.2866 -0.1351
10 20 3 -3.4353 -0.1875
10 20 4 2.5924 -0.0947
10 20 5 20.8401 -0.0717
10 20 6 5.2821 -0.1649
10 20 7 -11.6940 -0.2027
10 20 8 9.1836 0.0035
10 20 9 13.6181 0.0283
10 20 10 -6.0664 -0.1510
10 20 11 -1.2593 -0.0921
10 20 12 1.7212 0.0590
10 20 13 6.3679 -0.0547
10 20 14 -2.2856 -0.4438
10 20 15 -3.9784 0.0856
10 20 16 2.1600 0.8541
10 22 0 8.7200 0.1267
10 22 1 3.5529 -0.0690
10 22 2 -11.5119 -0.2639
10 22 3 9.8952 -0.0573
10 22 4 8.4363 -0.1931
10 22 5 -0.8210 -0.1685
10 22 6 2.4320 -0.1290
10 22 7 10.1550 0.0476
10 22 8 -0.6619 0.1023
10 22 9 -2.4986 0.0756
10 22 10 5.3873 0.1450
10 22 11 4.7021 -0.1259
10 22 12 -6.9594 -0.3704
10 22 13 -3.1359 0.1573
10 22 14 6.5466 0.2302
10 22 15 -3.2371 -1.4585
10 24 0 -6.7832 -0.3280
10 24 1 -9.5042 0.0194
10 24 2 2.6441 0.2180
10 24 3 0.1517 -0.0793
10 24 4 -12.9522 0.0552
10 24 5 1.2320 0.0147
10 24 6 3.1185 0.0036
10 24 7 -2.7406 0.1662
10 24 8 -3.0541 0.1927
10 24 9 1.2154 0.1463
10 24 10 -0.2625 -0.1254
10 24 11 2.5272 0.3759
10 24 12 -3.2609 0.3977
10 24 13 -0.5529 -0.5206
10 26 0 1.6022 0.0647
10 26 1 -6.6771 -0.0994
10 26 2 -0.4264 -0.0573
10 26 3 -0.9018 0.3131
10 26 4 -5.5777 0.2969
10 26 5 -4.4097 -0.0094
10 26 6 -0.2711 -0.1323
10 26 7 -0.2444 0.0170
10 26 8 -4.8361 0.0987
10 26 9 1.9692 -0.0238
10 26 10 0.3451 0.1837
10 26 11 -2.9485 0.0280
10 26 12 1.1156 1.0282
10 28 0 -1.2117 0.2955
10 28 1 7.9613 0.2003
10 28 2 -1.0323 -0.1261
10 28 3 -3.3618 -0.1216
10 28 4 3.8880 -0.1498
10 28 5 1.8144 0.0413
10 28 6 -4.5896 0.1614
10 28 7 -0.0387 -0.2985
10 28 8 3.1873 -0.2057
10 28 9 -0.9829 0.1703
10 28 10 -2.0958 0.7732
10 30 0 -2.2441 0.0631
10 30 1 1.1258 -0.0984
10 30 2 3.3605 -0.0194
10 30 3 2.6333 -0.5172
10 30 4 -5.3440 -0.1827
10 30 5 4.8038 0.0218
10 30 6 0.0632 -0.1417
10 30 7 -1.0184 0.3379
10 30 8 1.4607 0.7671
10 32 0 -2.5894 -0.2835
10 32 1 -0.2340 -0.2888
10 32 2 -4.1876 -0.5946
10 32 3 3.3886 -0.1556
10 32 4 -1.2896 -0.4384
10 32 5 -3.3838 0.4402
10 32 6 0.7715 0.8649
10 34 0 -1.6377 -1.3565
10 34 1 -2.5760 1.7692
11 1 0 -22.2869 1.4169
11 1 1 8.1122 1.7713
11 1 2 2.1660 1.7417
11 1 3 -7.0999 1.0195
11 1 4 -6.1286 -0.2660
11 1 5 7.8430 -0.9664
11 1 6 27.4490 -0.6901
11 1 7 -13.9129 -0.1786
11 1 8 -2.6881 -0.1216
11 1 9 23.1186 -0.0542
11 1 10 -1.0457 0.4066
11 1 11 -8.0576 0.7686
11 1 12 3.2337 0.5977
11 1 13 5.2905 -0.3148
11 1 14 -5.5361 -1.0514
11 1 15 0.9235 -0.2796
11 1 16 -5.2900 0.2780
11 1 17 6.7016 -0.0322
11 1 18 -2.7817 0.2375
11 1 19 -3.1909 0.2855
11 3 0 23.4295 1.6423
11 3 1 -7.9248 0.7868
11 3 2 -3.6319 0.7619
11 3 3 24.3411 0.5886
11 3 4 10.4820 -0.5136
11 3 5 4.9176 -1.1844
11 3 6 -17.2941 -0.4579
11 3 7 11.7010 0.1576
11 3 8 15.5122 -0.1380
11 3 9 -19.2978 -0.2406
11 3 10 -5.2734 0.5330
11 3 11 4.8190 0.8285
11 3 12 -2.5755 0.2680
11 3 13 -7.2288 -0.3544
11 3 14 2.3424 -0.4076
11 3 15 -2.7358 -0.2918
11 3 16 0.7118 0.1038
11 3 17 -3.7557 0.2891
11 3 18 3.6622 0.1451
11 3 19 0.6687 0.1233
11 5 0 24.2232 -0.4766
11 5 1 -34.2885 0.1055
11 5 2 -0.0181 0.2659
11 5 3 34.9668 -0.3758
11 5 4 2.7243 -0.5688
11 5 5 -36.0499 -0.5208
11 5 6 9.8861 -0.2352
11 5 7 16.2839 -0.0178
11 5 8 -18.6951 0.0298
11 5 9 -12.3264 0.0328
11 5 10 6.2883 0.1569
11 5 11 -6.9006 0.3887
11 5 12 6.0800 0.0856
11 5 13 -7.0868 -0.2556
11 5 14 3.5500 -0.1157
11 5 15 -2.2840 0.0350
11 5 16 7.9172 -0.0181
11 5 17 -1.7204 0.0945
11 5 18 -2.3411 -0.0505
11 5 19 2.9843 0.1857
11 7 0 -30.9105 -0.2860
11 7 1 29.1201 -0.2277
11 7 2 -7.6271 -0.3639
11 7 3 -52.6506 0.0271
11 7 4 7.7154 -0.0277
11 7 5 -5.6815 0.0597
11 7 6 1.5819 0.0604
11 7 7 -12.5667 0.1720
11 7 8 -7.1455 0.2155
11 7 9 16.1876 0.1908
11 7 10 -10.2661 -0.1773
11 7 11 14.7876 -0.3531
11 7 12 -0.2484 -0.0402
11 7 13 2.8925 0.1385
11 7 14 10.6514 -0.1465
11 7 15 1.3297 0.0169
11 7 16 3.1828 0.2201
11 7 17 -0.4011 -0.0196
11 7 18 4.9041 0.0153
11 7 19 -0.1333 -0.0190
11 9 0 -16.4983 0.4108
11 9 1 -23.8571 -0.0162
11 9 2 -3.7121 -0.1302
11 9 3 -22.0591 0.0713
11 9 4 3.3377 0.3170
11 9 5 -37.4454 0.4866
11 9 6 33.4782 0.4224
11 9 7 -8.1275 0.0307
11 9 8 -13.6548 -0.1054
11 9 9 12.8687 0.0289
11 9 10 19.8568 0.0719
11 9 11 -8.5242 -0.3644
11 9 12 2.9346 -0.3961
11 9 13 14.3142 0.0962
11 9 14 4.2254 0.3934
11 9 15 -1.2730 0.0693
11 9 16 -0.3556 -0.0847
11 9 17 6.3240 -0.0336
11 9 18 0.9583 0.1758
11 9 19 -1.6676 0.0055
11 11 0 7.0506 -0.2013
11 11 1 5.2218 -0.0743
11 11 2 -12.1865 0.2269
11 11 3 -1.5565 -0.0901
11 11 4 17.9978 0.1059
11 11 5 -8.9748 0.1230
11 11 6 -14.9230 0.0185
11 11 7 12.5744 -0.1251
11 11 8 5.1224 -0.1395
11 11 9 -5.0004 -0.2083
11 11 10 -10.3365 -0.1420
11 11 11 5.1376 0.1060
11 11 12 4.9189 0.1210
11 11 13 -4.4119 -0.0652
11 11 14 -8.7752 0.0823
11 11 15 6.5885 0.2477
11 11 16 2.0756 0.0357
11 11 17 -3.9588 -0.0654
11 11 18 3.5794 -0.4083
11 13 0 2.3292 -0.1632
11 13 1 2.0159 0.0325
11 13 2 3.8047 -0.2112
11 13 3 18.5471 -0.0243
11 13 4 0.7340 -0.1183
11 13 5 -8.0453 -0.2245
11 13 6 -0.2613 -0.2273
11 13 7 -2.0934 -0.0713
11 13 8 0.3465 -0.1421
11 13 9 -8.3603 -0.0344
11 13 10 -11.2165 0.0697
11 13 11 -1.9070 0.1866
11 13 12 -4.0207 0.0730
11 13 13 -5.4197 0.0536
11 13 14 -9.1347 0.0940
11 13 15 1.8576 0.0571
11 13 16 2.2267 -0.1617
11 13 17 -3.9994 -0.0698
11 13 18 3.5652 0.5971
11 15 0 7.7463 0.1238
11 15 1 -2.5084 -0.0204
11 15 2 -2.7163 -0.0879
11 15 3 4.6089 0.1426
11 15 4 1.0063 0.0940
11 15 5 -2.7537 -0.0914
11 15 6 -0.0895 -0.1307
11 15 7 -2.2624 0.0964
11 15 8 -1.4502 0.3220
11 15 9 0.3297 0.0256
11 15 10 -0.8575 -0.0326
11 15 11 -2.9001 0.1372
11 15 12 -4.0678 0.2822
11 15 13 -6.1755 -0.1008
11 15 14 5.8667 -0.4319
11 15 15 -4.7149 0.1959
11 15 16 -5.4509 0.5273
11 15 17 5.8441 -0.7537
11 17 0 -6.1348 0.0391
11 17 1 1.1299 0.1388
11 17 2 8.8648 0.3520
11 17 3 -13.6453 0.0404
11 17 4 -2.7902 -0.0100
11 17 5 17.5472 0.0687
11 17 6 -5.3052 0.0983
11 17 7 -5.5497 0.0165
11 17 8 12.1134 -0.0932
11 17 9 6.8111 0.1116
11 17 10 -3.1612 0.1005
11 17 11 3.2399 -0.0311
11 17 12 6.1072 -0.2180
11 17 13 -5.1795 -0.0203
11 17 14 1.0269 0.1929
11 17 15 2.1248 -0.3671
11 17 16 -2.5644 0.1709
11 19 0 3.6580 0.1569
11 19 1 -2.0584 0.0619
11 19 2 4.1788 -0.1090
11 19 3 6.0806 0.0405
11 19 4 -0.0584 -0.0066
11 19 5 -4.0393 -0.2968
11 19 6 7.3573 -0.2930
11 19 7 2.3167 -0.0160
11 19 8 -3.6264 0.0397
11 19 9 3.0946 -0.2020
11 19 10 4.0787 -0.1891
11 19 11 1.1691 0.0733
11 19 12 -1.9416 0.2341
11 19 13 1.1378 -0.2956
11 19 14 2.9882 -0.1859
11 19 15 -2.1338 0.7456
11 21 0 6.7899 -0.0315
11 21 1 12.9305 0.0365
11 21 2 -2.1529 -0.0904
11 21 3 -3.5155 -0.1858
11 21 4 2.7838 -0.1314
11 21 5 2.4364 -0.0660
11 21 6 -7.2508 0.0357
11 21 7 0.2532 -0.0096
11 21 8 -2.1460 0.1152
11 21 9 -0.0227 0.0411
11 21 10 -4.9825 0.1420
11 21 11 1.9814 0.0365
11 21 12 0.1853 0.1193
11 21 13 -2.1810 0.5878
11 21 14 1.8178 -0.7898
11 23 0 -4.0261 0.1188
11 23 1 -3.7854 0.0076
11 23 2 2.7583 -0.0281
11 23 3 -2.7540 0.0925
11 23 4 -4.6094 0.0765
11 23 5 -1.7717 0.2123
11 23 6 4.6487 0.3042
11 23 7 -4.9731 0.3338
11 23 8 -0.8064 -0.0187
11 23 9 3.7390 0.2013
11 23 10 -1.7494 0.0035
11 23 11 -2.7325 0.1665
11 23 12 5.7647 0.0384
11 23 13 -1.6060 0.2508
11 25 0 -0.8834 0.0394
11 25 1 -12.4945 0.1333
11 25 2 -5.3545 0.0829
11 25 3 8.3510 0.0731
11 25 4 -0.6694 0.1329
11 25 5 -8.4940 0.1706
11 25 6 4.0805 -0.1079
11 25 7 8.6892 -0.0321
11 25 8 0.0573 0.0252
11 25 9 -4.2793 -0.5488
11 25 10 6.9596 -0.4507
11 25 11 2.3913 -0.3113
11 25 12 -1.2032 0.2447
11 27 0 -4.5371 -0.1373
11 27 1 1.8148 -0.1701
11 27 2 -0.8062 0.3227
11 27 3 -1.2466 0.1046
11 27 4 -1.5040 -0.2572
11 27 5 4.0590 -0.7117
11 27 6 -1.5254 0.0303
11 27 7 -3.5879 -0.2514
11 27 8 6.7348 -0.6001
11 27 9 -0.5190 -0.5285
11 27 10 -2.2594 -0.6851
11 29 0 2.4737 0.3112
11 29 1 1.5111 -0.2582
11 29 2 1.2516 -0.4581
11 29 3 -2.6180 0.3285
11 29 4 -0.3293 -0.0652
11 29 5 -0.8815 -0.1463
11 29 6 -1.4074 -0.6661
11 29 7 -3.6180 0.1397
11 29 8 0.0769 0.3931
11 31 0 0.5580 -0.3991
11 31 1 0.7624 0.2794
11 31 2 1.4671 0.1166
11 31 3 -2.8607 -0.9061
11 31 4 -1.4150 0.6079
11 31 5 3.4094 1.1079
11 31 6 -4.5790 0.2524
11 33 0 -0.4070 -1.9022
11 33 1 -3.4072 -0.4998
11 33 2 0.9996 2.3064
12 0 0 38.7308 6.8528
12 0 1 22.7345 3.0744
12 0 2 -34.3504 -0.2169
12 0 3 30.6037 -0.4947
12 0 4 48.6895 -0.4629
12 0 5 2.2647 -0.6575
12 0 6 -12.1708 -0.4977
12 0 7 24.0164 0.0985
12 0 8 16.1766 0.3523
12 0 9 -18.2725 0.3954
12 0 10 0.6089 0.0543
12 0 11 -0.0732 -0.3939
12 0 12 -8.1713 -0.4335
12 0 13 -6.1121 -0.0390
12 0 14 0.7234 0.1157
12 0 15 -4.3659 0.0208
12 0 16 -8.3524 0.1596
12 0 17 0.7032 0.5596
12 0 18 1.2758 0.3215
12 0 19 -5.8663 -0.0196
12 2 0 -2.0959 3.7157
12 2 1 -3.1443 1.5018
12 2 2 23.7215 -0.0895
12 2 3 -1.6740 -0.1178
12 2 4 -4.5915 -0.3041
12 2 5 13.7298 -0.6566
12 2 6 15.3750 -0.5439
12 2 7 -11.3246 0.0362
12 2 8 -9.4054 0.6004
12 2 9 17.0043 0.4390
12 2 10 -5.3127 0.0340
12 2 11 -14.9636 -0.6009
12 2 12 2.5102 -0.3751
12 2 13 4.6854 -0.0776
12 2 14 -8.1697 0.1664
12 2 15 -4.0919 0.1122
12 2 16 5.9726 -0.0403
12 2 17 -1.7726 0.0729
12 2 18 -7.1129 0.7075
12 2 19 2.4973 0.3998
12 4 0 -4.1237 0.3018
12 4 1 6.4339 0.1558
12 4 2 -18.4117 -0.1215
12 4 3 -13.5708 -0.4690
12 4 4 -3.5417 -0.1619
12 4 5 -14.9410 -0.3282
12 4 6 -6.0095 -0.3805
12 4 7 -1.2143 -0.1156
12 4 8 -3.9660 0.3741
12 4 9 -13.0791 0.4449
12 4 10 10.8932 -0.1922
12 4 11 1.1901 -0.3182
12 4 12 -4.4598 -0.1863
12 4 13 -0.8762 0.0952
12 4 14 9.6952 -0.0124
12 4 15 3.3422 -0.1198
12 4 16 -2.4174 0.2253
12 4 17 1.2342 -0.2117
12 4 18 2.8870 -0.3260
12 6 0 -19.6526 -0.3400
12 6 1 -27.6432 -0.4013
12 6 2 7.1256 -0.4087
12 6 3 -10.3199 -0.0899
12 6 4 -15.8416 -0.1026
12 6 5 -6.7677 0.0516
12 6 6 -3.7553 0.0061
12 6 7 0.5114 0.0903
12 6 8 2.2340 0.0423
12 6 9 -2.1993 0.0045
12 6 10 6.2762 0.0219
12 6 11 2.4629 -0.0297
12 6 12 2.2707 -0.1335
12 6 13 2.5284 0.0642
12 6 14 6.2020 0.3362
12 6 15 3.5394 0.1500
12 6 16 -0.1819 -0.7073
12 6 17 -1.0478 0.4042
12 6 18 6.0012 -0.0751
12 8 0 -0.6505 -0.3115
12 8 1 -11.4785 -0.2410
12 8 2 -11.3982 0.0810
12 8 3 16.4059 0.2286
12 8 4 5.2213 0.2002
12 8 5 -2.8486 0.2403
12 8 6 -2.3811 0.3359
12 8 7 18.7878 0.0934
12 8 8 4.5289 -0.0602
12 8 9 1.2225 -0.1188
12 8 10 4.3635 -0.1300
12 8 11 0.8127 -0.0012
12 8 12 3.5721 0.3482
12 8 13 3.7815 0.0758
12 8 14 -4.5724 -0.2980
12 8 15 -0.0725 0.1064
12 8 16 3.7997 0.7932
12 8 17 0.2497 -0.7499
12 8 18 -4.6832 0.0713
12 10 0 -6.8103 -0.0866
12 10 1 32.7671 0.1466
12 10 2 -8.8465 0.3021
12 10 3 -8.5887 0.1528
12 10 4 14.2926 0.0415
12 10 5 11.3092 0.1820
12 10 6 -4.1717 0.1570
12 10 7 -1.4477 -0.0512
12 10 8 10.7875 -0.3121
12 10 9 -1.0660 -0.1911
12 10 10 -3.5857 0.1456
12 10 11 2.4486 0.1295
12 10 12 -2.5346 -0.1708
12 10 13 -3.0682 -0.1092
12 10 14 2.8819 0.1685
12 10 15 -1.6502 -0.1392
12 10 16 -2.5565 -0.2150
12 10 17 2.2246 0.4906
12 10 18 -0.9561 -0.2116
12 12 0 7.8122 0.0634
12 12 1 -13.2584 -0.1190
12 12 2 18.5218 -0.0081
12 12 3 -11.6900 0.0123
12 12 4 -11.4737 -0.0564
12 12 5 -1.1489 -0.3376
12 12 6 13.1746 -0.2579
12 12 7 -19.1453 -0.0914
12 12 8 -14.2152 0.0475
12 12 9 14.8902 -0.1176
12 12 10 -3.7404 -0.1423
12 12 11 -15.0982 0.1483
12 12 12 2.3361 0.1380
12 12 13 4.3517 -0.2652
12 12 14 -1.7044 -0.3036
12 12 15 -1.4248 0.2176
12 12 16 4.1431 -0.1465
12 12 17 0.5434 0.3092
12 14 0 18.4293 -0.0184
12 14 1 9.2138 0.2799
12 14 2 -27.5742 -0.1311
12 14 3 1.6623 -0.2721
12 14 4 16.7526 -0.0345
12 14 5 -11.5068 0.0468
12 14 6 -14.5505 -0.1275
12 14 7 12.7220 -0.0880
12 14 8 4.3592 0.0855
12 14 9 -18.3084 0.3140
12 14 10 2.7835 0.1685
12 14 11 4.9105 -0.1582
12 14 12 -3.4657 -0.2810
12 14 13 -7.4579 0.2148
12 14 14 3.8578 0.3986
12 14 15 3.4933 -0.0589
12 14 16 -0.2701 -0.6075
12 16 0 -4.5679 0.3153
12 16 1 -1.9689 0.1095
12 16 2 13.0438 -0.0171
12 16 3 3.2519 0.2027
12 16 4 2.0102 -0.0132
12 16 5 11.2773 0.0781
12 16 6 8.2445 0.1105
12 16 7 2.0172 0.1515
12 16 8 8.2680 0.1206
12 16 9 0.4711 0.0523
12 16 10 0.4340 -0.0516
12 16 11 -1.7461 -0.0806
12 16 12 -1.1072 0.1427
12 16 13 -1.7519 -0.0949
12 16 14 -3.8525 -0.1460
12 16 15 -0.5791 0.2499
12 16 16 -0.6823 1.3372
12 18 0 -0.3779 0.0884
12 18 1 0.8107 -0.0804
12 18 2 7.8677 0.1652
12 18 3 6.8243 -0.1225
12 18 4 -0.2795 -0.0010
12 18 5 3.8282 -0.0646
12 18 6 13.4115 -0.0552
12 18 7 3.0308 -0.1523
12 18 8 -3.5101 -0.0333
12 18 9 6.2637 -0.0440
12 18 10 6.1510 -0.1286
12 18 11 -7.7257 -0.3353
12 18 12 -1.5552 -0.2449
12 18 13 0.1959 0.4882
12 18 14 1.0330 0.2978
12 18 15 -6.0474 -1.9784
12 20 0 -11.9964 -0.1843
12 20 1 5.0252 0.2484
12 20 2 1.8159 -0.0350
12 20 3 -14.7751 -0.1642
12 20 4 -4.1218 -0.1789
12 20 5 1.7493 -0.0870
12 20 6 -6.2887 0.0017
12 20 7 -4.1088 -0.0235
12 20 8 2.0947 -0.1066
12 20 9 -0.9251 0.0373
12 20 10 0.2193 0.0301
12 20 11 -0.4903 0.0872
12 20 12 3.8280 0.0537
12 20 13 -1.7296 -0.2020
12 20 14 0.4018 0.7071
12 22 0 -5.9713 0.1661
12 22 1 -10.4049 -0.1420
12 22 2 -5.4663 0.0622
12 22 3 0.2322 0.3037
12 22 4 -8.6930 0.2099
12 22 5 -9.6710 0.2412
12 22 6 -0.5243 0.0867
12 22 7 -3.1262 -0.0460
12 22 8 -0.8482 0.2574
12 22 9 -0.6410 0.5346
12 22 10 1.2739 0.2695
12 22 11 2.2865 -0.4298
12 22 12 1.1063 0.1191
12 22 13 2.5088 2.1676
12 24 0 11.9472 0.1499
12 24 1 0.5093 0.1678
12 24 2 -11.9039 0.1294
12 24 3 4.8415 0.0790
12 24 4 10.5700 0.1949
12 24 5 -2.2279 0.2760
12 24 6 -6.7354 0.1388
12 24 7 6.5194 -0.2614
12 24 8 5.4029 -0.7082
12 24 9 -2.5972 -0.1341
12 24 10 -0.3175 0.6034
12 24 11 2.3723 0.1027
12 24 12 1.6716 -3.2372
12 26 0 1.5982 -0.0850
12 26 1 -0.2530 0.0177
12 26 2 7.4819 -0.0190
12 26 3 0.3987 -0.1868
12 26 4 0.5545 -0.2888
12 26 5 7.2362 -0.4219
12 26 6 4.4873 -0.5836
12 26 7 -2.4737 -0.3824
12 26 8 1.3374 -0.5262
12 26 9 4.8902 -1.6715
12 26 10 -2.0886 -1.4564
12 28 0 -3.4228 0.2559
12 28 1 0.5256 -0.2646
12 28 2 1.6518 -0.5775
12 28 3 -1.2749 -0.1517
12 28 4 -5.1383 0.3070
12 28 5 0.9135 -0.3529
12 28 6 2.7305 -1.0901
12 28 7 -0.7876 -1.3445
12 28 8 -3.0140 2.6030
12 30 0 -3.3840 -0.1277
12 30 1 3.8305 0.4031
12 30 2 -6.0049 0.6736
12 30 3 -0.0937 0.1415
12 30 4 -3.0196 -0.4176
12 30 5 -0.9343 0.7318
12 30 6 -2.3150 1.7128
12 32 0 0.5777 -0.5537
12 32 1 1.9111 0.7716
12 32 2 -2.2363 0.9898
12 32 3 2.6257 0.1931
13 1 0 5.3221 -0.7866
13 1 1 10.8507 -1.2249
13 1 2 18.2139 -0.4846
13 1 3 11.1480 -0.5314
13 1 4 -11.8296 -0.7191
13 1 5 0.7164 0.0261
13 1 6 15.5959 0.6279
13 1 7 -9.8503 0.5387
13 1 8 -9.2529 0.1895
13 1 9 -7.3042 -0.0463
13 1 10 0.0789 -0.1835
13 1 11 -6.5730 -0.4045
13 1 12 -5.4692 -0.3516
13 1 13 -3.2962 -0.3778
13 1 14 2.2908 0.4683
13 1 15 -3.6912 0.7427
13 1 16 -0.6218 0.6539
13 1 17 2.4477 -0.3043
13 1 18 -4.1789 0.0006
13 3 0 0.6503 -0.2278
13 3 1 -8.3690 -0.4515
13 3 2 -17.0768 -0.1237
13 3 3 -10.0560 -0.0088
13 3 4 11.9087 -0.2631
13 3 5 -13.5208 0.0092
13 3 6 1.2685 0.5460
13 3 7 11.9395 0.4341
13 3 8 -7.9744 -0.1248
13 3 9 0.4827 -0.3042
13 3 10 11.2808 -0.1091
13 3 11 -5.3840 -0.1675
13 3 12 1.0139 -0.2130
13 3 13 3.4232 -0.0862
13 3 14 0.5522 0.0530
13 3 15 1.3358 0.2588
13 3 16 -0.8220 0.4319
13 3 17 -1.2228 -0.2124
13 3 18 2.1645 -0.2097
13 5 0 -22.2087 -0.0850
13 5 1 -8.8062 -0.1800
13 5 2 -19.2530 0.0508
13 5 3 -15.3724 0.2255
13 5 4 2.1253 0.2660
13 5 5 8.6138 -0.0537
13 5 6 -6.2754 0.0586
13 5 7 -0.2860 0.1378
13 5 8 12.7316 -0.0328
13 5 9 8.1831 -0.3201
13 5 10 -5.4334 -0.2690
13 5 11 9.4097 0.1561
13 5 12 6.1227 0.0853
13 5 13 -3.3078 0.1286
13 5 14 0.6850 -0.0512
13 5 15 7.6274 -0.1588
13 5 16 0.8113 -0.5535
13 5 17 -6.4529 0.3298
13 7 0 25.9841 -0.1615
13 7 1 -21.0322 0.1677
13 7 2 -3.1846 0.0050
13 7 3 15.8824 -0.2475
13 7 4 10.0681 0.0379
13 7 5 -11.0133 0.4114
13 7 6 4.6343 -0.0519
13 7 7 10.1770 -0.3065
13 7 8 -1.0057 -0.1674
13 7 9 -8.1590 0.0759
13 7 10 4.9049 0.0212
13 7 11 -2.1248 0.1130
13 7 12 0.4388 0.2804
13 7 13 -4.3545 0.0265
13 7 14 1.2969 0.0167
13 7 15 0.6125 0.0117
13 7 16 0.3623 -0.1665
13 7 17 0.5436 -0.6940
13 9 0 -3.3542 0.0550
13 9 1 24.9000 0.0118
13 9 2 22.9777 -0.0529
13 9 3 -4.0928 0.1985
13 9 4 -6.1096 -0.0481
13 9 5 24.4678 -0.0912
13 9 6 -4.0016 0.0248
13 9 7 -9.9224 -0.0499
13 9 8 -4.1069 -0.0323
13 9 9 7.3503 0.0638
13 9 10 -14.8496 0.1571
13 9 11 -6.7073 -0.0826
13 9 12 4.0067 0.1212
13 9 13 -4.2940 0.2902
13 9 14 -4.9448 -0.0718
13 9 15 0.8893 -0.3706
13 9 16 2.5852 0.4187
13 9 17 -4.3069 0.1877
13 11 0 4.9236 0.1451
13 11 1 10.3055 0.0041
13 11 2 -3.8296 0.1585
13 11 3 -1.1751 -0.0793
13 11 4 0.1617 0.0821
13 11 5 -5.9407 -0.1116
13 11 6 9.5824 -0.1662
13 11 7 -5.5180 0.0621
13 11 8 -8.2757 0.1803
13 11 9 2.4477 -0.0644
13 11 10 4.9631 -0.0689
13 11 11 -6.7329 0.1503
13 11 12 -2.3951 -0.2573
13 11 13 5.3699 -0.3921
13 11 14 -0.1168 0.2315
13 11 15 -0.8185 0.3551
13 11 16 0.7668 -0.8311
13 13 0 3.5107 0.0742
13 13 1 2.7829 0.0768
13 13 2 -13.1507 -0.1462
13 13 3 -11.6825 -0.0967
13 13 4 7.2834 -0.0824
13 13 5 0.8660 0.0037
13 13 6 -8.0382 0.0345
13 13 7 6.6405 -0.0430
13 13 8 5.9714 0.0170
13 13 9 -1.4406 0.2082
13 13 10 2.3504 -0.0635
13 13 11 4.0253 -0.2800
13 13 12 4.7237 -0.1071
13 13 13 -3.9656 0.0308
13 13 14 6.3168 -0.1905
13 13 15 3.0703 0.1237
13 13 16 -4.3509 0.8505
13 15 0 -4.4233 0.0524
13 15 1 -17.0103 -0.1772
13 15 2 16.1350 -0.1443
13 15 3 10.4073 0.1535
13 15 4 -5.9930 0.0701
13 15 5 1.7693 -0.0224
13 15 6 8.9051 -0.0058
13 15 7 5.0960 0.2368
13 15 8 -0.9732 0.1496
13 15 9 0.9237 -0.1060
13 15 10 0.9975 -0.0129
13 15 11 -3.6462 -0.0229
13 15 12 4.7720 -0.0494
13 15 13 -3.6431 0.2869
13 15 14 -0.7455 0.4377
13 15 15 1.5628 -0.2273
13 17 0 7.7388 -0.0522
13 17 1 2.2338 0.1354
13 17 2 2.6921 0.1401
13 17 3 14.1122 -0.1560
13 17 4 11.1556 0.0894
13 17 5 -5.0990 0.2789
13 17 6 2.0296 0.0858
13 17 7 11.3968 -0.1940
13 17 8 -2.5520 -0.0707
13 17 9 -9.1482 0.0765
13 17 10 0.2067 -0.1566
13 17 11 -1.0269 -0.1625
13 17 12 -3.6599 0.1485
13 17 13 -3.3322 0.0817
13 17 14 -2.0511 0.3643
13 19 0 -13.2226 -0.0176
13 19 1 8.2976 -0.1675
13 19 2 2.3122 -0.0982
13 19 3 -8.3643 0.1550
13 19 4 -3.0881 -0.0258
13 19 5 11.2299 -0.0463
13 19 6 0.6516 -0.0033
13 19 7 -9.7375 -0.1490
13 19 8 4.1621 -0.2333
13 19 9 6.7178 -0.2509
13 19 10 -5.8925 0.0187
13 19 11 -5.0954 -0.1002
13 19 12 5.4654 -0.2770
13 19 13 1.6224 0.1160
13 19 14 -5.2406 -0.1032
13 21 0 -3.8685 -0.0289
13 21 1 -10.2202 0.1198
13 21 2 -7.8636 -0.0104
13 21 3 -6.4251 -0.2868
13 21 4 -4.0262 0.1909
13 21 5 -2.3263 0.0924
13 21 6 1.6980 -0.0945
13 21 7 -0.8127 -0.1076
13 21 8 -0.2565 -0.0330
13 21 9 3.9890 0.2367
13 21 10 5.0194 0.0001
13 21 11 -2.2472 0.0340
13 21 12 4.7138 -0.1023
13 23 0 2.5682 -0.1387
13 23 1 -0.7481 0.2202
13 23 2 -5.4112 0.3033
13 23 3 -2.2811 0.1361
13 23 4 0.1323 -0.4117
13 23 5 -1.0739 0.1348
13 23 6 -4.8181 0.3240
13 23 7 3.3151 -0.0152
13 23 8 1.2784 -0.1296
13 23 9 -4.0633 -0.0121
13 23 10 2.6005 0.4500
13 23 11 4.1943 0.2933
13 25 0 1.2558 -0.0164
13 25 1 2.8477 -0.3664
13 25 2 8.3716 -0.2244
13 25 3 1.6062 0.2828
13 25 4 -0.3881 0.3041
13 25 5 -1.8157 -0.3290
13 25 6 3.8114 -0.6290
13 25 7 -2.7467 0.0085
13 25 8 -4.3036 -0.0536
13 25 9 1.7686 -0.4528
13 25 10 -2.0304 -0.6873
13 27 0 4.8666 -0.2179
13 27 1 0.8010 -0.0161
13 27 2 1.8853 -0.0153
13 27 3 1.8673 -0.6692
13 27 4 4.1777 0.1798
13 27 5 -0.7650 0.3817
13 27 6 -1.6993 0.0175
13 27 7 2.8484 -1.4018
13 27 8 -1.1394 -0.4361
13 29 0 -2.0250 0.1731
13 29 1 -1.6768 -0.0778
13 29 2 1.9587 0.2266
13 29 3 -1.0968 1.0209
13 29 4 -0.3854 -0.7638
13 29 5 4.2952 -0.1866
13 29 6 -1.6512 2.0068
13 31 0 -2.6969 1.0179
13 31 1 1.4573 -0.5097
13 31 2 0.1157 -0.0063
13 31 3 0.5363 2.9199
14 0 0 -11.2823 -0.9625
14 0 1 9.2093 -5.0579
14 0 2 -1.3452 -2.2944
14 0 3 -21.9854 0.1229
14 0 4 -12.7006 0.5895
14 0 5 -1.0679 1.0320
14 0 6 -4.7459 1.0922
14 0 7 -8.9467 0.3322
14 0 8 -19.0028 -0.1579
14 0 9 11.1780 -0.2961
14 0 10 1.1188 -0.3135
14 0 11 -13.5977 -0.4917
14 0 12 4.5445 -0.1960
14 0 13 10.4386 0.2975
14 0 14 -1.9817 0.4941
14 0 15 -2.5747 0.3544
14 0 16 5.0764 -0.7432
14 0 17 4.9105 -1.2944
14 2 0 -18.3026 -1.4879
14 2 1 -1.2028 -2.1869
14 2 2 -5.8883 -1.4081
14 2 3 -5.2697 -0.0948
14 2 4 1.0047 0.8127
14 2 5 -1.4665 1.0658
14 2 6 -5.6963 0.5905
14 2 7 -1.7320 0.0390
14 2 8 10.5661 -0.0647
14 2 9 -9.8776 -0.1133
14 2 10 -1.7360 -0.4458
14 2 11 6.1380 -0.3767
14 2 12 0.7570 0.3483
14 2 13 -5.9704 0.7329
14 2 14 3.8438 0.2039
14 2 15 6.2456 -1.0306
14 2 16 -6.3505 0.2243
14 2 17 0.4328 1.2946
14 4 0 8.9065 0.5699
14 4 1 -40.6731 0.1707
14 4 2 7.2900 -0.3584
14 4 3 26.9672 0.2117
14 4 4 -3.5771 1.0425
14 4 5 1.1390 0.6550
14 4 6 8.0238 -0.1221
14 4 7 15.3437 -0.2392
14 4 8 4.1992 -0.1743
14 4 9 0.4352 -0.2628
14 4 10 -2.8231 -0.1046
14 4 11 4.4517 0.2629
14 4 12 -0.1065 0.3423
14 4 13 -0.4947 -0.1736
14 4 14 -4.9713 -0.3000
14 4 15 -0.6258 0.4785
14 4 16 3.0400 -0.2411
14 4 17 -2.7298 -1.8135
14 6 0 0.8975 0.0972
14 6 1 19.1431 0.3660
14 6 2 -6.9203 0.3999
14 6 3 -4.4349 0.1742
14 6 4 21.7548 0.0183
14 6 5 0.9579 -0.0357
14 6 6 -8.2326 -0.1784
14 6 7 14.5754 -0.4431
14 6 8 1.6694 -0.1937
14 6 9 -8.3575 0.1547
14 6 10 -0.5983 0.0103
14 6 11 2.2389 -0.0032
14 6 12 -2.0463 0.1429
14 6 13 -2.1258 0.3962
14 6 14 2.3763 -0.6346
14 6 15 -3.6370 -0.9215
14 6 16 1.8354 1.4204
14 8 0 -12.7035 -0.3325
14 8 1 23.5464 -0.0957
14 8 2 20.4137 0.1088
14 8 3 -21.8578 -0.1394
14 8 4 -9.3798 -0.4150
14 8 5 8.8052 -0.3111
14 8 6 1.8611 -0.2288
14 8 7 -22.8876 0.0122
14 8 8 -4.1946 0.0279
14 8 9 -0.9319 0.0491
14 8 10 -5.2181 0.2324
14 8 11 -3.7919 0.1389
14 8 12 -2.8870 -0.0323
14 8 13 1.7759 -0.3158
14 8 14 3.7929 0.5392
14 8 15 0.2296 0.4216
14 8 16 0.4819 -1.8723
14 10 0 18.9875 -0.0504
14 10 1 -9.5023 0.0866
14 10 2 -1.3191 0.0041
14 10 3 14.0793 -0.0576
14 10 4 -11.2544 -0.0962
14 10 5 -12.3130 -0.0780
14 10 6 4.0329 0.0643
14 10 7 -3.0123 0.1706
14 10 8 -12.4823 0.2436
14 10 9 -1.0507 0.1193
14 10 10 -0.6146 -0.0947
14 10 11 0.7593 -0.1209
14 10 12 -5.7645 0.2051
14 10 13 4.6020 0.4304
14 10 14 2.1555 -0.3641
14 10 15 -1.4992 -0.5285
14 10 16 0.4638 2.4570
14 12 0 -9.7622 0.1086
14 12 1 -2.1790 0.0909
14 12 2 -1.3710 0.1662
14 12 3 6.0553 0.1140
14 12 4 9.1059 -0.0086
14 12 5 -1.8129 -0.0403
14 12 6 -3.8200 0.3217
14 12 7 8.7905 0.3399
14 12 8 10.3753 -0.0459
14 12 9 -3.2501 -0.3134
14 12 10 -4.7231 -0.0176
14 12 11 10.8670 0.0386
14 12 12 3.3677 -0.3659
14 12 13 -5.5064 0.0220
14 12 14 -1.2673 0.6071
14 12 15 2.8201 -0.6601
14 14 0 6.0306 -0.0079
14 14 1 -16.6737 -0.1160
14 14 2 4.2918 -0.1702
14 14 3 11.3410 -0.1918
14 14 4 0.8313 0.0608
14 14 5 2.4873 0.1692
14 14 6 8.4787 -0.0063
14 14 7 3.4697 0.0221
14 14 8 -0.9189 0.0296
14 14 9 11.3228 -0.0305
14 14 10 1.2870 -0.3902
14 14 11 -2.6215 -0.1574
14 14 12 4.0717 0.3416
14 14 13 3.1821 -0.0357
14 14 14 -5.1434 -0.4473
14 14 15 -0.7771 1.2108
14 16 0 4.0974 -0.0014
14 16 1 13.4109 -0.1343
14 16 2 -11.5791 -0.2689
14 16 3 -3.6763 0.0193
14 16 4 8.2583 0.1045
14 16 5 2.9795 0.2026
14 16 6 -7.3302 0.0424
14 16 7 -3.3539 -0.1394
14 16 8 5.9389 -0.1590
14 16 9 -3.7244 0.0955
14 16 10 -0.0309 0.3727
14 16 11 2.1857 -0.1196
14 16 12 -1.3024 -0.3346
14 16 13 -1.0099 0.5821
14 16 14 3.8241 0.9583
14 18 0 -9.0090 -0.0397
14 18 1 0.0129 0.0657
14 18 2 8.9660 0.1842
14 18 3 -7.1603 0.2311
14 18 4 -5.4019 0.1983
14 18 5 3.0275 -0.0176
14 18 6 1.8924 -0.0123
14 18 7 -7.7538 -0.0082
14 18 8 -2.6786 -0.0554
14 18 9 1.7621 -0.3724
14 18 10 0.4315 -0.0713
14 18 11 -2.0744 0.6784
14 18 12 0.4156 0.3408
14 18 13 0.4674 -1.5461
14 20 0 1.3267 -0.0506
14 20 1 -3.6109 0.0078
14 20 2 -1.8300 0.0597
14 20 3 6.2133 -0.1135
14 20 4 -0.4325 0.1396
14 20 5 -2.4822 0.0892
14 20 6 5.2772 -0.1166
14 20 7 2.5721 -0.3273
14 20 8 -2.2151 -0.2450
14 20 9 1.1212 0.1719
14 20 10 2.0759 -0.2197
14 20 11 1.5643 -0.5376
14 20 12 -1.9512 0.9528
14 22 0 -4.4054 -0.1733
14 22 1 10.0584 0.0018
14 22 2 -0.1349 -0.2226
14 22 3 -7.1927 -0.1683
14 22 4 2.3282 -0.2345
14 22 5 8.0858 0.1489
14 22 6 -3.9584 0.0782
14 22 7 -4.5077 -0.0118
14 22 8 6.3207 -0.0619
14 22 9 1.6946 0.1137
14 22 10 -4.1221 0.3826
14 22 11 0.5445 -0.2884
14 24 0 4.2156 -0.1582
14 24 1 -6.0137 -0.1109
14 24 2 -0.7893 0.3061
14 24 3 4.2751 0.1490
14 24 4 -5.8664 -0.2841
14 24 5 -6.1209 -0.2942
14 24 6 -0.2856 0.6241
14 24 7 -1.5520 0.7122
14 24 8 -4.6486 0.1190
14 24 9 -1.3755 -0.0167
14 26 0 2.6521 0.3177
14 26 1 -2.6488 0.3341
14 26 2 -1.9143 0.0865
14 26 3 2.2878 0.1619
14 26 4 -0.4088 0.3429
14 26 5 -3.7828 0.2563
14 26 6 -2.9464 -0.1897
14 26 7 0.2045 0.5751
14 26 8 -1.3807 1.2690
14 28 0 -0.2952 0.1700
14 28 1 0.8120 0.4233
14 28 2 5.4307 0.0739
14 28 3 0.6114 -0.3110
14 28 4 1.2547 0.9196
14 28 5 4.8474 0.9830
14 28 6 0.7405 -1.4437
14 30 0 2.2253 0.2417
14 30 1 4.3057 0.9742
14 30 2 1.9433 0.6078
14 30 3 0.3801 -2.7789
15 1 0 -0.2623 -3.2314
15 1 1 -19.3485 -0.0438
15 1 2 -16.2942 0.1802
15 1 3 -2.4717 -0.9519
15 1 4 -4.1498 -0.2831
15 1 5 -5.9763 1.2367
15 1 6 1.2684 1.2629
15 1 7 -0.5177 -0.0107
15 1 8 -1.1979 -0.8132
15 1 9 6.0998 -0.5705
15 1 10 3.7517 0.1016
15 1 11 1.0606 0.4100
15 1 12 -1.8130 -0.0551
15 1 13 5.5517 -0.2371
15 1 14 5.8828 0.4152
15 1 15 -1.7961 0.0373
15 1 16 -0.2940 -0.2187
15 3 0 -2.1124 -1.0369
15 3 1 12.4806 -0.1489
15 3 2 -0.5537 0.8078
15 3 3 -0.2230 0.5187
15 3 4 2.6593 -0.0141
15 3 5 4.7939 0.1515
15 3 6 0.6746 0.3108
15 3 7 1.1566 -0.0682
15 3 8 -4.1496 -0.3523
15 3 9 0.9748 -0.0997
15 3 10 -0.6964 0.2044
15 3 11 -4.5193 0.1462
15 3 12 -0.4240 0.1349
15 3 13 -1.3751 0.1495
15 3 14 -3.0316 -0.0199
15 3 15 -0.8089 -0.2592
15 3 16 3.7988 -0.1007
15 5 0 3.6673 0.5600
15 5 1 16.6764 0.8498
15 5 2 13.9389 0.4760
15 5 3 -3.6796 0.3161
15 5 4 11.7433 0.0942
15 5 5 2.4926 -0.2377
15 5 6 -3.1230 -0.2939
15 5 7 4.3271 -0.1491
15 5 8 -0.6890 -0.0853
15 5 9 -10.2482 0.0569
15 5 10 2.3148 0.2454
15 5 11 -0.1513 0.1271
15 5 12 -7.9539 -0.0944
15 5 13 -0.8006 -0.1267
15 5 14 -0.5424 -0.2950
15 5 15 -1.9758 -0.1240
15 5 16 3.3098 -0.7144
15 7 0 -5.9128 0.0462
15 7 1 0.1571 -0.0206
15 7 2 -6.1328 -0.1354
15 7 3 13.7504 -0.3138
15 7 4 -7.0472 -0.1572
15 7 5 -4.6161 -0.1762
15 7 6 0.6461 -0.2983
15 7 7 -4.6469 -0.1636
15 7 8 1.7694 0.1781
15 7 9 -1.1558 0.2270
15 7 10 -0.4556 -0.0482
15 7 11 -0.3011 0.0334
15 7 12 3.4714 0.0488
15 7 13 1.0912 -0.2004
15 7 14 -0.9505 -0.2797
15 7 15 3.6019 -0.1451
15 9 0 0.5877 -0.0351
15 9 1 -0.1671 -0.4458
15 9 2 -16.5454 -0.3510
15 9 3 -0.8861 -0.1621
15 9 4 7.0035 -0.1223
15 9 5 -17.2091 0.1296
15 9 6 -4.4777 0.0643
15 9 7 4.9059 -0.0480
15 9 8 -3.8540 0.0317
15 9 9 -1.4434 0.2389
15 9 10 1.9063 0.1794
15 9 11 5.4718 -0.1882
15 9 12 -1.8240 0.0217
15 9 13 5.4547 0.3379
15 9 14 1.2436 0.1810
15 9 15 0.2214 -0.3214
15 11 0 -9.5000 0.0769
15 11 1 12.4880 0.1646
15 11 2 7.8818 -0.0759
15 11 3 -11.3241 0.1983
15 11 4 -6.9076 0.3551
15 11 5 12.7648 0.0331
15 11 6 -0.2058 0.1482
15 11 7 -10.7713 0.1606
15 11 8 -1.5590 -0.0923
15 11 9 8.6200 -0.1909
15 11 10 -2.3053 0.0868
15 11 11 -6.3008 0.0779
15 11 12 5.2023 -0.2521
15 11 13 1.2002 0.1257
15 11 14 -4.4289 0.8444
15 13 0 13.5086 0.0924
15 13 1 -0.3024 -0.0881
15 13 2 2.7973 -0.0089
15 13 3 7.6868 0.0160
15 13 4 -2.3875 0.1535
15 13 5 3.7345 0.1597
15 13 6 6.7932 -0.1060
15 13 7 -2.2105 -0.1657
15 13 8 -1.1735 0.0372
15 13 9 0.3536 -0.0105
15 13 10 5.3723 -0.4348
15 13 11 -5.6999 -0.4330
15 13 12 0.9339 0.2971
15 13 13 -0.7851 0.4027
15 13 14 -2.6505 -0.4750
15 15 0 3.7426 -0.3722
15 15 1 3.5518 -0.1987
15 15 2 -9.1856 0.0640
15 15 3 -3.0258 -0.1202
15 15 4 8.9707 -0.3897
15 15 5 -2.5787 -0.0374
15 15 6 -5.3674 0.2960
15 15 7 6.7247 0.0993
15 15 8 7.3278 -0.4265
15 15 9 -3.8371 -0.0927
15 15 10 -0.1742 0.3567
15 15 11 6.8659 0.0976
15 15 12 3.7740 -0.5199
15 15 13 -5.5369 0.2045
15 17 0 -12.0647 0.2234
15 17 1 -10.4573 0.2174
15 17 2 0.0779 -0.2079
15 17 3 0.3067 0.0602
15 17 4 -10.9916 0.2711
15 17 5 -2.1406 -0.0684
15 17 6 3.4209 -0.1495
15 17 7 1.1123 0.0991
15 17 8 -2.3460 0.3797
15 17 9 5.6192 -0.0482
15 17 10 2.4201 -0.1797
15 17 11 2.7861 0.3789
15 17 12 2.7970 0.9804
15 19 0 -4.3970 0.0609
15 19 1 6.4946 0.3596
15 19 2 0.5088 0.5066
15 19 3 -3.6726 -0.0491
15 19 4 -1.3947 -0.2583
15 19 5 0.9482 0.1674
15 19 6 -2.2264 0.2121
15 19 7 -0.4153 -0.3094
15 19 8 1.5636 -0.3245
15 19 9 -2.3666 0.3852
15 19 10 1.6062 0.4311
15 19 11 3.8857 -1.2811
15 21 0 -1.2202 -0.1986
15 21 1 6.8954 -0.4348
15 21 2 7.8927 0.0738
15 21 3 2.0919 0.3573
15 21 4 -3.9397 -0.1019
15 21 5 2.2456 -0.5569
15 21 6 0.6871 0.0489
15 21 7 -2.3611 0.5364
15 21 8 -4.8646 -0.3329
15 21 9 1.2434 -0.5613
15 21 10 -1.0132 0.5992
15 23 0 8.4109 0.2382
15 23 1 -5.5118 0.0754
15 23 2 -2.5856 -0.5104
15 23 3 6.2140 -0.1722
15 23 4 -2.5553 0.4084
15 23 5 -3.7265 0.5810
15 23 6 -4.0809 -0.3347
15 23 7 1.8241 -0.4342
15 23 8 -4.3848 1.0663
15 23 9 -0.2768 0.9995
15 25 0 3.7319 0.2475
15 25 1 -1.7134 0.3480
15 25 2 -6.4865 0.3844
15 25 3 -3.8815 -0.2379
15 25 4 0.5187 -0.3085
15 25 5 1.2935 0.4934
15 25 6 -7.6631 1.1358
15 25 7 0.8414 -1.0887
15 27 0 0.1901 -0.2319
15 27 1 0.0441 -0.1548
15 27 2 3.5176 0.0173
15 27 3 -2.2364 0.2248
15 27 4 -0.9595 0.0242
15 27 5 2.5638 -1.5601
15 29 0 -2.9821 -0.6515
15 29 1 6.5484 -0.1362
15 29 2 3.7565 -0.4424
15 29 3 0.0513 -0.2401
16 0 0 -34.7146 -5.9358
16 0 1 -7.4605 -2.0213
16 0 2 22.1011 1.7453
16 0 3 1.6818 1.5995
16 0 4 -17.7518 -0.3602
16 0 5 3.7699 -1.1317
16 0 6 20.8796 -0.5290
16 0 7 -4.4970 0.2020
16 0 8 4.2855 0.4236
16 0 9 -2.6648 0.1628
16 0 10 4.4602 -0.0031
16 0 11 3.4126 -0.0425
16 0 12 0.6035 0.1484
16 0 13 -4.2359 0.3475
16 0 14 1.2167 0.3176
16 0 15 4.8607 -0.9334
16 2 0 8.8540 -0.4509
16 2 1 0.7017 -1.3412
16 2 2 -3.6908 0.1705
16 2 3 -1.0887 0.9824
16 2 4 -3.4418 0.2736
16 2 5 1.3087 -0.9280
16 2 6 -0.8069 -0.8774
16 2 7 3.4630 -0.0310
16 2 8 -3.8248 0.4471
16 2 9 1.4304 0.3673
16 2 10 -0.2518 0.1170
16 2 11 -1.1151 0.1639
16 2 12 -1.4115 -0.0752
16 2 13 2.2344 0.0022
16 2 14 -0.6631 -0.1097
16 2 15 -1.7927 0.5315
16 4 0 19.9321 0.2603
16 4 1 3.5142 0.7310
16 4 2 -17.4235 0.2036
16 4 3 -4.1861 0.1759
16 4 4 10.8510 -0.1184
16 4 5 -6.0516 -0.4949
16 4 6 -14.1764 -0.5735
16 4 7 0.0499 -0.0139
16 4 8 2.5257 0.4378
16 4 9 -2.9978 0.2255
16 4 10 -7.3549 0.0324
16 4 11 0.7962 -0.0804
16 4 12 3.2427 0.0710
16 4 13 -5.7019 -0.1206
16 4 14 0.4213 -0.0382
16 4 15 3.0339 -0.8225
16 6 0 10.7324 0.3904
16 6 1 -6.7444 0.1898
16 6 2 -2.6084 0.0482
16 6 3 6.8675 -0.2418
16 6 4 -2.7363 -0.2309
16 6 5 2.2037 -0.1212
16 6 6 -2.7428 0.1316
16 6 7 2.1034 0.1526
16 6 8 0.2844 0.0361
16 6 9 4.0671 0.1528
16 6 10 -2.9683 0.0178
16 6 11 1.8943 -0.1840
16 6 12 0.6192 -0.0211
16 6 13 1.2481 -0.1714
16 6 14 -2.4767 -0.6895
16 8 0 -7.6242 -0.1671
16 8 1 9.7251 -0.0795
16 8 2 1.1384 -0.1653
16 8 3 0.1119 -0.3951
16 8 4 5.1993 -0.1967
16 8 5 4.3010 0.3827
16 8 6 3.8594 0.3598
16 8 7 6.3520 0.0675
16 8 8 4.5594 -0.0862
16 8 9 2.2850 -0.0715
16 8 10 2.1859 0.0743
16 8 11 4.2785 0.1883
16 8 12 -0.4476 -0.4563
16 8 13 -0.2755 -0.0083
16 8 14 2.4804 0.6578
16 10 0 -14.6720 -0.0039
16 10 1 -2.2951 -0.0452
16 10 2 16.3525 -0.0242
16 10 3 -7.5524 0.0632
16 10 4 -4.2294 0.1295
16 10 5 2.9701 0.1253
16 10 6 7.8638 0.1936
16 10 7 -6.6208 -0.1721
16 10 8 3.0886 -0.1375
16 10 9 2.6535 0.0931
16 10 10 1.8677 -0.1166
16 10 11 -6.9476 -0.3713
16 10 12 7.9206 0.5470
16 10 13 -1.7630 -0.0056
16 10 14 -2.9339 -0.5031
16 12 0 16.0131 -0.0515
16 12 1 1.4805 0.1152
16 12 2 -13.3605 0.0989
16 12 3 2.1184 0.1673
16 12 4 -1.3678 0.0231
16 12 5 -9.3313 0.0214
16 12 6 -3.7207 -0.0734
16 12 7 0.4929 -0.1694
16 12 8 -5.7442 -0.3247
16 12 9 0.6390 -0.0665
16 12 10 -2.6866 0.1576
16 12 11 -1.2031 -0.3071
16 12 12 1.3192 -0.6506
16 12 13 -0.4573 1.5323
16 14 0 -5.5464 0.0138
16 14 1 0.1992 -0.3122
16 14 2 -3.3113 -0.1587
16 14 3 -2.9900 -0.0071
16 14 4 -1.6445 0.1314
16 14 5 -3.9859 -0.0262
16 14 6 -1.9078 -0.1677
16 14 7 -1.2352 -0.0742
16 14 8 2.2975 0.0509
16 14 9 1.1684 -0.0289
16 14 10 -3.7687 -0.0306
16 14 11 2.9875 0.2591
16 14 12 2.9766 -0.4201
16 16 0 -4.3414 -0.1293
16 16 1 -13.1043 -0.0223
16 16 2 2.9131 0.1052
16 16 3 4.8057 -0.0487
16 16 4 -3.4127 -0.1956
16 16 5 0.1497 0.1063
16 16 6 2.5937 0.2203
16 16 7 7.0416 -0.0709
16 16 8 0.6165 0.0689
16 16 9 3.5163 0.4960
16 16 10 3.8120 0.1552
16 16 11 -1.7793 -0.3215
16 16 12 5.4116 0.4803
16 18 0 -3.9402 0.1282
16 18 1 2.5510 0.1115
16 18 2 -4.9732 -0.0756
16 18 3 -1.6205 0.2189
16 18 4 4.4728 0.1015
16 18 5 -0.1518 -0.3973
16 18 6 -1.9055 -0.2038
16 18 7 3.1283 0.3864
16 18 8 4.6627 0.2699
16 18 9 1.1935 -0.3478
16 18 10 -2.0958 0.0831
16 18 11 3.9702 0.6743
16 20 0 -3.8303 0.0545
16 20 1 3.0551 0.0048
16 20 2 5.2413 0.1234
16 20 3 -6.7857 -0.3063
16 20 4 -5.4311 -0.0795
16 20 5 1.8115 0.2037
16 20 6 0.0079 -0.2116
16 20 7 -5.7724 -0.5254
16 20 8 -3.3798 0.2786
16 20 9 5.3011 0.5667
16 20 10 -2.9514 -1.2215
16 22 0 10.1884 -0.3342
16 22 1 -2.0678 0.2247
16 22 2 -0.3908 0.3830
16 22 3 -0.0270 0.0944
16 22 4 -1.5386 -0.5962
16 22 5 -4.8256 0.0752
16 22 6 -1.4511 0.5545
16 22 7 -1.4575 0.2145
16 22 8 -2.0018 -0.9250
16 24 0 -0.4365 0.1149
16 24 1 0.4418 -0.2419
16 24 2 2.1677 -0.1233
16 24 3 -2.0663 0.0243
16 24 4 1.8120 0.3982
16 24 5 -1.6237 -0.5377
16 24 6 1.6362 -0.3786
16 24 7 -2.8502 0.2550
16 26 0 -0.7148 -0.0561
16 26 1 -1.6090 -0.7555
16 26 2 0.0603 -1.1343
16 26 3 3.7847 -0.8510
16 26 4 0.7931 -0.7094
16 26 5 -1.1271 0.7093
16 28 0 -0.9505 -1.4957
16 28 1 -0.6151 -1.5967
16 28 2 2.0347 -0.2017
17 1 0 7.0848 1.0311
17 1 1 2.8230 -0.1551
17 1 2 4.3865 -1.2410
17 1 3 -1.4096 -0.8225
17 1 4 2.3214 -0.0924
17 1 5 0.9825 -0.2166
17 1 6 0.2974 -0.2627
17 1 7 -1.7233 -0.0110
17 1 8 -3.3043 0.3587
17 1 9 1.2749 0.4697
17 1 10 -5.2263 0.5242
17 1 11 0.9784 0.3032
17 1 12 -4.3929 -0.4647
17 1 13 1.8035 0.0325
17 1 14 -0.5587 -0.1235
17 3 0 -15.4603 0.7031
17 3 1 -11.1013 0.2410
17 3 2 6.7029 -0.2839
17 3 3 -5.1254 -1.0125
17 3 4 -7.8508 -0.8792
17 3 5 -2.6393 0.1070
17 3 6 2.8081 0.5184
17 3 7 -0.4556 -0.2323
17 3 8 0.3348 -0.4313
17 3 9 0.8871 0.3983
17 3 10 -0.1714 0.8220
17 3 11 2.1914 0.1898
17 3 12 -0.4549 -0.4263
17 3 13 1.0723 -0.3844
17 3 14 0.5315 0.3624
17 5 0 4.2985 0.3254
17 5 1 0.3262 0.1813
17 5 2 -19.0665 -0.3554
17 5 3 4.3400 -0.3614
17 5 4 2.2944 -0.2086
17 5 5 -3.2880 0.1758
17 5 6 -1.0816 0.2051
17 5 7 6.1178 0.1146
17 5 8 6.6621 -0.1205
17 5 9 -2.5369 0.0385
17 5 10 4.1653 0.2393
17 5 11 -0.3181 -0.0391
17 5 12 4.0400 -0.1515
17 5 13 -1.5397 -0.4838
17 7 0 -1.7242 -0.2111
17 7 1 13.4553 -0.2652
17 7 2 12.3268 -0.0381
17 7 3 -10.5731 0.2068
17 7 4 11.2026 0.2872
17 7 5 12.5110 0.0226
17 7 6 -1.5713 0.0481
17 7 7 4.2395 0.3065
17 7 8 5.9222 0.2705
17 7 9 1.4251 -0.2107
17 7 10 -5.5546 -0.3598
17 7 11 6.6549 -0.1545
17 7 12 -4.9321 -0.1686
17 7 13 -2.1680 0.5206
17 9 0 -3.0563 -0.3741
17 9 1 12.9259 -0.2530
17 9 2 7.4671 0.3988
17 9 3 3.6065 0.1745
17 9 4 3.7064 0.0318
17 9 5 5.8336 0.1315
17 9 6 7.9097 0.0523
17 9 7 -2.9509 -0.1447
17 9 8 -1.7061 0.0666
17 9 9 3.3101 0.0393
17 9 10 -0.8809 -0.5185
17 9 11 -4.2153 -0.1911
17 9 12 -2.6623 0.2469
17 9 13 0.1320 -0.4593
17 11 0 -2.2237 0.0812
17 11 1 -9.8749 0.3343
17 11 2 -2.2306 -0.1396
17 11 3 2.2017 0.0724
17 11 4 -2.0925 0.0363
17 11 5 -7.4062 -0.0832
17 11 6 -0.3530 -0.1263
17 11 7 4.1367 -0.1903
17 11 8 -5.6796 -0.1214
17 11 9 -0.0306 -0.0302
17 11 10 2.0776 -0.1554
17 11 11 1.0635 -0.5526
17 11 12 -3.2446 0.2687
17 13 0 -10.9662 -0.0645
17 13 1 -11.3613 -0.2343
17 13 2 -4.0493 0.2011
17 13 3 -7.8406 0.0801
17 13 4 -4.7215 -0.1638
17 13 5 -0.0565 -0.1528
17 13 6 -7.6177 -0.0227
17 13 7 -2.3102 0.3200
17 13 8 6.6820 0.0353
17 13 9 -0.8587 -0.3935
17 13 10 0.0072 0.1001
17 13 11 0.2651 0.4360
17 13 12 7.2752 -0.9182
17 15 0 7.5284 0.1222
17 15 1 -2.8293 0.0694
17 15 2 -8.7355 -0.0147
17 15 3 0.5521 -0.0864
17 15 4 5.3778 0.1050
17 15 5 -2.1285 0.2053
17 15 6 -0.6370 0.0340
17 15 7 -1.8770 -0.0290
17 15 8 4.7856 0.4762
17 15 9 -0.1504 0.5324
17 15 10 -0.2892 -0.4169
17 15 11 1.8757 0.1282
17 17 0 1.4735 0.0601
17 17 1 8.9861 0.0047
17 17 2 1.8271 -0.0483
17 17 3 -2.8933 0.0581
17 17 4 6.6379 -0.0479
17 17 5 0.5055 -0.1777
17 17 6 6.0652 0.1285
17 17 7 -7.0925 0.0946
17 17 8 2.1879 -0.1990
17 17 9 3.8860 -0.0406
17 17 10 -4.7734 0.8833
17 19 0 -3.1256 0.0905
17 19 1 -6.3031 0.0022
17 19 2 6.3723 -0.4010
17 19 3 2.5486 -0.4307
17 19 4 -5.8652 0.2103
17 19 5 -1.6667 0.1568
17 19 6 5.0499 -0.5902
17 19 7 0.1653 -0.2121
17 19 8 -4.7119 0.2723
17 19 9 2.2567 -0.7953
17 21 0 -3.6031 -0.2402
17 21 1 -0.2715 -0.2203
17 21 2 -2.1132 -0.1020
17 21 3 -3.4636 0.1495
17 21 4 0.2374 0.0346
17 21 5 -2.0238 0.3118
17 21 6 -0.7156 0.0970
17 21 7 0.5616 -0.4523
17 21 8 1.1958 0.0737
17 23 0 0.4711 0.7018
17 23 1 4.3618 0.1857
17 23 2 -2.3647 -0.1397
17 23 3 -1.3075 -0.1364
17 23 4 2.3690 0.4303
17 23 5 0.5550 0.0223
17 23 6 0.0629 -0.0420
17 25 0 5.2571 0.1351
17 25 1 2.3884 0.5765
17 25 2 -2.8046 -0.5402
17 25 3 4.5788 -1.3926
17 25 4 1.6003 -0.9447
17 27 0 -3.9198 -1.8220
17 27 1 2.4366 -1.9203
17 27 2 -1.8422 -0.5621
18 0 0 7.2836 5.4544
18 0 1 -1.6419 -0.4882
18 0 2 -2.8047 -1.7390
18 0 3 -2.1965 -1.5025
18 0 4 -4.5254 -0.6034
18 0 5 -3.2898 0.4062
18 0 6 -5.4874 0.8457
18 0 7 -7.4197 0.5351
18 0 8 -3.2292 0.0258
18 0 9 -0.1740 0.1658
18 0 10 -2.8694 -0.3794
18 0 11 -5.4120 -1.0241
18 0 12 0.2145 -0.8373
18 0 13 2.6367 0.6496
18 2 0 9.6473 -0.2945
18 2 1 -12.7641 -0.4373
18 2 2 -0.9490 -0.0985
18 2 3 3.6929 -0.5149
18 2 4 -0.7678 -1.1749
18 2 5 -6.5656 -0.4491
18 2 6 2.9775 0.8294
18 2 7 -0.1469 0.9915
18 2 8 -2.4564 0.2825
18 2 9 -0.4653 -0.5847
18 2 10 1.5486 -0.3566
18 2 11 -1.7720 0.1228
18 2 12 -0.2527 0.2811
18 2 13 0.4006 -0.6421
18 4 0 -2.9996 0.0043
18 4 1 13.4089 -0.4879
18 4 2 -2.1866 -0.3868
18 4 3 -6.8468 0.1560
18 4 4 6.9396 -0.0584
18 4 5 10.1690 -0.5053
18 4 6 0.2414 0.0725
18 4 7 4.5816 0.5969
18 4 8 5.8666 0.4499
18 4 9 1.7012 -0.1072
18 4 10 1.5337 -0.5343
18 4 11 1.9848 0.1137
18 4 12 0.6044 0.3524
18 6 0 -4.9162 -0.1747
18 6 1 9.4833 -0.3142
18 6 2 -0.7228 0.0806
18 6 3 1.6177 0.1725
18 6 4 9.1645 0.1240
18 6 5 0.8825 0.3012
18 6 6 4.0218 -0.1030
18 6 7 2.1539 0.0972
18 6 8 5.3479 0.0213
18 6 9 -2.1330 -0.1439
18 6 10 -1.3655 -0.0019
18 6 11 2.1093 -0.3672
18 6 12 0.7535 0.4723
18 8 0 7.5662 -0.0483
18 8 1 -15.4282 0.2439
18 8 2 6.3823 -0.0548
18 8 3 14.2560 -0.1454
18 8 4 -5.8341 0.3728
18 8 5 -3.8325 0.2977
18 8 6 2.7841 0.1167
18 8 7 0.0793 -0.3751
18 8 8 -5.5732 -0.2681
18 8 9 -3.1775 -0.0947
18 8 10 -0.6119 -0.0968
18 8 11 -3.0437 0.4185
18 8 12 -1.9534 -1.0168
18 10 0 -2.8712 -0.1495
18 10 1 5.2622 0.0591
18 10 2 -2.1442 0.1873
18 10 3 -2.1527 0.0395
18 10 4 -0.9792 -0.0704
18 10 5 -0.0592 -0.0630
18 10 6 1.1865 -0.0420
18 10 7 -4.5906 0.0327
18 10 8 -1.5535 -0.1598
18 10 9 0.5305 -0.6579
18 10 10 -2.6020 -0.2268
18 10 11 -1.3853 1.5798
18 12 0 -5.5051 0.1596
18 12 1 -0.8147 0.2188
18 12 2 -0.9457 -0.0466
18 12 3 -7.8461 -0.2139
18 12 4 3.1001 -0.1319
18 12 5 -0.6857 0.3339
18 12 6 6.4517 0.0446
18 12 7 -1.9130 -0.3477
18 12 8 1.4007 -0.1701
18 12 9 2.6835 0.7159
18 12 10 3.6035 0.2161
18 12 11 -1.0274 -2.6708
18 14 0 6.6800 -0.0649
18 14 1 -0.2148 0.1526
18 14 2 -5.1416 0.0990
18 14 3 -1.2112 0.0391
18 14 4 0.8455 -0.0956
18 14 5 3.4150 -0.2027
18 14 6 -2.2925 0.3865
18 14 7 2.1144 0.6882
18 14 8 2.5759 -0.2470
18 14 9 0.3550 -0.7309
18 14 10 -0.4017 2.6716
18 16 0 3.9251 0.4004
18 16 1 -0.2377 0.0167
18 16 2 1.4593 -0.0070
18 16 3 0.7423 -0.2192
18 16 4 -0.1176 0.0117
18 16 5 -2.1481 0.0544
18 16 6 -1.8380 -0.1788
18 16 7 -2.2752 -0.0975
18 16 8 -0.9693 0.6311
18 16 9 -1.2630 -0.3147
18 18 0 -0.8364 0.0209
18 18 1 2.4005 0.0833
18 18 2 3.0999 0.0137
18 18 3 -0.0235 -0.1783
18 18 4 -0.0756 -0.5679
18 18 5 -2.0710 -0.3343
18 18 6 -0.7265 0.5862
18 18 7 1.1762 -0.0117
18 18 8 -6.3400 -2.8577
18 20 0 -3.1754 -0.1605
18 20 1 2.0221 -0.1355
18 20 2 3.0228 -0.4179
18 20 3 -0.4740 0.7176
18 20 4 0.5405 0.6680
18 20 5 3.0782 -0.9529
18 20 6 0.4698 -0.9975
18 20 7 2.4571 3.7858
18 22 0 -1.8492 0.5568
18 22 1 -1.8343 0.4698
18 22 2 2.2040 0.4204
18 22 3 2.9551 -0.3046
18 22 4 -1.5285 0.8289
18 22 5 2.9809 2.0899
18 24 0 5.3808 -0.1587
18 24 1 0.8485 0.3519
18 24 2 -3.0561 1.0979
18 24 3 -0.3584 0.5660
18 24 4 3.5998 -2.9243
18 26 0 2.1239 -0.2369
18 26 1 -0.5026 -1.5148
19 1 0 -13.9869 -1.1894
19 1 1 -6.8770 -0.8934
19 1 2 9.1120 -0.0624
19 1 3 -4.8290 0.2735
19 1 4 -15.5511 0.3449
19 1 5 1.2995 0.3520
19 1 6 4.7090 0.1042
19 1 7 -2.7917 -0.2528
19 1 8 -5.4578 -0.1374
19 1 9 2.2715 -0.2603
19 1 10 2.4124 -0.4756
19 1 11 -2.4373 -0.9924
19 3 0 18.3495 -0.7104
19 3 1 11.0935 0.0605
19 3 2 -12.4579 -0.2136
19 3 3 7.3006 -0.2457
19 3 4 9.6011 0.3832
19 3 5 -0.6858 0.4996
19 3 6 -3.6815 -0.1162
19 3 7 3.6698 -0.4198
19 3 8 4.2929 0.1235
19 3 9 -4.5800 0.3852
19 3 10 -0.0180 -0.2232
19 3 11 0.7535 -0.2478
19 5 0 5.2588 0.0149
19 5 1 -4.4771 -0.1041
19 5 2 9.9174 0.2009
19 5 3 6.9194 0.2845
19 5 4 2.3628 -0.1669
19 5 5 4.4699 -0.1007
19 5 6 -2.0588 0.1346
19 5 7 2.9137 0.0890
19 5 8 -0.4894 -0.1850
19 5 9 4.8676 -0.0129
19 5 10 -9.8635 0.1865
19 5 11 6.3690 -0.1029
19 7 0 -6.8048 0.2966
19 7 1 9.4265 0.0728
19 7 2 -9.5331 -0.0853
19 7 3 -3.9217 0.0202
19 7 4 5.5450 0.2189
19 7 5 -3.1468 -0.0616
19 7 6 -4.4434 -0.2483
19 7 7 -1.2389 0.1404
19 7 8 2.9069 0.1068
19 7 9 -2.9421 -0.4420
19 7 10 -0.1501 -0.0034
19 7 11 -0.6240 0.5652
19 9 0 -11.8133 -0.2368
19 9 1 -4.6312 0.2081
19 9 2 0.2752 0.0355
19 9 3 -4.8535 -0.2285
19 9 4 -6.2313 0.1079
19 9 5 -3.6164 0.0015
19 9 6 0.3973 -0.0943
19 9 7 -1.8770 -0.1918
19 9 8 -0.8421 0.1280
19 9 9 -2.8148 0.2739
19 9 10 2.6809 -0.5750
19 11 0 0.5982 0.2181
19 11 1 -1.0702 -0.2416
19 11 2 0.2247 -0.0794
19 11 3 3.4190 0.3233
19 11 4 -3.5315 -0.1444
19 11 5 1.1666 -0.2536
19 11 6 2.1444 0.0053
19 11 7 -0.2748 0.3097
19 11 8 0.3866 -0.0922
19 11 9 0.2484 -0.4380
19 11 10 0.6330 0.1384
19 13 0 4.2408 -0.0358
19 13 1 6.2183 0.0384
19 13 2 1.3964 -0.1450
19 13 3 0.8386 -0.0035
19 13 4 6.1295 0.1793
19 13 5 1.1032 0.0643
19 13 6 -0.3279 -0.0520
19 13 7 2.6211 0.1160
19 13 8 0.8985 0.0653
19 13 9 -0.8378 -0.2283
19 15 0 -4.1907 0.2231
19 15 1 5.1724 0.0294
19 15 2 0.6091 -0.2291
19 15 3 -2.6425 -0.2417
19 15 4 1.7003 0.1611
19 15 5 0.0090 0.2004
19 15 6 -1.5241 -0.0053
19 15 7 -2.2241 -0.3292
19 15 8 0.9910 -0.0117
19 17 0 0.9356 -0.1803
19 17 1 -0.7397 -0.0937
19 17 2 -4.2224 0.4150
19 17 3 1.1911 -0.0011
19 17 4 -1.0869 -0.5906
19 17 5 -4.2680 -0.5646
19 17 6 -1.1428 0.1213
19 17 7 -0.2399 0.1220
19 19 0 -3.7839 0.1111
19 19 1 1.7549 -0.1000
19 19 2 2.8569 -0.2833
19 19 3 1.0043 0.5868
19 19 4 -0.3516 0.3066
19 19 5 -1.0641 -0.5562
19 19 6 3.6311 -0.7694
19 21 0 1.1685 0.3347
19 21 1 1.0247 1.0716
19 21 2 4.3520 0.3836
19 21 3 0.9132 -0.1321
19 21 4 2.6420 0.5449
19 21 5 1.5257 1.8141
19 23 0 0.2075 -0.2440
19 23 1 0.7882 -0.2713
19 23 2 0.0095 1.8201
19 23 3 0.0232 1.4855
19 25 0 -4.8719 0.9115
20 0 0 19.5452 -7.8507
20 0 1 -13.9254 0.6204
20 0 2 -9.1809 3.3649
20 0 3 12.5773 0.5145
20 0 4 3.0346 -0.1545
20 0 5 -2.8317 0.7957
20 0 6 4.4634 0.5769
20 0 7 11.2304 -0.3248
20 0 8 -5.0159 -1.1378
20 0 9 2.0002 -1.3125
20 0 10 1.9560 0.3040
20 2 0 -9.9086 -2.2201
20 2 1 4.6273 0.6442
20 2 2 5.9030 0.8354
20 2 3 -0.2157 0.2889
20 2 4 -6.2270 0.3366
20 2 5 7.3229 0.9123
20 2 6 2.5211 0.3217
20 2 7 -2.9753 -0.8446
20 2 8 -0.5719 -0.6872
20 2 9 4.2159 0.2284
20 2 10 -4.6482 -0.3597
20 4 0 1.7469 0.9539
20 4 1 1.9755 -0.6527
20 4 2 1.3764 -0.5741
20 4 3 -2.1856 0.5990
20 4 4 4.7253 0.6037
20 4 5 -6.6091 -0.3867
20 4 6 -4.5641 -0.4333
20 4 7 0.1746 0.2078
20 4 8 -0.9666 -0.0661
20 4 9 -4.3024 -0.6113
20 4 10 -1.7667 0.4642
20 6 0 9.5261 0.1017
20 6 1 -1.0447 0.3280
20 6 2 -5.3062 0.1143
20 6 3 -3.7552 -0.4682
20 6 4 2.0391 -0.3180
20 6 5 0.8903 0.3066
20 6 6 -7.3683 0.0532
20 6 7 -0.7146 -0.5887
20 6 8 3.9500 -0.0766
20 6 9 -4.3835 0.7430
20 6 10 2.3880 -0.1663
20 8 0 -9.5060 0.0963
20 8 1 2.9708 -0.1497
20 8 2 -5.3738 -0.1921
20 8 3 -4.5058 0.2638
20 8 4 -0.3271 0.2552
20 8 5 1.2623 -0.5802
20 8 6 3.6566 -0.2850
20 8 7 -1.6760 0.7800
20 8 8 1.0934 0.5373
20 8 9 5.6576 -0.4943
20 10 0 -10.0246 -0.0545
20 10 1 2.9796 0.2454
20 10 2 -5.3119 0.0549
20 10 3 0.5694 -0.3014
20 10 4 3.5527 -0.2053
20 10 5 -4.6725 0.3767
20 10 6 1.1163 0.2182
20 10 7 6.3771 -0.3453
20 10 8 -4.2237 0.0216
20 10 9 1.9988 0.8719
20 12 0 -3.8243 0.1640
20 12 1 0.4350 -0.2504
20 12 2 5.6406 -0.0460
20 12 3 1.4496 0.1431
20 12 4 -3.5010 -0.1958
20 12 5 2.1503 -0.1905
20 12 6 -2.9481 0.2766
20 12 7 -1.4039 0.1226
20 12 8 0.0263 -0.9547
20 14 0 10.0394 -0.1095
20 14 1 -2.7927 0.1302
20 14 2 -0.5870 -0.0081
20 14 3 3.5281 0.0655
20 14 4 1.6235 -0.0350
20 14 5 -2.1888 -0.0360
20 14 6 -2.2599 -0.0088
20 14 7 0.3172 0.2254
20 16 0 0.9226 -0.2622
20 16 1 3.5056 -0.1195
20 16 2 -2.7416 0.5212
20 16 3 -0.3490 0.0906
20 16 4 0.0525 0.0527
20 16 5 3.7138 -0.1017
20 16 6 -1.7425 -0.4558
20 18 0 -3.5440 0.2173
20 18 1 -1.2175 -0.0282
20 18 2 2.8888 0.0020
20 18 3 0.1978 0.0249
20 18 4 -3.0942 -0.0908
20 18 5 3.8722 1.1407
20 20 0 0.8724 -0.5526
20 20 1 -1.2030 -0.0686
20 20 2 1.1203 0.0377
20 20 3 1.2232 0.8837
20 20 4 -0.5166 -0.5386
20 22 0 2.8260 1.6876
20 22 1 -4.0849 0.0540
20 22 2 3.5171 -2.4122
21 1 0 -0.7132 2.5115
21 1 1 8.6237 2.1921
21 1 2 5.6988 0.5554
21 1 3 6.6635 0.3425
21 1 4 5.3400 1.0706
21 1 5 5.2250 0.7276
21 1 6 0.2584 -0.3124
21 1 7 7.4525 -0.0550
21 1 8 -0.0703 0.0423
21 1 9 -3.6046 -0.1328
21 3 0 3.3000 -0.1528
21 3 1 -3.6533 0.9073
21 3 2 -0.8999 0.6090
21 3 3 -0.3314 0.1150
21 3 4 -4.3010 -0.0344
21 3 5 -0.0747 0.0861
21 3 6 -3.0925 -0.0578
21 3 7 1.3606 -0.0779
21 3 8 -5.5290 0.1725
21 3 9 3.9769 0.1421
21 5 0 -6.4082 0.5575
21 5 1 7.8046 -0.2520
21 5 2 -7.6615 -0.4056
21 5 3 -12.3237 -0.0997
21 5 4 -0.4828 -0.2052
21 5 5 -0.4324 -0.3165
21 5 6 -5.0205 -0.0999
21 5 7 -5.0020 -0.1804
21 5 8 2.4222 0.1457
21 7 0 -7.2213 0.0486
21 7 1 -5.9840 -0.3212
21 7 2 2.7056 -0.1494
21 7 3 3.0355 -0.1507
21 7 4 -1.1802 0.0295
21 7 5 -2.3488 -0.1069
21 7 6 2.9819 -0.0111
21 7 7 4.4779 0.2934
21 7 8 -1.8868 0.0885
21 9 0 -0.8664 -0.2324
21 9 1 0.8184 0.5009
21 9 2 1.1024 0.1135
21 9 3 3.0455 -0.3462
21 9 4 3.4985 -0.0626
21 9 5 3.3666 0.7082
21 9 6 0.2806 0.4408
21 9 7 3.7468 -0.2096
21 9 8 3.0608 -0.0585
21 11 0 -2.8284 0.0242
21 11 1 -0.8985 -0.5300
21 11 2 0.4000 0.0664
21 11 3 0.3619 0.5701
21 11 4 -2.5276 -0.0917
21 11 5 -0.1671 -0.5807
21 11 6 1.2163 0.0278
21 11 7 -0.3892 0.8880
21 13 0 0.3258 0.0050
21 13 1 2.5181 0.4381
21 13 2 -3.6528 -0.1658
21 13 3 -3.6981 -0.5089
21 13 4 -1.6478 0.1620
21 13 5 1.4910 0.2970
21 13 6 -4.9827 -1.2027
21 15 0 3.1459 -0.1209
21 15 1 -1.3757 0.2529
21 15 2 4.2786 0.9128
21 15 3 -1.2983 0.1202
21 15 4 -1.2253 -0.6092
21 15 5 5.5052 0.5691
21 17 0 2.1321 0.9011
21 17 1 -0.7069 0.5402
21 17 2 0.9410 -0.1265
21 17 3 4.3351 0.2587
21 17 4 1.9218 1.4686
21 19 0 -1.0990 -0.5479
21 19 1 -0.4618 0.7116
21 19 2 1.4201 0.5917
21 19 3 -3.3371 -1.2747
21 21 0 -4.7395 -0.5076
21 21 1 -1.2333 -1.2780
22 0 0 -0.6265 -5.3891
22 0 1 10.1306 3.1680
22 0 2 8.8738 3.3115
22 0 3 5.2098 0.1336
22 0 4 -0.6211 -1.2572
22 0 5 1.0104 -0.7307
22 0 6 4.1144 0.4529
22 0 7 -2.8976 0.1474
22 2 0 9.0878 -0.6190
22 2 1 -0.7242 1.1901
22 2 2 -2.0705 1.1935
22 2 3 3.0986 0.1163
22 2 4 6.0960 -0.0369
22 2 5 -3.8388 -0.1784
22 2 6 -2.1545 -0.3718
22 2 7 2.5732 0.4586
22 4 0 -1.8444 0.0268
22 4 1 -7.8337 0.1405
22 4 2 -4.5359 0.4546
22 4 3 0.2915 0.1042
22 4 4 -3.9879 -1.3131
22 4 5 2.0500 0.0817
22 4 6 -1.9403 0.9818
22 4 7 -3.1975 0.0536
22 6 0 -0.1517 -0.0619
22 6 1 -4.8220 0.0166
22 6 2 -2.8554 -0.5095
22 6 3 -2.3523 -0.7442
22 6 4 2.3625 0.6885
22 6 5 -0.6722 -0.4011
22 6 6 -3.0378 -0.3268
22 6 7 1.0111 0.0235
22 8 0 3.3028 -0.2436
22 8 1 2.1428 -0.2763
22 8 2 1.4218 0.4300
22 8 3 2.7675 0.3087
22 8 4 -0.8391 -0.6782
22 8 5 2.6864 0.4628
22 8 6 -0.2673 0.3314
22 10 0 -2.0546 0.6103
22 10 1 1.3054 0.0610
22 10 2 3.3806 -0.5226
22 10 3 3.0845 0.3700
22 10 4 -4.2636 1.0251
22 10 5 2.8026 -0.2138
22 10 6 3.2433 -0.8451
22 12 0 -0.2514 -0.6656
22 12 1 1.8068 0.4342
22 12 2 -3.4907 0.4340
22 12 3 -2.1821 -0.5671
22 12 4 0.9072 -0.4900
22 12 5 1.0977 0.2370
22 14 0 -0.1602 0.2302
22 14 1 -1.8247 -0.5004
22 14 2 1.1864 -0.3166
22 14 3 0.2768 0.3249
22 14 4 -2.6283 0.5984
22 16 0 5.0159 -0.0722
22 16 1 -3.1221 0.7807
22 16 2 3.2917 0.9051
22 16 3 1.0676 -0.3091
22 18 0 -1.1444 1.1403
22 18 1 -0.0415 -1.6926
23 1 0 -1.4699 0.3475
23 1 1 -1.3967 -1.0818
23 1 2 -0.3486 -0.9668
23 1 3 -0.1205 -0.3451
23 1 4 -7.1960 -0.1042
23 1 5 -0.0880 -0.6451
23 1 6 1.0137 -1.2677
23 3 0 -0.3791 -0.2895
23 3 1 0.7394 -0.7393
23 3 2 2.6625 -0.4966
23 3 3 -1.6922 0.0615
23 3 4 0.4680 0.1424
23 3 5 -0.6712 0.4905
23 5 0 3.7731 0.1737
23 5 1 -1.5995 -0.1229
23 5 2 -2.5905 -0.7000
23 5 3 4.9710 -0.1422
23 5 4 0.2354 0.5404
23 5 5 -1.3159 0.0430
23 7 0 -5.5313 -0.1686
23 7 1 6.3380 0.2625
23 7 2 -1.0852 0.1902
23 7 3 -6.0396 -0.7202
23 7 4 -0.1574 -0.2297
23 7 5 4.2720 0.1383
23 9 0 -2.8763 0.3537
23 9 1 -2.0051 -0.3109
23 9 2 1.3003 0.1254
23 9 3 -0.1576 0.7916
23 9 4 -2.7896 -0.5682
23 11 0 2.1712 0.3934
23 11 1 -3.6468 0.9712
23 11 2 1.0827 -0.3098
23 11 3 4.4771 -0.5114
23 13 0 1.0807 -0.2778
23 13 1 -5.3832 -0.4947
23 13 2 3.4146 -0.0397
23 13 3 4.8323 -0.0422
23 15 0 2.5976 0.1874
23 15 1 1.6942 0.0796
23 17 0 -0.5538 0.0841
24 0 0 -3.7787 5.0412
24 0 1 -7.5195 -0.9566
24 0 2 -2.5561 -3.4434
24 0 3 -5.3014 -2.7128
24 0 4 1.8380 -0.1475
24 2 0 0.2721 -0.6200
24 2 1 -1.9207 -0.8484
24 2 2 -2.0317 -0.2042
24 2 3 0.9691 -0.1834
24 2 4 -0.0628 -0.7384
24 4 0 2.2387 -0.3228
24 4 1 8.2621 0.3316
24 4 2 0.4072 0.0860
24 4 3 -2.8397 -0.0303
24 6 0 -0.6635 -0.3487
24 6 1 2.3322 -1.2336
24 6 2 0.3323 -0.1003
24 6 3 0.0806 2.6939
24 8 0 -0.4994 0.2109
24 8 1 -6.5418 0.7163
24 8 2 -4.6636 -0.1381
24 8 3 1.8107 -3.3579
24 10 0 0.2459 -1.0051
24 10 1 -2.7056 -0.7942
24 10 2 -1.8357 3.7216
24 12 0 3.6928 1.0698
24 12 1 0.4121 -1.1762
24 14 0 3.6681 -1.3351
25 1 0 -0.3349 -1.1269
25 1 1 -2.9008 -0.6770
25 1 2 0.5914 0.4356
25 3 0 0.0158 0.2942
25 3 1 3.6476 0.1650
25 3 2 -0.1777 0.2714
25 5 0 4.4836 -0.2889
25 5 1 2.9431 -0.1752
25 7 0 -1.5972 -0.2480
25 7 1 -1.9728 -0.2424
25 9 0 -6.9134 -0.8228
0 0 0 0.0 0.0
;
_shelx_fab_checksum              19578
_olex2_submission_special_instructions 'No special instructions were received'
loop_
_space_group_symop_operation_xyz
'x, y, z'
'-x, y, -z'
'x+1/2, y+1/2, z'
'-x+1/2, y+1/2, -z'
'-x, -y, -z'
'x, -y, z'
'-x+1/2, -y+1/2, -z'
'x+1/2, -y+1/2, z'
loop_
_atom_site_label
_atom_site_type_symbol
_atom_site_fract_x
_atom_site_fract_y
_atom_site_fract_z
_atom_site_U_iso_or_equiv
_atom_site_adp_type
_atom_site_occupancy
_atom_site_site_symmetry_order
_atom_site_calc_flag
_atom_site_refinement_flags_posn
_atom_site_refinement_flags_adp
_atom_site_refinement_flags_occupancy
_atom_site_disorder_assembly
_atom_site_disorder_group
Cu1 Cu -0.30548(2) 0.25401(2) 0.13350(2) 0.01745(9) Uani 1 1 d . . . . .
Cu2 Cu -0.44460(2) 0.24653(2) 0.18874(2) 0.01693(8) Uani 1 1 d . . . . .
Cu3 Cu -0.13840(2) 0.24896(2) 0.12479(2) 0.01510(8) Uani 1 1 d . . . . .
O1 O -0.39358(11) 0.22272(8) 0.13175(12) 0.0216(4) Uani 1 1 d . . . . .
O2 O -0.21353(10) 0.28455(7) 0.14421(12) 0.0214(4) Uani 1 1 d . . . . .
O3 O -0.34934(14) 0.27312(14) 0.01315(14) 0.0438(7) Uani 1 1 d . . . . .
O4 O -0.43575(11) 0.28591(8) -0.09563(12) 0.0215(4) Uani 1 1 d . . . . .
N1 N -0.36416(14) 0.39326(9) 0.19630(16) 0.0250(5) Uani 1 1 d . . . . .
N2 N -0.33901(13) 0.31722(9) 0.16969(14) 0.0207(4) Uani 1 1 d . . . . .
N3 N -0.39442(12) 0.31342(8) 0.19497(13) 0.0180(4) Uani 1 1 d . . . . .
N4 N -0.23269(13) 0.10698(8) 0.11791(14) 0.0201(4) Uani 1 1 d . . . . .
N5 N -0.26348(12) 0.18656(8) 0.12012(14) 0.0206(4) Uani 1 1 d . . . . .
N6 N -0.19579(12) 0.18501(8) 0.11627(13) 0.0186(4) Uani 1 1 d . . . . .
N7 N -0.54981(13) 0.10649(8) 0.13778(15) 0.0211(4) Uani 1 1 d . . . . .
N8 N -0.50880(12) 0.18415(8) 0.16195(13) 0.0177(4) Uani 1 1 d . . . . .
N9 N -0.58479(12) 0.18572(8) 0.12926(14) 0.0188(4) Uani 1 1 d . . . . .
N10 N -0.01230(14) 0.22177(11) 0.35600(14) 0.0263(5) Uani 1 1 d . . . . .
N11 N -0.06268(13) 0.23137(11) 0.23891(14) 0.0245(5) Uani 1 1 d . . . . .
N12 N 0.01321(12) 0.23269(9) 0.26090(13) 0.0191(4) Uani 1 1 d . . . . .
C1 C -0.29786(19) 0.47378(11) 0.2206(3) 0.0393(9) Uani 1 1 d . . . . .
H1 H -0.252898 0.455454 0.233727 0.047 Uiso 1 1 calc R U . . .
C2 C -0.36421(17) 0.44787(10) 0.2011(2) 0.0274(6) Uani 1 1 d . . . . .
C3 C -0.43020(18) 0.47353(11) 0.1842(2) 0.0354(8) Uani 1 1 d . . . . .
H3 H -0.474898 0.455138 0.172736 0.042 Uiso 1 1 calc R U . . .
C4 C -0.32207(16) 0.36542(10) 0.17071(19) 0.0256(6) Uani 1 1 d . . . . .
H4 H -0.285563 0.378888 0.155678 0.031 Uiso 1 1 calc R U . . .
C5 C -0.40899(16) 0.35972(10) 0.21072(17) 0.0225(5) Uani 1 1 d . . . . .
H5 H -0.445125 0.368318 0.229232 0.027 Uiso 1 1 calc R U . . .
C6 C -0.29928(15) 0.02673(10) 0.07873(17) 0.0235(5) Uani 1 1 d . . . . .
H6 H -0.343181 0.045216 0.052604 0.028 Uiso 1 1 calc R U . . .
C7 C -0.23405(15) 0.05216(9) 0.11755(17) 0.0204(5) Uani 1 1 d . . . . .
C8 C -0.16902(16) 0.02686(11) 0.1569(2) 0.0291(6) Uani 1 1 d . . . . .
H8 H -0.125251 0.045367 0.183387 0.035 Uiso 1 1 calc R U . . .
C9 C -0.28502(15) 0.13958(10) 0.12077(18) 0.0232(5) Uani 1 1 d . . . . .
H9 H -0.330471 0.129646 0.122929 0.028 Uiso 1 1 calc R U . . .
C10 C -0.17736(15) 0.13712(10) 0.11633(18) 0.0231(5) Uani 1 1 d . . . . .
H10 H -0.132209 0.125222 0.115398 0.028 Uiso 1 1 calc R U . . .
C11 C -0.4991(2) 0.02638(11) 0.1183(3) 0.0423(10) Uani 1 1 d . . . . .
H11 H -0.463533 0.044777 0.106933 0.051 Uiso 1 1 calc R U . . .
C12 C -0.55130(16) 0.05179(10) 0.13501(18) 0.0234(5) Uani 1 1 d . . . . .
C13 C -0.6052(2) 0.02647(11) 0.1484(3) 0.0484(12) Uani 1 1 d . . . . .
H13 H -0.642231 0.044873 0.157565 0.058 Uiso 1 1 calc R U . . .
C14 C -0.48866(14) 0.13636(9) 0.16665(16) 0.0201(5) Uani 1 1 d . . . . .
H14 H -0.439259 0.124344 0.186944 0.024 Uiso 1 1 calc R U . . .
C15 C -0.60792(15) 0.13865(10) 0.11487(17) 0.0218(5) Uani 1 1 d . . . . .
H15 H -0.658075 0.128592 0.091772 0.026 Uiso 1 1 calc R U . . .
C16 C -0.0529(4) 0.1934(4) 0.4487(4) 0.0418(18) Uani 0.5 1 d . . P . .
H16 H -0.091321 0.174856 0.412665 0.050 Uiso 0.5 1 calc R U P . .
C16' C -0.0610(5) 0.2440(5) 0.4466(4) 0.058(3) Uani 0.5 1 d D . P . .
H16' H -0.102514 0.258474 0.408690 0.070 Uiso 0.5 1 calc DR U P . .
C17 C -0.00550(19) 0.21931(15) 0.43013(17) 0.0323(7) Uani 1 1 d . . . . .
C18 C 0.0550(5) 0.2471(4) 0.4840(4) 0.052(3) Uani 0.5 1 d . . P . .
H18 H 0.088689 0.266493 0.471039 0.062 Uiso 0.5 1 calc R U P . .
C18' C 0.0477(5) 0.1926(4) 0.4797(4) 0.0446(19) Uani 0.5 1 d D . P . .
H18' H 0.081528 0.173262 0.466852 0.053 Uiso 0.5 1 calc DR U P . .
C19 C -0.07633(17) 0.22492(14) 0.29676(17) 0.0287(6) Uani 1 1 d . . . . .
H19 H -0.124172 0.222735 0.297421 0.034 Uiso 1 1 calc R U . . .
C20 C 0.04222(16) 0.22697(12) 0.33122(16) 0.0246(5) Uani 1 1 d . . . . .
H20 H 0.093533 0.226529 0.360470 0.030 Uiso 1 1 calc R U . . .
C21 C -0.41129(17) 0.28676(13) -0.02637(18) 0.0282(6) Uani 1 1 d . . . . .
H21 H -0.443168 0.298699 -0.004427 0.034 Uiso 1 1 calc R U . . .
N13 N -0.500000 0.13351(14) 0.000000 0.0231(6) Uani 1 2 d S T P . .
O6 O -0.44172(14) 0.11006(10) 0.03287(16) 0.0407(6) Uani 1 1 d . . . . .
O7 O -0.500000 0.18175(13) 0.000000 0.0382(8) Uani 1 2 d S T P . .
loop_
_atom_site_aniso_label
_atom_site_aniso_U_11
_atom_site_aniso_U_22
_atom_site_aniso_U_33
_atom_site_aniso_U_23
_atom_site_aniso_U_13
_atom_site_aniso_U_12
Cu1 0.01450(15) 0.01123(14) 0.03195(18) -0.00459(11) 0.01486(13) -0.00245(10)
Cu2 0.01815(16) 0.01113(14) 0.02808(17) -0.00354(11) 0.01617(13) -0.00355(10)
Cu3 0.01457(15) 0.00957(14) 0.02540(17) -0.00165(10) 0.01240(12) -0.00165(9)
O1 0.0182(8) 0.0178(9) 0.0354(11) -0.0102(8) 0.0179(8) -0.0060(7)
O2 0.0160(8) 0.0148(8) 0.0397(11) -0.0068(8) 0.0176(8) -0.0040(7)
O3 0.0257(11) 0.080(2) 0.0277(12) 0.0033(13) 0.0130(10) -0.0038(13)
O4 0.0186(9) 0.0196(9) 0.0307(10) -0.0020(8) 0.0145(8) 0.0000(7)
N1 0.0235(11) 0.0098(9) 0.0502(16) -0.0022(9) 0.0236(11) -0.0020(8)
N2 0.0188(10) 0.0138(10) 0.0372(13) -0.0031(9) 0.0193(9) -0.0019(8)
N3 0.0175(10) 0.0130(9) 0.0294(11) -0.0024(8) 0.0156(9) -0.0020(7)
N4 0.0194(10) 0.0102(9) 0.0342(12) -0.0014(8) 0.0142(9) -0.0007(7)
N5 0.0167(10) 0.0117(9) 0.0387(13) -0.0030(9) 0.0167(9) -0.0010(7)
N6 0.0170(9) 0.0127(9) 0.0319(12) -0.0042(8) 0.0160(9) -0.0025(7)
N7 0.0188(10) 0.0099(9) 0.0393(13) -0.0001(9) 0.0165(10) -0.0007(7)
N8 0.0154(9) 0.0106(9) 0.0314(11) 0.0001(8) 0.0139(9) 0.0006(7)
N9 0.0161(9) 0.0116(9) 0.0318(12) -0.0003(8) 0.0127(9) -0.0002(7)
N10 0.0239(11) 0.0378(14) 0.0215(11) 0.0013(10) 0.0137(9) 0.0019(10)
N11 0.0181(10) 0.0311(13) 0.0273(12) 0.0020(10) 0.0122(9) -0.0001(9)
N12 0.0179(10) 0.0187(10) 0.0243(11) 0.0015(8) 0.0123(8) 0.0019(8)
C1 0.0286(15) 0.0105(13) 0.083(3) 0.0002(14) 0.0260(17) 0.0012(10)
C2 0.0265(14) 0.0098(11) 0.0540(19) -0.0010(11) 0.0245(13) -0.0011(10)
C3 0.0257(14) 0.0139(13) 0.072(3) 0.0002(13) 0.0254(16) -0.0018(10)
C4 0.0249(13) 0.0131(11) 0.0498(18) -0.0009(11) 0.0265(13) -0.0002(9)
C5 0.0241(12) 0.0115(11) 0.0412(16) -0.0026(10) 0.0229(12) -0.0014(9)
C6 0.0193(12) 0.0118(12) 0.0381(15) 0.0011(10) 0.0097(11) 0.0022(9)
C7 0.0197(11) 0.0077(10) 0.0360(14) -0.0017(9) 0.0133(10) -0.0017(8)
C8 0.0198(12) 0.0143(13) 0.0487(19) -0.0009(11) 0.0086(12) -0.0020(9)
C9 0.0175(11) 0.0136(11) 0.0443(16) -0.0049(10) 0.0184(11) -0.0034(9)
C10 0.0185(11) 0.0138(11) 0.0421(16) -0.0024(10) 0.0175(11) -0.0015(9)
C11 0.048(2) 0.0104(13) 0.094(3) -0.0005(14) 0.055(2) -0.0022(12)
C12 0.0238(12) 0.0082(10) 0.0429(16) 0.0007(10) 0.0181(12) 0.0007(9)
C13 0.0348(18) 0.0118(14) 0.119(4) -0.0023(16) 0.052(2) 0.0006(11)
C14 0.0170(11) 0.0100(10) 0.0365(14) 0.0009(9) 0.0137(10) 0.0006(8)
C15 0.0184(11) 0.0110(10) 0.0385(15) -0.0009(10) 0.0140(11) -0.0017(9)
C16 0.040(4) 0.060(5) 0.026(3) -0.004(3) 0.013(3) -0.024(4)
C16' 0.049(5) 0.107(9) 0.023(3) 0.012(4) 0.019(3) 0.037(5)
C17 0.0320(15) 0.048(2) 0.0224(14) 0.0014(13) 0.0160(12) 0.0011(14)
C18 0.044(4) 0.091(7) 0.028(3) -0.008(4) 0.022(3) -0.033(4)
C18' 0.049(4) 0.060(5) 0.036(4) 0.010(3) 0.028(3) 0.026(4)
C19 0.0226(13) 0.0396(17) 0.0286(14) 0.0020(12) 0.0154(11) -0.0012(12)
C20 0.0204(12) 0.0321(15) 0.0253(13) 0.0022(11) 0.0132(10) 0.0022(10)
C21 0.0241(13) 0.0328(15) 0.0360(16) -0.0102(12) 0.0206(12) -0.0060(11)
N13 0.0218(15) 0.0227(16) 0.0264(16) 0.000 0.0111(13) 0.000
O6 0.0267(12) 0.0344(13) 0.0496(15) 0.0024(11) 0.0027(11) 0.0094(10)
O7 0.044(2) 0.0198(15) 0.0380(18) 0.000 0.0030(15) 0.000
loop_
_atom_type_symbol
_atom_type_description
_atom_type_scat_dispersion_real
_atom_type_scat_dispersion_imag
_atom_type_scat_source
C C 0.0033 0.0016 'International Tables Vol C Tables 4.2.6.8 and 6.1.1.4'
H H 0.0000 0.0000 'International Tables Vol C Tables 4.2.6.8 and 6.1.1.4'
N N 0.0061 0.0033 'International Tables Vol C Tables 4.2.6.8 and 6.1.1.4'
O O 0.0106 0.0060 'International Tables Vol C Tables 4.2.6.8 and 6.1.1.4'
Cu Cu 0.3201 1.2651 'International Tables Vol C Tables 4.2.6.8 and 6.1.1.4'
loop_
_geom_angle_atom_site_label_1
_geom_angle_atom_site_label_2
_geom_angle_atom_site_label_3
_geom_angle
_geom_angle_site_symmetry_1
_geom_angle_site_symmetry_3
_geom_angle_publ_flag
O1 Cu1 O2 175.01(10) . . ?
O1 Cu1 O3 96.29(10) . . ?
O1 Cu1 N2 86.29(8) . . ?
O1 Cu1 N5 92.26(9) . . ?
O2 Cu1 O3 88.68(10) . . ?
O2 Cu1 N2 92.63(8) . . ?
O2 Cu1 N5 87.75(8) . . ?
N2 Cu1 O3 99.11(12) . . ?
N5 Cu1 O3 93.28(12) . . ?
N5 Cu1 N2 167.61(11) . . ?
O1 Cu2 N3 87.69(9) . . ?
O1 Cu2 N8 89.93(8) . . ?
O1 Cu2 N12 171.89(10) . 8_455 ?
N3 Cu2 N8 168.14(10) . . ?
N3 Cu2 N12 92.98(9) . 8_455 ?
N12 Cu2 N8 91.01(9) 8_455 . ?
O2 Cu3 O4 174.97(9) . 7_455 ?
O2 Cu3 N6 88.18(8) . . ?
O2 Cu3 N9 90.67(8) . 8 ?
O2 Cu3 N11 98.76(9) . . ?
O4 Cu3 N11 86.15(9) 7_455 . ?
N6 Cu3 O4 92.68(8) . 7_455 ?
N6 Cu3 N9 177.32(10) . 8 ?
N6 Cu3 N11 92.51(10) . . ?
N9 Cu3 O4 88.26(9) 8 7_455 ?
N9 Cu3 N11 90.06(10) 8 . ?
Cu2 O1 Cu1 122.72(10) . . ?
Cu3 O2 Cu1 123.20(10) . . ?
C21 O3 Cu1 128.3(2) . . ?
C21 O4 Cu3 108.52(18) . 7_455 ?
C4 N1 C2 125.6(2) . . ?
C4 N1 C5 106.3(2) . . ?
C5 N1 C2 127.9(2) . . ?
N3 N2 Cu1 119.44(16) . . ?
C4 N2 Cu1 132.96(19) . . ?
C4 N2 N3 107.4(2) . . ?
N2 N3 Cu2 119.14(16) . . ?
C5 N3 Cu2 132.66(18) . . ?
C5 N3 N2 107.6(2) . . ?
C9 N4 C7 128.0(2) . . ?
C10 N4 C7 126.5(2) . . ?
C10 N4 C9 105.4(2) . . ?
N6 N5 Cu1 119.66(16) . . ?
C9 N5 Cu1 132.42(18) . . ?
C9 N5 N6 107.6(2) . . ?
N5 N6 Cu3 120.32(16) . . ?
C10 N6 Cu3 131.27(18) . . ?
C10 N6 N5 107.8(2) . . ?
C14 N7 C12 126.3(2) . . ?
C15 N7 C12 127.5(2) . . ?
C15 N7 C14 106.2(2) . . ?
N9 N8 Cu2 123.78(16) . . ?
C14 N8 Cu2 128.27(18) . . ?
C14 N8 N9 107.8(2) . . ?
N8 N9 Cu3 120.28(16) . 8_455 ?
C15 N9 Cu3 131.79(19) . 8_455 ?
C15 N9 N8 107.2(2) . . ?
C19 N10 C17 125.8(3) . . ?
C19 N10 C20 105.9(2) . . ?
C20 N10 C17 128.0(3) . . ?
N12 N11 Cu3 121.73(18) . . ?
C19 N11 Cu3 130.6(2) . . ?
C19 N11 N12 107.1(2) . . ?
N11 N12 Cu2 118.61(18) . 8 ?
C20 N12 Cu2 132.8(2) . 8 ?
C20 N12 N11 107.6(2) . . ?
C1 C1 H1 120.4 6_565 . ?
C1 C1 C2 119.30(17) 6_565 . ?
C2 C1 H1 120.4 . . ?
C1 C2 N1 118.8(3) . . ?
C1 C2 C3 121.6(3) . . ?
C3 C2 N1 119.6(3) . . ?
C2 C3 H3 120.5 . . ?
C3 C3 C2 119.07(17) 6_565 . ?
C3 C3 H3 120.5 6_565 . ?
N1 C4 H4 125.1 . . ?
N2 C4 N1 109.7(2) . . ?
N2 C4 H4 125.1 . . ?
N1 C5 H5 125.5 . . ?
N3 C5 N1 109.0(2) . . ?
N3 C5 H5 125.5 . . ?
C6 C6 H6 120.6 6 . ?
C7 C6 C6 118.73(15) . 6 ?
C7 C6 H6 120.6 . . ?
C6 C7 N4 119.7(2) . . ?
C6 C7 C8 122.6(2) . . ?
C8 C7 N4 117.7(2) . . ?
C7 C8 C8 118.63(15) . 6 ?
C7 C8 H8 120.7 . . ?
C8 C8 H8 120.7 6 . ?
N4 C9 H9 125.1 . . ?
N5 C9 N4 109.7(2) . . ?
N5 C9 H9 125.1 . . ?
N4 C10 H10 125.3 . . ?
N6 C10 N4 109.4(2) . . ?
N6 C10 H10 125.3 . . ?
C11 C11 H11 120.5 6 . ?
C12 C11 C11 119.03(16) . 6 ?
C12 C11 H11 120.5 . . ?
C11 C12 N7 119.2(2) . . ?
C13 C12 N7 118.9(2) . . ?
C13 C12 C11 121.9(3) . . ?
C12 C13 C13 119.04(17) . 6 ?
C12 C13 H13 120.5 . . ?
C13 C13 H13 120.5 6 . ?
N7 C14 H14 125.5 . . ?
N8 C14 N7 109.1(2) . . ?
N8 C14 H14 125.5 . . ?
N7 C15 H15 125.1 . . ?
N9 C15 N7 109.7(2) . . ?
N9 C15 H15 125.1 . . ?
C17 C16 H16 119.3 . . ?
C17 C16 C18 91.9(6) . 2_556 ?
C17 C16 C18' 121.4(6) . 2_556 ?
C18 C16 H16 131.6 2_556 . ?
C18' C16 H16 119.3 2_556 . ?
C18' C16 C18 47.0(5) 2_556 2_556 ?
C17 C16' H16' 119.9 . . ?
C17 C16' C18' 88.4(6) . 2_556 ?
C18 C16' H16' 119.9 2_556 . ?
C18 C16' C17 120.1(7) 2_556 . ?
C18 C16' C18' 47.6(6) 2_556 2_556 ?
C18' C16' H16' 134.6 2_556 . ?
N10 C17 C18 117.5(4) . . ?
C16 C17 N10 121.6(4) . . ?
C16 C17 C16' 58.3(6) . . ?
C16 C17 C18 120.9(5) . . ?
C16' C17 N10 116.8(4) . . ?
C16' C17 C18 94.7(6) . . ?
C18' C17 N10 121.6(4) . . ?
C18' C17 C16 87.4(6) . . ?
C18' C17 C16' 121.5(5) . . ?
C18' C17 C18 62.0(6) . . ?
C16' C18 C17 116.8(7) 2_556 . ?
C16' C18 H18 121.6 2_556 . ?
C17 C18 H18 121.6 . . ?
C16 C18' H18' 120.7 2_556 . ?
C17 C18' C16 118.7(6) . 2_556 ?
C17 C18' H18' 120.7 . . ?
N10 C19 H19 125.0 . . ?
N11 C19 N10 110.0(3) . . ?
N11 C19 H19 125.0 . . ?
N10 C20 H20 125.3 . . ?
N12 C20 N10 109.4(3) . . ?
N12 C20 H20 125.3 . . ?
O3 C21 O4 123.7(3) . . ?
O3 C21 H21 118.1 . . ?
O4 C21 H21 118.1 . . ?
O6 N13 O6 120.6(4) 2_455 . ?
O6 N13 O7 119.68(19) . . ?
O6 N13 O7 119.68(19) 2_455 . ?
loop_
_geom_bond_atom_site_label_1
_geom_bond_atom_site_label_2
_geom_bond_distance
_geom_bond_site_symmetry_2
_geom_bond_publ_flag
Cu1 O1 1.9081(18) . ?
Cu1 O2 1.9148(18) . ?
Cu1 O3 2.276(3) . ?
Cu1 N2 2.019(2) . ?
Cu1 N5 2.013(2) . ?
Cu2 O1 1.8981(19) . ?
Cu2 N3 1.992(2) . ?
Cu2 N8 2.007(2) . ?
Cu2 N12 2.005(2) 8_455 ?
Cu3 O2 1.9143(18) . ?
Cu3 O4 1.9950(19) 7_455 ?
Cu3 N6 1.990(2) . ?
Cu3 N9 1.994(2) 8 ?
Cu3 N11 2.235(3) . ?
O3 C21 1.220(4) . ?
O4 C21 1.278(4) . ?
N1 C2 1.434(3) . ?
N1 C4 1.348(3) . ?
N1 C5 1.355(3) . ?
N2 N3 1.376(3) . ?
N2 C4 1.304(3) . ?
N3 C5 1.313(3) . ?
N4 C7 1.436(3) . ?
N4 C9 1.357(3) . ?
N4 C10 1.357(3) . ?
N5 N6 1.367(3) . ?
N5 C9 1.303(3) . ?
N6 C10 1.306(3) . ?
N7 C12 1.434(3) . ?
N7 C14 1.361(3) . ?
N7 C15 1.349(3) . ?
N8 N9 1.381(3) . ?
N8 C14 1.305(3) . ?
N9 C15 1.307(3) . ?
N10 C17 1.439(4) . ?
N10 C19 1.355(4) . ?
N10 C20 1.356(4) . ?
N11 N12 1.384(3) . ?
N11 C19 1.300(4) . ?
N12 C20 1.305(4) . ?
C1 C1 1.373(6) 6_565 ?
C1 H1 0.9500 . ?
C1 C2 1.387(4) . ?
C2 C3 1.383(4) . ?
C3 C3 1.387(6) 6_565 ?
C3 H3 0.9500 . ?
C4 H4 0.9500 . ?
C5 H5 0.9500 . ?
C6 C6 1.400(5) 6 ?
C6 H6 0.9500 . ?
C6 C7 1.385(4) . ?
C7 C8 1.383(4) . ?
C8 C8 1.407(6) 6 ?
C8 H8 0.9500 . ?
C9 H9 0.9500 . ?
C10 H10 0.9500 . ?
C11 C11 1.381(6) 6 ?
C11 H11 0.9500 . ?
C11 C12 1.371(4) . ?
C12 C13 1.366(4) . ?
C13 C13 1.387(6) 6 ?
C13 H13 0.9500 . ?
C14 H14 0.9500 . ?
C15 H15 0.9500 . ?
C16 H16 0.9500 . ?
C16 C17 1.321(8) . ?
C16 C18 1.960(12) 2_556 ?
C16 C18' 1.396(10) 2_556 ?
C16' H16' 0.9500 . ?
C16' C17 1.416(9) . ?
C16' C18 1.352(10) 2_556 ?
C16' C18' 1.940(13) 2_556 ?
C17 C18 1.451(9) . ?
C17 C18' 1.327(8) . ?
C18 H18 0.9500 . ?
C18' H18' 0.9500 . ?
C19 H19 0.9500 . ?
C20 H20 0.9500 . ?
C21 H21 0.9500 . ?
N13 O6 1.240(3) . ?
N13 O6 1.240(3) 2_455 ?
N13 O7 1.263(5) . ?
loop_
_smtbx_masks_void_nr
_smtbx_masks_void_average_x
_smtbx_masks_void_average_y
_smtbx_masks_void_average_z
_smtbx_masks_void_volume
_smtbx_masks_void_count_electrons
_smtbx_masks_void_content
1 0.000 0.000 0.000 283.8 185.0 '4 DMF'
2 -0.446 -0.937 0.500 4183.2 884.0 '24 DMF'
3 0.500 0.500 0.000 283.8 185.0 '4 DMF'
