#------------------------------------------------------------------------------
#$Date: 2021-10-06 18:34:01 +0300 (Wed, 06 Oct 2021) $
#$Revision: 269711 $
#$URL: file:///home/coder/svn-repositories/cod/cif/7/70/81/7708163.cif $
#------------------------------------------------------------------------------
#
# This file is available in the Crystallography Open Database (COD),
# http://www.crystallography.net/
#
# All data on this site have been placed in the public domain by the
# contributors.
#
data_7708163
loop_
_publ_author_name
'Yang, Feng'
'Xu, Yuangang'
'Wang, Pengcheng'
'Lin, Qiuhan'
'Lu, Ming'
_publ_section_title
;
 Novel metal-organic frameworks assembled from the combination of
 polynitro-pyrazole and 5-nitroamine-1,2,4-oxadiazole: synthesis,
 structure and thermal properties.
;
_journal_issue                   37
_journal_name_full
'Dalton transactions (Cambridge, England : 2003)'
_journal_page_first              12906
_journal_page_last               12912
_journal_paper_doi               10.1039/d1dt02093e
_journal_volume                  50
_journal_year                    2021
_chemical_formula_moiety         'C6 H4 K N9 O7, H2 O'
_chemical_formula_sum            'C6 H6 K N9 O8'
_chemical_formula_weight         371.30
_space_group_crystal_system      triclinic
_space_group_IT_number           2
_space_group_name_Hall           '-P 1'
_space_group_name_H-M_alt        'P -1'
_atom_sites_solution_hydrogens   mixed
_audit_creation_method           SHELXL-2018/3
_audit_update_record
;
2020-11-18 deposited with the CCDC.	2021-08-16 downloaded from the CCDC.
;
_cell_angle_alpha                97.197(3)
_cell_angle_beta                 99.588(3)
_cell_angle_gamma                90.474(3)
_cell_formula_units_Z            2
_cell_length_a                   7.1587(6)
_cell_length_b                   8.4966(7)
_cell_length_c                   11.1631(10)
_cell_measurement_reflns_used    4561
_cell_measurement_temperature    296(2)
_cell_measurement_theta_max      27.51
_cell_measurement_theta_min      2.42
_cell_volume                     663.94(10)
_computing_cell_refinement       'Bruker SAINT'
_computing_data_collection       'Bruker APEX3'
_computing_data_reduction        'Bruker SAINT'
_computing_molecular_graphics    'Bruker SHELXTL'
_computing_publication_material  'Bruker SHELXTL'
_computing_structure_refinement  'SHELXL-2018/3 (Sheldrick, 2018)'
_computing_structure_solution    'SHELXT 2014/5 (Sheldrick, 2014)'
_diffrn_ambient_temperature      296(2)
_diffrn_detector_area_resol_mean 10.42
_diffrn_measured_fraction_theta_full 0.992
_diffrn_measured_fraction_theta_max 0.990
_diffrn_measurement_device_type  'Bruker D8 QUEST PHOTON 100'
_diffrn_measurement_method       '\f and \w scans'
_diffrn_radiation_type           MoK\a
_diffrn_radiation_wavelength     0.71073
_diffrn_reflns_av_R_equivalents  0.0339
_diffrn_reflns_av_unetI/netI     0.0380
_diffrn_reflns_Laue_measured_fraction_full 0.992
_diffrn_reflns_Laue_measured_fraction_max 0.990
_diffrn_reflns_limit_h_max       9
_diffrn_reflns_limit_h_min       -9
_diffrn_reflns_limit_k_max       10
_diffrn_reflns_limit_k_min       -11
_diffrn_reflns_limit_l_max       14
_diffrn_reflns_limit_l_min       -14
_diffrn_reflns_number            10026
_diffrn_reflns_point_group_measured_fraction_full 0.992
_diffrn_reflns_point_group_measured_fraction_max 0.990
_diffrn_reflns_theta_full        25.242
_diffrn_reflns_theta_max         27.522
_diffrn_reflns_theta_min         2.417
_diffrn_source.source            'Ius 2.0'
_diffrn_source.type              microfocus
_exptl_absorpt_coefficient_mu    0.470
_exptl_absorpt_correction_T_max  0.7456
_exptl_absorpt_correction_T_min  0.6378
_exptl_absorpt_correction_type   multi-scan
_exptl_absorpt_process_details   sadabs
_exptl_crystal_colour            yellow
_exptl_crystal_density_diffrn    1.857
_exptl_crystal_description       block
_exptl_crystal_F_000             376
_exptl_crystal_size_max          0.220
_exptl_crystal_size_mid          0.200
_exptl_crystal_size_min          0.150
_refine_diff_density_max         0.521
_refine_diff_density_min         -0.461
_refine_diff_density_rms         0.061
_refine_ls_extinction_method     none
_refine_ls_goodness_of_fit_ref   1.026
_refine_ls_hydrogen_treatment    mixed
_refine_ls_matrix_type           full
_refine_ls_number_parameters     223
_refine_ls_number_reflns         3035
_refine_ls_number_restraints     3
_refine_ls_restrained_S_all      1.025
_refine_ls_R_factor_all          0.0778
_refine_ls_R_factor_gt           0.0527
_refine_ls_shift/su_max          0.001
_refine_ls_shift/su_mean         0.000
_refine_ls_structure_factor_coef Fsqd
_refine_ls_weighting_details
'w=1/[\s^2^(Fo^2^)+(0.0497P)^2^+0.7319P] where P=(Fo^2^+2Fc^2^)/3'
_refine_ls_weighting_scheme      calc
_refine_ls_wR_factor_gt          0.1199
_refine_ls_wR_factor_ref         0.1327
_reflns_Friedel_coverage         0.000
_reflns_number_gt                2246
_reflns_number_total             3035
_reflns_threshold_expression     'I > 2\s(I)'
_cod_data_source_file            d1dt02093e2.cif
_cod_data_source_block           YF_040_a
_cod_depositor_comments
'Adding full bibliography for 7708161--7708163.cif.'
_cod_database_code               7708163
_shelx_shelxl_version_number     2018/3
_shelx_space_group_comment
;
The symmetry employed for this shelxl refinement is uniquely defined
by the following loop, which should always be used as a source of
symmetry information in preference to the above space-group names.
They are only intended as comments.
;
_shelx_estimated_absorpt_t_min   0.904
_shelx_estimated_absorpt_t_max   0.933
_shelx_res_file
;
TITL YF_040_a.res in P-1
    YF_040_a.res
    created by SHELXL-2018/3 at 19:23:55 on 18-Nov-2020
CELL 0.71073 7.1587 8.4966 11.1631 97.197 99.588 90.474
ZERR 2.00 0.0006 0.0007 0.0010 0.003 0.003 0.003
LATT 1
SFAC C  H  N  O  K
UNIT 12  12  18  16  2
L.S. 10
ACTA
BOND $H
FMAP 2
PLAN -5
omit 0 0 1
CONF
EQIV $5 x, y-1, z
HTAB C1 O6_$5
EQIV $6 -x+1, -y, -z+1
HTAB N9 N1_$6
HTAB N9 O7
EQIV $7 -x+2, -y+1, -z+1
HTAB N9 O8_$7
EQIV $4 x+1, y, z
HTAB O8 O3_$4
EQIV $8 -x+2, -y+1, -z
HTAB O8 O2_$8
HTAB O8 O3_$8
dfix 0.85 o8 h8a o8 h8b
dfix 1.39 h8a h8b
size 0.22 0.20 0.15
FREE K1   N4
TEMP 23.000
WGHT    0.049700    0.731900
FVAR       1.31027
K1    5    1.164312    0.233054    0.016688    11.00000    0.04769    0.04890 =
         0.04020    0.00516   -0.00237    0.01813
C1    1    0.243404    0.085184    0.344912    11.00000    0.06662    0.02447 =
         0.04028    0.00696    0.00807    0.00487
AFIX  23
H1A   2    0.139454    0.026672    0.290141    11.00000   -1.20000
H1B   2    0.257692    0.044097    0.423077    11.00000   -1.20000
AFIX   0
C2    1    0.420644    0.061607    0.292983    11.00000    0.05644    0.02204 =
         0.03190    0.00086   -0.00491    0.00908
C3    1    0.618909    0.072982    0.177153    11.00000    0.04137    0.03111 =
         0.04172   -0.00876   -0.00788    0.01008
C4    1    0.089008    0.465632    0.305627    11.00000    0.03345    0.03250 =
         0.03709    0.00984    0.00841    0.00412
C5    1    0.185896    0.506029    0.426259    11.00000    0.03571    0.02593 =
         0.03613    0.00545    0.01258    0.00328
C6    1    0.259345    0.361648    0.460154    11.00000    0.03633    0.03134 =
         0.03297    0.00705    0.01152    0.00354
N1    3    0.556489   -0.021649    0.341684    11.00000    0.07397    0.03895 =
         0.04840    0.00946   -0.00653    0.02163
N2    3    0.450937    0.123683    0.190967    11.00000    0.03888    0.03285 =
         0.03235    0.00096   -0.00173    0.00904
N3    3    0.736485    0.081076    0.094199    11.00000    0.03867    0.05213 =
         0.05649   -0.01503    0.00228    0.01016
N4    3    0.686547    0.174851    0.008919    11.00000    0.03930    0.05447 =
         0.05562   -0.01598    0.01027   -0.01307
N5    3    0.199646    0.252881    0.361907    11.00000    0.04721    0.02633 =
         0.03275    0.00674    0.00674    0.00677
N6    3    0.096519    0.315101    0.266353    11.00000    0.04161    0.03423 =
         0.03474    0.00846    0.00514    0.00518
N7    3   -0.014558    0.560873    0.219074    11.00000    0.05312    0.04164 =
         0.04274    0.01427    0.01240    0.01624
N8    3    0.212155    0.649960    0.505016    11.00000    0.04215    0.02870 =
         0.05743    0.00352    0.00570    0.00016
N9    3    0.366137    0.328594    0.562055    11.00000    0.06071    0.03437 =
         0.03640    0.00856    0.00162    0.00915
AFIX  93
H9A   2    0.401535    0.233085    0.568400    11.00000   -1.20000
H9B   2    0.400141    0.402623    0.621933    11.00000   -1.20000
AFIX   0
O1    4    0.693144   -0.015956    0.264410    11.00000    0.06049    0.04824 =
         0.06248    0.00396   -0.00601    0.03011
O2    4    0.792405    0.175594   -0.069303    11.00000    0.05403    0.09418 =
         0.07115   -0.02039    0.02756   -0.02084
O3    4    0.544585    0.257972    0.002769    11.00000    0.05254    0.06072 =
         0.07108    0.01846    0.02290    0.00819
O4    4   -0.072098    0.498757    0.117051    11.00000    0.14012    0.05668 =
         0.07725    0.01224   -0.05731    0.01144
O5    4   -0.036660    0.694250    0.247909    11.00000    0.27404    0.07207 =
         0.05575    0.00303   -0.00857    0.09984
O6    4    0.146435    0.769291    0.470090    11.00000    0.14371    0.03011 =
         0.12050   -0.00107   -0.05856    0.01661
O7    4    0.300286    0.647051    0.608825    11.00000    0.07270    0.04273 =
         0.04410   -0.00282    0.00503    0.00032
O8    4    1.437436    0.520982    0.185795    11.00000    0.10641    0.06113 =
         0.07303    0.01554    0.03675    0.01015
H8A   2    1.512160    0.454714    0.156465    11.00000   -1.50000
H8B   2    1.425125    0.596170    0.141821    11.00000   -1.50000
HKLF 4 1 1 0 0 0 1 0 0 0 1




REM  YF_040_a.res in P-1
REM wR2 = 0.1327, GooF = S = 1.026, Restrained GooF = 1.025 for all data
REM R1 = 0.0527 for 2246 Fo > 4sig(Fo) and 0.0778 for all 3035 data
REM 223 parameters refined using 3 restraints

END

WGHT      0.0470      0.7473

REM Highest difference peak  0.521,  deepest hole -0.461,  1-sigma level  0.061
Q1    1   0.9267  0.3078 -0.2393  11.00000  0.05    0.52
Q2    1   1.0995  0.3539 -0.2569  11.00000  0.05    0.45
Q3    1   1.1628  0.4517 -0.1591  11.00000  0.05    0.45
Q4    1   0.2240  0.7445  0.4238  11.00000  0.05    0.43
Q5    1   0.0895  0.7470  0.4876  11.00000  0.05    0.40
;
_shelx_res_checksum              88477
_shelx_hkl_file
;
  -1   0   0    4.70    0.60
  -1   0   0    3.10    0.60
  -1   0   0    4.90    0.70
   1   0   0    5.60    0.80
   1   0   0    3.30    0.60
   1   0   0    5.00    0.60
  -2   0   0 1695.93   52.29
  -2   0   0 1660.33   52.09
   2   0   0 1708.53   52.49
   2   0   0 1631.74   52.29
   2   0   0 1683.93   51.89
  -3   0   0 1401.36   45.80
  -3   0   0 1391.26   44.30
  -3   0   0 1323.37   45.00
   3   0   0 1421.36   43.80
   3   0   0 1376.96   44.40
   3   0   0 1431.56   44.60
  -4   0   0    2.70    1.80
  -4   0   0    5.00    2.80
  -4   0   0    3.20    1.80
   4   0   0    3.90    2.20
   4   0   0    3.00    1.90
  -5   0   0  110.99    7.00
  -5   0   0  100.99    9.10
  -5   0   0  112.69    6.80
   5   0   0  118.99    7.50
   5   0   0  104.39    7.20
   5   0   0  102.39    5.80
  -6   0   0   -1.50    5.30
  -6   0   0    3.20    3.70
   6   0   0    4.20    2.90
   6   0   0    1.10    3.50
  -7   0   0   26.00    5.50
  -7   0   0   23.30    4.00
   7   0   0   31.70    7.40
  -8   0   0   52.99    7.70
  -8   0   0   57.89   12.10
   8   0   0   51.19    8.40
  -9   0   0  -23.40   15.60
   9   0   0   11.70    9.20
   9  -1   0    9.10    8.70
  -9   1   0    7.70   17.00
   8  -1   0   34.00    7.10
  -8   1   0   11.70    5.80
  -8   1   0   12.70   11.70
  -7   1   0   74.59    7.80
  -7   1   0   57.19    5.20
   6  -1   0    2.60    3.60
  -6   1   0    5.60    5.50
  -6   1   0    3.90    2.20
  -6   1   0    3.70    3.00
   5  -1   0  201.58    9.80
   5  -1   0  194.38   10.00
  -5   1   0  199.18    9.00
  -5   1   0  207.08   12.80
  -5   1   0  206.28   10.00
   4  -1   0   95.69    6.10
   4  -1   0  100.49    4.50
   4  -1   0   92.79    5.60
  -4   1   0  103.09    6.00
  -4   1   0  106.89    7.60
  -4   1   0   95.29    5.30
   3  -1   0  614.74   20.70
   3  -1   0  595.84   19.40
   3  -1   0  610.34   21.10
  -3   1   0  619.54   20.80
  -3   1   0  603.74   22.30
  -3   1   0  607.84   19.80
   2  -1   0   19.00    1.10
   2  -1   0   19.60    2.30
   2  -1   0   19.60    2.40
  -2   1   0   17.50    2.00
  -2   1   0   17.20    2.50
  -2   1   0   19.70    1.30
   1  -1   0 3563.34  108.69
   1  -1   0 3532.75  108.99
  -1   1   0 3592.94  108.79
  -1   1   0 3498.35  109.19
   0  -1   0  136.99    5.00
   0  -1   0  130.29    5.50
   0   1   0  161.18    5.60
   0   1   0  145.39    5.00
   0   1   0  160.28    5.10
  -1  -1   0 7227.78  220.78
  -2  -1   0 4783.32  148.69
   2   1   0 4839.82  148.79
   2   1   0 4913.41  148.59
  -3  -1   0  693.53   23.90
  -3  -1   0  673.23   23.30
  -3  -1   0  677.63   22.80
   3   1   0  702.23   22.90
   3   1   0  679.93   23.60
   3   1   0  662.93   23.40
  -4  -1   0  258.07   10.90
  -4  -1   0  243.88   11.80
  -4  -1   0  240.18   10.10
   4   1   0  242.58   10.90
   4   1   0  236.38   10.20
   4   1   0  246.08    9.90
  -5  -1   0  126.29    7.20
  -5  -1   0  110.99    7.80
  -5  -1   0  134.79   10.00
   5   1   0  130.49    8.40
   5   1   0  122.49    7.50
   5   1   0  113.69    6.80
  -6  -1   0   12.60    6.20
  -6  -1   0    9.60    4.10
   6   1   0   12.10    4.80
   6   1   0   15.30    3.50
  -7  -1   0   22.10    9.20
  -7  -1   0   32.80    6.50
   7   1   0   33.20    5.50
  -8  -1   0   17.60   11.30
  -8  -1   0   15.30    7.60
   8   1   0   40.50    8.30
  -9  -1   0   15.10   16.60
   9   1   0   22.60   10.40
   9  -2   0   -3.40    8.10
  -9   2   0   36.20   18.70
   8  -2   0    6.60    6.00
  -8   2   0   -0.70   12.30
  -7   2   0  105.29    7.70
  -7   2   0  121.69   15.90
   6  -2   0  470.75   18.70
  -6   2   0  432.36   15.10
  -6   2   0  472.35   23.70
   5  -2   0    7.60    3.00
   5  -2   0    5.30    3.10
  -5   2   0    2.60    1.20
  -5   2   0   -0.40    4.20
  -5   2   0    6.30    2.00
   4  -2   0  137.49    7.10
   4  -2   0  135.79    7.40
  -4   2   0  141.69    9.40
  -4   2   0  131.29    5.20
  -4   2   0  127.89    7.50
  -4   2   0  127.49    4.60
   3  -2   0 1904.81   60.19
   3  -2   0 1842.32   59.59
  -3   2   0 1914.51   60.09
  -3   2   0 1868.41   61.69
   2  -2   0  561.94   18.80
   2  -2   0  512.85   18.10
  -2   2   0  537.55   19.40
   1  -2   0 3018.20   88.29
   1  -2   0 2839.22   86.69
   1  -2   0 2836.72   87.79
   1  -2   0 2595.74   88.49
  -1   2   0 2827.32   88.19
  -1   2   0 2880.51   86.59
   0  -2   0  266.47   10.20
   0  -2   0  257.37    9.10
   0  -2   0  254.87    9.10
   0  -2   0  264.27    9.20
   0   2   0  271.57   10.10
   0   2   0  253.17    9.00
  -1  -2   0  474.45   16.10
  -1  -2   0  496.85   17.70
   1   2   0  491.55   18.10
   1   2   0  529.05   16.30
   1   2   0  509.75   16.80
  -2  -2   0 2474.85   77.59
  -2  -2   0 2561.94   77.79
  -2  -2   0 2335.87   76.99
   2   2   0 2493.25   78.39
   2   2   0 2417.66   77.99
   2   2   0 2540.35   76.69
  -3  -2   0 1558.04   52.39
  -3  -2   0 1649.13   52.99
  -3  -2   0 1615.94   53.19
   3   2   0 1651.43   53.89
   3   2   0 1658.23   52.49
   3   2   0 1728.23   52.39
  -4  -2   0 1106.19   37.80
  -4  -2   0 1122.19   38.20
  -4  -2   0 1098.99   36.70
   4   2   0 1091.29   38.20
   4   2   0 1103.89   36.60
  -5  -2   0   99.99    8.80
  -5  -2   0   90.69    7.60
  -5  -2   0   92.89    6.60
   5   2   0   83.49    6.40
   5   2   0   96.49    8.40
   5   2   0   75.99    7.10
  -6  -2   0   81.89    9.20
  -6  -2   0   75.99   10.90
   6   2   0   85.49    9.70
   6   2   0   58.49    7.50
  -7  -2   0   36.80    9.70
  -7  -2   0   45.60    7.80
  -8  -2   0   -5.20   11.10
   8   2   0   16.50    9.20
   8  -3   0    9.60    6.30
  -8   3   0   -4.70   12.60
   7  -3   0   12.50    5.40
  -7   3   0   21.60   10.00
   6  -3   0  355.06   15.60
  -6   3   0  324.47   20.40
   5  -3   0  261.67   11.60
   5  -3   0  216.48   11.50
  -5   3   0  248.58   15.30
  -5   3   0  229.98   12.50
   4  -3   0  117.79    7.40
   4  -3   0  117.49    6.90
  -4   3   0  122.59    8.20
  -4   3   0  132.29    9.70
   3  -3   0 2468.15   78.39
   3  -3   0 2569.34   78.99
  -3   3   0 2471.25   80.69
  -3   3   0 2435.16   79.29
   2  -3   0 1653.03   53.39
   2  -3   0 1679.83   52.59
   2  -3   0 1584.74   52.49
  -2   3   0 1643.54   53.69
   1  -3   0 2033.80   63.09
   1  -3   0 1918.11   60.79
   1  -3   0 1936.41   61.69
  -1   3   0 1980.20   60.59
  -1   3   0 1921.91   62.19
  -1   3   0 1972.70   62.39
   0  -3   0   36.20    2.80
   0  -3   0   40.10    2.90
   0  -3   0   44.10    4.90
   0   3   0   40.50    2.70
   0   3   0   44.40    4.20
  -1  -3   0   17.20    3.50
  -1  -3   0   14.90    2.20
  -1  -3   0   17.10    1.70
   1   3   0   12.70    1.80
   1   3   0   11.70    1.90
   1   3   0   11.70    2.90
  -2  -3   0   89.39    4.60
  -2  -3   0   89.69    5.80
   2   3   0   83.89    6.70
   2   3   0   84.89    5.20
   2   3   0   87.09    4.60
  -3  -3   0   77.29    5.60
  -3  -3   0   83.59    5.10
   3   3   0   80.79    5.30
   3   3   0   81.89    5.10
   3   3   0   73.59    6.90
  -4  -3   0   26.20    4.10
  -4  -3   0   25.00    4.00
  -4  -3   0   19.40    3.00
   4   3   0   23.40    3.40
   4   3   0   30.80    5.90
   4   3   0   22.90    3.20
  -5  -3   0  679.13   26.00
  -5  -3   0  722.43   28.00
  -5  -3   0  755.42   28.60
   5   3   0  718.13   26.30
   5   3   0  751.92   29.30
  -6  -3   0    3.60    4.90
  -6  -3   0   -0.80    5.90
   6   3   0    3.20    5.60
  -7  -3   0  -18.80    8.00
   7   3   0   12.30    8.00
  -8  -3   0  111.39   13.00
  -8  -3   0  105.79   16.90
   8   3   0  131.29   18.40
   8  -4   0  209.78   15.40
  -8   4   0  198.98   25.50
   7  -4   0   -1.90    5.60
  -7   4   0   -5.30    9.50
   6  -4   0  163.88   12.10
  -6   4   0  119.59   21.70
   5  -4   0  130.19    8.90
   5  -4   0  142.59    8.90
  -5   4   0  109.89   12.20
   4  -4   0  278.77   12.30
   4  -4   0  269.37   12.40
  -4   4   0  288.17   15.40
  -4   4   0  256.47   13.40
   3  -4   0  655.43   25.50
   3  -4   0  701.33   24.20
   3  -4   0  649.83   24.00
  -3   4   0  685.13   26.30
   2  -4   0   11.90    1.60
   2  -4   0   14.90    2.80
   2  -4   0   11.30    1.20
   2  -4   0    9.80    3.10
   2  -4   0    7.40    3.20
  -2   4   0    4.60    2.90
   1  -4   0 1912.01   62.99
   1  -4   0 1900.81   60.79
  -1   4   0 1886.71   61.49
  -1   4   0 1915.91   62.09
  -1   4   0 1973.40   59.89
   0  -4   0 2782.92   92.89
   0  -4   0 3025.60   92.79
   0  -4   0 3119.19   95.59
   0  -4   0 2980.70   92.39
   0   4   0 2956.00   92.69
   0   4   0 3022.00   94.89
  -1  -4   0   52.09    3.00
  -1  -4   0   45.70    5.70
  -1  -4   0   43.30    3.90
   1   4   0   43.00    5.70
   1   4   0   42.90    3.80
   1   4   0   48.40    4.60
  -2  -4   0  615.54   23.80
  -2  -4   0  648.54   23.30
  -2  -4   0  642.84   21.20
   2   4   0  636.34   22.50
   2   4   0  611.34   24.80
   2   4   0  675.33   22.20
  -3  -4   0 1273.47   44.90
  -3  -4   0 1340.17   43.50
  -3  -4   0 1371.26   45.60
   3   4   0 1323.07   43.60
   3   4   0 1384.36   47.70
  -4  -4   0  201.68   10.60
  -4  -4   0  231.28   11.00
  -4  -4   0  211.18   11.70
   4   4   0  198.38   10.40
   4   4   0  226.48   14.10
   4   4   0  197.78   10.00
  -5  -4   0   12.30    4.80
  -5  -4   0    7.60    4.60
   5   4   0   13.40    4.50
   5   4   0   20.70    7.40
  -6  -4   0  146.79   12.90
  -6  -4   0  145.89   13.80
   6   4   0  139.09   15.00
  -7  -4   0    6.90    8.00
  -7  -4   0    7.30    9.50
   7   4   0   10.90    8.70
  -8  -4   0   11.40   13.80
  -8  -4   0  -18.10   10.10
   8   4   0   -0.70   11.70
   8  -5   0   -1.00    7.40
  -8   5   0    3.90   15.00
   7  -5   0  344.47   18.50
  -7   5   0  369.26   27.20
   6  -5   0  327.37   16.20
  -6   5   0  313.37   22.00
   5  -5   0  108.49    9.80
  -5   5   0  118.29   13.20
   4  -5   0   79.29    7.10
   4  -5   0   66.99    6.70
  -4   5   0   85.49    9.50
   3  -5   0  402.66   16.50
   3  -5   0  392.16   18.40
   3  -5   0  423.56   16.20
  -3   5   0  388.16   18.40
   2  -5   0    1.10    1.10
   2  -5   0    2.70    3.10
   2  -5   0    1.80    1.90
   2  -5   0    3.90    4.30
   2  -5   0   -1.00    2.30
  -2   5   0   -3.40    3.00
   1  -5   0  691.63   23.90
   1  -5   0  683.83   23.70
   1  -5   0  706.13   27.30
  -1   5   0  683.73   25.30
  -1   5   0  695.03   25.90
  -1   5   0  715.03   23.40
   0  -5   0  401.46   18.20
   0  -5   0  393.06   14.20
   0  -5   0  397.76   14.80
   0  -5   0  392.96   15.30
   0   5   0  412.06   14.90
   0   5   0  399.86   17.40
  -1  -5   0  772.52   30.50
  -1  -5   0  796.52   26.10
  -1  -5   0  863.01   28.00
  -1  -5   0  787.22   28.50
   1   5   0  836.62   30.90
   1   5   0  828.12   27.90
  -2  -5   0 1264.57   41.80
  -2  -5   0 1214.28   38.80
  -2  -5   0 1151.38   42.50
   2   5   0 1208.08   40.50
   2   5   0 1198.68   43.70
   2   5   0 1239.68   40.80
  -3  -5   0  197.18   10.90
  -3  -5   0  174.48   10.80
  -3  -5   0  188.18    8.60
   3   5   0  174.48    9.80
   3   5   0  189.38   13.10
   3   5   0  175.28    9.60
  -4  -5   0   32.30    5.50
  -4  -5   0   55.89    6.50
   4   5   0   35.60    8.30
   4   5   0   34.10    5.00
  -5  -5   0   44.70    7.20
  -5  -5   0   49.50    7.80
   5   5   0   40.70    6.70
   5   5   0   34.20    9.00
  -6  -5   0   26.20    8.90
  -6  -5   0   18.40    7.40
   6   5   0   33.30   13.10
  -7  -5   0   13.80   10.80
  -7  -5   0   -4.40    8.60
   7   5   0   10.10   12.60
  -8  -5   0   -9.50   12.20
  -8  -5   0    7.50   14.90
   8   5   0   -4.00   14.30
   7  -6   0   -0.50    6.80
  -7   6   0   -7.60   12.10
   6  -6   0   85.39   10.60
  -5   6   0  370.66   21.50
   4  -6   0  117.39    9.40
   4  -6   0  130.79    8.90
  -4   6   0  136.69   12.30
   3  -6   0  252.07    9.20
   3  -6   0  260.17   12.80
   3  -6   0  242.38    8.50
   3  -6   0  250.77   11.50
  -3   6   0  243.78   14.20
   2  -6   0   22.80    4.60
   2  -6   0   22.00    3.70
   2  -6   0    5.30    6.60
   2  -6   0   20.90    3.10
  -2   6   0   13.60    4.40
   1  -6   0    3.80    2.20
   1  -6   0   -1.20    6.00
   1  -6   0    6.30    2.80
  -1   6   0    6.60    3.60
  -1   6   0    8.80    2.40
   0  -6   0   10.00    2.40
   0  -6   0    7.10    2.50
   0  -6   0   17.60    4.80
   0  -6   0    8.00    2.80
   0   6   0   10.50    2.70
   0   6   0   10.50    4.10
  -1  -6   0   -1.20    2.70
  -1  -6   0    1.90    3.00
  -1  -6   0    1.70    4.90
  -1  -6   0    5.80    2.00
   1   6   0    1.60    4.70
   1   6   0    4.50    2.60
  -2  -6   0    4.10    3.20
  -2  -6   0    6.50    2.30
  -2  -6   0    4.90    5.20
   2   6   0    1.70    5.20
   2   6   0    1.90    3.10
  -3  -6   0  205.98    9.80
  -3  -6   0  203.78   12.40
   3   6   0  220.38   12.50
   3   6   0  221.68   15.50
  -4  -6   0   59.59    7.60
   4   6   0   53.09    9.60
   4   6   0   40.90    6.50
  -5  -6   0   35.70    7.30
  -5  -6   0   31.10    6.90
   5   6   0   22.60    7.70
  -6  -6   0   -3.60   10.00
  -6  -6   0   -4.00    8.20
   6   6   0    5.30   10.10
  -7  -6   0   15.60   10.90
  -7  -6   0   22.20   12.80
   7   6   0   25.60   16.90
   7  -7   0   69.29   10.20
  -7   7   0   55.89   17.00
   6  -7   0    7.30    6.20
   5  -7   0    6.50    6.20
  -5   7   0    8.10    8.60
   4  -7   0  483.55   20.00
  -4   7   0  517.35   24.60
   3  -7   0  883.01   27.90
   3  -7   0  860.41   30.40
  -3   7   0  884.21   34.10
   2  -7   0  290.27   12.30
   2  -7   0  280.57   12.10
   2  -7   0  276.97   10.70
  -2   7   0  287.17   14.40
   1  -7   0   81.09    7.80
   1  -7   0   71.69    6.40
   1  -7   0   87.59    6.80
  -1   7   0   88.49    9.40
  -1   7   0   92.29    6.80
   0  -7   0  866.51   31.40
   0  -7   0  875.91   29.40
   0   7   0  890.91   30.60
   0   7   0  856.81   33.90
  -1  -7   0   21.60    4.40
  -1  -7   0   27.80    4.40
   1   7   0   24.10    6.10
   1   7   0   24.20    4.50
  -2  -7   0  566.94   19.60
  -2  -7   0  581.04   23.70
   2   7   0  563.94   26.70
  -3  -7   0   50.99    7.80
  -3  -7   0   44.70    6.30
   3   7   0   41.70    8.20
  -4  -7   0   69.09    7.80
  -4  -7   0   45.20   10.30
   4   7   0   64.39    9.60
  -5  -7   0   52.39    9.20
  -5  -7   0   64.99    9.40
   5   7   0   47.40   13.10
  -6  -7   0    8.70    9.50
  -6  -7   0  -11.30    9.90
   6   7   0   15.20   14.50
   6  -8   0   55.79    9.40
  -6   8   0   52.49   15.80
   5  -8   0   36.20    7.20
  -5   8   0   35.60   11.00
   4  -8   0    4.20    6.10
  -4   8   0    8.40    8.00
   3  -8   0  427.66   17.50
   3  -8   0  438.76   16.30
  -3   8   0  429.16   21.10
   2  -8   0  341.87   13.90
   2  -8   0  336.97   13.00
   2  -8   0  355.66   15.00
   1  -8   0    3.40    3.70
   1  -8   0    1.70    3.70
   1  -8   0   -0.40    3.10
   1  -8   0   -1.90    3.10
   0  -8   0   76.79    8.50
   0   8   0  101.29    9.40
  -1  -8   0   -1.30    4.00
  -2  -8   0   -7.20    4.90
  -2  -8   0    7.60    5.10
  -2  -8   0    5.20    3.10
  -3  -8   0  144.49    9.20
  -3  -8   0  135.59   12.80
   3   8   0  159.18   18.60
  -4  -8   0    6.60    7.60
  -4  -8   0   14.50    6.30
   4   8   0   13.00   11.60
  -5  -8   0    5.40    9.50
  -5  -8   0   -0.50    8.40
   5   8   0    1.20   12.40
  -6  -8   0   -2.70   16.60
   6   8   0   -3.90   18.30
   5  -9   0   26.80    9.80
   4  -9   0   11.60    8.20
   3  -9   0   31.00    7.80
  -3   9   0   37.20    9.60
   2  -9   0   18.90    5.20
   2  -9   0   10.70    6.20
   2  -9   0   27.60    7.80
   1  -9   0  105.49    9.60
   1  -9   0   99.29   10.30
   0  -9   0   76.39    9.90
   0   9   0   58.39    9.40
  -1  -9   0    2.80    5.50
   1   9   0    3.40    8.00
  -2  -9   0    3.40    6.90
   2   9   0    8.00    9.90
  -3  -9   0    2.10    7.80
   3   9   0   25.80   11.50
  -4  -9   0   -3.80    8.80
   4   9   0  -15.70   13.20
   5   9   0    3.90   16.80
   3 -10   0   68.89   10.40
   2 -10   0    5.90    8.30
   1 -10   0   72.39    8.70
   1 -10   0   57.99    9.70
   0 -10   0   60.09    9.30
   0  10   0   55.49   12.00
  -1 -10   0   18.10    7.70
   1  10   0   42.30   12.00
  -2 -10   0   27.00    9.00
   2  10   0   55.79   15.10
  -3 -10   0  -16.00    9.40
   3  10   0  -16.80   15.10
   3  10  -1    6.10   13.30
  -3 -10   1    4.70    9.10
   2  10  -1    0.00   10.70
  -2 -10   1   23.40    8.30
   1  10  -1   82.89   13.90
  -1 -10   1   45.20    8.80
   0  10  -1    8.60   10.30
   0 -10   1   -4.30    6.30
   1 -10   1  144.29   12.50
   1 -10   1  138.29   16.30
   2 -10   1   46.50    9.10
   3 -10   1    3.70    7.50
   5   9  -1    0.00   15.50
  -5  -9   1   21.90   11.10
   4   9  -1  -18.70   12.30
  -4  -9   1    5.40    8.50
   3   9  -1   11.60   10.90
  -3  -9   1   -2.00    7.10
   2   9  -1   -6.80    9.60
  -2  -9   1    3.20    3.50
  -2  -9   1   10.90    6.30
   1   9  -1    6.80    8.10
  -1  -9   1    8.90    3.10
  -1  -9   1   -1.10    5.50
   0   9  -1   23.60    8.80
   0  -9   1   30.00    6.00
   0  -9   1   15.50    3.30
   1  -9   1  401.36   17.50
   1  -9   1  417.66   18.70
   1  -9   1  399.56   16.80
   1  -9   1  456.65   22.10
   2  -9   1   -6.20    6.10
   2  -9   1   -3.50    7.70
   2  -9   1   -1.20    4.40
  -3   9  -1  164.38   15.30
   3  -9   1  190.58   14.70
  -4   9  -1    1.50    9.90
   4  -9   1   -2.30    6.10
   5  -9   1   -4.90    7.90
   6   8  -1    4.20   15.10
  -6  -8   1   25.50   11.30
  -6  -8   1   18.20   12.00
   5   8  -1   -0.10   12.60
  -5  -8   1    1.70    8.90
  -5  -8   1   -6.30    7.50
   4   8  -1  251.47   22.70
  -4  -8   1  246.88   14.10
  -4  -8   1  269.67   17.80
  -3  -8   1   58.19    9.10
  -3  -8   1   40.80    7.70
  -3  -8   1   64.09    6.90
  -2  -8   1  352.96   17.70
  -2  -8   1  376.36   18.30
  -2  -8   1  345.27   13.70
   1   8  -1   42.10    7.90
  -1  -8   1   51.59    6.80
  -1  -8   1   60.19    7.00
  -1  -8   1   60.79    5.40
   0   8  -1  150.58   12.70
   0  -8   1  140.49    9.80
   0  -8   1  132.59    9.90
   0  -8   1  146.59    8.10
   0  -8   1  138.79    8.50
   1  -8   1  168.98    8.60
   1  -8   1  169.18   11.80
   1  -8   1  186.38   10.40
   1  -8   1  176.08   10.90
   1  -8   1  191.68   13.50
  -2   8  -1    1.60    5.30
   2  -8   1    5.70    5.90
   2  -8   1   -2.90    3.40
   2  -8   1    5.00    2.80
   2  -8   1    3.70    4.70
  -3   8  -1   52.49    9.00
   3  -8   1   64.79    8.90
   3  -8   1   42.20    5.50
  -4   8  -1   67.39   11.30
   4  -8   1   70.39   10.30
  -5   8  -1  127.99   16.60
   5  -8   1  117.79   12.80
  -6   8  -1    6.90   13.10
   6  -8   1   10.40    8.70
   7   7  -1    0.30   15.90
  -7  -7   1   -5.10   12.70
   6   7  -1   20.30   12.90
  -6  -7   1   25.20    9.60
  -6  -7   1   18.50    9.40
   5   7  -1  154.38   19.90
  -5  -7   1  156.48   15.00
  -5  -7   1  145.49   12.90
   4   7  -1    8.70    8.40
   4   7  -1   32.30   13.20
  -4  -7   1   26.30    5.10
   3   7  -1   96.19   13.90
   3   7  -1   86.19   12.70
  -3  -7   1   91.59    7.00
  -3  -7   1   96.79   10.70
   2   7  -1    5.00    6.10
  -2  -7   1    3.40    3.90
  -2  -7   1    3.70    4.90
  -2  -7   1    3.10    2.40
   1   7  -1  140.79   12.30
   1   7  -1  133.99    9.20
  -1  -7   1  141.49   10.00
  -1  -7   1  135.79    6.90
  -1  -7   1  145.19    9.40
   0   7  -1   35.00    6.20
   0  -7   1   41.10    4.70
   0  -7   1   29.90    4.50
   0  -7   1   34.60    4.50
   0  -7   1   34.80    6.10
   1  -7   1   15.90    2.70
   1  -7   1   20.60    5.60
   1  -7   1   16.90    4.60
   1  -7   1   15.40    3.50
  -2   7  -1  130.09   11.00
   2  -7   1  138.39    9.60
   2  -7   1  134.29    6.30
   2  -7   1  132.99    7.40
   2  -7   1  137.19   10.20
  -3   7  -1   62.69    8.90
   3  -7   1   45.40    6.20
   3  -7   1   41.40    3.60
  -4   7  -1   -3.50    6.80
   4  -7   1  -12.70    5.30
  -5   7  -1   24.80    9.70
   5  -7   1   19.40    5.50
  -6   7  -1   66.49   14.20
   6  -7   1   33.40    7.70
  -7   7  -1   53.99   17.00
   7  -7   1   19.50    8.70
   7   6  -1   -2.50   13.50
  -7  -6   1   11.90   11.00
  -7  -6   1   20.50   10.30
   6   6  -1   12.80   11.50
  -6  -6   1    4.40    7.20
  -6  -6   1   14.10    8.10
   5   6  -1   48.40   11.80
  -5  -6   1   50.89    7.20
  -5  -6   1   42.50    8.30
   4   6  -1   58.49    9.40
   4   6  -1   74.79   10.70
  -4  -6   1   67.99    7.00
   3   6  -1  265.17   14.50
   3   6  -1  265.07   16.40
  -3  -6   1  250.27   15.30
  -3  -6   1  235.18   10.70
  -3  -6   1  226.18   14.10
   2   6  -1   20.60    4.30
   2   6  -1   13.20    5.10
  -2  -6   1   17.80    2.90
  -2  -6   1   15.20    4.90
  -2  -6   1   20.30    4.10
   1   6  -1  130.59   10.60
   1   6  -1  132.19    7.60
  -1  -6   1  124.19    7.90
  -1  -6   1  132.39    6.50
  -1  -6   1  123.39   10.90
  -1  -6   1  106.49   10.40
   0   6  -1  380.96   17.20
   0   6  -1  387.36   14.70
   0  -6   1  367.26   18.50
   0  -6   1  391.66   16.00
   0  -6   1  372.76   15.20
   0  -6   1  363.76   14.90
  -1   6  -1 1027.80   36.30
   1  -6   1 1028.80   33.30
   1  -6   1 1023.90   38.80
   1  -6   1 1023.30   34.40
   1  -6   1 1053.69   35.90
  -2   6  -1  479.55   20.90
   2  -6   1  507.45   17.10
   2  -6   1  500.35   17.30
   2  -6   1  500.55   20.20
   2  -6   1  441.56   22.60
   2  -6   1  482.85   19.60
  -3   6  -1  238.78   14.30
   3  -6   1  219.68    8.00
   3  -6   1  228.68   11.90
   3  -6   1  238.48    8.50
   3  -6   1  218.08   11.90
  -4   6  -1    0.00    6.00
   4  -6   1    7.00    4.80
  -5   6  -1   24.00    8.30
   6  -6   1   27.80    6.60
  -7   6  -1   59.99   15.50
   7  -6   1   40.90    8.30
   8   5  -1   -5.20   15.40
  -8  -5   1   39.40   12.10
  -8  -5   1   20.60   14.40
   7   5  -1   77.09   13.40
  -7  -5   1   84.59   12.20
  -7  -5   1   72.69   12.30
  -6  -5   1   53.09    9.20
   5   5  -1  268.77   18.10
   5   5  -1  235.28   14.80
  -5  -5   1  279.67   14.50
   4   5  -1   87.09    8.30
   4   5  -1   96.99   11.20
  -4  -5   1   81.99    6.80
  -4  -5   1   81.59    8.20
  -4  -5   1   66.39    8.20
   3   5  -1  304.17   16.70
   3   5  -1  308.47   13.40
   3   5  -1  312.37   14.10
  -3  -5   1  318.17   14.50
  -3  -5   1  306.27   12.30
  -3  -5   1  292.77   14.40
   2   5  -1 1471.95   49.90
   2   5  -1 1518.95   48.90
   2   5  -1 1488.95   51.59
  -2  -5   1 1462.95   47.40
  -2  -5   1 1473.95   50.99
  -2  -5   1 1508.95   49.60
   1   5  -1   54.59    4.60
   1   5  -1   50.29    6.90
  -1  -5   1   69.89    5.20
  -1  -5   1   41.30    5.90
  -1  -5   1   54.09    4.10
  -1  -5   1   56.99    5.80
   0   5  -1    3.20    3.10
   0   5  -1    3.80    2.00
   0  -5   1    3.70    1.90
   0  -5   1    4.40    4.10
   0  -5   1    4.70    2.70
   0  -5   1    4.10    2.70
  -1   5  -1 1153.18   39.00
   1  -5   1 1023.90   36.30
   1  -5   1 1121.29   40.40
   1  -5   1 1178.28   40.20
   1  -5   1 1147.09   36.50
  -2   5  -1  135.59    9.50
   2  -5   1  134.19    8.20
   2  -5   1  129.69    9.80
   2  -5   1  128.49    8.30
   2  -5   1  135.69    5.30
   2  -5   1  138.29    6.10
  -3   5  -1  118.79   10.00
   3  -5   1  121.09    8.60
   3  -5   1  130.29    8.00
   3  -5   1  117.29   10.40
  -4   5  -1  479.75   23.10
   4  -5   1  475.15   19.80
   4  -5   1  495.75   19.30
  -5   5  -1    5.10    6.00
   5  -5   1   -0.60    5.10
   6  -5   1    9.70    5.30
  -7   5  -1   -4.60   11.30
   7  -5   1   19.30    6.40
  -8   5  -1  -12.20   15.80
   8  -5   1    8.30    7.80
   8   4  -1   40.90   12.30
  -8  -4   1   22.30   13.30
  -8  -4   1   46.50   11.80
   7   4  -1    4.80    8.80
  -7  -4   1   10.70    8.80
  -7  -4   1    1.70    7.40
   6   4  -1   15.20    7.10
  -6  -4   1    7.60    5.70
  -6  -4   1    2.10    5.80
   5   4  -1    5.90    4.70
   5   4  -1    3.50    5.80
  -5  -4   1    0.00    4.10
  -5  -4   1   -0.60    3.60
  -5  -4   1    3.30    4.00
   4   4  -1   10.80    3.30
   4   4  -1   17.90    5.80
   4   4  -1   13.00    3.90
  -4  -4   1   14.60    4.30
  -4  -4   1   13.70    3.40
  -4  -4   1   11.60    3.20
   3   4  -1    1.20    2.60
   3   4  -1    1.10    2.10
   3   4  -1    5.20    3.60
  -3  -4   1    2.40    3.00
  -3  -4   1    6.30    2.20
  -3  -4   1    8.40    2.70
   2   4  -1   15.40    2.50
   2   4  -1   14.20    3.80
   2   4  -1   19.20    4.00
  -2  -4   1   15.80    3.10
  -2  -4   1   14.00    3.00
   1   4  -1  202.68   10.40
   1   4  -1  206.98    8.70
  -1  -4   1  185.88    8.80
  -1  -4   1  214.68   10.70
   0   4  -1 3282.07  110.89
   0   4  -1 3723.23  112.19
   0  -4   1 3711.83  112.89
   0  -4   1 3407.96  110.29
   0  -4   1 3718.53  111.89
   0  -4   1 3517.85  111.49
  -1   4  -1  696.83   25.40
   1  -4   1  687.63   24.80
   1  -4   1  726.13   25.70
   1  -4   1  681.33   24.40
   1  -4   1  692.73   22.30
  -2   4  -1  653.33   25.60
   2  -4   1  678.93   23.90
   2  -4   1  674.33   25.00
   2  -4   1  672.33   21.30
   2  -4   1  698.23   24.70
   2  -4   1  667.23   21.60
  -3   4  -1  143.69   10.30
  -3   4  -1  147.39    9.10
   3  -4   1  151.38    8.00
   3  -4   1  140.49    8.80
  -4   4  -1  296.77   16.30
  -4   4  -1  270.37   13.90
   4  -4   1  282.67   12.50
   4  -4   1  293.17   13.60
  -5   4  -1  562.24   26.60
   5  -4   1  544.75   21.40
  -6   4  -1   15.60    8.20
  -7   4  -1   96.99   15.60
   7  -4   1  112.19   11.10
  -8   4  -1   32.50   15.50
   8  -4   1   -6.00    6.90
   8   3  -1  115.59   15.10
  -8  -3   1   76.09   14.40
  -8  -3   1   81.19   11.40
  -7  -3   1   55.19   10.00
  -7  -3   1   48.70    8.10
   6   3  -1   71.29   10.30
  -6  -3   1   71.59    9.30
  -6  -3   1   61.99    8.30
   5   3  -1  245.18   12.20
   5   3  -1  235.68   11.70
   5   3  -1  277.67   14.60
  -5  -3   1  256.27   11.50
  -5  -3   1  256.47   13.30
  -5  -3   1  252.07   13.30
   4   3  -1   13.90    3.10
   4   3  -1    6.10    2.60
   4   3  -1   10.60    4.00
  -4  -3   1    5.10    2.40
  -4  -3   1    9.00    2.50
  -4  -3   1    5.60    2.60
   3   3  -1   49.10    5.80
   3   3  -1   42.80    4.40
   3   3  -1   44.40    4.00
  -3  -3   1   42.10    4.40
  -3  -3   1   40.80    4.30
  -3  -3   1   37.40    3.70
   2   3  -1 5104.69  156.28
   2   3  -1 5241.48  154.68
   2   3  -1 4933.11  154.28
  -2  -3   1 4921.91  153.88
  -2  -3   1 4895.41  154.88
  -2  -3   1 4922.51  155.18
   1   3  -1    1.40    1.80
   1   3  -1    3.30    1.80
  -1  -3   1    1.20    1.40
  -1  -3   1    1.10    1.10
  -1  -3   1   -0.60    1.90
   0   3  -1 4392.86  132.19
   0   3  -1 4093.69  130.69
   0  -3   1 4131.29  132.09
   0  -3   1 4396.96  132.59
  -1   3  -1   78.69    6.80
   1  -3   1   88.89    5.10
   1  -3   1   89.29    5.60
   1  -3   1   89.39    3.60
   1  -3   1   91.89    3.80
   1  -3   1  103.69    5.90
  -2   3  -1 1729.23   58.39
  -2   3  -1 1822.72   56.99
   2  -3   1 1731.53   56.29
   2  -3   1 1799.32   54.29
   2  -3   1 1745.13   54.19
   2  -3   1 1776.62   57.59
  -3   3  -1    6.50    2.50
  -3   3  -1    1.80    3.00
   3  -3   1    9.80    3.00
   3  -3   1    3.20    1.70
  -4   3  -1   12.30    3.40
  -4   3  -1    4.70    3.90
   4  -3   1    3.60    3.20
   4  -3   1   15.00    2.90
  -5   3  -1  126.29   12.10
   5  -3   1  139.09    8.40
   5  -3   1  131.19    9.50
  -7   3  -1   23.80   10.70
   7  -3   1   12.10    5.40
  -8   3  -1   36.30   13.60
   8  -3   1   59.79    8.90
   9   2  -1   16.40   10.90
  -9  -2   1   -1.80   15.20
  -9  -2   1    2.30   10.80
   8   2  -1   22.40    9.30
  -8  -2   1   25.50   11.20
   7   2  -1    0.10    6.40
  -7  -2   1    4.10    7.30
  -7  -2   1    4.60    5.50
   6   2  -1  107.19    8.20
   6   2  -1  129.09   10.30
  -6  -2   1  109.69   11.10
  -6  -2   1  113.29    9.70
   5   2  -1  153.18   10.00
   5   2  -1  164.08    8.30
   5   2  -1  135.39    8.80
  -5  -2   1  147.39    9.10
  -5  -2   1  158.38    8.10
  -5  -2   1  164.98   10.10
   4   2  -1   36.50    4.90
   4   2  -1   24.00    3.40
   4   2  -1   29.30    3.80
  -4  -2   1   34.20    4.40
  -4  -2   1   35.90    4.30
  -4  -2   1   32.60    3.80
   3   2  -1  326.17   12.00
   3   2  -1  303.37   11.80
   3   2  -1  326.17   13.10
  -3  -2   1  311.47   11.70
  -3  -2   1  301.17   12.00
  -3  -2   1  304.67   12.40
   2   2  -1  209.98    8.20
   2   2  -1  205.98    9.10
  -2  -2   1  202.18    8.00
  -2  -2   1  198.68    8.30
  -2  -2   1  210.58    8.40
   1   2  -1   15.00    2.40
   1   2  -1   12.60    1.60
   1   2  -1   17.00    2.20
  -1  -2   1   10.60    1.80
  -1  -2   1   14.60    2.10
  -1  -2   1   16.60    1.80
   0   2  -1  140.89    5.90
   0   2  -1  132.29    6.10
   0  -2   1  132.49    5.10
   0  -2   1  133.29    6.20
   0  -2   1  135.49    4.90
   0  -2   1  137.89    6.00
  -1   2  -1  234.48    7.70
  -1   2  -1  234.28   10.00
  -1   2  -1  244.28    9.10
   1  -2   1  232.98    9.80
   1  -2   1  241.18    7.80
  -2   2  -1 1916.91   60.99
  -2   2  -1 1923.51   62.79
  -2   2  -1 1894.41   59.09
   2  -2   1 1898.11   60.69
   2  -2   1 1977.60   59.29
   2  -2   1 1985.40   62.49
  -3   2  -1 3453.65  106.69
  -3   2  -1 3385.76  109.09
  -3   2  -1 3364.56  104.59
   3  -2   1 3360.16  104.49
   3  -2   1 3495.25  107.79
   3  -2   1 3436.16  106.29
  -4   2  -1  119.09    5.20
  -4   2  -1  115.09    7.10
  -4   2  -1  101.19    8.90
   4  -2   1  116.79    7.60
   4  -2   1  120.09    4.70
   4  -2   1  120.19    6.80
  -5   2  -1   -3.30    4.70
  -5   2  -1    1.60    3.60
  -5   2  -1    0.60    2.30
   5  -2   1   -0.40    1.50
   5  -2   1    1.20    2.40
   5  -2   1    1.50    3.30
  -6   2  -1  289.27   12.00
  -6   2  -1  298.87   19.30
  -6   2  -1  279.57   10.40
   6  -2   1  305.27   14.00
  -7   2  -1    0.00    8.70
  -7   2  -1   -2.80    3.80
   7  -2   1   -0.70    5.10
  -8   2  -1  161.58   22.90
   8  -2   1  161.78   14.00
   9   1  -1   20.00   10.00
  -9  -1   1  -18.90   14.50
   8   1  -1   61.79   10.20
  -8  -1   1   43.70    8.50
  -8  -1   1   53.19   13.40
   7   1  -1   16.70    7.10
  -7  -1   1    9.20    5.10
  -7  -1   1   14.20    7.60
  -7  -1   1   16.90    4.50
   6   1  -1    6.00    4.20
  -6  -1   1    6.40    2.90
  -6  -1   1   -4.20    3.70
  -6  -1   1   -2.00    3.40
  -6  -1   1    3.80    4.90
   5   1  -1  335.57   14.60
   5   1  -1  376.96   15.30
   5   1  -1  368.76   13.80
  -5  -1   1  346.97   14.80
  -5  -1   1  349.57   14.00
  -5  -1   1  361.86   16.60
   4   1  -1   81.79    5.70
   4   1  -1   78.49    4.90
   4   1  -1   82.29    5.60
  -4  -1   1   82.29    6.10
  -4  -1   1   84.09    5.50
  -4  -1   1   86.49    5.00
   3   1  -1  452.15   16.00
   3   1  -1  462.55   16.00
  -3  -1   1  432.66   16.10
  -3  -1   1  447.56   15.90
   1   1  -1  906.71   28.80
   1   1  -1  942.51   28.90
  -1  -1   1  914.81   28.40
  -1  -1   1  913.91   28.60
  -1  -1   1  892.01   28.70
  -1  -1   1  880.91   28.60
   0   1  -1 5723.23  171.38
   0  -1   1 5453.75  171.38
  -1   1  -1    0.80    0.50
  -1   1  -1    0.80    0.70
  -1   1  -1    1.80    1.00
   1  -1   1    1.70    1.20
   1  -1   1    0.70    0.50
   1  -1   1    1.40    0.50
  -2   1  -1  707.33   23.70
  -2   1  -1  702.63   25.40
  -2   1  -1  728.53   23.20
   2  -1   1  723.53   23.80
   2  -1   1  751.12   25.00
   2  -1   1  746.73   23.10
  -3   1  -1   93.59    4.60
  -3   1  -1   98.29    5.20
   3  -1   1   97.59    5.90
   3  -1   1   87.59    4.10
   3  -1   1   87.29    4.90
  -4   1  -1   85.79    5.70
  -4   1  -1   83.49    5.10
  -4   1  -1   80.39    7.40
   4  -1   1   83.49    4.30
   4  -1   1   91.19    5.60
   4  -1   1   80.29    6.30
  -5   1  -1  728.83   25.40
  -5   1  -1  706.43   26.10
  -5   1  -1  758.92   30.40
   5  -1   1  756.12   26.40
   5  -1   1  694.23   26.50
   5  -1   1  760.82   24.50
  -6   1  -1   61.79    6.60
   6  -1   1   66.89    7.10
   6  -1   1   65.29    5.20
  -7   1  -1    9.10    4.60
  -8   1  -1    3.20   11.60
  -8   1  -1   -4.80    6.40
   8  -1   1   20.70    6.60
   9  -1   1    7.10    9.90
   9   0  -1   45.00    9.80
  -9   0   1   22.50   15.30
   8   0  -1   88.59   12.00
  -8   0   1  112.99   16.10
  -8   0   1   99.99   11.30
   7   0  -1   88.09    9.40
  -7   0   1   73.69    7.70
  -7   0   1   66.69    7.50
   6   0  -1  161.18    9.60
  -6   0   1  157.38   12.40
  -6   0   1  146.89    9.60
  -6   0   1  147.79    7.20
  -6   0   1  161.18    9.30
   5   0  -1   68.99    5.80
   5   0  -1   52.69    5.60
  -5   0   1   60.99    7.20
  -5   0   1   60.09    3.90
  -5   0   1   58.09    5.20
  -5   0   1   65.99    5.50
   4   0  -1 1549.24   50.99
   4   0  -1 1601.34   50.89
  -4   0   1 1603.84   50.69
  -4   0   1 1637.54   50.79
  -4   0   1 1526.65   52.39
   3   0  -1   46.30    3.20
   3   0  -1   49.50    3.50
  -3   0   1   43.20    2.60
  -3   0   1   44.20    3.30
  -3   0   1   41.20    3.60
  -3   0   1   52.09    3.90
   2   0  -1 5020.80  158.08
   2   0  -1 5343.47  158.58
  -2   0   1 5262.67  157.78
  -2   0   1 5025.50  158.08
  -2   0   1 5202.78  158.18
   1   0  -1  175.98    6.10
   1   0  -1  166.68    5.70
   1   0  -1  175.78    5.70
  -1   0   1  169.48    5.70
  -1   0   1  174.48    5.80
  -1   0   1  171.58    6.10
   0   0  -1   42.00    1.60
  -1   0  -1  170.48    6.30
  -1   0  -1  171.48    6.20
  -1   0  -1  173.08    7.00
   1   0   1  172.88    6.80
   1   0   1  177.78    6.30
  -2   0  -1  111.29    6.10
  -2   0  -1  116.99    5.00
  -2   0  -1  113.79    5.10
   2   0   1  117.19    5.20
   2   0   1  126.69    5.10
   2   0   1  117.59    5.70
  -3   0  -1  873.81   29.10
  -3   0  -1  876.81   29.20
  -3   0  -1  886.01   31.20
   3   0   1  900.41   29.90
   3   0   1  865.91   29.30
   3   0   1  911.31   28.90
  -4   0  -1  936.11   33.70
  -4   0  -1  908.31   30.80
  -4   0  -1  897.81   30.60
   4   0   1  910.91   31.00
   4   0   1  897.21   31.10
   4   0   1  917.81   30.00
  -5   0  -1   59.19    8.40
  -5   0  -1   66.09    5.90
   5   0   1   67.49    6.40
   5   0   1   50.69    5.90
   5   0   1   75.79    5.20
  -6   0  -1  170.38   10.30
  -6   0  -1  179.18   14.20
   6   0   1  177.08   10.70
   6   0   1  160.08    8.60
  -7   0  -1   77.99   12.10
  -7   0  -1  116.89   10.00
   7   0   1   85.39    8.10
  -8   0  -1   14.10    7.10
  -8   0  -1   28.10   13.20
   8   0   1   11.70    8.30
  -9   0  -1   33.70   27.10
   9  -1  -1   -9.60    8.30
  -9   1   1   -9.00   14.90
   8  -1  -1   79.89    9.50
  -8   1   1   62.69   13.50
  -8   1   1   60.09    7.20
  -7   1   1   44.00    4.90
  -7   1   1   44.30    5.70
   6  -1  -1   82.59    7.40
  -6   1   1   87.19   10.70
  -6   1   1   84.59    4.80
  -6   1   1   95.69    9.30
  -6   1   1   90.29    6.60
   5  -1  -1  127.69    7.70
   5  -1  -1  133.39    7.60
  -5   1   1  130.99    6.90
  -5   1   1  133.69   10.00
  -5   1   1  134.19    5.70
  -5   1   1  138.49    7.90
   4  -1  -1  156.38    7.70
   4  -1  -1  156.58    7.40
  -4   1   1  159.08    6.90
  -4   1   1  156.68    9.10
  -4   1   1  162.18    7.70
  -4   1   1  170.38    6.10
   3  -1  -1  168.68    7.10
   3  -1  -1  151.28    6.80
  -3   1   1  168.78    7.20
  -3   1   1  164.68    6.10
  -3   1   1  161.08    5.70
  -3   1   1  168.68    8.10
   2  -1  -1 1983.00   61.39
   2  -1  -1 2026.10   61.39
   2  -1  -1 1993.10   60.39
  -2   1   1 2034.20   61.59
  -2   1   1 1837.62   60.49
   1  -1  -1   18.60    1.60
   1  -1  -1   19.60    1.80
   1  -1  -1   21.10    1.30
   1  -1  -1   19.70    1.20
  -1   1   1   21.20    1.30
   0  -1  -1   98.89    4.40
   0  -1  -1   98.09    4.00
   0   1   1  101.99    4.00
   0   1   1  101.69    4.50
  -1  -1  -1 1276.17   39.70
  -1  -1  -1 1264.27   39.60
  -1  -1  -1 1237.78   39.70
   1   1   1 1190.98   39.90
   1   1   1 1263.47   39.20
   1   1   1 1290.57   39.70
  -2  -1  -1 9999.00  303.97
   2   1   1 9870.11  303.67
  -3  -1  -1  123.09    7.20
  -3  -1  -1  126.89    6.60
  -3  -1  -1  127.69    6.10
   3   1   1  125.29    6.20
   3   1   1  125.79    6.20
   3   1   1  125.89    6.70
  -4  -1  -1  467.25   19.30
  -4  -1  -1  464.25   17.80
  -4  -1  -1  453.05   17.10
   4   1   1  465.45   17.10
   4   1   1  471.75   17.00
   4   1   1  458.55   18.00
  -5  -1  -1  545.25   20.60
  -5  -1  -1  508.65   19.60
  -5  -1  -1  517.85   23.00
   5   1   1  494.25   19.60
   5   1   1  515.55   19.10
   5   1   1  541.35   21.00
  -6  -1  -1   29.10    7.20
  -6  -1  -1   23.70    5.10
   6   1   1   23.70    4.20
   6   1   1   15.60    4.90
  -7  -1  -1  148.19   17.10
  -7  -1  -1  135.39   11.70
  -8  -1  -1   62.69    9.60
  -8  -1  -1   49.70   13.60
   8   1   1   43.50   10.20
   9  -2  -1   33.80    9.60
  -9   2   1   39.80   17.10
   8  -2  -1   24.70    6.70
  -8   2   1   31.40   12.90
   7  -2  -1  247.48   14.10
  -7   2   1  197.08   10.00
  -7   2   1  194.18    9.70
   6  -2  -1  297.47   13.30
  -6   2   1  287.57   17.40
  -6   2   1  256.57    9.90
   5  -2  -1  464.35   17.90
   5  -2  -1  489.75   17.80
  -5   2   1  453.65   15.70
  -5   2   1  466.95   21.10
  -5   2   1  444.86   15.00
  -5   2   1  448.56   18.00
   4  -2  -1  140.19    7.50
   4  -2  -1  154.98    7.50
  -4   2   1  149.09    5.60
  -4   2   1  144.69    9.10
  -4   2   1  152.58    7.90
  -4   2   1  138.19    5.30
   3  -2  -1 4355.36  135.59
   3  -2  -1 4311.87  135.69
  -3   2   1 4524.65  136.39
  -3   2   1 4383.06  137.29
   2  -2  -1  462.55   16.40
   2  -2  -1  443.36   14.90
   2  -2  -1  507.05   16.20
  -2   2   1  487.05   15.10
  -2   2   1  492.95   17.00
   1  -2  -1  904.91   28.00
   1  -2  -1  890.21   27.70
   1  -2  -1  904.01   29.40
  -1   2   1  904.51   28.00
  -1   2   1  878.61   28.20
  -1   2   1  832.12   29.70
   0  -2  -1 3949.00  119.09
   0  -2  -1 3682.33  117.89
   0   2   1 3986.10  119.09
   0   2   1 3712.03  117.89
  -1  -2  -1 6171.88  198.08
  -1  -2  -1 6455.35  198.68
   1   2   1 6574.64  197.98
   1   2   1 6603.94  199.18
  -2  -2  -1   44.90    3.80
  -2  -2  -1   54.59    3.90
   2   2   1   43.00    3.60
   2   2   1   54.69    4.60
   2   2   1   49.20    3.10
  -3  -2  -1   37.20    4.10
  -3  -2  -1   39.70    3.80
  -3  -2  -1   37.50    4.30
   3   2   1   42.30    4.10
   3   2   1   47.50    4.90
   3   2   1   40.60    3.70
  -4  -2  -1   59.49    6.30
  -4  -2  -1   65.29    6.10
  -4  -2  -1   54.99    4.90
   4   2   1   60.49    6.30
   4   2   1   53.09    5.10
   4   2   1   65.19    4.90
  -5  -2  -1  168.58   10.40
  -5  -2  -1  139.59    8.70
  -5  -2  -1  150.78   11.30
   5   2   1  153.28    8.60
   5   2   1  152.88   10.40
  -6  -2  -1   43.50    7.00
  -6  -2  -1   43.50    8.90
   6   2   1   40.70    6.60
  -7  -2  -1   15.20    9.30
  -7  -2  -1   15.30    6.40
   7   2   1   11.90    7.50
  -8  -2  -1   20.10   10.60
  -8  -2  -1   21.60   13.10
   8   2   1   12.00    8.80
   8  -3  -1   64.69    8.80
  -8   3   1   58.69   14.80
  -7   3   1   12.20    9.70
   6  -3  -1  278.37   13.40
  -6   3   1  276.97   18.00
   5  -3  -1  186.38    9.80
   5  -3  -1  164.88    9.50
  -5   3   1  177.58   11.20
  -5   3   1  198.78   13.10
   4  -3  -1   98.39    6.30
   4  -3  -1   97.19    6.20
  -4   3   1  105.69    7.80
  -4   3   1  103.29    8.40
   3  -3  -1   71.89    4.90
   3  -3  -1   69.99    4.60
  -3   3   1   76.69    6.10
   2  -3  -1  596.94   21.80
   2  -3  -1  609.74   19.90
   2  -3  -1  597.24   19.10
   2  -3  -1  587.74   20.90
  -2   3   1  575.54   22.20
  -2   3   1  610.44   19.00
   1  -3  -1 1989.30   61.09
   1  -3  -1 2007.80   63.19
   1  -3  -1 1935.21   60.29
  -1   3   1 1915.71   62.39
  -1   3   1 1932.31   61.19
  -1   3   1 1947.01   60.79
   0  -3  -1 9053.19  286.67
   0  -3  -1 9706.93  288.57
   0   3   1 9733.33  288.47
   0   3   1 8986.50  286.47
  -1  -3  -1 7626.44  250.97
  -1  -3  -1 8150.58  252.27
   1   3   1 8275.87  249.18
   1   3   1 8033.50  250.77
   1   3   1 8800.42  253.07
  -2  -3  -1  829.12   28.40
   2   3   1  823.52   29.90
   2   3   1  821.22   26.60
   2   3   1  807.52   27.90
  -3  -3  -1  143.19    7.60
  -3  -3  -1  141.39    8.10
  -3  -3  -1  132.99    7.50
   3   3   1  145.09    6.90
   3   3   1  142.09    9.40
   3   3   1  134.89    7.40
  -4  -3  -1  254.07   12.50
  -4  -3  -1  239.08   11.10
  -4  -3  -1  260.27   12.60
   4   3   1  248.58   13.50
   4   3   1  233.98   11.00
   4   3   1  230.58   10.60
  -5  -3  -1   24.60    5.30
  -5  -3  -1   32.40    6.40
   5   3   1   31.20    6.20
   5   3   1   25.40    4.70
   5   3   1   20.40    4.60
  -6  -3  -1   15.60    5.30
  -6  -3  -1    1.60    6.50
   6   3   1    3.00    7.50
  -7  -3  -1  -19.40    8.90
   7   3   1   12.00    8.00
  -8  -3  -1   35.40   10.40
  -8  -3  -1   11.60   14.00
   8   3   1   36.90   11.00
   8  -4  -1   54.79    9.30
  -8   4   1   42.80   15.00
   7  -4  -1    2.90    5.70
  -7   4   1    5.80    9.50
   6  -4  -1  262.67   19.10
  -6   4   1  280.37   19.20
   5  -4  -1   90.49    7.30
   5  -4  -1   79.89    7.40
  -5   4   1   80.99   10.60
   4  -4  -1    1.00    2.80
   4  -4  -1   -0.30    3.90
   4  -4  -1    0.90    2.30
  -4   4   1   -0.20    3.80
   3  -4  -1  312.87   11.80
   3  -4  -1  299.37   12.70
   3  -4  -1  285.67   14.20
  -3   4   1  302.47   14.00
   2  -4  -1  126.79    5.60
   2  -4  -1  123.69    7.40
   2  -4  -1  120.59    8.70
   2  -4  -1  129.99    5.90
  -2   4   1  127.89    7.50
  -2   4   1  126.19    5.20
   1  -4  -1    0.70    3.20
   1  -4  -1   -0.50    1.00
   1  -4  -1    1.40    1.60
  -1   4   1   -2.10    1.60
  -1   4   1    4.10    1.60
  -1   4   1    0.90    2.10
   0  -4  -1    0.90    2.80
   0  -4  -1    3.00    1.70
   0   4   1    3.50    1.50
   0   4   1    1.00    2.70
  -1  -4  -1   61.89    4.90
  -1  -4  -1   59.09    6.10
  -1  -4  -1   64.69    3.00
   1   4   1   68.79    6.80
   1   4   1   60.69    4.00
   1   4   1   66.19    4.70
  -2  -4  -1   43.50    3.80
  -2  -4  -1   44.20    5.50
  -2  -4  -1   40.10    4.70
   2   4   1   49.99    7.00
   2   4   1   53.59    3.90
   2   4   1   47.40    4.60
  -3  -4  -1   38.30    4.80
  -3  -4  -1   39.70    5.70
  -3  -4  -1   48.30    5.70
   3   4   1   48.80    7.20
   3   4   1   49.10    4.40
   3   4   1   40.70    4.90
  -4  -4  -1   53.89    7.10
  -4  -4  -1   50.49    6.20
  -4  -4  -1   44.70    6.30
   4   4   1   42.90    8.00
   4   4   1   42.00    5.30
   4   4   1   41.40    5.50
  -5  -4  -1  -10.40    4.30
  -5  -4  -1    3.00    5.00
   5   4   1    0.90    4.20
   5   4   1   -7.80    6.00
  -6  -4  -1   10.10    7.50
  -7  -4  -1   -0.70    8.10
  -7  -4  -1  -16.90   10.10
   7   4   1   13.00   11.60
  -8  -4  -1   -0.10   14.30
  -8  -4  -1   -7.10   10.70
   8  -5  -1   20.90    8.70
  -8   5   1   12.60   15.00
   7  -5  -1   31.80    7.60
  -7   5   1   31.90   11.80
  -6   5   1  512.85   33.80
   5  -5  -1  511.35   21.00
   5  -5  -1  586.64   22.00
  -5   5   1  557.44   26.00
   4  -5  -1   15.70    3.80
   4  -5  -1   28.00    3.70
  -4   5   1   39.30    7.10
   3  -5  -1   60.39    6.50
   3  -5  -1   51.99    2.40
   3  -5  -1   52.59    4.60
   3  -5  -1   49.20    3.00
   3  -5  -1   33.90    6.00
  -3   5   1   56.19    7.00
   2  -5  -1  577.44   22.50
   2  -5  -1  597.34   20.00
   2  -5  -1  587.04   24.40
   2  -5  -1  593.24   20.20
  -2   5   1  576.54   22.10
  -2   5   1  604.64   19.80
   1  -5  -1    8.40    4.90
   1  -5  -1    6.00    1.50
   1  -5  -1    5.20    2.20
  -1   5   1    2.30    2.80
  -1   5   1    6.90    2.30
  -1   5   1    5.10    2.00
   0  -5  -1   61.39    7.40
   0  -5  -1   50.69    4.80
   0   5   1   48.20    6.80
   0   5   1   58.59    4.60
  -1  -5  -1   45.90    6.60
  -1  -5  -1   37.90    4.60
   1   5   1   25.10    4.70
   1   5   1   41.10    4.40
  -2  -5  -1  647.84   26.10
  -2  -5  -1  675.93   22.80
   2   5   1  654.03   24.30
   2   5   1  702.03   28.00
   2   5   1  679.73   23.30
  -3  -5  -1   69.69    6.00
  -3  -5  -1   73.09    7.10
  -3  -5  -1   70.39    7.80
   3   5   1   69.79    5.70
   3   5   1   51.39    6.70
   3   5   1   59.79    8.60
  -4  -5  -1    2.40    4.00
  -4  -5  -1   -1.50    3.90
   4   5   1   -4.50    3.50
   4   5   1   -0.80    5.80
  -5  -5  -1  286.77   16.30
   5   5   1  310.27   20.40
   5   5   1  226.58   13.60
  -6  -5  -1   33.80    8.60
  -6  -5  -1   34.20   10.00
   6   5   1   31.10   11.80
  -7  -5  -1  -19.40   11.70
  -7  -5  -1   -0.30    9.20
   7   5   1   13.70   12.30
   7  -6  -1   15.70    7.70
  -7   6   1   27.20   12.90
   6  -6  -1   60.89    8.50
  -6   6   1   58.29   12.20
   5  -6  -1  559.14   24.40
  -5   6   1  659.13   29.10
   4  -6  -1   40.30    4.70
   4  -6  -1   30.10    5.20
  -4   6   1   48.80    8.10
   3  -6  -1   35.30    5.50
   3  -6  -1   47.30    2.90
   3  -6  -1   47.20    4.80
   3  -6  -1   40.90    4.20
  -3   6   1   45.40    6.50
   2  -6  -1  508.25   24.50
   2  -6  -1  539.45   18.20
   2  -6  -1  527.65   19.00
   2  -6  -1  524.45   21.60
  -2   6   1  531.55   20.60
  -2   6   1  525.65   18.40
   1  -6  -1    6.40    6.30
   1  -6  -1    4.30    2.60
  -1   6   1    7.90    4.20
  -1   6   1    3.40    2.30
   0  -6  -1  399.16   16.50
   0  -6  -1  374.36   19.50
   0   6   1  399.96   19.00
   0   6   1  421.76   15.70
  -1  -6  -1    5.40    3.10
  -1  -6  -1    7.20    5.50
   1   6   1    4.00    5.30
   1   6   1   10.20    3.20
  -2  -6  -1   94.69    8.30
   2   6   1   85.59    7.90
   2   6   1   95.29   11.10
   2   6   1   84.99    7.70
  -3  -6  -1   35.60    4.70
  -3  -6  -1   24.50    5.10
   3   6   1   27.10    5.00
   3   6   1   22.30    7.50
  -4  -6  -1    2.00    4.70
   4   6   1    6.40    5.00
   4   6   1    4.40    7.80
  -5  -6  -1    9.80    6.60
  -5  -6  -1    5.80    7.00
   5   6   1    5.20    6.90
   5   6   1   17.00   10.40
  -6  -6  -1   39.40    9.40
   6   6   1   28.50   13.80
  -7  -6  -1   20.30   12.00
  -7  -6  -1    0.20   13.20
   7   6   1   11.20   15.00
   7  -7  -1   50.09    9.60
  -7   7   1   61.79   16.60
   6  -7  -1   -7.80    6.20
   5  -7  -1  153.88   12.30
  -5   7   1  144.69   15.90
   4  -7  -1  419.76   16.80
  -4   7   1  454.35   21.90
   3  -7  -1    6.80    3.20
   3  -7  -1    6.10    2.90
   3  -7  -1   13.60    6.20
   3  -7  -1    6.70    2.10
  -3   7   1   10.70    5.10
   2  -7  -1  158.68    7.20
   2  -7  -1  151.08    8.60
   2  -7  -1  150.58   12.90
  -2   7   1  163.08    8.30
  -2   7   1  157.68    9.70
   1  -7  -1  621.64   23.30
  -1   7   1  621.94   25.90
  -1   7   1  619.34   22.50
   0  -7  -1  370.56   16.30
   0   7   1  348.57   15.10
   0   7   1  362.16   19.00
  -1  -7  -1    6.10    3.80
   1   7   1   -3.80    6.30
  -2  -7  -1   30.20    5.70
   2   7   1   40.90   10.70
  -3  -7  -1    6.30    4.10
  -3  -7  -1   12.00    5.60
   3   7   1    2.80    6.30
  -4  -7  -1   48.00    7.10
  -4  -7  -1   32.30    7.80
   4   7   1   37.00    8.40
   4   7   1   52.09   11.40
  -5  -7  -1    1.40    8.00
  -5  -7  -1   15.10    8.60
   5   7   1    5.60   10.90
  -6  -7  -1    2.20   12.80
  -6  -7  -1    2.90    9.70
   6   7   1  -10.30   13.90
   6  -8  -1   42.60    9.10
   5  -8  -1    5.00    6.70
  -5   8   1   21.50    9.80
   4  -8  -1   -0.90    6.60
  -4   8   1    9.90    7.50
   3  -8  -1    3.20    3.50
   3  -8  -1    6.20    3.60
   3  -8  -1    3.70    5.90
  -3   8   1   -2.50    5.40
   2  -8  -1   15.20    4.50
   1  -8  -1   85.29    8.50
  -1   8   1   86.29    8.30
   0  -8  -1   74.89    8.90
  -1  -8  -1   44.80    6.60
  -2  -8  -1  194.78   13.90
   2   8   1  204.18   18.70
  -3  -8  -1   -8.00    5.60
  -3  -8  -1   -5.40    4.60
   3   8   1   14.50    9.60
  -4  -8  -1   17.00    7.80
  -4  -8  -1   17.40   10.00
   4   8   1   12.00   12.60
  -5  -8  -1   17.20    9.80
   5   8   1   23.10   14.40
   5  -9  -1    1.70    7.60
   4  -9  -1   26.40    8.10
   3  -9  -1  104.59   14.00
   2  -9  -1   24.90    8.60
   2  -9  -1   24.30    5.70
   1  -9  -1    6.90    5.80
  -1   9   1   10.60    7.30
   0  -9  -1   -2.30    8.00
   0   9   1    5.50    7.20
  -1  -9  -1   55.19    8.90
   1   9   1   45.50   10.90
  -2  -9  -1   22.30    7.90
   2   9   1   28.00   12.00
  -3  -9  -1   -2.30    7.40
   3   9   1    9.80   12.10
  -4  -9  -1   -3.60    9.60
   4   9   1   27.20   16.40
   3 -10  -1   30.20   10.20
   2 -10  -1  -17.80    7.90
   1 -10  -1   29.30    9.10
   0 -10  -1   71.59   10.00
   0  10   1   72.39   11.60
  -1 -10  -1   81.19   11.10
   1  10   1   82.99   13.10
  -2 -10  -1   69.99   10.90
   2  10   1   32.10   15.00
  -3 -10  -1   39.80   10.90
   3  10   1   18.10   17.00
   0 -11   2   29.90   10.30
   0 -11   2    7.10    8.00
   3  10  -2   10.60   12.90
  -3 -10   2   16.70    9.50
   2  10  -2   13.70   11.10
  -2 -10   2    0.30    7.20
   1  10  -2   24.50    9.10
  -1 -10   2   41.60    8.70
   0 -10   2   -0.10    6.20
   1 -10   2    4.20    5.80
   1 -10   2    7.70    7.40
   2 -10   2   71.09   11.60
   3 -10   2   14.60    9.00
   5   9  -2   -6.20   15.70
  -5  -9   2   18.20   10.40
   4   9  -2   55.39   14.10
  -4  -9   2   41.10    7.20
  -4  -9   2   37.20   10.80
   3   9  -2    8.10   11.40
  -3  -9   2    8.90    4.60
  -3  -9   2    9.60    7.00
   2   9  -2   17.80    8.90
  -2  -9   2   35.80    4.90
  -2  -9   2   21.80    6.70
   1   9  -2   15.80    8.60
  -1  -9   2   19.70    6.10
  -1  -9   2   17.40    3.80
   0   9  -2   11.00    6.80
   0  -9   2    8.30    4.90
   0  -9   2   12.10    4.50
   1  -9   2   26.60    5.50
   1  -9   2   37.50    7.50
   1  -9   2   38.50    8.40
   1  -9   2   29.60    5.30
   2  -9   2   55.09   10.60
   2  -9   2   59.89    9.70
   2  -9   2   48.40    6.10
  -3   9  -2  247.48   18.80
   3  -9   2  268.67   16.60
  -4   9  -2   15.90   11.10
   4  -9   2   17.10    7.70
  -5   9  -2   24.00   14.30
   5  -9   2   28.10   10.30
   6   8  -2   42.10   17.60
  -6  -8   2  120.09   17.20
  -6  -8   2   77.39   14.50
   5   8  -2  -22.30   11.10
  -5  -8   2   -5.30    8.20
  -5  -8   2    0.80    7.00
   4   8  -2   12.90   10.00
  -4  -8   2   -1.00    4.70
  -4  -8   2    5.40    6.70
  -3  -8   2    5.00    7.60
  -3  -8   2   -2.30    5.40
  -3  -8   2    7.60    4.10
   2   8  -2  123.19   15.00
  -2  -8   2  127.79   11.00
  -2  -8   2  144.69   13.10
  -2  -8   2  128.09    8.20
  -1  -8   2  102.09    7.50
  -1  -8   2  113.69   11.40
  -1  -8   2  130.89    9.50
   0  -8   2  420.96   19.60
   0  -8   2  418.16   16.70
   0  -8   2  442.06   18.30
   0  -8   2  431.06   18.40
   1  -8   2   25.20    5.80
   1  -8   2   23.60    4.50
   1  -8   2   26.90    3.80
   1  -8   2   26.60    6.40
   1  -8   2   25.30    6.90
  -2   8  -2  365.96   18.80
   2  -8   2  323.87   14.20
   2  -8   2  320.67   17.00
   2  -8   2  346.07   17.60
   2  -8   2  335.47   13.20
  -3   8  -2  168.48   15.10
   3  -8   2  169.78    8.40
   3  -8   2  182.08   12.60
   3  -8   2  141.69   13.30
  -4   8  -2   30.40    9.50
   4  -8   2   20.40    5.80
   5  -8   2   31.70    7.80
  -6   8  -2   28.20   14.60
   6  -8   2   16.20    9.70
   7   7  -2    1.20   15.80
  -7  -7   2   16.50   12.20
  -7  -7   2   14.90   11.70
   6   7  -2   -7.50   13.00
  -6  -7   2   14.30    8.50
  -6  -7   2   -0.10    9.40
  -5  -7   2   -1.90    5.50
  -5  -7   2   -6.40    6.60
   4   7  -2   26.50    9.90
  -4  -7   2   13.60    4.50
   3   7  -2   39.90    7.90
   3   7  -2   45.40    8.90
  -3  -7   2   46.10    6.00
  -3  -7   2   40.60    9.90
   2   7  -2  320.57   18.40
  -2  -7   2  327.47   15.90
  -2  -7   2  323.57   13.20
  -2  -7   2  344.27   17.00
   1   7  -2   13.10    5.60
  -1  -7   2   16.00    4.30
  -1  -7   2   14.70    3.30
  -1  -7   2   17.70    3.50
  -1  -7   2   19.40    5.40
   0   7  -2  840.32   31.90
   0  -7   2  790.62   27.90
   0  -7   2  829.12   31.40
   0  -7   2  832.92   29.60
   0  -7   2  859.21   30.50
   1  -7   2 1780.42   58.39
   1  -7   2 1695.33   54.39
   1  -7   2 1669.73   57.99
   1  -7   2 1698.53   58.99
   1  -7   2 1708.73   55.69
  -2   7  -2   72.59    9.60
   2  -7   2   85.39    8.80
   2  -7   2   67.89    5.20
   2  -7   2   77.29    5.60
   2  -7   2   72.19    9.00
  -3   7  -2   19.00    6.80
   3  -7   2   18.10    4.50
   3  -7   2   18.60    6.10
   3  -7   2   15.20    3.30
   3  -7   2   13.00    2.60
  -4   7  -2    2.40    7.30
  -5   7  -2    2.40    9.20
   5  -7   2   -5.90    4.30
  -6   7  -2   44.60   13.80
   6  -7   2   37.20    7.40
  -7   7  -2   38.10   17.20
   7  -7   2   42.10   12.40
   7   6  -2   41.90   13.60
  -7  -6   2   25.10   10.50
  -7  -6   2   14.20    9.90
  -6  -6   2   24.70    8.30
  -6  -6   2   18.60    7.40
   5   6  -2  105.39   15.40
  -5  -6   2  101.99    9.80
  -5  -6   2   78.09   13.50
   4   6  -2   -6.80    6.40
   4   6  -2    9.30    7.00
  -4  -6   2    7.60    3.80
   3   6  -2    5.60    5.60
   3   6  -2    2.10    5.50
  -3  -6   2    5.30    2.80
  -3  -6   2    7.70    5.20
  -3  -6   2    2.50    4.40
   2   6  -2  755.32   30.10
  -2  -6   2  716.93   29.30
  -2  -6   2  765.52   25.80
  -2  -6   2  786.12   28.00
  -2  -6   2  735.23   26.00
  -2  -6   2  767.32   29.00
   1   6  -2  194.48   12.30
  -1  -6   2  206.98   12.00
  -1  -6   2  179.88    9.10
  -1  -6   2  194.28    9.90
  -1  -6   2  188.28   12.40
  -1  -6   2  176.48    8.40
   0   6  -2   21.80    4.40
   0  -6   2   26.40    3.10
   0  -6   2   31.10    5.50
   0  -6   2   33.50    4.00
   0  -6   2   22.60    4.70
   0  -6   2   18.60    5.10
  -1   6  -2  258.87   13.70
   1  -6   2  264.37   10.90
   1  -6   2  264.07   10.20
   1  -6   2  251.77   15.00
   1  -6   2  273.97   13.20
   1  -6   2  266.17   13.60
  -2   6  -2 1029.20   37.90
   2  -6   2 1022.90   36.50
   2  -6   2 1007.50   32.60
   2  -6   2  901.41   32.90
   2  -6   2 1024.80   35.40
   2  -6   2 1001.00   37.90
  -3   6  -2  688.03   29.50
   3  -6   2  679.53   22.40
   3  -6   2  709.63   26.00
   3  -6   2  706.23   22.50
   3  -6   2  651.43   27.00
  -4   6  -2   50.69    9.00
   4  -6   2   66.89   11.30
  -5   6  -2   22.40   10.80
  -6   6  -2   44.10   12.70
   6  -6   2   29.20    6.40
  -7   6  -2    8.40   13.60
   7  -6   2    6.90    6.90
   8   5  -2    2.20   14.60
  -8  -5   2    5.20   13.10
  -8  -5   2    0.90   10.70
   7   5  -2   25.80   12.20
  -7  -5   2   22.40    8.90
  -7  -5   2   13.20    9.10
   6   5  -2   -0.30   10.80
  -6  -5   2    9.70    6.10
  -6  -5   2    3.80    6.20
   5   5  -2   24.90    7.40
  -5  -5   2   39.70    6.10
   4   5  -2   -0.90    4.80
   4   5  -2    2.00    6.00
  -4  -5   2    6.90    3.90
  -4  -5   2    1.90    3.60
  -4  -5   2    5.20    3.00
   3   5  -2   22.90    5.40
   3   5  -2   22.40    5.30
   3   5  -2   25.40    3.90
  -3  -5   2   31.00    4.40
  -3  -5   2   24.10    4.60
  -3  -5   2   30.80    4.80
   2   5  -2  228.18   12.60
   2   5  -2  197.28   12.20
  -2  -5   2  208.48    9.10
  -2  -5   2  203.28   11.50
  -2  -5   2  216.38   10.50
  -2  -5   2  209.88    9.10
   1   5  -2  500.45   20.60
  -1  -5   2  519.25   18.80
  -1  -5   2  494.15   17.70
  -1  -5   2  531.55   20.70
  -1  -5   2  512.45   18.90
  -1  -5   2  489.75   20.70
   0   5  -2 1039.40   36.10
   0  -5   2 1035.00   34.50
   0  -5   2 1024.30   36.50
   0  -5   2 1059.19   33.70
   0  -5   2 1034.30   37.30
   0  -5   2 1066.29   37.10
  -1   5  -2   -0.50    3.20
   1  -5   2   -0.70    3.30
   1  -5   2   -2.50    2.40
   1  -5   2   -1.60    1.50
   1  -5   2    0.30    1.40
   1  -5   2   -1.90    3.50
  -2   5  -2    0.80    3.60
   2  -5   2    2.50    4.30
   2  -5   2   -1.10    3.70
   2  -5   2    1.20    1.40
   2  -5   2    5.50    2.40
   2  -5   2    1.10    1.50
  -3   5  -2  280.37   16.10
   3  -5   2  285.97   14.60
   3  -5   2  286.77    9.70
   3  -5   2  297.27    9.90
   3  -5   2  279.37   12.60
   3  -5   2  243.68   14.60
  -4   5  -2  366.16   20.10
   4  -5   2  375.16   15.60
   4  -5   2  348.17   17.40
  -5   5  -2  389.56   22.80
  -6   5  -2  -17.70   11.40
   6  -5   2    6.70    4.90
  -7   5  -2  121.99   18.60
   7  -5   2  143.49   13.20
  -8   5  -2   14.00   16.90
   8  -5   2    0.30    8.80
   8   4  -2    1.40   10.60
  -8  -4   2   -2.30    9.80
  -8  -4   2   18.90   11.60
  -7  -4   2   24.60    7.90
  -7  -4   2    7.40    7.90
   6   4  -2   17.00    7.50
  -6  -4   2    6.40    5.30
  -6  -4   2   -9.60    6.70
   5   4  -2  189.58   12.50
   5   4  -2  217.38   14.40
  -5  -4   2  196.18   10.40
  -5  -4   2  231.68   11.80
  -5  -4   2  211.38   12.30
   4   4  -2  533.45   22.30
   4   4  -2  455.25   19.60
  -4  -4   2  478.85   18.20
  -4  -4   2  504.35   18.80
  -4  -4   2  498.85   18.80
  -4  -4   2  487.45   20.10
   3   4  -2  455.85   18.70
   3   4  -2  466.35   19.80
  -3  -4   2  457.45   18.10
  -3  -4   2  469.05   17.00
  -3  -4   2  442.56   17.70
   2   4  -2  208.58   11.20
   2   4  -2  215.08   11.30
  -2  -4   2  219.58   10.80
  -2  -4   2  223.88   10.00
  -2  -4   2  220.68    9.00
  -2  -4   2  220.28    9.00
   1   4  -2   36.50    5.00
  -1  -4   2   30.90    3.40
  -1  -4   2   36.90    5.60
  -1  -4   2   34.30    4.90
  -1  -4   2   32.30    3.90
  -1  -4   2   33.70    3.00
   0   4  -2  477.95   17.60
   0  -4   2  459.45   18.60
   0  -4   2  463.55   18.30
   0  -4   2  464.45   16.30
   0  -4   2  457.15   18.50
   0  -4   2  465.95   15.70
  -1   4  -2   63.09    6.40
   1  -4   2   77.49    5.20
   1  -4   2   74.59    6.20
   1  -4   2   74.59    4.00
   1  -4   2   67.59    6.30
  -2   4  -2  576.84   23.90
   2  -4   2  607.24   21.30
   2  -4   2  586.04   22.30
   2  -4   2  590.24   23.10
   2  -4   2  595.14   19.30
   2  -4   2  592.44   19.20
  -3   4  -2 1116.99   42.00
   3  -4   2 1144.79   40.30
   3  -4   2 1185.08   35.70
   3  -4   2 1110.29   35.30
   3  -4   2 1134.59   38.20
  -4   4  -2   12.90    5.50
  -4   4  -2   15.70    4.90
   4  -4   2   12.30    4.50
   4  -4   2   10.20    3.00
  -5   4  -2   75.79   11.20
   5  -4   2   56.69    7.00
  -7   4  -2   47.00   13.20
   7  -4   2   26.20    6.70
  -8   4  -2   -8.80   15.00
   8  -4   2   27.20    7.60
   8   3  -2   91.29   12.40
  -8  -3   2   76.99   13.50
  -8  -3   2   77.99   11.00
  -7  -3   2   13.50    6.40
  -7  -3   2   11.30    7.30
   6   3  -2   39.90    7.60
  -6  -3   2   29.30    5.90
  -6  -3   2   23.50    5.40
  -6  -3   2   34.30    6.90
   5   3  -2    5.30    4.60
   5   3  -2   13.50    4.60
  -5  -3   2    1.80    3.40
  -5  -3   2    7.30    3.20
  -5  -3   2    8.30    2.90
  -5  -3   2    4.50    3.20
   4   3  -2  376.56   16.70
   4   3  -2  356.26   15.30
  -4  -3   2  374.56   15.70
  -4  -3   2  385.56   14.40
  -4  -3   2  376.16   14.90
  -4  -3   2  371.96   14.10
   3   3  -2    0.50    2.80
   3   3  -2    2.30    2.40
  -3  -3   2    4.30    2.00
  -3  -3   2    2.60    2.10
  -3  -3   2    2.70    1.70
  -3  -3   2    1.10    1.80
   2   3  -2  787.02   28.00
   2   3  -2  814.22   28.10
  -2  -3   2  776.62   27.10
  -2  -3   2  814.02   27.50
  -2  -3   2  792.12   26.50
  -2  -3   2  821.02   26.30
   1   3  -2    2.60    2.00
   1   3  -2   -0.80    2.20
  -1  -3   2    2.70    1.10
  -1  -3   2    1.20    1.90
  -1  -3   2    0.70    1.50
  -1  -3   2    0.30    1.10
   0   3  -2 1012.30   33.20
   0   3  -2  972.90   34.40
   0  -3   2  999.30   31.90
   0  -3   2  993.30   32.50
   0  -3   2 1076.19   33.80
   0  -3   2 1005.60   34.70
  -1   3  -2 6317.97  198.48
  -1   3  -2 6188.48  194.68
   1  -3   2 6691.23  196.88
   1  -3   2 6490.55  194.88
   1  -3   2 6367.36  196.18
   1  -3   2 6224.88  198.18
  -2   3  -2   95.89    3.60
  -2   3  -2   81.69    7.20
  -2   3  -2   87.49    5.50
   2  -3   2   90.49    5.10
   2  -3   2   99.69    7.20
   2  -3   2   89.09    4.10
  -3   3  -2   10.40    1.20
  -3   3  -2   14.20    3.20
  -3   3  -2   18.00    4.50
   3  -3   2   12.20    2.70
   3  -3   2   11.20    1.60
   3  -3   2    7.20    3.30
  -4   3  -2  139.39    8.60
  -4   3  -2  144.29    5.40
  -4   3  -2  146.39   11.50
   4  -3   2  148.39    9.80
   4  -3   2  141.99    8.00
   4  -3   2  150.98    5.60
  -5   3  -2  407.36   13.80
  -5   3  -2  415.26   22.00
   5  -3   2  431.36   17.30
   5  -3   2  413.06   13.70
  -6   3  -2  140.89   17.70
  -6   3  -2   90.49    5.00
  -7   3  -2  287.37   24.00
   7  -3   2  268.17   15.10
  -8   3  -2   16.80   14.20
   8  -3   2   15.10    7.30
   9   2  -2   17.90   11.10
  -9  -2   2    4.00   10.60
  -9  -2   2    9.10   15.40
   8   2  -2   21.20    7.90
  -8  -2   2   10.50    9.90
  -8  -2   2    7.50    8.50
   7   2  -2   -0.70    5.60
  -7  -2   2    3.30    5.10
  -7  -2   2    1.70    6.80
   6   2  -2  432.16   18.90
  -6  -2   2  411.46   15.80
  -6  -2   2  391.16   18.10
  -6  -2   2  403.76   16.60
  -6  -2   2  418.36   19.60
   5   2  -2   31.20    4.60
   5   2  -2   36.30    4.90
  -5  -2   2   39.70    5.00
  -5  -2   2   39.90    4.70
  -5  -2   2   38.30    5.30
  -5  -2   2   34.30    4.10
   4   2  -2    2.80    2.70
   4   2  -2    0.10    2.60
  -4  -2   2    0.20    1.80
  -4  -2   2    1.40    2.10
  -4  -2   2    2.70    2.20
  -4  -2   2    1.10    1.70
   3   2  -2  469.95   16.80
   3   2  -2  456.95   17.00
  -3  -2   2  431.56   16.30
  -3  -2   2  478.55   15.70
  -3  -2   2  445.96   16.60
  -3  -2   2  443.36   16.60
   2   2  -2 1979.10   61.19
   2   2  -2 1813.92   62.19
  -2  -2   2 1932.51   60.39
  -2  -2   2 2002.50   60.09
  -2  -2   2 1953.70   60.29
  -2  -2   2 1869.41   60.69
   1   2  -2   61.19    3.90
   1   2  -2   71.29    4.80
   1   2  -2   65.89    3.30
  -1  -2   2   68.99    3.20
  -1  -2   2   61.19    4.80
  -1  -2   2   69.19    3.90
   0   2  -2 6843.92  222.48
   0  -2   2 7520.75  221.08
   0  -2   2 7279.57  222.78
   0  -2   2 7242.77  220.78
  -1   2  -2  861.51   30.90
  -1   2  -2  917.71   28.90
  -1   2  -2  909.21   28.00
   1  -2   2  904.61   28.20
   1  -2   2  865.31   30.70
   1  -2   2  879.31   28.70
  -2   2  -2 4902.51  151.28
  -2   2  -2 5078.09  152.68
  -2   2  -2 4841.82  155.28
   2  -2   2 5062.99  154.78
   2  -2   2 4845.22  152.28
   2  -2   2 4947.21  151.58
  -3   2  -2 1577.84   51.39
  -3   2  -2 1583.04   49.99
  -3   2  -2 1506.95   54.39
   3  -2   2 1605.94   51.29
   3  -2   2 1642.24   49.99
   3  -2   2 1650.63   53.49
  -4   2  -2  828.02   32.90
  -4   2  -2  821.22   29.10
  -4   2  -2  833.72   27.60
   4  -2   2  819.12   30.50
   4  -2   2  853.01   29.00
   4  -2   2  862.21   27.20
  -5   2  -2  549.45   19.40
  -5   2  -2  548.35   25.60
   5  -2   2  551.14   20.90
   5  -2   2  542.45   18.70
  -6   2  -2   16.10    3.60
   6  -2   2   13.40    2.80
  -7   2  -2   43.00    5.70
  -7   2  -2   56.59   12.70
   7  -2   2   51.59    6.80
  -8   2  -2   21.20   13.90
   8  -2   2   14.20    7.60
   9   1  -2   49.90   11.60
  -9  -1   2   76.89   16.50
   8   1  -2  110.19   13.60
  -8  -1   2   94.19   12.40
  -8  -1   2  128.29   18.60
   7   1  -2   87.19    9.40
  -7  -1   2   67.89    6.90
  -7  -1   2   55.59    7.10
   6   1  -2    4.00    3.90
  -6  -1   2    4.10    2.80
  -6  -1   2    3.70    4.40
  -6  -1   2    3.50    3.50
  -6  -1   2    3.60    3.50
   5   1  -2  269.47   11.60
   5   1  -2  223.48   11.30
  -5  -1   2  242.08   11.30
  -5  -1   2  242.08   12.40
  -5  -1   2  244.48    9.70
  -5  -1   2  252.97   10.50
   4   1  -2  177.48    8.20
   4   1  -2  166.48    8.30
  -4  -1   2  175.78    7.10
  -4  -1   2  160.28    8.00
  -4  -1   2  164.28    7.30
  -4  -1   2  156.48    8.30
   3   1  -2  977.20   30.90
   3   1  -2  919.51   30.40
  -3  -1   2  921.01   29.90
  -3  -1   2  907.81   30.80
  -3  -1   2  920.81   30.60
  -3  -1   2  946.71   29.80
   2   1  -2 7863.21  243.38
   2   1  -2 8287.97  244.18
  -2  -1   2 8011.10  243.18
  -2  -1   2 7715.43  243.78
   1   1  -2 1967.40   62.39
   1   1  -2 2081.69   63.89
  -1  -1   2 1992.20   62.49
  -1  -1   2 2054.99   63.39
   0   1  -2  951.80   29.40
   0   1  -2  924.31   31.10
   0   1  -2  935.51   29.20
   0  -1   2  942.81   29.50
   0  -1   2  976.70   31.30
   0  -1   2  890.61   29.10
  -1   1  -2  321.27   10.90
  -1   1  -2  311.57   12.80
  -1   1  -2  311.27   10.80
   1  -1   2  302.57   10.80
   1  -1   2  327.47   11.00
   1  -1   2  325.67   12.70
  -2   1  -2  135.19    7.90
  -2   1  -2  141.49    5.90
   2  -1   2  138.59    6.10
   2  -1   2  141.59    5.90
   2  -1   2  149.59    7.90
  -3   1  -2  827.12   27.40
  -3   1  -2  772.72   30.00
   3  -1   2  845.72   26.80
   3  -1   2  821.32   29.00
   3  -1   2  794.32   27.30
  -4   1  -2  421.06   15.30
  -4   1  -2  395.96   18.80
  -4   1  -2  405.26   15.60
   4  -1   2  400.66   15.60
   4  -1   2  399.06   16.90
  -5   1  -2  931.31   36.30
  -5   1  -2  904.01   30.90
  -5   1  -2  847.22   31.40
   5  -1   2  854.41   32.40
   5  -1   2  924.51   30.00
   5  -1   2  924.61   31.80
  -6   1  -2   99.89    8.20
   6  -1   2  114.39    7.00
   6  -1   2  116.59    9.10
  -7   1  -2    2.40    5.00
  -7   1  -2    8.30    9.20
   7  -1   2  -10.10    4.90
   7  -1   2    4.50    3.90
  -8   1  -2  283.97   26.70
   8  -1   2  254.87   17.50
   9   0  -2   36.60    9.60
  -9   0   2   19.00   14.60
   8   0  -2   14.10    6.30
  -8   0   2    6.60    6.10
  -8   0   2   15.50   11.00
   7   0  -2   80.79    8.80
  -7   0   2   55.89    6.10
  -7   0   2   64.69    8.20
   6   0  -2  122.99    8.20
  -6   0   2  107.09   10.30
  -6   0   2  113.49    8.10
  -6   0   2  100.59    7.70
  -6   0   2   93.99    5.80
   5   0  -2   55.29    5.90
   5   0  -2   62.59    5.40
  -5   0   2   51.29    6.40
  -5   0   2   62.39    3.90
  -5   0   2   60.99    5.10
  -5   0   2   63.19    5.40
   4   0  -2  109.19    5.80
   4   0  -2  107.39    6.40
  -4   0   2  115.69    5.80
  -4   0   2  115.39    5.00
  -4   0   2  107.09    5.80
  -4   0   2  102.99    6.50
   3   0  -2 1174.68   36.70
   3   0  -2 1109.09   35.90
  -3   0   2 1080.29   36.00
  -3   0   2 1136.19   35.50
  -3   0   2 1089.79   36.70
  -3   0   2 1176.78   36.00
   1   0  -2  371.46   12.60
   1   0  -2  411.86   13.50
  -1   0   2  388.76   13.10
  -1   0   2  376.16   12.80
   0   0  -2  735.83   23.60
   0   0  -2  734.33   25.00
   0   0   2  759.12   23.70
   0   0   2  781.52   24.40
   0   0   2  775.52   25.20
  -1   0  -2  853.71   27.40
  -1   0  -2  857.51   27.80
   1   0   2  869.51   28.90
   1   0   2  884.51   27.90
   1   0   2  843.92   27.40
  -2   0  -2 1278.47   43.70
   2   0   2 1345.27   43.30
   2   0   2 1346.67   42.00
   2   0   2 1279.57   41.90
  -3   0  -2 3185.08  102.89
  -3   0  -2 3250.57  100.19
  -3   0  -2 3222.98  100.39
   3   0   2 3125.79  100.39
   3   0   2 3282.97  101.49
  -4   0  -2   83.79    7.70
  -4   0  -2   67.19    5.70
   4   0   2   74.39    5.70
   4   0   2   72.69    5.20
   4   0   2   65.49    5.90
  -5   0  -2  271.47   12.40
  -5   0  -2  255.67   15.80
  -5   0  -2  239.68   11.80
   5   0   2  254.37   12.50
   5   0   2  275.47   11.40
   5   0   2  279.17   12.80
  -6   0  -2  647.54   29.90
  -6   0  -2  581.84   23.40
   6   0   2  611.64   24.20
   6   0   2  565.94   21.80
  -7   0  -2   39.70    6.90
  -7   0  -2   40.60   11.00
   7   0   2   51.39    8.10
   7   0   2   29.20    5.60
  -8   0  -2   17.60   12.90
  -8   0  -2    8.20    7.30
   8   0   2    7.30    8.10
   9  -1  -2   29.30    8.40
  -9   1   2   -3.70   14.50
   8  -1  -2   72.09    8.70
  -8   1   2   37.30   11.70
  -8   1   2   63.99    7.30
   7  -1  -2   27.30    5.20
  -7   1   2   24.60    3.70
  -7   1   2   25.40    4.80
   6  -1  -2   23.30    4.50
  -6   1   2   19.80    3.50
  -6   1   2   20.40    2.90
  -6   1   2   16.50    5.40
  -6   1   2   26.20    4.60
   5  -1  -2  642.84   22.20
   5  -1  -2  607.04   22.70
  -5   1   2  607.44   21.40
  -5   1   2  660.83   25.10
  -5   1   2  598.64   22.30
   4  -1  -2    2.30    1.70
   4  -1  -2   -0.30    2.10
  -4   1   2    4.80    2.20
  -4   1   2    7.40    2.50
  -4   1   2    1.20    1.30
   3  -1  -2    9.20    2.00
   3  -1  -2    6.90    1.20
   3  -1  -2    7.70    1.70
  -3   1   2    4.30    1.50
  -3   1   2    8.50    1.20
  -3   1   2    6.20    1.80
   2  -1  -2 2064.29   64.59
   2  -1  -2 2059.89   64.99
   2  -1  -2 2296.37   65.49
  -2   1   2 2192.98   65.49
  -2   1   2 2128.29   64.99
  -2   1   2 1853.41   66.89
   1  -1  -2  960.50   31.40
   1  -1  -2 1038.10   31.10
   1  -1  -2  977.40   31.10
  -1   1   2  991.00   31.20
  -1   1   2  982.90   30.80
  -1   1   2  945.31   31.10
   0  -1  -2    4.60    1.10
   0  -1  -2    5.00    1.10
   0  -1  -2    2.40    1.00
   0   1   2    2.60    1.10
   0   1   2    1.40    0.90
   0   1   2    2.60    1.10
  -1  -1  -2 8872.81  273.57
  -1  -1  -2 8850.71  272.97
   1   1   2 9064.49  273.27
  -2  -1  -2 1581.64   54.39
  -2  -1  -2 1664.23   53.19
  -2  -1  -2 1683.73   53.79
   2   1   2 1726.93   53.69
   2   1   2 1739.43   53.99
  -3  -1  -2   78.99    5.00
  -3  -1  -2   92.39    6.60
  -3  -1  -2   83.09    5.60
   3   1   2   88.79    5.60
   3   1   2   80.49    5.60
   3   1   2   82.59    5.40
  -4  -1  -2  523.75   19.70
  -4  -1  -2  500.15   21.40
   4   1   2  493.15   18.90
   4   1   2  514.25   19.00
   4   1   2  523.75   20.00
  -5  -1  -2  161.08    9.40
  -5  -1  -2  154.08   10.10
  -5  -1  -2  168.88   12.40
   5   1   2  170.28    8.90
   5   1   2  160.38    9.60
   5   1   2  172.48   10.50
  -6  -1  -2   25.10    5.60
  -6  -1  -2   20.30    7.60
   6   1   2   29.00    4.90
   6   1   2   17.80    5.40
  -7  -1  -2   99.19   10.20
  -7  -1  -2   87.39   13.80
   7   1   2   86.79   12.60
  -8  -1  -2   49.60    9.60
  -8  -1  -2   42.20   14.50
   8   1   2   43.90   10.00
   9  -2  -2   -6.70    7.80
  -9   2   2    1.50   14.70
   8  -2  -2    2.00    5.90
  -8   2   2   -2.90   10.30
  -7   2   2  169.38    8.90
   6  -2  -2   76.79    7.00
  -6   2   2   72.19   10.00
  -6   2   2   66.59    4.50
  -6   2   2   73.29   10.40
  -6   2   2   56.49    5.30
   5  -2  -2   -2.60    2.50
   5  -2  -2    2.30    2.90
  -5   2   2    1.00    3.60
  -5   2   2    0.60    1.60
  -5   2   2   -1.20    3.30
  -5   2   2    1.50    1.90
   4  -2  -2   14.40    2.70
   4  -2  -2   10.70    2.50
  -4   2   2   13.70    1.80
  -4   2   2   13.80    3.50
  -4   2   2    8.70    3.10
  -4   2   2   12.00    1.70
   3  -2  -2  794.42   25.60
   3  -2  -2  772.32   25.70
   3  -2  -2  771.42   24.10
  -3   2   2  764.92   26.60
  -3   2   2  759.32   26.40
  -3   2   2  758.32   24.60
   2  -2  -2  940.11   30.90
   2  -2  -2 1008.60   30.30
   2  -2  -2  952.10   31.50
   2  -2  -2  907.11   29.70
  -2   2   2  915.51   30.00
   1  -2  -2   12.50    1.50
   1  -2  -2   11.40    2.40
   1  -2  -2    8.20    1.50
  -1   2   2    9.10    2.80
  -1   2   2   10.60    1.60
  -1   2   2   10.70    1.30
  -1  -2  -2 5049.99  157.18
  -1  -2  -2 5155.18  156.48
   1   2   2 5050.99  155.68
  -2  -2  -2   98.69    5.80
  -2  -2  -2   90.09    5.70
  -2  -2  -2   88.79    5.40
   2   2   2   82.79    5.50
   2   2   2   90.39    4.60
   2   2   2   88.99    6.10
  -3  -2  -2    4.80    2.20
  -3  -2  -2    8.60    2.40
  -3  -2  -2    2.50    2.40
   3   2   2    3.60    2.40
   3   2   2    3.40    1.80
   3   2   2    1.90    2.10
  -4  -2  -2  120.99    8.90
  -4  -2  -2  123.19    8.40
  -4  -2  -2  112.79    6.90
   4   2   2  108.49    7.10
   4   2   2  107.29    8.40
   4   2   2  117.09    6.70
  -5  -2  -2   38.20    6.90
  -5  -2  -2   55.29    6.90
   5   2   2   38.70    5.30
   5   2   2   40.70    5.00
   5   2   2   37.10    5.80
  -6  -2  -2  115.09   13.60
  -6  -2  -2   78.69    9.80
   6   2   2   98.39   10.90
  -7  -2  -2   85.69   13.40
  -7  -2  -2  113.49   14.60
   7   2   2  109.79   13.90
  -8  -2  -2   30.90   10.20
  -8  -2  -2   48.70   15.30
   8   2   2   27.80   10.50
   8  -3  -2   11.90    6.70
  -8   3   2  -10.30   11.00
  -7   3   2   49.99   12.00
   6  -3  -2   46.50    5.60
  -6   3   2   37.70    8.00
   5  -3  -2  101.79    7.30
   5  -3  -2  119.19    7.90
  -5   3   2  114.59    9.30
  -5   3   2  107.49   10.00
   4  -3  -2 1106.59   36.80
   4  -3  -2 1130.49   37.30
  -4   3   2 1093.39   38.40
  -4   3   2 1148.79   39.50
   3  -3  -2  166.88    7.10
   3  -3  -2  159.08    9.10
   3  -3  -2  158.38    7.70
   3  -3  -2  145.59    5.50
  -3   3   2  161.58    8.50
  -3   3   2  169.08    6.10
   2  -3  -2    7.30    1.50
   2  -3  -2    2.50    3.00
   2  -3  -2    1.10    2.10
  -2   3   2    4.60    1.30
  -2   3   2    5.10    2.50
   1  -3  -2  389.46   15.50
   1  -3  -2  399.96   12.20
   1  -3  -2  323.27   14.20
  -1   3   2  367.66   12.50
  -1   3   2  372.96   14.80
  -1   3   2  387.86   13.50
   0  -3  -2  617.84   23.00
   0  -3  -2  618.94   21.70
   0   3   2  635.74   23.10
  -1  -3  -2   20.40    2.50
  -1  -3  -2   23.80    3.30
  -1  -3  -2   24.70    3.80
   1   3   2   22.20    1.80
   1   3   2   21.60    3.90
   1   3   2   26.30    3.40
  -2  -3  -2  655.23   24.20
  -2  -3  -2  629.44   23.50
  -2  -3  -2  679.03   24.40
   2   3   2  641.04   23.80
   2   3   2  730.43   26.20
   2   3   2  716.13   22.20
  -3  -3  -2   26.90    4.10
  -3  -3  -2   17.90    3.10
  -3  -3  -2   19.70    3.90
   3   3   2   28.00    3.60
   3   3   2   24.70    3.70
   3   3   2   24.80    4.70
  -4  -3  -2  149.99    8.80
  -4  -3  -2  177.58   10.60
  -4  -3  -2  187.98   11.00
   4   3   2  158.08    9.50
   4   3   2  169.98   11.50
   4   3   2  156.38    8.20
  -5  -3  -2    3.70    4.70
  -5  -3  -2   -4.80    4.80
   5   3   2    3.10    5.60
   5   3   2    2.90    3.50
  -6  -3  -2   12.90    7.70
  -7  -3  -2    7.40   10.60
  -7  -3  -2   10.80    8.10
   7   3   2   18.10    9.50
  -8  -3  -2   38.00   15.90
  -8  -3  -2   71.99   12.20
   8   3   2   42.40   11.70
   8  -4  -2    5.70    6.50
  -8   4   2    3.50   13.20
   7  -4  -2    1.20    5.30
  -7   4   2  -16.90    8.80
   6  -4  -2  228.68   13.30
  -6   4   2  242.48   17.10
   5  -4  -2   15.70    3.70
   5  -4  -2   15.10    3.70
  -5   4   2   26.20    6.10
   4  -4  -2    9.90    3.30
   4  -4  -2   14.10    3.00
   4  -4  -2   13.90    5.30
  -4   4   2   14.40    4.50
   3  -4  -2 2372.76   78.19
   3  -4  -2 2438.16   74.59
   3  -4  -2 2287.07   73.49
   3  -4  -2 2374.76   76.29
  -3   4   2 2423.36   73.69
  -3   4   2 2416.56   76.99
   2  -4  -2  593.44   19.00
   2  -4  -2  566.64   22.80
  -2   4   2  588.64   19.50
  -2   4   2  551.44   21.00
   1  -4  -2   38.40    3.80
   1  -4  -2   28.60    5.20
  -1   4   2   33.80    4.00
  -1   4   2   38.60    5.30
   0  -4  -2   20.00    3.10
   0  -4  -2   17.30    3.80
   0   4   2   17.20    4.00
   0   4   2   25.90    3.40
  -1  -4  -2 1136.59   40.30
  -1  -4  -2 1125.09   38.90
   1   4   2 1158.88   41.00
   1   4   2 1189.88   38.60
  -2  -4  -2  714.93   27.10
  -2  -4  -2  726.83   26.80
   2   4   2  741.43   29.00
   2   4   2  727.43   23.80
   2   4   2  745.33   26.20
  -3  -4  -2  477.75   19.90
  -3  -4  -2  502.85   19.40
  -3  -4  -2  495.85   20.40
   3   4   2  506.55   17.70
   3   4   2  502.25   22.60
   3   4   2  494.55   19.50
  -4  -4  -2  323.47   15.90
  -4  -4  -2  332.67   16.10
   4   4   2  313.77   13.30
   4   4   2  342.97   18.30
  -5  -4  -2   10.30    6.10
  -5  -4  -2    1.10    4.90
   5   4   2    5.40    4.40
  -6  -4  -2   43.60   13.40
  -6  -4  -2   53.79    9.90
   6   4   2   78.09   12.90
  -7  -4  -2   57.49   11.10
  -7  -4  -2   74.79   14.50
   7   4   2   75.59   13.90
  -8  -4  -2   13.20   12.30
  -8  -4  -2    5.80   16.40
   8   4   2   51.49   15.00
   8  -5  -2    9.10    8.20
  -8   5   2    1.00   13.70
   7  -5  -2    9.90    6.70
  -7   5   2   13.50   11.30
  -6   5   2    1.80    7.80
   5  -5  -2   36.80    5.60
   5  -5  -2   30.10    4.70
  -5   5   2   33.60    8.00
   4  -5  -2  440.56   17.90
   4  -5  -2  406.36   15.80
  -4   5   2  424.16   19.60
   3  -5  -2  509.85   23.90
   3  -5  -2  548.55   18.60
   3  -5  -2  554.74   19.00
   3  -5  -2  549.74   21.70
  -3   5   2  561.14   18.30
  -3   5   2  570.84   21.90
   2  -5  -2 1656.53   58.89
   2  -5  -2 1722.03   53.29
   2  -5  -2 1765.22   54.89
  -2   5   2 1694.23   55.69
   1  -5  -2 1903.61   60.29
   1  -5  -2 1838.52   63.49
  -1   5   2 1823.22   62.19
  -1   5   2 1909.71   59.79
   0  -5  -2  528.45   22.60
   0  -5  -2  530.65   20.20
   0   5   2  551.14   19.80
   0   5   2  525.65   22.30
  -1  -5  -2  283.17   15.00
  -1  -5  -2  285.17   13.30
   1   5   2  293.07   12.70
   1   5   2  302.17   15.60
  -2  -5  -2   60.79    7.70
  -2  -5  -2   59.99    5.40
  -2  -5  -2   57.09    6.60
   2   5   2   52.59    4.40
   2   5   2   50.39    6.10
   2   5   2   42.80    7.10
  -3  -5  -2   10.80    3.80
  -3  -5  -2   13.40    4.30
   3   5   2    1.30    6.00
   3   5   2    9.10    2.90
  -4  -5  -2    1.90    6.40
  -4  -5  -2    0.00    4.60
   4   5   2   20.20    8.20
   4   5   2   -1.50    3.50
   5   5   2   28.60    5.80
  -6  -5  -2   37.90    9.40
  -6  -5  -2   45.40   12.50
   6   5   2   32.60   11.00
  -7  -5  -2   15.20   13.50
  -7  -5  -2   16.70    9.90
   7   5   2    6.70   15.30
   7  -6  -2   49.99    8.90
  -7   6   2   30.60   13.60
   6  -6  -2   17.10    6.20
  -6   6   2   24.40   11.70
   5  -6  -2  152.28    9.90
  -5   6   2  164.08   14.90
   4  -6  -2   62.59    8.00
   4  -6  -2   47.50    5.50
  -4   6   2   65.19    8.50
   3  -6  -2  357.36   13.50
   3  -6  -2  401.16   17.50
   3  -6  -2  374.76   13.90
  -3   6   2  351.66   16.50
  -3   6   2  369.76   13.30
   2  -6  -2  134.39    5.80
   2  -6  -2  135.59    7.60
   2  -6  -2  159.38   22.70
  -2   6   2  137.09    7.10
  -2   6   2  131.79    8.30
   1  -6  -2   72.79    9.10
   1  -6  -2   62.79    6.10
  -1   6   2   71.29    8.40
  -1   6   2   72.99    5.50
   0  -6  -2   90.79    7.20
   0  -6  -2   93.39   11.10
   0   6   2   80.49    6.50
   0   6   2   83.09    9.90
  -1  -6  -2 1061.09   37.30
   1   6   2 1045.60   40.00
   1   6   2 1018.60   36.00
  -2  -6  -2   69.19    7.60
   2   6   2   71.89   10.00
  -3  -6  -2  225.98   13.60
  -3  -6  -2  216.58   11.40
   3   6   2  220.98   17.00
   3   6   2  204.58   10.90
  -4  -6  -2  168.58   12.20
   4   6   2  136.49   10.30
  -5  -6  -2    0.60    6.60
  -5  -6  -2    3.40    7.70
   5   6   2   -2.40    6.40
   5   6   2   -6.90   10.70
  -6  -6  -2   13.30    8.80
   6   6   2    1.50   12.10
  -7  -6  -2   10.10   14.80
  -7  -6  -2   -4.50   11.50
   7   6   2   20.90   17.00
   7  -7  -2   40.40   10.20
  -7   7   2   50.49   16.20
   6  -7  -2   63.99    9.00
  -6   7   2   51.09   13.80
   5  -7  -2   35.80    6.40
   5  -7  -2   32.10    7.00
  -5   7   2   62.09   10.70
   4  -7  -2  130.79    8.30
  -4   7   2  157.88   12.80
   3  -7  -2   40.70    4.70
   3  -7  -2   42.40    4.60
   3  -7  -2   37.80    6.60
  -3   7   2   38.30    6.50
  -3   7   2   35.50    4.00
   2  -7  -2    4.70    3.50
  -2   7   2   -1.60    3.00
   1  -7  -2  268.87   12.90
  -1   7   2  264.47   15.40
  -1   7   2  244.08   11.90
   0  -7  -2  390.16   17.50
   0   7   2  383.36   16.40
   0   7   2  376.76   28.40
  -1  -7  -2   23.10    4.90
  -2  -7  -2  467.55   24.70
  -3  -7  -2    6.00    4.80
  -3  -7  -2   11.40    5.80
  -4  -7  -2   17.20    6.40
  -4  -7  -2    6.90    6.90
   4   7   2   -1.00   10.50
  -5  -7  -2  104.39   15.40
  -5  -7  -2  129.79   15.00
   5   7   2   65.99   15.30
  -6  -7  -2    1.30   10.60
   6   7   2   34.10   16.50
   6  -8  -2  -17.00    8.30
  -6   8   2   -0.80   17.30
   5  -8  -2  340.37   19.60
  -5   8   2  327.57   22.10
   4  -8  -2    9.30    6.70
  -4   8   2   10.10    7.20
   3  -8  -2   31.10    8.00
   3  -8  -2   35.40    4.90
  -3   8   2   32.00    6.20
   2  -8  -2    6.80    6.30
   2  -8  -2   19.20    5.00
  -2   8   2    4.30    4.40
   1  -8  -2   81.69    8.90
  -1   8   2   72.69    8.70
   0  -8  -2  155.88   11.60
  -1  -8  -2  194.98   15.80
  -2  -8  -2    1.40    6.00
   2   8   2   21.80   11.30
  -3  -8  -2  103.89   12.90
   3   8   2   75.59   14.30
  -4  -8  -2   48.20   10.10
   4   8   2   50.09   14.60
  -5  -8  -2   12.60   10.20
   5   8   2   49.00   17.30
   5  -9  -2   -2.30    8.70
   4  -9  -2  112.89   15.20
   3  -9  -2   -3.50    9.00
   2  -9  -2   43.60    9.10
   2  -9  -2   43.50    6.90
   1  -9  -2   69.19    8.80
  -1   9   2   99.69   14.20
   0  -9  -2   49.70    8.20
   0   9   2   39.20    8.80
  -1  -9  -2   31.10    7.80
   1   9   2   18.80   10.80
  -2  -9  -2   27.30    8.00
   2   9   2    4.50   11.50
  -3  -9  -2    2.00    8.00
   3   9   2    5.20   13.30
  -4  -9  -2   30.70   11.30
   4   9   2   -0.30   17.60
   3 -10  -2   36.00   10.90
   2 -10  -2   31.50   10.10
   1 -10  -2    9.40    7.80
  -1  10   2    0.10    9.80
   0 -10  -2  198.18   16.50
   0  10   2  158.18   19.70
  -1 -10  -2   -6.30    8.50
   1  10   2   13.10   12.80
  -2 -10  -2   16.70    9.60
   2  10   2  -25.00   13.40
   3  10  -3   21.50   12.20
  -3 -10   3    9.80    9.10
   2  10  -3   75.39   12.70
  -2 -10   3   69.69   10.60
   1  10  -3    4.20   10.20
  -1 -10   3    6.10    7.10
   0 -10   3   23.30    9.10
   0 -10   3   21.70   10.20
   0 -10   3   21.20    6.90
   1 -10   3   22.60    7.80
   1 -10   3   19.60    6.40
   1 -10   3    8.20    9.70
   2 -10   3   68.89   14.30
   2 -10   3   76.79   10.40
   3 -10   3   11.30    8.80
   5   9  -3   20.60   15.60
  -5  -9   3   -6.60   10.20
  -5  -9   3    7.30    8.00
   4   9  -3   -6.80   12.10
  -4  -9   3    0.20    6.10
  -4  -9   3    3.10    8.50
   3   9  -3   19.00   10.50
  -3  -9   3    6.20    7.20
  -3  -9   3    3.80    4.90
   2   9  -3  119.79   15.80
  -2  -9   3  133.49    9.70
  -2  -9   3  144.69   12.80
   1   9  -3   -0.20    7.40
  -1  -9   3    5.70    4.20
  -1  -9   3    2.90    4.90
   0  -9   3   41.20    6.40
   0  -9   3   30.10    6.40
   0  -9   3   30.60    7.20
   1  -9   3   38.40    7.20
   1  -9   3   35.00    8.60
   1  -9   3   38.50    6.10
   1  -9   3   52.89    9.40
   2  -9   3    0.00   10.00
   2  -9   3    3.50    4.40
   2  -9   3    5.60    5.80
  -3   9  -3   15.60   10.00
   3  -9   3   12.80    7.20
   4  -9   3  177.08   14.70
  -5   9  -3   66.49   16.20
   5  -9   3   36.30    8.30
   6   8  -3   14.00   15.90
  -6  -8   3   32.00   10.00
  -6  -8   3   19.00   11.40
   5   8  -3  -14.40   12.20
  -5  -8   3  -14.90    8.40
  -5  -8   3    6.30    6.50
  -4  -8   3  144.89   14.60
  -4  -8   3  127.29   10.60
   3   8  -3   -8.10    8.00
  -3  -8   3   -3.50    8.90
  -3  -8   3   -0.90    4.20
  -3  -8   3    2.50    6.10
   2   8  -3  225.08   16.90
  -2  -8   3  203.58   16.10
  -2  -8   3  205.78   10.70
  -2  -8   3  210.38   13.70
   1   8  -3  616.94   27.10
  -1  -8   3  647.04   23.90
  -1  -8   3  635.14   25.20
  -1  -8   3  621.04   27.60
   0  -8   3   11.30    4.20
   0  -8   3    7.90    5.30
   0  -8   3    6.00    3.90
   0  -8   3    3.40    6.70
   1  -8   3  339.97   14.90
   1  -8   3  304.97   18.10
   1  -8   3  356.06   19.90
   1  -8   3  338.67   13.90
   1  -8   3  352.06   17.50
  -2   8  -3  153.08   14.20
   2  -8   3  167.98    9.20
   2  -8   3  152.68    8.40
   2  -8   3  131.49   14.20
   2  -8   3  189.88   12.30
  -3   8  -3   16.50    8.50
   3  -8   3    9.30    3.30
   3  -8   3    8.00    4.90
  -4   8  -3   24.50   11.70
   4  -8   3   10.90    6.70
  -5   8  -3  250.37   23.90
   5  -8   3  255.87   16.00
  -6   8  -3   79.39   17.00
   6  -8   3   71.99   11.30
   7   7  -3   17.80   16.70
  -7  -7   3    2.70   10.80
  -7  -7   3   -9.70   11.00
   6   7  -3   12.90   11.90
  -6  -7   3    5.70    8.80
  -6  -7   3   11.30    7.30
   5   7  -3   49.00   11.50
  -5  -7   3   55.59    9.30
  -5  -7   3   77.79    8.60
   4   7  -3   90.39   12.20
   4   7  -3   69.79   14.80
  -4  -7   3   87.79    8.40
   3   7  -3    9.40    8.30
  -3  -7   3   15.70    4.10
  -3  -7   3   14.70    5.70
   2   7  -3    1.80    6.10
  -2  -7   3   13.10    3.40
  -2  -7   3    9.30    6.10
  -2  -7   3   16.20    7.60
  -2  -7   3   11.00    4.50
   1   7  -3    6.00    5.00
  -1  -7   3    7.30    3.30
  -1  -7   3   -7.00    6.50
  -1  -7   3    1.40    5.80
  -1  -7   3    6.20    3.50
  -1  -7   3   10.20    3.80
   0  -7   3   24.30    6.30
   0  -7   3   26.60    5.80
   0  -7   3   22.80    9.80
   0  -7   3   37.10    4.80
   0  -7   3   31.30    4.70
   1  -7   3  341.47   16.00
   1  -7   3  336.27   13.80
   1  -7   3  339.77   13.00
   1  -7   3  301.37   16.90
  -2   7  -3    6.00    6.00
   2  -7   3    8.10    4.00
   2  -7   3   -0.10    2.70
   2  -7   3   -6.40    6.00
   2  -7   3    4.10    2.60
  -3   7  -3  468.45   23.90
   3  -7   3  480.45   19.70
   3  -7   3  424.76   22.10
   3  -7   3  415.06   17.30
   3  -7   3  449.36   16.00
  -4   7  -3    5.80    8.10
   4  -7   3    2.90    4.90
   5  -7   3    9.00    5.40
  -6   7  -3   77.19   16.10
   6  -7   3   93.79   12.00
   7   6  -3   10.60   13.60
  -7  -6   3   22.70   10.50
  -7  -6   3   20.10    9.50
   6   6  -3    3.50   11.00
  -6  -6   3   12.50    6.00
  -6  -6   3    6.10    7.80
   5   6  -3  101.19   14.70
  -5  -6   3  114.69   15.00
  -5  -6   3  117.79   10.00
   4   6  -3    2.50    7.60
   4   6  -3    4.40    6.50
  -4  -6   3   10.70    3.80
  -4  -6   3   16.90    5.60
   3   6  -3   17.30    7.20
   3   6  -3   12.70    5.60
  -3  -6   3   18.30    3.50
  -3  -6   3   18.90    5.10
  -3  -6   3   14.50    4.20
   2   6  -3   50.99    7.40
  -2  -6   3   41.90    6.40
  -2  -6   3   37.60    5.10
  -2  -6   3   57.29    6.30
  -2  -6   3   48.10    7.10
  -2  -6   3   52.79    5.50
   1   6  -3  275.77   14.00
  -1  -6   3  256.07   14.40
  -1  -6   3  285.17   12.60
  -1  -6   3  267.77   12.90
  -1  -6   3  259.47   11.00
  -1  -6   3  292.67   15.30
   0  -6   3  196.68   12.30
   0  -6   3  193.08   12.70
   0  -6   3  195.68    9.50
   0  -6   3  204.58   12.70
   0  -6   3  200.08    8.80
  -1   6  -3   72.09    8.50
   1  -6   3   67.39    5.00
   1  -6   3   85.19    5.40
   1  -6   3   79.39    9.80
   1  -6   3   71.89    8.60
   1  -6   3   65.59    6.90
  -2   6  -3   37.20    7.20
   2  -6   3   30.80    5.00
   2  -6   3   47.40    6.80
   2  -6   3   29.00    3.80
   2  -6   3   30.00    6.50
   2  -6   3   37.30    3.90
  -3   6  -3 1160.68   45.50
   3  -6   3 1196.68   38.00
   3  -6   3 1219.68   40.90
   3  -6   3 1190.88   37.60
   3  -6   3 1122.39   43.10
  -4   6  -3  445.96   24.50
   4  -6   3  472.15   19.30
  -6   6  -3   28.00   11.90
   6  -6   3    8.10    7.00
  -7   6  -3   54.39   17.00
   7  -6   3   42.60    9.00
   8   5  -3   35.50   14.60
  -8  -5   3   43.60   12.70
  -8  -5   3   27.60   11.20
  -7  -5   3   11.60    7.70
  -7  -5   3   11.70    8.50
   6   5  -3   93.69   13.00
  -6  -5   3   95.79   11.70
  -6  -5   3   92.99   10.70
   5   5  -3  320.27   18.90
  -5  -5   3  353.46   15.50
  -5  -5   3  299.57   14.40
   4   5  -3   13.30    6.40
   4   5  -3   32.90    6.70
  -4  -5   3   32.40    5.40
  -4  -5   3   41.50    5.60
  -4  -5   3   30.70    4.80
   3   5  -3   10.60    4.70
   3   5  -3   10.90    4.90
  -3  -5   3   13.20    3.10
  -3  -5   3   13.00    3.90
  -3  -5   3   21.50    3.50
  -3  -5   3   12.70    3.60
   2   5  -3   11.50    5.10
   2   5  -3   14.20    4.80
  -2  -5   3   10.30    2.80
  -2  -5   3   14.30    2.90
  -2  -5   3   10.10    3.60
  -2  -5   3   14.30    2.90
   1   5  -3  738.93   26.80
  -1  -5   3  750.82   28.40
  -1  -5   3  710.93   26.50
  -1  -5   3  716.93   27.30
  -1  -5   3  717.83   24.50
  -1  -5   3  721.53   25.50
   0  -5   3 1119.59   40.70
   0  -5   3 1155.58   40.10
   0  -5   3 1126.19   36.80
   0  -5   3 1147.29   41.10
   0  -5   3 1142.89   37.50
  -1   5  -3  172.98   11.50
   1  -5   3  186.08    8.00
   1  -5   3  185.28   11.10
   1  -5   3  180.38   11.50
   1  -5   3  198.48    8.00
   1  -5   3  193.58    9.50
  -2   5  -3  113.29   10.00
   2  -5   3  108.29    5.30
   2  -5   3  111.49    8.90
   2  -5   3  101.89    5.40
   2  -5   3  110.39    7.20
   2  -5   3   99.69    9.40
  -3   5  -3   16.90    5.80
   3  -5   3   10.00    3.00
   3  -5   3   10.00    2.10
   3  -5   3   10.20    2.30
   3  -5   3   14.90    5.20
  -4   5  -3  561.74   27.30
  -6   5  -3  209.48   21.20
   6  -5   3  193.58   15.30
  -7   5  -3   71.79   16.80
   7  -5   3   63.89    8.80
   8   4  -3   -0.60   11.50
  -8  -4   3   11.80   10.20
  -8  -4   3   -2.90    8.90
  -7  -4   3   18.00    7.90
  -7  -4   3   28.60    7.70
   6   4  -3    9.20    6.60
  -6  -4   3    1.90    6.20
  -6  -4   3   14.60    7.10
   5   4  -3   33.80    7.10
  -5  -4   3   29.90    4.30
  -5  -4   3   28.80    5.10
  -5  -4   3   31.80    5.00
   4   4  -3   28.20    5.30
   4   4  -3   36.60    6.50
  -4  -4   3   35.50    4.20
  -4  -4   3   42.70    4.90
  -4  -4   3   45.30    5.90
  -4  -4   3   41.90    5.30
   3   4  -3 1039.20   36.90
   3   4  -3  992.60   37.40
  -3  -4   3 1044.30   34.80
  -3  -4   3 1071.89   36.00
  -3  -4   3 1042.90   35.30
  -3  -4   3 1060.39   34.40
   2   4  -3  282.17   12.90
   2   4  -3  273.27   14.00
  -2  -4   3  273.87   11.60
  -2  -4   3  285.97   12.60
  -2  -4   3  290.17   12.10
  -2  -4   3  293.27   11.00
   1   4  -3  293.57   12.40
  -1  -4   3  280.77   11.50
  -1  -4   3  286.57   12.70
  -1  -4   3  289.67   12.90
  -1  -4   3  279.57   13.80
  -1  -4   3  278.97   10.70
   0  -4   3 2357.36   73.89
   0  -4   3 2373.46   73.29
   0  -4   3 2266.47   76.79
   0  -4   3 2367.96   77.29
   0  -4   3 2446.96   75.49
   0  -4   3 2280.77   74.29
  -1   4  -3  556.14   22.80
  -1   4  -3  564.94   18.50
   1  -4   3  595.94   20.10
   1  -4   3  482.35   19.50
   1  -4   3  602.04   21.20
   1  -4   3  553.04   22.80
  -2   4  -3 1657.93   50.19
  -2   4  -3 1576.94   52.89
  -2   4  -3 1608.54   56.29
   2  -4   3 1595.04   50.69
   2  -4   3 1607.14   52.09
   2  -4   3 1608.94   55.29
  -3   4  -3  359.56   11.90
  -3   4  -3  349.96   18.50
  -3   4  -3  335.37   15.20
   3  -4   3  378.06   14.60
   3  -4   3  333.97   16.80
   3  -4   3  374.26   12.90
  -4   4  -3  361.66   20.30
  -4   4  -3  361.16   11.90
   4  -4   3  371.96   15.40
   4  -4   3  353.06   17.90
   4  -4   3  368.56   12.70
  -5   4  -3  394.16   23.10
  -6   4  -3   84.39   13.10
  -7   4  -3   56.49   14.80
   7  -4   3   48.70    7.60
  -8   4  -3   63.49   18.40
   8  -4   3  103.09   14.10
   8   3  -3   62.29   11.70
  -8  -3   3   71.09   11.70
  -8  -3   3   81.59   10.70
   7   3  -3  103.49   13.00
  -7  -3   3  102.79   12.90
  -7  -3   3  111.89   11.90
   6   3  -3  142.59   12.30
  -6  -3   3  184.18   11.80
  -6  -3   3  156.68   11.20
  -6  -3   3  145.59    9.30
   5   3  -3  172.98   11.50
   5   3  -3  204.38   11.80
  -5  -3   3  180.08   10.70
  -5  -3   3  186.18    8.90
  -5  -3   3  188.78   10.50
  -5  -3   3  189.08    9.00
   4   3  -3  253.87   12.90
   4   3  -3  279.37   13.40
  -4  -3   3  284.57   12.70
  -4  -3   3  280.27   12.00
  -4  -3   3  268.97   11.00
  -4  -3   3  280.57   11.10
   3   3  -3   20.40    3.90
   3   3  -3   14.20    3.50
  -3  -3   3   10.70    2.30
  -3  -3   3   13.40    2.80
  -3  -3   3   15.60    2.80
  -3  -3   3   16.20    2.70
   2   3  -3 3365.76  105.79
   2   3  -3 3403.16  107.59
  -2  -3   3 3183.68  105.39
  -2  -3   3 3405.06  105.39
  -2  -3   3 3456.15  105.29
  -2  -3   3 3444.26  104.59
   1   3  -3  617.14   21.20
  -1  -3   3  641.74   21.40
  -1  -3   3  661.93   22.50
  -1  -3   3  642.24   24.10
  -1  -3   3  657.33   23.60
   0   3  -3  368.96   12.50
   0   3  -3  350.16   15.40
   0  -3   3  358.56   15.90
   0  -3   3  366.36   13.20
   0  -3   3  385.06   13.90
   0  -3   3  342.47   13.30
  -1   3  -3  217.88    9.30
  -1   3  -3  227.28    8.10
  -1   3  -3  220.98   11.60
   1  -3   3  214.68   11.60
   1  -3   3  227.98    8.50
   1  -3   3  226.58    9.00
  -2   3  -3  385.26   13.70
  -2   3  -3  380.96   17.80
  -2   3  -3  396.96   15.00
   2  -3   3  394.16   13.80
   2  -3   3  380.86   14.40
   2  -3   3  398.26   17.40
  -3   3  -3  476.75   15.90
  -3   3  -3  454.95   21.50
  -3   3  -3  462.35   18.00
   3  -3   3  479.25   17.60
   3  -3   3  490.65   16.50
   3  -3   3  468.05   20.30
  -4   3  -3  114.49    8.10
  -4   3  -3  130.09   11.80
  -4   3  -3  113.49    8.40
   4  -3   3  127.49    6.00
   4  -3   3  126.39    9.90
   4  -3   3  121.09    7.60
  -5   3  -3    8.30    6.10
  -5   3  -3    0.50    2.10
   5  -3   3    1.30    2.20
   5  -3   3    2.60    3.70
  -6   3  -3   -1.00    2.70
   6  -3   3    4.20    2.50
  -7   3  -3   18.30   11.60
   7  -3   3   28.90    6.80
  -8   3  -3   11.30   14.90
   8  -3   3   18.60    7.40
   9   2  -3   -2.30   10.50
  -9  -2   3   20.40   10.80
  -9  -2   3   37.80   14.00
  -8  -2   3    6.00    8.90
   7   2  -3   -1.60    5.30
  -7  -2   3    5.10    5.10
  -7  -2   3    6.00    5.90
   6   2  -3  288.47   14.40
  -6  -2   3  294.57   14.30
  -6  -2   3  262.07   12.20
  -6  -2   3  271.57   12.00
  -6  -2   3  286.97   14.80
   5   2  -3  339.27   15.80
   5   2  -3  386.26   16.10
  -5  -2   3  369.96   14.00
  -5  -2   3  404.66   16.00
  -5  -2   3  368.26   14.10
  -5  -2   3  362.96   15.70
   4   2  -3   40.30    5.30
   3   2  -3  630.34   22.80
   3   2  -3  631.84   21.80
  -3  -2   3  620.04   20.50
  -3  -2   3  613.24   21.70
  -3  -2   3  631.84   21.00
  -3  -2   3  603.24   21.80
   2   2  -3  373.46   13.00
   2   2  -3  387.86   15.30
   2   2  -3  371.16   13.50
  -2  -2   3  365.36   13.70
  -2  -2   3  366.06   13.00
  -2  -2   3  366.96   12.70
   1   2  -3  671.63   24.90
   1   2  -3  653.03   22.00
   1   2  -3  667.73   22.00
  -1  -2   3  707.13   22.40
  -1  -2   3  687.13   22.50
  -1  -2   3  696.63   24.30
   0   2  -3 5464.55  173.08
   0   2  -3 5567.04  170.08
   0  -2   3 5721.33  170.38
   0  -2   3 5475.65  169.98
  -1   2  -3  169.08    9.50
  -1   2  -3  170.78    7.20
  -1   2  -3  170.48    7.00
   1  -2   3  175.38    7.00
   1  -2   3  170.98    9.60
   1  -2   3  171.48    6.90
  -2   2  -3  286.67   10.90
  -2   2  -3  258.27   13.60
   2  -2   3  288.47   10.60
   2  -2   3  279.87   10.70
  -3   2  -3  660.33   21.90
  -3   2  -3  642.84   22.80
  -3   2  -3  624.34   26.40
   3  -2   3  630.94   22.60
   3  -2   3  664.23   25.40
   3  -2   3  653.73   22.00
  -4   2  -3  381.76   19.60
  -4   2  -3  389.16   14.40
  -4   2  -3  378.96   15.60
   4  -2   3  394.26   15.50
   4  -2   3  396.36   15.50
   4  -2   3  373.06   17.40
  -5   2  -3  225.28   10.20
  -5   2  -3  223.78   16.00
   5  -2   3  220.18    9.80
   5  -2   3  225.68   11.40
  -6   2  -3  181.98    9.90
   6  -2   3  185.98    8.90
  -7   2  -3  133.59    9.90
  -7   2  -3  106.79   15.70
   7  -2   3  143.09   11.70
  -8   2  -3  128.59   20.00
   8  -2   3  108.39   14.60
   9   1  -3    1.40    9.10
  -9  -1   3  -14.30   12.60
  -8  -1   3   50.19    8.30
  -8  -1   3   68.09   12.10
   7   1  -3   72.19    8.80
  -7  -1   3   77.39    7.60
  -7  -1   3   81.39    9.00
   6   1  -3   26.60    4.80
  -6  -1   3   23.50    4.60
  -6  -1   3   15.70    3.30
  -6  -1   3   23.90    5.50
  -6  -1   3   22.00    3.90
   5   1  -3  286.97   12.00
   5   1  -3  267.47   12.60
  -5  -1   3  266.87   12.00
  -5  -1   3  257.47   10.50
  -5  -1   3  279.37   11.20
  -5  -1   3  262.17   12.70
   4   1  -3 4411.76  134.99
   4   1  -3 4289.07  133.89
  -4  -1   3 4209.88  134.39
  -4  -1   3 4466.15  133.49
  -4  -1   3 4374.36  133.29
  -4  -1   3 4193.78  134.69
   3   1  -3  229.48    9.10
   3   1  -3  251.97   10.50
  -3  -1   3  239.28    8.60
  -3  -1   3  236.18    9.80
  -3  -1   3  239.38    9.10
   2   1  -3 6616.14  206.78
   2   1  -3 6656.43  203.38
  -2  -1   3 6580.94  203.78
  -2  -1   3 6758.32  204.18
   1   1  -3  337.07   13.90
   1   1  -3  346.47   11.80
  -1  -1   3  349.67   12.00
   0   1  -3 4480.45  146.09
   0   1  -3 4632.44  144.69
   0  -1   3 4555.64  144.69
   0  -1   3 5118.19  148.19
   0  -1   3 4922.91  145.69
  -1   1  -3 1026.40   32.90
  -1   1  -3  977.60   35.60
   1  -1   3 1058.79   35.80
   1  -1   3 1074.89   33.60
  -2   1  -3 2142.79   66.89
  -2   1  -3 2119.09   66.69
  -2   1  -3 2071.49   69.99
   2  -1   3 2071.59   66.69
   2  -1   3 2185.88   69.59
   2  -1   3 2166.48   66.99
  -3   1  -3   48.10    6.20
  -3   1  -3   39.80    4.00
  -3   1  -3   38.30    4.00
   3  -1   3   51.09    4.00
   3  -1   3   50.39    5.90
  -4   1  -3  230.98   10.80
  -4   1  -3  235.38   14.30
  -4   1  -3  243.78   10.60
   4  -1   3  237.88   10.40
   4  -1   3  247.68   12.50
   4  -1   3  231.58   10.80
  -5   1  -3   47.00    5.90
  -5   1  -3   42.00    8.00
   5  -1   3   45.00    5.30
   5  -1   3   37.40    5.10
  -6   1  -3  217.58   12.00
  -6   1  -3  247.58   18.40
   6  -1   3  210.18   10.50
  -7   1  -3   99.89   14.70
  -7   1  -3  109.29   10.60
   7  -1   3  108.49   11.60
  -8   1  -3   16.90   14.60
   8  -1   3   33.20    8.90
   9   0  -3    6.80    8.30
  -9   0   3   -0.40   12.90
  -8   0   3   38.60    9.80
  -8   0   3   30.50    7.00
   7   0  -3  182.58   10.80
  -7   0   3  154.88   10.50
  -7   0   3  146.09    8.70
   6   0  -3  467.05   17.80
  -6   0   3  416.46   16.10
  -6   0   3  450.85   20.40
  -6   0   3  442.16   17.50
  -6   0   3  448.46   17.70
   5   0  -3  298.47   11.70
   5   0  -3  263.47   12.50
  -5   0   3  291.87   11.70
  -5   0   3  289.27   11.80
  -5   0   3  276.97   13.10
  -5   0   3  278.77   10.80
   4   0  -3  882.11   29.10
   4   0  -3  884.71   30.20
  -4   0   3  887.61   29.20
  -4   0   3  901.11   29.00
  -4   0   3  885.51   29.50
  -4   0   3  880.21   30.50
   3   0  -3 4304.57  123.29
   3   0  -3 3867.21  121.69
   3   0  -3 3968.40  121.69
  -3   0   3 3900.51  122.09
  -3   0   3 3970.20  121.79
  -3   0   3 3761.62  122.79
   2   0  -3  117.29    4.90
   2   0  -3  122.99    6.10
  -2   0   3  108.89    4.50
  -2   0   3  119.39    5.20
  -2   0   3  115.29    5.30
   1   0  -3  381.26   13.50
   1   0  -3  397.56   14.80
  -1   0   3  391.96   14.20
  -1   0   3  398.06   13.60
   0   0  -3 1532.15   48.00
   0   0  -3 1608.74   50.39
   0   0   3 1581.44   49.20
   0   0   3 1519.65   50.29
   0   0   3 1520.75   48.30
  -1   0  -3   65.59    5.20
  -1   0  -3   78.39    3.70
  -1   0  -3   73.99    4.30
   1   0   3   76.59    4.40
   1   0   3   74.89    5.30
  -2   0  -3 3397.36  105.09
  -2   0  -3 3407.76  107.99
  -2   0  -3 3389.36  105.69
   2   0   3 3252.47  105.19
   2   0   3 3497.35  107.29
  -3   0  -3   85.59    5.30
  -3   0  -3   89.69    7.60
  -3   0  -3   86.39    5.90
   3   0   3   84.19    5.40
   3   0   3   87.79    5.60
   3   0   3   87.89    6.60
  -4   0  -3  104.59    6.60
  -4   0  -3  101.79    9.50
  -4   0  -3   95.49    7.00
   4   0   3  106.09    7.90
   4   0   3  109.29    7.10
   4   0   3  107.49    6.90
  -5   0  -3   30.50    6.50
  -5   0  -3   33.20    5.10
   5   0   3   35.70    4.50
   5   0   3   29.10    4.90
  -6   0  -3   12.60    4.80
  -6   0  -3    1.80    7.50
   6   0   3    2.50    3.90
  -7   0  -3    5.00    6.10
  -7   0  -3   -8.00    9.70
   7   0   3    7.60    5.80
  -8   0  -3  108.59   19.40
  -8   0  -3  114.59   14.60
   8   0   3  130.29   15.80
   9  -1  -3   -0.80    8.30
  -9   1   3   -1.40   14.20
  -8   1   3   -1.40    5.20
  -8   1   3   -0.40   10.20
   7  -1  -3   12.20    4.20
  -7   1   3    7.70    3.40
  -7   1   3   12.10    4.30
   6  -1  -3   46.40    6.00
  -6   1   3   56.59    5.50
  -6   1   3   57.99    8.00
  -6   1   3   41.70    4.50
  -6   1   3   58.79    7.20
   5  -1  -3  161.68    8.00
   5  -1  -3  147.99    8.70
  -5   1   3  163.68    8.60
  -5   1   3  158.98    7.00
  -5   1   3  146.79    9.60
  -5   1   3  158.08    7.40
   4  -1  -3  107.29    5.80
   4  -1  -3  108.49    6.60
  -4   1   3  108.89    6.40
  -4   1   3  111.89    5.40
  -4   1   3  110.09    5.30
  -4   1   3   95.19    6.40
   3  -1  -3  193.98    8.20
   3  -1  -3  180.88    7.30
   3  -1  -3  180.88    7.00
  -3   1   3  191.68    8.20
  -3   1   3  184.78    7.50
  -3   1   3  185.08    8.00
   2  -1  -3 4321.27  138.19
   2  -1  -3 4930.01  139.29
   2  -1  -3 4638.94  138.89
   2  -1  -3 4104.59  138.29
  -2   1   3 4537.85  138.69
  -2   1   3 4522.85  138.79
   1  -1  -3  797.52   26.60
   1  -1  -3  741.03   26.60
   1  -1  -3  795.22   26.10
  -1   1   3  808.42   26.20
  -1   1   3  808.92   25.90
  -1   1   3  802.12   25.70
   0  -1  -3 1885.81   61.09
   0  -1  -3 2028.60   61.49
   0  -1  -3 1921.81   60.79
   0   1   3 1910.21   61.49
   0   1   3 1943.61   61.29
  -1  -1  -3 5156.98  158.28
  -1  -1  -3 5100.09  159.48
  -1  -1  -3 5169.68  158.98
   1   1   3 4968.60  158.78
   1   1   3 5308.07  159.28
  -2  -1  -3 2164.88   65.89
  -2  -1  -3 2080.99   67.89
  -2  -1  -3 2039.60   66.49
   2   1   3 1981.70   67.99
   2   1   3 2126.69   66.49
   2   1   3 2106.29   66.69
  -3  -1  -3  305.67   12.40
  -3  -1  -3  310.07   13.30
  -3  -1  -3  320.17   14.90
   3   1   3  304.47   13.20
   3   1   3  315.17   12.90
   3   1   3  317.17   13.30
  -4  -1  -3   12.10    4.50
  -4  -1  -3   13.90    2.80
  -4  -1  -3   12.00    3.70
   4   1   3   16.10    3.60
   4   1   3   15.80    3.70
   4   1   3   15.00    3.40
  -5  -1  -3  860.61   34.40
  -5  -1  -3  846.22   30.70
   5   1   3  845.42   31.10
   5   1   3  814.92   29.30
   5   1   3  752.52   30.10
  -6  -1  -3   96.99   18.80
  -6  -1  -3  113.49   10.40
   6   1   3  101.79   11.60
  -7  -1  -3    1.70    6.60
  -7  -1  -3   16.30   11.00
   7   1   3    5.90    6.70
  -8  -1  -3   22.20   15.20
   8   1   3   14.40    9.50
   9  -2  -3   86.19   11.80
  -9   2   3   73.59   17.00
   8  -2  -3   75.19    8.50
  -8   2   3   38.50   12.10
   7  -2  -3   51.99    6.20
  -7   2   3   35.40    4.20
  -7   2   3   38.00    4.80
   6  -2  -3  179.98    9.90
  -6   2   3  181.68    8.30
  -6   2   3  162.88   12.80
  -6   2   3  186.98   12.30
   5  -2  -3  170.98    8.30
   5  -2  -3  136.39    8.60
  -5   2   3  145.69   10.30
  -5   2   3  158.08    9.50
  -5   2   3  159.48    7.00
  -5   2   3  159.18    7.10
   4  -2  -3 1169.38   38.40
   4  -2  -3 1189.78   38.10
  -4   2   3 1155.58   39.10
  -4   2   3 1182.88   37.40
  -4   2   3 1120.69   39.40
   3  -2  -3  137.59    7.70
   3  -2  -3  137.19    6.40
   3  -2  -3  138.59    6.50
   3  -2  -3  129.09    5.40
  -3   2   3  126.89    6.50
  -3   2   3  132.69    6.00
   2  -2  -3  403.86   16.00
   2  -2  -3  490.85   15.70
   2  -2  -3  449.26   16.90
   2  -2  -3  429.46   15.80
  -2   2   3  453.55   15.70
  -2   2   3  453.95   15.40
   1  -2  -3    2.00    1.50
   1  -2  -3   -0.20    1.40
   1  -2  -3    0.90    2.00
  -1   2   3    1.20    1.00
  -1   2   3    0.50    1.70
  -1   2   3   -0.40    1.30
   0  -2  -3  826.42   27.70
   0  -2  -3  805.92   28.00
   0   2   3  840.82   26.90
   0   2   3  799.92   26.70
   0   2   3  825.52   28.40
  -1  -2  -3   53.39    4.30
  -1  -2  -3   46.70    4.00
  -1  -2  -3   44.70    4.00
   1   2   3   41.30    4.50
   1   2   3   45.70    4.20
   1   2   3   45.60    3.50
  -2  -2  -3 1531.85   48.80
  -2  -2  -3 1494.45   49.60
  -2  -2  -3 1470.95   49.30
   2   2   3 1441.86   49.90
   2   2   3 1527.25   48.50
   2   2   3 1520.75   49.20
  -3  -2  -3  502.05   20.40
  -3  -2  -3  476.45   18.40
  -3  -2  -3  493.55   19.60
   3   2   3  515.55   19.30
   3   2   3  489.55   18.30
   3   2   3  517.95   20.30
  -4  -2  -3   -4.70    2.90
  -4  -2  -3    4.90    3.50
  -4  -2  -3   -2.00    3.80
   4   2   3    3.30    3.00
   4   2   3   -4.60    3.60
   4   2   3   -4.30    2.60
  -5  -2  -3   10.60    6.10
  -5  -2  -3   17.40    5.30
   5   2   3   17.80    4.80
   5   2   3   17.50    4.30
   5   2   3   10.30    4.60
  -6  -2  -3  150.88   12.60
  -7  -2  -3    7.30   10.20
   7   2   3    5.50    8.40
  -8  -2  -3   -3.20   10.00
  -8  -2  -3   23.00   16.10
   8   2   3    5.00   10.60
   8  -3  -3  148.69   13.20
  -8   3   3  162.08   20.90
   7  -3  -3   61.39    8.50
  -7   3   3   49.30   14.60
   6  -3  -3   59.69    7.20
  -6   3   3   60.19    9.20
  -6   3   3   48.80    3.90
   5  -3  -3  958.70   31.40
   5  -3  -3  861.71   31.20
  -5   3   3  907.51   29.20
  -5   3   3  882.01   28.70
  -5   3   3  913.91   34.20
   4  -3  -3  139.79    7.70
   4  -3  -3  130.99    9.50
   4  -3  -3  132.19    7.20
   4  -3  -3  132.49    5.20
  -4   3   3  130.99    8.70
  -4   3   3  137.19    6.10
   3  -3  -3   13.50    3.70
   3  -3  -3   16.60    2.00
   3  -3  -3   25.80    3.70
  -3   3   3   19.30    3.20
  -3   3   3   20.10    2.60
   2  -3  -3    1.00    2.80
   2  -3  -3    2.10    1.60
   2  -3  -3    6.60    1.70
  -2   3   3    6.50    2.60
  -2   3   3    2.30    1.60
   1  -3  -3 2974.40   92.29
   1  -3  -3 2997.10   94.09
   1  -3  -3 2927.11   91.09
  -1   3   3 3041.50   93.49
  -1   3   3 2794.42   90.19
   0  -3  -3    5.50    2.30
   0  -3  -3    1.30    2.30
   0   3   3    2.90    2.70
   0   3   3    4.60    2.00
  -1  -3  -3   72.59    5.60
  -1  -3  -3   71.39    5.70
  -1  -3  -3   70.59    4.60
   1   3   3   75.19    3.60
   1   3   3   80.79    6.90
   1   3   3   79.59    5.50
  -2  -3  -3 6696.43  210.38
  -2  -3  -3 6675.43  209.98
  -2  -3  -3 6878.11  209.68
   2   3   3 6776.82  207.68
   2   3   3 6824.52  210.08
   2   3   3 6811.32  211.98
  -3  -3  -3  602.54   23.20
  -3  -3  -3  597.54   23.20
  -3  -3  -3  549.15   21.90
   3   3   3  603.04   20.60
   3   3   3  619.44   24.80
   3   3   3  594.44   22.50
  -4  -3  -3  716.53   27.80
  -4  -3  -3  711.03   28.40
   4   3   3  709.43   25.10
   4   3   3  705.33   26.80
   4   3   3  741.43   29.40
  -5  -3  -3  178.98   12.40
  -5  -3  -3  202.08   14.80
   5   3   3  161.88   10.30
   6   3   3   14.90    6.90
  -7  -3  -3  114.59   13.00
  -7  -3  -3  117.69   16.70
   7   3   3  121.89   16.10
  -8  -3  -3   51.59   17.30
  -8  -3  -3   27.70   11.90
   8   3   3   11.70   11.90
   8  -4  -3    2.70    7.20
  -8   4   3    6.30   12.70
   7  -4  -3   80.69   11.20
  -7   4   3   79.79   12.30
   6  -4  -3  150.08   10.50
  -6   4   3  144.79   14.10
   5  -4  -3  165.28   16.50
   5  -4  -3  131.29    8.80
   5  -4  -3  168.08    9.70
  -5   4   3  142.99   12.00
   4  -4  -3  203.68    7.50
   4  -4  -3  207.08   13.10
   4  -4  -3  222.38   10.80
   4  -4  -3  212.18    9.60
  -4   4   3  224.18   12.00
  -4   4   3  220.88    8.20
   3  -4  -3 1720.43   59.79
   3  -4  -3 1632.94   57.49
   3  -4  -3 1836.02   56.09
   3  -4  -3 1837.52   58.09
  -3   4   3 1794.52   55.99
  -3   4   3 1789.52   57.69
   2  -4  -3   -1.90    4.10
   2  -4  -3    3.00    1.90
   2  -4  -3    1.30    1.60
  -2   4   3    2.10    2.10
  -2   4   3    1.10    2.60
   1  -4  -3  480.05   20.60
   1  -4  -3  495.75   18.30
  -1   4   3  509.85   19.90
  -1   4   3  475.35   17.90
   0  -4  -3  826.82   30.80
   0  -4  -3  808.12   28.90
   0   4   3  820.92   30.80
   0   4   3  846.32   28.80
  -1  -4  -3 1796.42   61.49
  -1  -4  -3 1869.21   60.79
   1   4   3 1904.61   62.99
   1   4   3 1832.92   60.29
  -2  -4  -3  838.42   31.60
  -2  -4  -3  833.02   32.00
  -2  -4  -3  894.91   31.90
   2   4   3  915.21   34.10
   2   4   3  884.11   31.20
   2   4   3  912.51   28.40
  -3  -4  -3   30.40    5.10
  -3  -4  -3   21.40    4.30
  -3  -4  -3   22.60    4.40
   3   4   3   29.20    4.10
   3   4   3   25.40    6.50
   3   4   3   18.80    4.70
  -4  -4  -3   67.79    8.90
  -4  -4  -3   54.79    7.40
   4   4   3   55.09    9.60
   4   4   3   53.99    5.90
  -5  -4  -3  112.99   11.50
  -5  -4  -3  126.19   13.00
   5   4   3   77.59    9.30
  -6  -4  -3   17.00    7.50
   6   4   3   18.90    8.90
  -7  -4  -3   -9.90    9.00
  -7  -4  -3   34.10   14.10
   7   4   3    2.70   11.90
   8  -5  -3    9.30    8.20
  -8   5   3   10.60   14.50
   7  -5  -3    9.90    6.10
  -7   5   3   24.60   11.50
  -6   5   3   46.50    9.90
   5  -5  -3   41.30    6.00
   5  -5  -3   39.60    5.40
  -5   5   3   43.60    8.40
   4  -5  -3  141.19    5.70
   4  -5  -3  167.98   10.10
   4  -5  -3  155.98    8.00
  -4   5   3  155.18    6.30
  -4   5   3  142.39   11.00
   3  -5  -3   46.00    4.50
   3  -5  -3   51.49    4.70
   3  -5  -3   29.70    7.20
   3  -5  -3   64.69    7.50
  -3   5   3   55.19    6.60
  -3   5   3   56.39    4.60
   2  -5  -3   34.40    6.50
   2  -5  -3   39.40    4.60
   2  -5  -3   35.60    3.30
  -2   5   3   34.70    4.90
  -2   5   3   38.00    4.30
  -2   5   3   33.30    5.10
   1  -5  -3 1439.96   53.69
   1  -5  -3 1579.04   51.09
  -1   5   3 1569.44   53.19
  -1   5   3 1598.04   50.69
   0  -5  -3  127.39   10.50
   0  -5  -3  125.79    8.20
   0   5   3  136.99    7.90
   0   5   3  132.19   10.40
  -1  -5  -3 4290.77  134.29
  -1  -5  -3 4137.59  135.69
   1   5   3 4384.86  136.89
   1   5   3 4159.68  133.39
  -2  -5  -3    9.40    4.50
  -2  -5  -3    6.40    3.70
  -2  -5  -3    7.00    3.40
   2   5   3    7.80    5.30
   2   5   3    9.00    2.10
   2   5   3   10.50    4.30
  -3  -5  -3   42.90    6.40
  -3  -5  -3   42.10    5.80
   3   5   3   42.20    5.00
   3   5   3   43.80    8.00
  -4  -5  -3   17.30    6.30
   4   5   3   14.40    4.00
  -5  -5  -3   -5.30    6.60
  -5  -5  -3   -3.40    7.50
   5   5   3   12.00    5.50
   5   5   3    9.30    8.70
  -6  -5  -3   25.30    9.20
   6   5   3   39.10   12.20
  -7  -5  -3    9.40   10.40
  -7  -5  -3   -0.70   13.30
   7   5   3   14.40   14.70
   7  -6  -3   19.30    8.00
  -7   6   3   33.30   13.30
   6  -6  -3   59.19    7.80
  -6   6   3   53.99   11.00
   5  -6  -3    2.60    4.40
  -5   6   3    6.60    7.10
   4  -6  -3  234.18   10.50
   4  -6  -3  230.58    8.70
   4  -6  -3  254.37   13.50
  -4   6   3  224.28    8.70
  -4   6   3  229.08   14.50
   3  -6  -3  376.96   14.70
   3  -6  -3  411.66   18.30
   3  -6  -3  380.76   14.70
  -3   6   3  367.66   16.70
  -3   6   3  380.56   14.50
   2  -6  -3  280.57   12.60
  -2   6   3  281.67   12.10
  -2   6   3  286.47   14.90
   1  -6  -3   34.20    4.90
  -1   6   3   30.70    4.30
  -1   6   3   40.70    7.20
   0  -6  -3  391.06   16.40
   0   6   3  336.07   15.20
   0   6   3  352.66   18.50
  -1  -6  -3   61.19    7.50
   1   6   3   46.20    6.00
   1   6   3   47.20    8.80
  -2  -6  -3  199.48   12.60
  -3  -6  -3  343.57   17.60
  -3  -6  -3  331.47   15.30
   3   6   3  308.37   13.40
  -4  -6  -3  163.58   13.30
   4   6   3  168.68   20.20
   4   6   3  168.68   10.40
  -5  -6  -3   10.40    7.60
  -5  -6  -3   13.80    8.50
   5   6   3   10.30   10.90
  -6  -6  -3   21.40   10.60
   6   6   3    1.90   14.40
   7  -7  -3  115.49   16.80
  -7   7   3  106.59   18.40
   6  -7  -3  175.88   16.20
  -6   7   3  175.98   20.60
   5  -7  -3  371.16   18.80
  -5   7   3  339.37   21.10
   4  -7  -3   37.00   10.00
   4  -7  -3   44.80    6.60
  -4   7   3   51.09    8.00
   3  -7  -3   75.99    5.80
   3  -7  -3   74.89    6.90
  -3   7   3   78.09    8.50
  -3   7   3   77.59    6.40
   2  -7  -3  653.63   24.00
  -2   7   3  617.14   23.10
   1  -7  -3  121.79    9.20
  -1   7   3   84.69   12.20
  -1   7   3  102.79    8.20
   0  -7  -3   91.59    9.30
   0   7   3  120.19   15.40
   0   7   3  106.39   16.80
  -1  -7  -3   62.09    8.00
  -2  -7  -3   74.19    9.20
  -3  -7  -3  109.09   12.40
  -4  -7  -3   70.59    9.10
  -4  -7  -3   68.09   10.60
   4   7   3   62.39   13.20
  -5  -7  -3   55.79   11.40
   5   7   3   41.10   14.70
  -6  -7  -3   14.40   13.20
   6   7   3   16.40   18.50
   6  -8  -3   -2.70    9.80
   5  -8  -3   13.90    8.20
   4  -8  -3    8.50    7.60
   3  -8  -3   74.69    8.30
   3  -8  -3   68.99    9.70
   2  -8  -3  218.98   12.30
  -2   8   3  167.88   11.00
   1  -8  -3   12.90    5.40
  -1   8   3   -2.20    7.40
   0  -8  -3    6.50    5.50
   0   8   3   18.00    9.00
  -1  -8  -3    9.30    6.00
  -2  -8  -3    7.60    7.00
   2   8   3  -21.60   10.10
  -3  -8  -3    2.50    7.50
   3   8   3    3.50   10.60
  -4  -8  -3    0.90    9.40
   4   8   3   -5.40   14.10
  -5  -8  -3   20.80   12.70
   5   8   3   37.40   18.50
   5  -9  -3   13.70    9.90
   4  -9  -3   27.30    9.80
   3  -9  -3    3.20    9.20
   2  -9  -3  110.39   11.90
   1  -9  -3   86.09   10.30
  -1   9   3   64.39   11.70
   0  -9  -3    8.00    7.10
   0   9   3   30.50   10.50
  -1  -9  -3   19.30    8.20
   1   9   3   12.30   11.20
  -2  -9  -3   24.40    9.40
   2   9   3   29.80   13.40
  -3  -9  -3   18.70   10.00
   3   9   3   42.20   16.00
   3 -10  -3   24.00   11.90
   2 -10  -3   14.50   11.80
   1 -10  -3    1.60    8.20
  -1  10   3    6.20   10.00
   0 -10  -3   13.50    8.70
   0  10   3   16.70   11.10
  -1 -10  -3    7.40    9.60
   1  10   3   -8.30   13.60
   3  10  -4   18.20   12.00
  -3 -10   4   12.20    9.00
   2  10  -4   39.10   11.50
  -2 -10   4   47.80    7.50
  -2 -10   4   48.20    8.90
  -1 -10   4   36.40   10.40
  -1 -10   4   23.80    7.40
  -1 -10   4   14.70    6.00
   0 -10   4   18.80    9.10
   0 -10   4   31.70    7.30
   0 -10   4   30.80    7.80
   1 -10   4  155.48   18.10
   1 -10   4  121.29   15.10
   1 -10   4  134.09   13.50
   2 -10   4   37.90    9.70
   3 -10   4   68.59   10.10
   5   9  -4   -8.30   15.50
  -5  -9   4    5.30   11.00
  -5  -9   4   15.40    8.20
   4   9  -4   47.20   13.30
  -4  -9   4   61.09    8.50
  -4  -9   4   58.49   10.40
   3   9  -4   26.90   10.10
  -3  -9   4   36.40    8.80
  -3  -9   4   20.70    5.60
   2   9  -4   13.30    9.30
  -2  -9   4   12.60    7.10
  -2  -9   4   12.00    5.00
  -1  -9   4  204.08   14.00
  -1  -9   4  172.18   22.50
  -1  -9   4  186.48   12.50
   0  -9   4   79.09   10.60
   0  -9   4   64.79    8.20
   0  -9   4   60.89   12.40
   0  -9   4   63.39    9.60
   1  -9   4  161.58   13.40
   1  -9   4  162.68   11.20
   1  -9   4  150.98   17.30
   2  -9   4   60.59   13.10
   2  -9   4   65.99    8.10
   2  -9   4   92.79   11.40
  -3   9  -4  178.28   19.20
   3  -9   4  171.78   14.10
  -4   9  -4   83.29   15.20
   4  -9   4   69.59    9.30
   6   8  -4   -2.10   14.70
  -6  -8   4   11.00   11.10
  -6  -8   4    2.70    8.60
   5   8  -4   29.50   13.10
  -5  -8   4   17.10    7.10
  -5  -8   4   17.40    9.10
   4   8  -4   57.59   14.00
  -4  -8   4   66.59    9.50
  -4  -8   4   71.69   10.70
   3   8  -4    6.50    9.00
  -3  -8   4   11.60    6.30
  -3  -8   4    6.70    4.50
   2   8  -4    7.90    6.90
  -2  -8   4   11.20    9.10
  -2  -8   4    2.60    5.20
  -2  -8   4    5.40    4.00
   1   8  -4  109.79   11.50
  -1  -8   4   95.29    9.90
  -1  -8   4  121.69   10.00
  -1  -8   4  110.19   14.10
   0  -8   4  219.78   15.70
   0  -8   4  193.28   16.80
   0  -8   4  250.07   14.70
   0  -8   4  209.08   12.10
   1  -8   4    3.30    8.00
   1  -8   4    8.40    4.60
   1  -8   4   -2.90    7.70
   1  -8   4   12.00    4.20
   1  -8   4    9.50    4.20
  -2   8  -4  319.47   20.10
   2  -8   4  321.07   14.10
   2  -8   4  320.57   13.90
   2  -8   4  357.06   16.90
  -3   8  -4   15.80    8.80
   3  -8   4    6.40    3.40
   3  -8   4    8.90    5.10
   4  -8   4   17.70    6.20
  -5   8  -4   57.89   14.10
   5  -8   4   55.49    8.70
   7   7  -4    0.20   14.90
  -7  -7   4    6.50    9.90
  -7  -7   4   10.50   11.30
  -6  -7   4    1.00    9.30
  -6  -7   4    9.80    7.10
   5   7  -4  106.39   14.60
  -5  -7   4  113.99   13.80
  -5  -7   4  115.19   10.80
   4   7  -4   -3.30    7.60
  -4  -7   4    1.20    4.30
  -4  -7   4   -2.50    6.10
   3   7  -4   57.69    9.70
  -3  -7   4   45.90    9.20
  -3  -7   4   67.59    8.50
  -3  -7   4   47.80    6.60
  -3  -7   4   42.80    8.50
   2   7  -4  454.55   20.50
  -2  -7   4  425.76   17.60
  -2  -7   4  450.85   19.00
  -2  -7   4  430.76   22.00
  -2  -7   4  371.56   20.60
   1   7  -4   48.30    7.20
  -1  -7   4   39.00    5.30
  -1  -7   4   50.39    6.40
  -1  -7   4   46.40    6.60
  -1  -7   4   31.00    7.00
  -1  -7   4   48.30    8.70
   0  -7   4   49.80    9.30
   0  -7   4   53.69    6.50
   0  -7   4   41.40    7.70
   0  -7   4   40.10    7.90
   0  -7   4   52.99    5.40
   0  -7   4   60.89    7.40
   1  -7   4    9.50    3.30
   1  -7   4    9.00    3.10
   1  -7   4   18.10    4.50
   1  -7   4   -4.60    6.30
  -2   7  -4   37.70    8.60
   2  -7   4   35.10    5.60
   2  -7   4   42.40    5.30
   2  -7   4   40.90    9.20
   2  -7   4   42.40    4.60
  -3   7  -4 1205.18   47.30
   3  -7   4 1168.58   38.80
   3  -7   4 1142.69   38.20
   3  -7   4 1206.38   41.80
  -4   7  -4   46.30   10.30
   4  -7   4   30.20    5.20
   4  -7   4   45.90    4.10
  -5   7  -4   19.00   10.80
   5  -7   4   10.50    6.80
  -6   7  -4   71.39   16.20
   6  -7   4   76.89   10.90
   7   6  -4   37.30   14.40
  -7  -6   4   40.60   10.40
  -7  -6   4   51.79    9.80
   6   6  -4  -16.30    9.70
  -6  -6   4    5.30    6.00
  -6  -6   4   -4.80    7.10
   5   6  -4    4.00    7.70
  -5  -6   4   -1.40    4.40
  -5  -6   4    3.40    6.30
   4   6  -4  133.29   13.20
  -4  -6   4  157.08    9.80
  -4  -6   4  145.79   10.80
   3   6  -4   27.20    6.20
   3   6  -4   35.00    9.20
  -3  -6   4   31.40    5.60
  -3  -6   4   21.10    3.90
  -3  -6   4   17.50    4.70
   2   6  -4   90.69    9.70
  -2  -6   4   85.99    7.20
  -2  -6   4   87.29    6.70
  -2  -6   4   86.89   10.00
  -2  -6   4  108.29    7.80
  -2  -6   4   79.99    8.70
   1   6  -4  358.06   16.40
  -1  -6   4  373.56   15.40
  -1  -6   4  376.06   17.10
  -1  -6   4  371.76   17.90
  -1  -6   4  341.87   18.70
  -1  -6   4  359.06   14.20
   0  -6   4  187.98   12.50
   0  -6   4  182.98   13.30
   0  -6   4  187.48    8.80
   0  -6   4  192.68    9.50
   0  -6   4  206.18   13.30
   0  -6   4  196.78   10.50
  -1   6  -4  111.89   10.80
   1  -6   4  100.69    6.30
   1  -6   4   90.09   10.70
   1  -6   4  101.19    7.60
   1  -6   4  110.49   11.10
   1  -6   4  101.19    6.10
  -2   6  -4  257.07   16.20
   2  -6   4  251.57   17.30
   2  -6   4  237.08   15.80
   2  -6   4  246.78   10.60
   2  -6   4  259.17   12.30
   2  -6   4  257.27   10.40
  -3   6  -4   -0.60    6.10
   3  -6   4    2.60    2.90
   3  -6   4    3.90    3.30
   3  -6   4    3.10    2.10
  -4   6  -4   79.99   12.10
   4  -6   4   78.49    4.90
   4  -6   4   86.29    5.50
  -5   6  -4   56.99   11.70
   5  -6   4   92.79    9.50
  -6   6  -4   41.00   13.30
   6  -6   4   51.09    8.80
  -7   6  -4   48.40   17.70
   8   5  -4   16.50   14.80
  -8  -5   4   -4.90    9.70
  -8  -5   4   12.40   10.50
   7   5  -4   43.10   13.30
  -7  -5   4   43.90    8.90
  -7  -5   4   27.00    9.00
   6   5  -4    5.50    8.40
  -6  -5   4    4.30    5.90
  -6  -5   4    2.00    4.90
   5   5  -4  199.28   14.70
  -5  -5   4  190.38   11.10
  -5  -5   4  168.18    9.90
  -5  -5   4  180.38   12.60
   4   5  -4    1.20    7.20
   4   5  -4   -3.40    5.00
  -4  -5   4   -3.00    3.50
  -4  -5   4    8.40    3.30
  -4  -5   4    6.00    3.60
   3   5  -4  154.28   13.40
   3   5  -4  160.58   10.90
  -3  -5   4  155.78    9.30
  -3  -5   4  159.48    9.60
  -3  -5   4  155.88    8.40
  -3  -5   4  143.79    7.90
   2   5  -4  569.04   22.50
  -2  -5   4  580.74   20.60
  -2  -5   4  596.74   22.10
  -2  -5   4  587.74   22.00
  -2  -5   4  574.04   22.60
   1   5  -4   92.79    7.00
  -1  -5   4   92.09    6.00
  -1  -5   4   64.69    8.60
  -1  -5   4   76.99    5.30
  -1  -5   4   80.29    7.60
  -1  -5   4   61.59    7.30
   0  -5   4 2700.13   87.99
   0  -5   4 2727.33   86.09
   0  -5   4 2709.43   85.39
   0  -5   4 2706.43   86.59
   0  -5   4 2773.42   90.79
   0  -5   4 2751.12   90.39
  -1   5  -4  500.55   23.20
   1  -5   4  506.85   23.30
   1  -5   4  538.45   19.60
   1  -5   4  511.05   21.20
   1  -5   4  560.34   18.60
  -2   5  -4  652.43   21.50
  -2   5  -4  641.84   28.30
   2  -5   4  649.24   25.30
   2  -5   4  673.23   23.80
   2  -5   4  656.13   22.50
   2  -5   4  637.04   27.40
  -3   5  -4  256.87   19.90
  -3   5  -4  236.58   15.90
  -3   5  -4  230.88    8.60
   3  -5   4  226.78   11.10
   3  -5   4  209.28   15.10
  -4   5  -4   84.49   12.40
   4  -5   4   89.79    7.90
   4  -5   4   80.39    5.50
   5  -5   4   81.59    8.70
  -6   5  -4   94.59   15.20
   6  -5   4  112.99   11.40
  -7   5  -4   43.70   16.50
   7  -5   4   53.89    9.40
   8   4  -4   11.20   19.80
  -8  -4   4    9.10    8.80
  -8  -4   4   19.40   10.00
   7   4  -4   18.70    9.40
  -7  -4   4   19.10    7.00
  -7  -4   4   10.30    7.20
   6   4  -4   18.00    7.50
  -6  -4   4   25.60    5.40
  -6  -4   4   12.70    4.50
  -6  -4   4   28.70    7.00
   5   4  -4    4.60    5.40
  -5  -4   4    1.10    3.40
  -5  -4   4   -1.90    3.60
  -5  -4   4   -1.50    2.80
   4   4  -4  261.07   15.50
   4   4  -4  266.27   14.00
  -4  -4   4  269.77   11.20
  -4  -4   4  255.67   11.40
  -4  -4   4  279.97   12.30
  -4  -4   4  260.77   13.00
   3   4  -4   92.99    7.70
   3   4  -4   89.99    9.60
  -3  -4   4   94.39    6.20
  -3  -4   4   94.79    5.80
  -3  -4   4   90.39    6.80
  -3  -4   4   99.39    6.40
   2   4  -4   36.40    6.20
   2   4  -4   41.20    5.70
  -2  -4   4   44.10    5.00
  -2  -4   4   48.20    4.10
  -2  -4   4   44.80    5.20
  -2  -4   4   44.20    4.40
   1   4  -4  491.45   17.80
   1   4  -4  468.65   16.70
  -1  -4   4  469.85   19.70
  -1  -4   4  478.65   18.30
  -1  -4   4  478.65   20.70
  -1  -4   4  463.05   16.90
   0   4  -4  152.68    6.70
   0  -4   4  154.58    8.60
   0  -4   4  150.68    7.40
   0  -4   4  155.48   10.80
   0  -4   4  161.88    7.10
  -1   4  -4    4.60    3.90
  -1   4  -4    5.00    1.80
   1  -4   4    2.90    3.90
   1  -4   4    2.80    1.90
   1  -4   4    5.90    2.00
   1  -4   4   -0.50    2.40
  -2   4  -4 1368.86   45.40
  -2   4  -4 1366.16   42.80
  -2   4  -4 1335.87   49.30
   2  -4   4 1313.27   44.30
   2  -4   4 1391.76   43.90
   2  -4   4 1362.76   48.70
  -3   4  -4    8.20    1.90
  -3   4  -4   10.90    3.60
  -3   4  -4    3.10    4.50
   3  -4   4    1.40    5.40
   3  -4   4    7.70    3.10
   3  -4   4    6.80    2.90
  -4   4  -4  143.69   13.70
  -4   4  -4  153.68    6.50
   4  -4   4  148.49    9.00
   4  -4   4  148.29    7.50
  -5   4  -4    4.60    7.10
  -5   4  -4   16.80    2.60
   5  -4   4   26.10    5.20
   5  -4   4   11.60    3.00
  -6   4  -4   12.30    9.90
   6  -4   4   34.00    6.40
  -7   4  -4    6.50   12.50
   7  -4   4   -7.20    6.50
  -8  -3   4   44.00   10.00
  -8  -3   4    9.60    8.00
   7   3  -4   -5.50    6.90
  -7  -3   4    8.20    6.30
   6   3  -4  122.19   11.20
  -6  -3   4  114.79    8.10
  -6  -3   4  110.69   14.60
  -6  -3   4  148.39   10.40
   5   3  -4  240.38   13.10
  -5  -3   4  230.88   10.10
  -5  -3   4  239.08   12.40
  -5  -3   4  226.28   10.50
  -5  -3   4  238.28   12.00
   4   3  -4    3.30    4.50
   4   3  -4    2.10    3.60
  -4  -3   4    6.20    2.80
  -4  -3   4    0.40    2.20
  -4  -3   4    0.00    1.90
  -4  -3   4    4.30    2.70
   3   3  -4  290.37   15.20
   3   3  -4  298.77   13.10
  -3  -3   4  303.07   12.90
  -3  -3   4  318.27   11.50
  -3  -3   4  318.57   12.10
  -3  -3   4  321.47   12.70
   2   3  -4  228.78    9.10
   2   3  -4  210.88   12.60
   2   3  -4  221.78    9.80
  -2  -3   4  226.88    9.30
  -2  -3   4  227.98   10.50
  -2  -3   4  231.48    9.30
   1   3  -4  886.51   29.50
  -1  -3   4  895.71   32.60
  -1  -3   4  912.71   29.90
  -1  -3   4  929.01   33.40
  -1  -3   4  920.41   30.20
   0   3  -4   25.10    2.60
   0   3  -4   25.40    4.30
   0  -3   4   27.10    3.60
   0  -3   4   33.10    3.10
   0  -3   4   22.20    4.40
   0  -3   4   31.10    2.90
  -1   3  -4  602.74   25.40
  -1   3  -4  650.43   22.20
  -1   3  -4  658.53   21.30
   1  -3   4  610.44   21.60
   1  -3   4  659.43   21.90
   1  -3   4  647.34   25.80
  -2   3  -4    3.30    3.40
  -2   3  -4    8.60    2.50
  -2   3  -4   10.30    1.80
   2  -3   4    7.40    4.30
   2  -3   4    7.50    2.10
  -3   3  -4   29.10    6.00
  -3   3  -4   34.20    4.90
  -3   3  -4   30.30    3.40
   3  -3   4   33.20    4.40
   3  -3   4   32.50    6.30
  -4   3  -4  621.34   25.70
  -4   3  -4  713.73   23.40
  -4   3  -4  707.93   30.90
   4  -3   4  695.13   25.20
   4  -3   4  692.63   32.20
   4  -3   4  692.03   23.80
  -5   3  -4   98.29   13.50
  -5   3  -4   91.09    6.10
   5  -3   4   87.99    6.50
   5  -3   4  105.39    8.20
  -6   3  -4  288.37   12.30
  -6   3  -4  302.77   23.90
   6  -3   4  292.67   12.10
  -7   3  -4  106.39   16.90
   7  -3   4  132.49   12.40
  -8   3  -4   15.00   16.50
   8  -3   4   -9.90    7.90
   9   2  -4   -4.10   10.50
  -9  -2   4    9.40   12.50
  -9  -2   4    0.40    9.70
   8   2  -4   15.70    8.40
  -8  -2   4    0.50    8.10
   7   2  -4   44.10    7.30
  -7  -2   4   49.40    8.50
  -7  -2   4   45.10    6.70
  -7  -2   4   34.50    7.30
   6   2  -4  178.28   11.40
  -6  -2   4  178.18   10.80
  -6  -2   4  191.68   11.60
  -6  -2   4  169.08    9.50
  -6  -2   4  173.08    9.30
   5   2  -4    5.50    3.50
   5   2  -4   13.70    4.60
  -5  -2   4    1.90    2.30
  -5  -2   4    2.10    2.70
  -5  -2   4   10.40    3.20
  -5  -2   4   -2.30    2.90
   4   2  -4 3386.46  108.29
   4   2  -4 3426.66  110.29
  -4  -2   4 3563.74  107.69
  -4  -2   4 3486.95  108.79
  -4  -2   4 3410.46  108.69
   3   2  -4 1702.73   56.59
   3   2  -4 1700.93   53.59
   3   2  -4 1666.43   53.89
  -3  -2   4 1725.83   53.79
  -3  -2   4 1709.73   52.59
  -3  -2   4 1631.84   54.19
   2   2  -4 1704.93   53.59
   2   2  -4 1696.43   57.09
  -2  -2   4 1716.23   53.99
  -2  -2   4 1701.23   55.19
   1   2  -4  816.52   26.90
  -1  -2   4  852.21   27.30
  -1  -2   4  814.82   29.60
  -1  -2   4  822.72   30.10
   0   2  -4 7301.87  224.58
   0   2  -4 7252.67  224.28
   0   2  -4 7480.85  228.18
   0  -2   4 6820.92  223.88
   0  -2   4 7745.32  228.88
   0  -2   4 7421.46  225.08
  -1   2  -4   52.69    3.40
  -1   2  -4   42.70    5.50
   1  -2   4   48.00    3.30
   1  -2   4   49.50    6.00
  -2   2  -4 1396.26   45.10
  -2   2  -4 1438.86   44.90
  -2   2  -4 1359.96   49.40
   2  -2   4 1376.86   45.00
   2  -2   4 1442.16   49.00
   2  -2   4 1379.06   45.50
  -3   2  -4  447.06   21.30
  -3   2  -4  468.95   16.60
  -3   2  -4  450.95   17.10
   3  -2   4  436.86   20.00
   3  -2   4  445.96   16.90
   3  -2   4  460.35   16.80
  -4   2  -4   72.89    5.70
  -4   2  -4   81.49    6.80
  -4   2  -4   70.89    9.80
   4  -2   4   79.49    5.80
   4  -2   4   67.19    5.90
   4  -2   4   57.29    8.50
  -5   2  -4  129.69    8.30
   5  -2   4  118.59    7.90
   5  -2   4  132.09    8.80
  -6   2  -4    0.10    4.10
   6  -2   4   15.10    3.90
  -7   2  -4   51.49    7.00
  -7   2  -4   73.69   15.30
   7  -2   4   74.19   10.00
  -8   2  -4   59.09   18.20
   8  -2   4   35.30    9.30
   9   1  -4   14.40    9.60
  -9  -1   4   28.60   12.80
  -8  -1   4   89.99   11.50
  -8  -1   4   65.19   10.70
   7   1  -4   35.60    6.30
  -7  -1   4   36.00    8.30
  -7  -1   4   48.30    6.60
  -7  -1   4   24.00    6.30
   6   1  -4  487.85   19.10
  -6  -1   4  485.65   19.20
  -6  -1   4  476.75   17.80
  -6  -1   4  472.55   18.10
   5   1  -4    8.20    3.00
   5   1  -4    9.50    4.40
  -5  -1   4    4.40    2.70
  -5  -1   4   17.40    3.60
  -5  -1   4    1.90    2.90
  -5  -1   4    5.50    2.50
   4   1  -4 2902.21   92.99
   4   1  -4 2883.61   90.79
  -4  -1   4 2742.93   91.79
  -4  -1   4 3025.20   90.29
  -4  -1   4 2982.90   91.09
  -4  -1   4 2932.01   91.79
   3   1  -4   17.40    3.10
   3   1  -4   20.10    2.50
  -3  -1   4   19.10    2.50
  -3  -1   4   24.80    3.30
   2   1  -4  898.71   31.60
   2   1  -4  875.61   28.70
  -2  -1   4  888.31   29.10
  -2  -1   4  888.61   29.80
   1   1  -4   -4.20    2.80
   1   1  -4   -0.20    1.10
  -1  -1   4   -1.50    1.60
  -1  -1   4   -0.40    1.30
   0   1  -4  766.62   24.50
   0   1  -4  762.32   25.60
   0   1  -4  780.02   28.20
   0  -1   4  793.92   24.60
  -1   1  -4  390.46   13.30
  -1   1  -4  371.36   16.50
  -1   1  -4  385.56   14.00
   1  -1   4  382.06   13.30
   1  -1   4  356.86   15.30
   1  -1   4  400.96   16.80
  -2   1  -4  184.48   11.00
  -2   1  -4  177.88    8.30
  -2   1  -4  186.18    7.90
   2  -1   4  183.18    7.90
   2  -1   4  183.18    8.50
   2  -1   4  185.78   10.80
  -3   1  -4  175.08   11.70
  -3   1  -4  170.28    8.50
  -3   1  -4  163.48    8.10
   3  -1   4  168.78   10.60
   3  -1   4  168.68    8.50
   3  -1   4  165.88    8.20
  -4   1  -4   28.40    3.90
  -4   1  -4   51.99    8.30
  -4   1  -4   41.30    5.40
   4  -1   4   51.09    7.40
   4  -1   4   40.40    5.10
   4  -1   4   40.40    4.70
  -5   1  -4  150.58   14.00
  -5   1  -4  152.28    9.30
   5  -1   4  151.08    8.90
   5  -1   4  142.69    9.70
  -6   1  -4   -5.50    4.40
  -6   1  -4   -6.00    7.80
   6  -1   4    3.30    4.30
  -7   1  -4    4.50   10.70
  -7   1  -4   44.10    7.50
   7  -1   4   26.20    7.00
  -8   1  -4    8.40   15.30
   8  -1   4  -10.50    8.60
   9   0  -4    2.00    8.20
  -9   0   4   -8.00   11.90
   8   0  -4   33.00    8.10
  -8   0   4   16.80    9.40
  -8   0   4   40.40    6.90
   7   0  -4   15.00    4.70
  -7   0   4    5.60    4.30
  -7   0   4    5.80    4.30
  -7   0   4    0.80    6.20
  -7   0   4    3.10    5.90
   6   0  -4  562.24   20.80
  -6   0   4  519.05   20.60
  -6   0   4  576.34   23.30
  -6   0   4  567.94   21.10
  -6   0   4  572.94   20.20
   5   0  -4  418.06   15.30
   5   0  -4  390.46   16.80
  -5   0   4  420.06   16.90
  -5   0   4  409.96   15.10
  -5   0   4  404.36   15.50
  -5   0   4  417.86   15.70
   4   0  -4   72.69    6.40
   4   0  -4   64.89    4.40
   4   0  -4   82.09    4.40
  -4   0   4   86.99    5.90
  -4   0   4   83.09    4.90
  -4   0   4   66.19    5.50
   3   0  -4   54.89    3.20
   3   0  -4   59.09    3.50
   3   0  -4   59.89    5.30
  -3   0   4   58.29    4.40
  -3   0   4   57.69    3.70
  -3   0   4   56.19    4.10
   2   0  -4 1053.29   35.30
   2   0  -4  985.00   32.90
  -2   0   4 1050.89   33.70
  -2   0   4 1025.90   33.60
   1   0  -4 2127.19   68.09
   1   0  -4 2214.08   70.39
  -1   0   4 2186.98   69.49
   0   0  -4 3751.92  112.69
   0   0  -4 3447.86  109.49
   0   0  -4 3425.86  110.89
   0   0   4 3674.83  112.89
   0   0   4 3549.15  109.99
  -1   0  -4   97.69    6.90
  -1   0  -4  101.69    4.70
  -1   0  -4   97.59    5.60
   1   0   4   94.39    5.70
   1   0   4   89.29    7.80
   1   0   4   99.39    5.00
  -2   0  -4   69.59    6.80
  -2   0  -4   56.59    4.10
  -2   0  -4   60.89    4.90
   2   0   4   61.19    4.40
   2   0   4   65.19    5.00
   2   0   4   61.99    6.40
  -3   0  -4  491.75   19.00
  -3   0  -4  488.25   18.20
  -3   0  -4  509.25   22.00
   3   0   4  512.65   18.80
   3   0   4  525.75   19.10
   3   0   4  465.55   20.20
  -4   0  -4  199.08   10.40
  -4   0  -4  179.08   13.20
  -4   0  -4  178.68    9.50
   4   0   4  173.98   10.90
   4   0   4  200.68   10.10
   4   0   4  207.48   10.50
  -5   0  -4  146.89   10.00
  -5   0  -4  150.78   13.80
   5   0   4  155.98   10.30
   5   0   4  144.79    9.40
  -6   0  -4    7.90    8.60
  -6   0  -4   -1.30    4.70
   6   0   4    1.70    5.20
  -7   0  -4   71.59   14.40
  -7   0  -4   95.29   12.50
   7   0   4   93.69   12.80
  -8   0  -4   11.00   15.50
  -8   0  -4   17.70    9.40
   8   0   4   13.70   10.40
   9  -1  -4   13.50    8.20
  -9   1   4   -2.60   12.40
   8  -1  -4   20.70    7.30
  -8   1   4   20.80    9.90
  -8   1   4   28.50    6.00
   7  -1  -4   -3.40    4.00
  -7   1   4   13.90    4.20
  -7   1   4   -2.90    3.80
   6  -1  -4   51.99    6.30
  -6   1   4   57.49    5.50
  -6   1   4   50.29    5.50
  -6   1   4   64.59    8.50
  -6   1   4   55.39    7.60
   5  -1  -4  523.65   20.10
   5  -1  -4  521.45   18.60
  -5   1   4  494.85   18.40
  -5   1   4  520.55   20.50
  -5   1   4  518.95   19.50
  -5   1   4  546.85   18.70
   4  -1  -4  142.69    6.60
   4  -1  -4  145.59    6.10
   4  -1  -4  144.49    8.10
  -4   1   4  143.49    7.10
  -4   1   4  143.49    7.80
  -4   1   4  138.89    7.70
   3  -1  -4  119.39    6.60
   3  -1  -4  121.39    6.90
   3  -1  -4  122.79    5.40
   3  -1  -4  122.89    5.40
  -3   1   4  123.59    6.10
  -3   1   4  112.69    6.20
   2  -1  -4  266.27   10.00
   2  -1  -4  272.77    9.70
   2  -1  -4  248.48   10.30
  -2   1   4  267.57   10.00
   1  -1  -4   23.80    3.60
   1  -1  -4   19.00    2.50
   1  -1  -4   16.70    2.40
  -1   1   4   15.00    2.90
  -1   1   4   15.90    2.30
   0  -1  -4  472.35   17.40
   0  -1  -4  477.85   16.60
   0  -1  -4  474.65   19.10
   0   1   4  480.95   17.50
   0   1   4  491.45   18.20
  -1  -1  -4 1697.43   55.59
  -1  -1  -4 1666.43   53.59
  -1  -1  -4 1667.03   54.59
   1   1   4 1677.83   54.49
   1   1   4 1740.83   55.49
   1   1   4 1674.33   54.59
  -2  -1  -4  563.54   20.80
  -2  -1  -4  552.04   22.20
  -2  -1  -4  570.74   19.80
   2   1   4  558.34   20.60
   2   1   4  565.34   21.40
   2   1   4  548.95   20.60
  -3  -1  -4   87.29    5.80
  -3  -1  -4   79.59    6.80
  -3  -1  -4   99.59    8.50
   3   1   4   89.29    7.10
   3   1   4   94.79    6.80
   3   1   4   83.49    6.70
  -4  -1  -4  142.39   11.70
  -4  -1  -4  134.49    8.30
  -4  -1  -4  133.99    9.50
   4   1   4  141.89    9.10
   4   1   4  150.58    9.60
   4   1   4  143.59    9.00
  -5  -1  -4   17.20    6.80
  -5  -1  -4   15.80    5.10
   5   1   4   16.00    4.60
   5   1   4    9.60    6.80
  -6  -1  -4    7.50    9.00
  -6  -1  -4   -4.10    5.20
  -7  -1  -4  -10.20   11.30
  -7  -1  -4   14.80    7.80
   7   1   4    8.80    7.70
  -8  -1  -4  171.08   24.10
  -8  -1  -4  142.69   18.70
   8   1   4  173.68   19.90
   9  -2  -4   53.69   10.30
  -9   2   4   54.19   15.90
  -8   2   4   -2.30    9.50
   7  -2  -4  244.38   12.60
  -7   2   4  211.38   10.70
  -7   2   4  240.68   13.40
   6  -2  -4   28.30    4.50
  -6   2   4   34.60    6.90
  -6   2   4   16.90    6.20
  -6   2   4   36.60    4.50
  -6   2   4   26.40    3.90
   5  -2  -4   93.69    6.30
   5  -2  -4   91.69    7.50
  -5   2   4   83.29    8.10
  -5   2   4   84.19    6.00
  -5   2   4   93.99    5.40
  -5   2   4   93.69    8.20
   4  -2  -4   -0.10    2.80
   4  -2  -4    2.60    1.50
   4  -2  -4    2.20    3.80
   4  -2  -4    2.50    2.20
  -4   2   4    4.70    3.20
  -4   2   4    0.80    2.40
   3  -2  -4  978.70   30.90
   3  -2  -4  917.71   31.60
   3  -2  -4  875.31   29.90
   3  -2  -4  861.21   29.30
  -3   2   4  926.21   30.30
   2  -2  -4  354.26   13.10
   2  -2  -4  359.96   14.50
   2  -2  -4  364.56   13.90
  -2   2   4  325.57   14.30
  -2   2   4  358.16   12.70
   1  -2  -4 3412.76  107.89
   1  -2  -4 3411.66  107.49
   1  -2  -4 3410.16  107.29
  -1   2   4 3467.35  105.99
  -1   2   4 3496.35  107.49
  -1   2   4 3420.76  107.59
   0  -2  -4 1818.72   59.89
   0  -2  -4 1838.62   59.89
   0   2   4 1942.21   59.69
   0   2   4 1895.01   60.59
   0   2   4 1825.12   59.49
   0   2   4 1852.41   59.89
  -1  -2  -4   44.80    4.40
  -1  -2  -4   45.50    6.30
  -1  -2  -4   43.00    4.70
   1   2   4   40.70    4.80
   1   2   4   47.40    4.50
  -2  -2  -4  168.38    8.40
  -2  -2  -4  178.48    9.50
  -2  -2  -4  183.48   10.00
   2   2   4  171.68    9.30
   2   2   4  175.08    8.80
  -3  -2  -4  324.67   15.80
  -3  -2  -4  303.57   13.20
  -3  -2  -4  314.87   14.50
   3   2   4  309.87   14.10
   3   2   4  329.57   15.20
   3   2   4  323.17   13.60
  -4  -2  -4   32.20    6.50
  -4  -2  -4   37.70    6.00
   4   2   4   26.70    4.80
   4   2   4   35.50    4.60
   4   2   4   31.20    5.30
  -5  -2  -4   19.40    7.40
  -5  -2  -4   20.40    5.30
  -6  -2  -4   39.10    9.70
  -6  -2  -4   36.10   13.30
  -7  -2  -4   -2.90   11.70
  -7  -2  -4    2.30    8.00
   7   2   4   -8.80    9.50
  -8  -2  -4   31.60   12.00
  -8  -2  -4   -7.10   16.70
   8   2   4   12.90   12.40
   8  -3  -4   25.50    6.80
  -8   3   4   29.90   12.00
  -7   3   4   40.20   12.40
   6  -3  -4   14.70    4.20
  -6   3   4   10.90    3.40
  -6   3   4    9.00    5.50
  -6   3   4   11.80    2.70
   5  -3  -4  166.28   12.00
   5  -3  -4  172.68    6.70
   5  -3  -4  164.78    9.60
   5  -3  -4  189.18    9.40
  -5   3   4  153.88    8.00
  -5   3   4  151.58   10.80
   4  -3  -4   13.40    2.00
   4  -3  -4   20.30    3.60
   4  -3  -4   14.70    3.20
   4  -3  -4   10.60    4.70
  -4   3   4   17.40    2.90
  -4   3   4   19.70    4.00
   3  -3  -4    4.00    2.50
   3  -3  -4    3.60    1.70
   3  -3  -4    4.90    3.70
   3  -3  -4    2.70    2.70
  -3   3   4    5.30    2.10
   2  -3  -4 1567.24   50.09
   2  -3  -4 1524.55   52.09
   2  -3  -4 1583.74   50.19
  -2   3   4 1555.34   50.89
  -2   3   4 1572.84   49.10
  -2   3   4 1535.15   50.29
   1  -3  -4  354.96   16.00
   1  -3  -4  386.66   14.70
  -1   3   4  378.46   15.50
  -1   3   4  378.96   14.70
  -1   3   4  381.86   12.60
  -1   3   4  369.86   13.70
   0  -3  -4  651.43   23.20
   0  -3  -4  624.44   23.70
   0   3   4  631.74   22.90
   0   3   4  606.84   21.00
   0   3   4  643.14   21.30
   0   3   4  642.74   24.20
  -1  -3  -4   31.20    4.70
  -1  -3  -4   20.10    3.60
  -1  -3  -4   27.10    3.80
   1   3   4   25.60    4.90
   1   3   4   25.00    3.30
   1   3   4   27.30    4.10
  -2  -3  -4  994.30   35.00
  -2  -3  -4  994.90   34.60
  -2  -3  -4  953.90   34.20
   2   3   4  995.60   34.60
   2   3   4  976.90   36.20
  -3  -3  -4  529.45   21.00
  -3  -3  -4  501.85   21.20
  -3  -3  -4  465.65   19.30
   3   3   4  496.65   18.20
   3   3   4  496.75   20.30
  -4  -3  -4  123.99   10.20
  -4  -3  -4  117.69   11.50
   4   3   4  134.89   11.30
   4   3   4  111.99    7.50
  -5  -3  -4   18.10    7.40
  -5  -3  -4   19.60    7.50
  -6  -3  -4  -10.10    8.80
  -6  -3  -4    2.80    8.40
   6   3   4    7.30    7.90
  -7  -3  -4  -17.70   12.60
  -7  -3  -4    1.80    8.90
   7   3   4   -6.20    8.80
   8  -4  -4   15.70    7.40
  -8   4   4  -17.40   11.60
  -7   4   4   23.30    9.60
   6  -4  -4   -4.70    4.50
  -6   4   4   12.40    6.90
   5  -4  -4   14.40    4.40
   5  -4  -4    8.30    4.20
   5  -4  -4   20.00    2.40
   5  -4  -4   19.40    7.60
  -5   4   4   20.10    5.90
  -5   4   4   18.90    3.00
   4  -4  -4   68.29    4.10
   4  -4  -4   72.29    6.90
   4  -4  -4   79.79   10.60
   4  -4  -4   64.79    6.10
  -4   4   4   78.29    5.40
  -4   4   4   71.09    7.30
   3  -4  -4    4.10    5.00
   3  -4  -4    7.00    2.60
   3  -4  -4    3.00    3.10
   3  -4  -4   -1.30    2.00
  -3   4   4    6.60    2.40
  -3   4   4   -1.00    2.50
   2  -4  -4    2.70    4.50
   2  -4  -4    7.70    2.80
   2  -4  -4    7.00    2.60
  -2   4   4    8.90    2.40
  -2   4   4    5.80    2.60
  -2   4   4    1.10    3.00
   1  -4  -4   34.50    5.30
   1  -4  -4   31.90    4.20
  -1   4   4   41.50    4.80
  -1   4   4   38.80    6.20
   0  -4  -4  438.76   17.40
   0  -4  -4  408.56   18.50
   0   4   4  432.96   18.90
   0   4   4  423.46   17.10
  -1  -4  -4    3.00    2.70
  -1  -4  -4   -3.90    2.70
   1   4   4    5.40    3.30
   1   4   4   -4.20    3.90
  -2  -4  -4   33.20    4.80
  -2  -4  -4   26.90    5.20
  -2  -4  -4   23.70    4.30
   2   4   4   37.30    5.50
   2   4   4   29.70    3.40
   2   4   4   31.90    6.50
  -3  -4  -4   11.80    4.10
  -3  -4  -4   15.20    4.80
   3   4   4   15.90    6.10
   3   4   4   16.70    2.90
  -4  -4  -4  417.96   20.00
  -4  -4  -4  415.56   19.60
   4   4   4  348.47   15.20
  -5  -4  -4   50.59   10.10
  -6  -4  -4  277.57   19.60
  -6  -4  -4  286.77   23.30
   6   4   4  307.17   23.50
  -7  -4  -4   43.20   15.80
  -7  -4  -4   76.19   12.60
   7   4   4  110.19   17.50
   8  -5  -4   93.99   11.50
  -8   5   4  102.79   19.40
   7  -5  -4  120.19   13.00
  -7   5   4  105.29   15.70
  -6   5   4  136.79   15.50
   5  -5  -4  129.29   10.20
   5  -5  -4  119.79    8.90
  -5   5   4  117.39   12.30
   4  -5  -4  393.46   14.40
   4  -5  -4  417.26   17.90
   4  -5  -4  421.86   16.00
  -4   5   4  410.76   18.60
  -4   5   4  428.96   15.50
   3  -5  -4   18.20    7.10
   3  -5  -4   24.60    3.60
   3  -5  -4   24.50    3.70
   3  -5  -4   23.70    5.20
  -3   5   4   23.30    3.50
  -3   5   4   30.20    4.70
   2  -5  -4    3.80    5.90
   2  -5  -4    4.50    2.80
  -2   5   4   -1.90    3.80
  -2   5   4    3.60    2.70
   1  -5  -4    2.10    3.00
   1  -5  -4    5.30    5.40
  -1   5   4    3.00    2.90
  -1   5   4    4.90    4.50
   0  -5  -4  126.69    8.80
   0  -5  -4  114.39   10.80
   0   5   4  115.79    8.00
   0   5   4  124.89   10.80
  -1  -5  -4   67.49    7.50
  -1  -5  -4   59.99    7.80
   1   5   4   63.79    7.10
   1   5   4   69.69    9.80
  -2  -5  -4  433.76   19.20
  -2  -5  -4  406.46   16.50
   2   5   4  389.16   14.20
   2   5   4  466.55   24.70
  -3  -5  -4  261.37   13.90
   3   5   4  245.28   17.60
   3   5   4  256.67   10.90
  -4  -5  -4   37.80    7.60
   4   5   4   21.60    4.60
  -5  -5  -4   18.80    9.20
  -5  -5  -4   13.80    8.10
   5   5   4    4.20   10.10
   5   5   4    2.00    6.80
  -6  -5  -4    7.10   11.40
  -6  -5  -4   18.60    9.30
   6   5   4   16.00   13.30
   7   5   4   69.19   24.90
   7  -6  -4  129.09   15.50
  -7   6   4  133.69   18.60
   6  -6  -4  271.97   17.00
  -6   6   4  293.37   21.60
   5  -6  -4  137.59   10.10
  -5   6   4  164.78   15.00
   4  -6  -4  218.58    9.20
   4  -6  -4  226.68   14.60
   4  -6  -4  230.78   10.60
  -4   6   4  185.18   11.20
  -4   6   4  233.18   13.90
   3  -6  -4  106.29   10.70
   3  -6  -4   98.49    7.20
   3  -6  -4   90.89    7.10
  -3   6   4   95.59    7.00
  -3   6   4   81.29    8.40
   2  -6  -4  186.38   10.20
  -2   6   4  179.18   12.50
  -2   6   4  176.48    9.80
   1  -6  -4    7.00    4.10
  -1   6   4    2.90    5.10
  -1   6   4    0.10    3.60
   0  -6  -4   18.80    4.80
   0   6   4   19.80    6.40
   0   6   4   22.70    4.70
  -1  -6  -4    4.40    4.20
   1   6   4   -9.40    6.30
  -2  -6  -4  159.58   13.60
  -3  -6  -4  354.46   20.10
  -3  -6  -4  331.57   15.10
   3   6   4  249.18   12.50
  -4  -6  -4   13.10    7.20
  -5  -6  -4    6.70    8.40
  -5  -6  -4    9.80    9.20
   5   6   4   17.80   12.20
  -6  -6  -4   13.20   11.70
  -6  -6  -4   29.90   12.90
   6   6   4    9.00   14.70
   6  -7  -4   16.10    8.50
  -6   7   4   -4.50   11.20
   5  -7  -4   24.90    7.60
  -5   7   4   21.60    8.80
   4  -7  -4  398.56   19.60
   4  -7  -4  340.07   13.90
  -4   7   4  354.76   18.40
   3  -7  -4   61.79    7.30
  -3   7   4   49.80    5.70
   2  -7  -4    1.50    4.30
  -2   7   4    6.40    4.20
  -2   7   4    9.40    6.60
   1  -7  -4    0.40    4.40
  -1   7   4    5.60    4.80
  -1   7   4   -2.40    6.40
   0  -7  -4    3.10    4.70
   0   7   4    0.50    7.20
   1   7   4   23.50    9.00
  -2  -7  -4  240.38   16.00
  -3  -7  -4   50.19    8.80
   3   7   4   83.89   13.20
  -4  -7  -4    0.00    8.00
   4   7   4  -10.80   12.50
  -5  -7  -4   60.09   12.00
   5   7   4   35.20   16.50
   5  -8  -4   18.40    9.40
   4  -8  -4   26.20    8.30
   3  -8  -4  432.56   18.70
   3  -8  -4  459.45   24.00
   2  -8  -4    7.90    5.80
  -2   8   4    2.70    6.60
  -2   8   4   12.10    5.70
   1  -8  -4  207.18   14.50
  -1   8   4  225.08   16.90
   0  -8  -4   79.99    9.50
   0   8   4   58.79   11.30
  -1  -8  -4  162.58   14.20
   1   8   4  121.99   17.90
  -2  -8  -4   60.89    9.60
   2   8   4   69.19   13.10
  -3  -8  -4  -11.40    8.20
   3   8   4   18.70   12.00
  -4  -8  -4    4.70   10.50
   4   8   4    4.90   15.00
   4  -9  -4   59.99   11.50
   3  -9  -4  101.19   13.00
   2  -9  -4    6.40    6.70
   1  -9  -4   68.29    9.60
  -1   9   4   59.89   12.30
   0  -9  -4  105.79   12.40
   0   9   4   94.49   14.70
  -1  -9  -4    5.90    8.30
   1   9   4    6.20   11.90
  -2  -9  -4   34.70   10.40
   2   9   4   24.80   14.30
  -3  -9  -4  -23.60    9.60
   3   9   4   -5.80   15.50
   2 -10  -4   62.19   13.80
   1 -10  -4    8.60    8.90
  -1  10   4  -21.40   10.50
   0 -10  -4    5.70    9.70
   0  10   4    5.20   11.20
   3  10  -5   42.60   12.90
  -3 -10   5   44.40    8.50
  -3 -10   5   21.30   11.00
  -2 -10   5    5.70    6.70
  -2 -10   5   -3.80    8.30
  -1 -10   5   37.50   10.50
  -1 -10   5   32.60    8.80
  -1 -10   5   15.80    8.60
   0 -10   5   -3.30    6.80
   0 -10   5   -9.00    8.60
   1 -10   5   88.59   14.00
   1 -10   5   66.29   11.00
   1 -10   5   64.79    8.40
   2 -10   5   32.10   14.60
   2 -10   5    8.70    8.40
   5   9  -5   -3.50   15.10
  -5  -9   5   21.10    8.10
  -5  -9   5    6.50   11.70
   4   9  -5   25.10   11.70
  -4  -9   5   26.10    9.90
  -4  -9   5   33.00    7.50
   3   9  -5    7.80   11.90
  -3  -9   5    3.50    7.80
  -3  -9   5    5.10    7.40
  -2  -9   5   -4.40    5.20
  -2  -9   5    1.70    7.00
  -1  -9   5   12.50    6.80
  -1  -9   5   44.10    7.90
  -1  -9   5   19.20    6.60
   0  -9   5   63.39    9.90
   0  -9   5   73.99    9.40
   0  -9   5   89.09   12.00
   1  -9   5    3.90   10.00
   1  -9   5    5.60    5.20
   1  -9   5   10.70    6.50
   2  -9   5   16.30    5.00
   2  -9   5   -1.50    5.90
   2  -9   5   -6.00   11.60
  -3   9  -5   -3.30   10.90
   3  -9   5  -10.00    6.80
  -4   9  -5  -14.90   12.40
   4  -9   5   -7.00    7.00
   6   8  -5  -13.20   14.80
  -6  -8   5   15.10   10.60
  -6  -8   5   15.30    8.80
  -5  -8   5    2.80    6.50
  -5  -8   5   -3.00    8.70
  -4  -8   5   44.80    9.20
  -4  -8   5   38.10    6.90
   3   8  -5  201.58   16.40
  -3  -8   5  206.28   12.40
  -3  -8   5  210.78   14.90
   2   8  -5    7.10    6.30
  -2  -8   5   13.30    6.20
  -2  -8   5   15.30    5.00
  -1  -8   5   -9.40    4.90
  -1  -8   5    2.10    5.20
  -1  -8   5   -1.50    5.40
   0  -8   5  106.09   14.30
   0  -8   5  117.49   10.90
   0  -8   5  131.79    9.80
   1  -8   5  380.46   17.70
   1  -8   5  355.46   16.00
   1  -8   5  344.47   23.30
   1  -8   5  356.66   15.80
  -2   8  -5   75.09   11.60
   2  -8   5   52.29    6.80
   2  -8   5   36.00    6.30
   2  -8   5   50.59    6.10
   3  -8   5  112.29   11.20
   3  -8   5  112.69    7.60
  -4   8  -5   12.00   11.70
   4  -8   5   12.90    6.60
  -5   8  -5   65.69   16.30
   5  -8   5   63.79    9.70
   7   7  -5  -11.70   14.30
  -7  -7   5   16.70   12.40
  -7  -7   5  -11.90    9.20
   6   7  -5   68.79   14.40
  -6  -7   5   91.09   12.90
  -6  -7   5   89.69   12.00
   5   7  -5   -1.80    9.30
  -5  -7   5    7.20    7.30
  -5  -7   5    1.90    5.80
   4   7  -5   92.99   11.90
  -4  -7   5  107.19   11.50
  -4  -7   5   90.99    9.10
   3   7  -5   35.80    7.50
  -3  -7   5   22.10    6.30
  -3  -7   5   32.50    5.10
  -3  -7   5   37.80    6.70
   2   7  -5  108.39   10.40
  -2  -7   5  104.69   14.90
  -2  -7   5   99.59   11.90
  -2  -7   5  105.89    9.10
  -2  -7   5   79.59    9.00
  -1  -7   5    9.70    5.30
  -1  -7   5   12.50    4.30
  -1  -7   5    6.90    4.20
  -1  -7   5   10.20    6.60
  -1  -7   5    1.70    7.60
   0  -7   5    6.00    7.70
   0  -7   5    6.80    4.50
   0  -7   5    7.50    3.60
   0  -7   5    3.90    4.00
   0  -7   5    3.00    6.20
   0  -7   5    1.10    7.20
   1  -7   5   21.90    4.20
   1  -7   5   32.30    5.30
   1  -7   5   19.40    9.10
   1  -7   5   22.40    4.10
  -2   7  -5   40.00    8.90
   2  -7   5   41.40    5.60
   2  -7   5   52.49    5.60
   2  -7   5   48.70    5.30
   3  -7   5   68.09    5.80
   3  -7   5   61.39    8.10
   3  -7   5   76.59    7.60
  -4   7  -5  258.47   22.80
   4  -7   5  235.68   14.10
   4  -7   5  236.78    9.90
  -5   7  -5   13.30   12.40
   5  -7   5    6.10    6.10
  -6   7  -5   75.89   17.50
   6  -7   5   64.89   10.70
  -7  -6   5   12.10    9.90
  -7  -6   5   22.90    8.80
   6   6  -5    4.40    9.20
  -6  -6   5    0.80    5.90
  -6  -6   5   -4.30    7.10
   5   6  -5   37.40    8.90
  -5  -6   5   53.09    6.90
  -5  -6   5   36.70    5.90
  -5  -6   5   37.30    7.80
   4   6  -5   13.30    6.90
  -4  -6   5   26.00    5.40
  -4  -6   5   29.60    5.10
   3   6  -5    1.10    5.10
  -3  -6   5   -4.50    3.80
  -3  -6   5    1.50    3.20
  -3  -6   5   -2.10    4.10
   2   6  -5  125.59    9.40
  -2  -6   5  103.99   12.00
  -2  -6   5   91.59    9.20
  -2  -6   5  121.29    9.10
  -2  -6   5   92.69    8.00
  -1  -6   5  105.09   10.10
  -1  -6   5  111.59   12.20
  -1  -6   5  128.79    8.10
  -1  -6   5  126.99   10.70
  -1  -6   5  117.79    8.30
  -1  -6   5  121.39    7.60
   0  -6   5   17.40    6.60
   0  -6   5   11.10    3.50
   0  -6   5   15.30    6.10
   0  -6   5   13.20    4.90
   0  -6   5   10.90    3.20
   0  -6   5    8.70    3.20
  -1   6  -5   24.00    6.30
   1  -6   5   26.50    7.90
   1  -6   5   24.70    3.90
   1  -6   5   33.30    5.00
   1  -6   5   28.20    3.90
   1  -6   5   27.70    6.10
  -2   6  -5  139.79   13.90
   2  -6   5  174.28   18.50
   2  -6   5  170.08    9.60
   2  -6   5  141.69    8.60
   2  -6   5  162.98    8.10
  -3   6  -5  165.18   15.40
   3  -6   5  161.58    9.80
   3  -6   5  145.19    8.90
   4  -6   5   27.30    4.40
   4  -6   5   25.20    5.40
   4  -6   5   27.70    3.30
  -5   6  -5  277.87   23.40
   5  -6   5  311.57   16.00
  -6   6  -5    1.70   12.80
   6  -6   5   24.10    7.30
   8   5  -5   61.69   17.00
  -8  -5   5   25.20   10.90
  -8  -5   5   28.60   11.00
   7   5  -5    3.80   10.60
  -7  -5   5   10.00    7.40
  -7  -5   5    3.50    7.70
   6   5  -5   33.60    9.40
  -6  -5   5   25.30    7.00
  -6  -5   5   34.10    6.60
  -6  -5   5   38.60    6.00
   5   5  -5   66.99    9.10
  -5  -5   5   64.29    6.70
  -5  -5   5   69.99    8.70
   4   5  -5  674.83   27.30
  -4  -5   5  683.43   26.70
  -4  -5   5  701.53   25.60
  -4  -5   5  689.93   24.60
   3   5  -5   98.39   11.80
   3   5  -5   93.99    8.70
  -3  -5   5   96.69    7.50
  -3  -5   5   94.79    7.40
  -3  -5   5  107.29    8.10
   2   5  -5  215.18   10.90
  -2  -5   5  201.28   13.50
  -2  -5   5  237.78   11.20
  -2  -5   5  200.98   11.20
  -2  -5   5  204.38    9.90
  -2  -5   5  228.78   11.90
  -1  -5   5   36.90    5.00
  -1  -5   5   48.10    6.10
  -1  -5   5   45.10    6.90
  -1  -5   5   47.70    4.70
  -1  -5   5   42.70    7.40
  -1  -5   5   35.60    4.50
   0   5  -5    2.10    2.00
   0  -5   5   -0.10    2.30
   0  -5   5   -2.10    3.60
   0  -5   5    2.10    4.90
   0  -5   5    1.10    2.40
   0  -5   5   -3.90    5.10
  -1   5  -5  103.49    5.60
  -1   5  -5  105.89   10.80
   1  -5   5  110.19    8.70
   1  -5   5  120.29   11.50
   1  -5   5  108.49    6.80
   1  -5   5  102.29    6.50
  -2   5  -5  543.15   18.30
  -2   5  -5  507.55   25.10
   2  -5   5  536.75   19.50
   2  -5   5  534.15   21.70
   2  -5   5  543.25   20.00
   2  -5   5  510.15   24.70
  -3   5  -5  303.37   19.20
  -3   5  -5  304.37   11.30
   3  -5   5  291.97   12.90
   3  -5   5  317.77   14.00
  -4   5  -5   19.60    2.50
   4  -5   5   15.80    3.90
   4  -5   5    6.70    7.20
  -5   5  -5  221.38    8.70
  -5   5  -5  244.78   21.10
   5  -5   5  236.68   13.50
  -6   5  -5   11.20   16.20
   6  -5   5    9.20    5.70
  -7   5  -5  102.19   19.50
   7  -5   5   70.19   10.10
   8   4  -5   -9.40   11.70
  -8  -4   5    5.70    8.70
  -8  -4   5   11.60    8.90
   7   4  -5   15.70    9.50
  -7  -4   5   13.60    7.10
  -7  -4   5    8.40    6.50
   6   4  -5    8.40    7.60
  -6  -4   5   16.30    5.10
  -6  -4   5   15.60    4.20
   5   4  -5   40.80    6.90
  -5  -4   5   41.90    5.70
  -5  -4   5   40.00    5.00
  -5  -4   5   39.20    5.70
   4   4  -5   39.30    6.00
   4   4  -5   29.10    8.20
  -4  -4   5   29.20    4.20
  -4  -4   5   31.20    4.70
  -4  -4   5   24.50    4.10
   3   4  -5  288.57   12.80
   3   4  -5  255.27   16.70
  -3  -4   5  273.77   12.80
  -3  -4   5  280.47   11.50
  -3  -4   5  292.17   12.00
  -3  -4   5  280.67   12.60
   2   4  -5   68.29    5.90
   2   4  -5   79.29    5.20
  -2  -4   5   71.99    5.40
  -2  -4   5   70.39    6.90
  -2  -4   5   72.69    6.00
   1   4  -5  396.46   14.60
  -1  -4   5  410.26   15.30
  -1  -4   5  422.46   18.70
  -1  -4   5  387.76   19.30
  -1  -4   5  400.36   14.80
   0   4  -5   59.09    4.10
   0  -4   5   67.39    9.00
   0  -4   5   49.40    7.50
   0  -4   5   42.40    5.80
   0  -4   5   52.29    4.30
   0  -4   5   56.59    4.70
  -1   4  -5   -0.40    3.90
  -1   4  -5    3.20    1.80
   1  -4   5    2.10    4.70
   1  -4   5    2.00    2.40
   1  -4   5    7.20    2.40
  -2   4  -5  642.74   28.10
  -2   4  -5  654.23   21.50
  -2   4  -5  634.64   23.50
   2  -4   5  629.74   22.70
   2  -4   5  592.24   27.20
   2  -4   5  656.03   22.90
  -3   4  -5 2544.65   86.19
  -3   4  -5 2867.01   83.79
  -3   4  -5 2694.13   92.39
   3  -4   5 2506.85   90.39
   3  -4   5 2706.33   85.59
   3  -4   5 2769.02   85.09
  -4   4  -5  599.54   20.10
  -4   4  -5  587.74   29.20
   4  -4   5  573.04   21.30
   4  -4   5  584.04   22.60
  -5   4  -5  388.66   13.90
   5  -4   5  372.66   17.20
   5  -4   5  357.76   14.90
  -6   4  -5   27.40    5.70
  -6   4  -5   36.30   12.20
   6  -4   5   30.90    7.40
  -7   4  -5   -2.40   14.00
   7  -4   5    7.00    6.30
   8   3  -5   24.10   10.20
  -8  -3   5   32.50    8.40
  -8  -3   5   15.20    9.10
   7   3  -5  106.29   13.50
  -7  -3   5  110.29   10.50
  -7  -3   5  109.99   12.70
   6   3  -5  130.59   11.70
  -6  -3   5  126.39   10.20
  -6  -3   5  119.59   10.10
  -6  -3   5  116.09    7.70
   5   3  -5   63.79    7.40
  -5  -3   5   74.09    5.30
  -5  -3   5   73.59    7.00
  -5  -3   5   80.09    7.60
   4   3  -5   -3.30    4.90
   4   3  -5   -0.10    3.60
  -4  -3   5    2.90    2.80
  -4  -3   5    4.50    2.90
   3   3  -5  463.95   17.50
   3   3  -5  440.96   21.30
   3   3  -5  484.45   17.10
  -3  -3   5  464.45   15.80
  -3  -3   5  482.05   17.40
  -3  -3   5  473.15   18.10
   2   3  -5   71.49    9.40
   2   3  -5   72.49    4.60
  -2  -3   5   90.19    6.80
  -2  -3   5   75.49    5.40
  -2  -3   5   71.89    4.50
   1   3  -5  326.97   12.30
  -1  -3   5  327.97   15.80
  -1  -3   5  322.17   11.70
  -1  -3   5  329.57   16.40
  -1  -3   5  351.16   12.80
  -1  -3   5  343.77   13.10
   0   3  -5  654.93   22.30
   0   3  -5  663.53   26.70
   0  -3   5  674.83   23.10
   0  -3   5  675.63   22.80
   0  -3   5  647.24   22.00
  -1   3  -5   12.80    4.30
  -1   3  -5    3.60    2.30
  -1   3  -5    7.00    1.80
   1  -3   5    9.00    1.90
   1  -3   5    4.50    2.10
   1  -3   5    4.60    4.00
  -2   3  -5   25.80    6.10
  -2   3  -5   14.30    3.00
  -2   3  -5   20.20    2.80
   2  -3   5   17.40    2.90
   2  -3   5   17.50    5.10
   2  -3   5   20.80    3.60
  -3   3  -5   -0.50    3.30
  -3   3  -5    1.40    2.00
  -3   3  -5   -1.80    4.40
   3  -3   5    3.00    3.10
   3  -3   5   -1.00    2.40
   3  -3   5   -3.10    5.10
  -4   3  -5  182.98    8.70
  -4   3  -5  162.48   14.80
   4  -3   5  165.58    9.60
   4  -3   5  174.98    9.40
  -5   3  -5    3.70    3.00
   5  -3   5    3.80    3.60
   5  -3   5   -1.80    3.60
  -6   3  -5   60.19    7.10
  -6   3  -5   41.60   11.40
   6  -3   5   49.80    7.10
  -7   3  -5   17.20   12.80
   7  -3   5   14.40    6.70
   9   2  -5    9.00   11.50
   8   2  -5   -7.00    7.80
  -8  -2   5   -5.40    7.80
   7   2  -5    2.50    5.90
  -7  -2   5   -0.60    5.00
  -7  -2   5   -1.30    5.30
  -7  -2   5   -2.10    5.40
   6   2  -5  250.87   13.30
  -6  -2   5  240.38   11.00
  -6  -2   5  256.17   13.00
   5   2  -5    1.20    3.50
  -5  -2   5   -0.60    2.40
  -5  -2   5    0.90    3.10
  -5  -2   5    0.80    3.00
  -5  -2   5   -1.60    2.80
   4   2  -5   42.00    5.80
   4   2  -5   38.40    6.40
  -4  -2   5   34.10    3.20
  -4  -2   5   31.30    4.30
  -4  -2   5   27.20    4.00
  -4  -2   5   31.20    3.80
   3   2  -5  683.83   27.90
   3   2  -5  711.83   23.70
  -3  -2   5  695.23   24.80
  -3  -2   5  724.53   24.50
   2   2  -5   -2.60    3.50
   2   2  -5    0.20    1.40
  -2  -2   5   -0.80    2.10
  -2  -2   5   -0.20    1.80
   1   2  -5  424.06   15.20
  -1  -2   5  433.56   18.90
  -1  -2   5  411.06   18.10
  -1  -2   5  438.96   15.80
   0   2  -5 2393.86   74.69
   0   2  -5 2468.05   75.49
   0   2  -5 2400.86   79.39
   0  -2   5 2347.86   75.99
   0  -2   5 2422.76   74.59
  -1   2  -5  488.25   17.30
  -1   2  -5  492.05   17.00
   1  -2   5  505.65   18.10
   1  -2   5  472.35   16.80
   1  -2   5  483.65   21.40
  -2   2  -5 1916.71   60.99
  -2   2  -5 1948.11   60.99
  -2   2  -5 1869.71   66.09
   2  -2   5 1898.61   61.59
   2  -2   5 1872.61   65.39
   2  -2   5 1952.40   60.89
  -3   2  -5   53.99    5.30
  -3   2  -5   42.80    7.30
  -3   2  -5   65.09    5.30
   3  -2   5   63.69    8.80
   3  -2   5   64.19    5.70
   3  -2   5   63.09    5.10
  -4   2  -5   40.90    7.70
  -4   2  -5   43.50    5.00
   4  -2   5   39.90    5.10
   4  -2   5   50.19    6.00
  -5   2  -5   19.00    4.40
  -5   2  -5    6.50    8.30
   5  -2   5   17.30    4.30
  -6   2  -5  177.98   19.80
  -6   2  -5  168.78   11.40
   6  -2   5  161.68   10.70
   6  -2   5  164.08   12.00
  -7   2  -5   -2.40    6.10
  -7   2  -5    4.80   11.70
   7  -2   5    0.80    6.80
   9   1  -5   -3.20    9.20
  -9  -1   5   12.00   10.80
  -9  -1   5   17.80   11.90
   8   1  -5   21.40    7.20
  -8  -1   5    4.10    7.10
  -8  -1   5   -1.40    7.10
   7   1  -5    5.90    5.10
  -7  -1   5   -2.70    4.50
  -7  -1   5    0.30    5.30
   6   1  -5   60.89    7.00
  -6  -1   5   57.19    6.70
  -6  -1   5   67.99    7.10
  -6  -1   5   61.19    6.90
   5   1  -5   74.89    5.70
   5   1  -5   74.59   10.40
  -5  -1   5   79.99    6.40
  -5  -1   5   79.69    5.90
  -5  -1   5   73.69    5.60
  -5  -1   5   73.69    6.70
   4   1  -5    7.10    2.00
   4   1  -5    6.20    3.00
   4   1  -5   15.90    4.60
  -4  -1   5    7.50    2.60
   3   1  -5  311.17   15.20
   3   1  -5  322.57   11.80
  -3  -1   5  320.37   12.50
  -3  -1   5  306.67   12.70
   2   1  -5 1400.46   45.10
   2   1  -5 1423.96   48.90
  -2  -1   5 1424.46   46.70
  -2  -1   5 1400.46   45.70
   1   1  -5  258.17   10.40
  -1  -1   5  282.67   13.10
  -1  -1   5  287.37   13.50
  -1  -1   5  279.77   11.40
   0   1  -5 1213.28   42.00
   0   1  -5 1206.68   37.60
   0   1  -5 1173.68   38.90
   0  -1   5 1218.18   39.60
   0  -1   5 1157.88   42.20
   0  -1   5 1205.28   37.70
  -1   1  -5 2217.98   79.09
  -1   1  -5 2615.84   79.79
  -1   1  -5 2419.66   82.99
   1  -1   5 2653.23   80.29
   1  -1   5 2551.14   78.69
   1  -1   5 2693.63   83.69
  -2   1  -5 2497.85   80.09
  -2   1  -5 2531.85   85.09
  -2   1  -5 2519.45   80.89
   2  -1   5 2572.94   81.29
   2  -1   5 2665.63   84.69
   2  -1   5 2509.45   80.19
  -3   1  -5 1364.16   46.20
  -3   1  -5 1433.16   51.69
  -3   1  -5 1411.86   46.90
   3  -1   5 1385.26   49.99
   3  -1   5 1425.16   46.70
   3  -1   5 1451.05   47.10
  -4   1  -5  565.34   21.10
  -4   1  -5  553.64   26.20
  -4   1  -5  510.45   20.80
   4  -1   5  531.75   20.70
   4  -1   5  539.45   21.00
   4  -1   5  520.75   24.30
  -5   1  -5  311.87   21.20
  -5   1  -5  338.57   15.40
   5  -1   5  320.77   16.50
   5  -1   5  294.57   14.50
  -6   1  -5   -1.10    5.00
  -6   1  -5    2.30    9.40
   6  -1   5    0.60    4.40
   6  -1   5   -2.90    5.30
  -7   1  -5   23.90    7.30
  -7   1  -5   58.99   14.30
   7  -1   5   30.30    8.30
  -8   1  -5   -5.00   17.30
   8  -1   5  -14.90    9.50
   9   0  -5   12.70    8.70
  -9   0   5   37.80   13.00
   8   0  -5   12.00    6.60
  -8   0   5    9.60    8.10
  -8   0   5    7.40    5.80
   7   0  -5  101.99    9.20
  -7   0   5  102.59    9.00
  -7   0   5   89.29    9.20
  -7   0   5  100.59   10.60
  -7   0   5   92.49   11.70
   6   0  -5  424.16   16.20
  -6   0   5  429.36   16.80
  -6   0   5  380.86   16.30
  -6   0   5  430.56   18.60
  -6   0   5  392.46   16.20
   5   0  -5   29.30    4.20
   5   0  -5   17.30    4.70
  -5   0   5   37.40    5.10
  -5   0   5   19.90    3.50
  -5   0   5   22.90    3.50
   4   0  -5  373.76   13.20
   4   0  -5  361.76   16.40
   4   0  -5  395.06   13.60
  -4   0   5  369.36   13.70
  -4   0   5  373.56   14.50
  -4   0   5  369.26   15.00
   3   0  -5    8.90    1.90
   3   0  -5    8.20    3.40
  -3   0   5    9.60    2.50
  -3   0   5   14.10    2.50
   2   0  -5 1871.61   60.89
   2   0  -5 1790.92   57.49
  -2   0   5 1851.31   58.49
  -2   0   5 1767.52   58.19
   1   0  -5  297.37   11.50
  -1   0   5  295.27   12.00
  -1   0   5  298.87   13.10
  -1   0   5  285.27   13.40
   0   0  -5 1232.58   41.20
   0   0  -5 1153.38   38.90
   0   0  -5 1199.98   37.50
   0   0   5 1196.38   41.40
   0   0   5 1135.69   39.30
   0   0   5 1185.58   38.10
  -1   0  -5 1730.93   53.99
  -1   0  -5 1670.03   55.39
  -1   0  -5 1669.53   57.59
   1   0   5 1713.63   55.59
   1   0   5 1754.72   57.89
   1   0   5 1706.43   54.49
  -2   0  -5  540.35   19.10
  -2   0  -5  551.94   23.20
  -2   0  -5  542.85   20.40
   2   0   5  535.15   20.30
   2   0   5  542.35   22.40
   2   0   5  522.15   19.60
  -3   0  -5  285.77   12.10
  -3   0  -5  304.67   13.30
  -3   0  -5  284.27   16.10
   3   0   5  290.37   12.70
   3   0   5  272.27   14.50
   3   0   5  282.97   13.00
  -4   0  -5   59.39    7.00
  -4   0  -5   56.99    6.80
  -4   0  -5   76.09   10.40
   4   0   5   55.39    6.00
   4   0   5   63.59    8.40
   4   0   5   54.89    6.50
  -5   0  -5  200.28   12.00
  -5   0  -5  224.88   17.30
   5   0   5  154.98   15.60
   5   0   5  163.78   11.40
  -6   0  -5  441.86   27.30
  -6   0  -5  429.16   20.20
   6   0   5  388.86   24.40
  -7   0  -5   21.10   13.40
   7   0   5   40.10    9.30
  -8   0  -5   20.70   18.10
  -8   0  -5   26.10   14.40
   8   0   5   32.70   15.40
   9  -1  -5   22.00    8.90
  -9   1   5   13.30   13.20
  -8   1   5    5.70    5.20
  -8   1   5   15.20    8.40
   7  -1  -5   93.29    8.50
  -7   1   5   67.89    8.30
  -7   1   5   78.89    7.60
  -7   1   5   65.59    9.10
  -7   1   5   77.99   11.50
   6  -1  -5  106.59    7.70
  -6   1   5  102.29    7.70
  -6   1   5  121.99    9.90
  -6   1   5  103.09    9.60
  -6   1   5  125.09    7.40
   5  -1  -5   70.89    5.20
   5  -1  -5   53.99    7.40
   5  -1  -5   65.99    4.60
  -5   1   5   57.89    7.00
  -5   1   5   64.19    5.70
  -5   1   5   69.09    6.80
   4  -1  -5 1670.83   52.19
   4  -1  -5 1637.04   53.59
   4  -1  -5 1662.93   52.29
   4  -1  -5 1649.93   54.99
  -4   1   5 1649.44   53.49
  -4   1   5 1661.33   53.79
   3  -1  -5  211.78    9.80
   3  -1  -5  215.78    8.80
   3  -1  -5  220.98   11.30
  -3   1   5  222.68    9.90
  -3   1   5  221.08    9.60
   2  -1  -5  967.40   33.00
   2  -1  -5  997.00   33.10
   2  -1  -5 1024.10   35.60
  -2   1   5 1053.59   33.20
  -2   1   5  992.20   33.80
   1  -1  -5  601.44   20.20
   1  -1  -5  589.44   20.90
  -1   1   5  591.44   20.60
  -1   1   5  580.24   21.20
  -1   1   5  587.64   21.50
   0  -1  -5   27.30    3.10
   0  -1  -5   27.90    3.60
   0   1   5   28.60    4.00
   0   1   5   24.60    3.30
  -1  -1  -5   61.29    5.30
  -1  -1  -5   51.19    4.10
  -1  -1  -5   51.09    5.70
   1   1   5   56.89    6.10
   1   1   5   52.19    4.80
   1   1   5   54.79    5.00
  -2  -1  -5  267.67   12.20
  -2  -1  -5  244.58   10.70
  -2  -1  -5  266.57   13.80
   2   1   5  248.28   11.90
   2   1   5  261.57   12.90
   2   1   5  251.77   11.70
  -3  -1  -5   34.20    4.70
  -3  -1  -5   50.19    6.30
  -3  -1  -5   42.60    7.10
   3   1   5   48.30    6.20
   3   1   5   44.90    5.50
   3   1   5   59.39    6.20
  -4  -1  -5  662.53   25.30
  -4  -1  -5  640.34   28.60
   4   1   5  586.04   25.00
   4   1   5  647.04   25.40
   4   1   5  633.04   24.70
  -5  -1  -5  137.19   14.90
  -5  -1  -5  127.19   10.70
   5   1   5  126.29   11.40
  -6  -1  -5  125.29   13.40
  -6  -1  -5  105.39   14.10
   6   1   5  105.79   14.00
  -7  -1  -5  154.08   18.20
  -7  -1  -5  165.18   24.30
   7   1   5  169.48   16.60
  -8   2   5   14.90    9.60
   7  -2  -5   77.09    8.70
  -7   2   5   68.49    6.90
  -7   2   5   76.89   10.40
   6  -2  -5  271.77   11.80
  -6   2   5  229.58   10.30
  -6   2   5  213.38   11.20
  -6   2   5  228.78   14.00
   5  -2  -5  243.88   13.30
   5  -2  -5  253.37    9.50
   5  -2  -5  261.17   11.10
   5  -2  -5  230.28   12.60
  -5   2   5  250.57   12.40
  -5   2   5  248.38   11.20
   4  -2  -5   30.70    4.80
   4  -2  -5   23.50    4.30
   4  -2  -5   29.00    3.20
   4  -2  -5   29.70    4.20
  -4   2   5   28.10    3.60
  -4   2   5   31.40    4.20
   3  -2  -5    4.30    2.30
   3  -2  -5    0.20    3.30
   3  -2  -5    1.70    3.20
   3  -2  -5    4.40    1.70
  -3   2   5   10.50    2.90
   2  -2  -5  117.19    6.40
   2  -2  -5  104.59    7.90
  -2   2   5  114.49    6.80
  -2   2   5  124.09    6.50
  -2   2   5  119.19    5.80
   1  -2  -5   12.80    2.60
   1  -2  -5    8.20    3.60
  -1   2   5    6.40    2.50
  -1   2   5    9.60    2.40
  -1   2   5    7.80    3.10
  -1   2   5   13.20    3.20
   0  -2  -5  904.01   30.50
   0  -2  -5  875.41   30.90
   0   2   5  838.42   30.70
   0   2   5  939.51   31.20
   0   2   5  892.81   31.40
   0   2   5  866.31   31.00
  -1  -2  -5    3.20    2.50
  -1  -2  -5    7.20    3.00
  -1  -2  -5    2.60    2.40
   1   2   5    6.50    3.00
   1   2   5   -2.00    2.70
  -2  -2  -5   -5.50    3.20
  -2  -2  -5   -2.80    2.00
  -2  -2  -5   -1.90    2.90
   2   2   5    4.70    2.80
   2   2   5   -1.70    3.10
   2   2   5   -1.00    2.90
  -3  -2  -5   23.80    5.30
  -3  -2  -5   22.20    3.90
  -3  -2  -5   28.20    5.80
   3   2   5   22.90    4.20
   3   2   5   20.50    4.30
   3   2   5   17.70    4.30
  -4  -2  -5  141.19   13.00
  -4  -2  -5  120.09   10.40
   4   2   5  113.79    9.00
   4   2   5  126.39   10.50
  -5  -2  -5    7.20    5.20
  -5  -2  -5   13.20    7.70
   5   2   5   14.60    7.20
  -6  -2  -5   16.60   10.30
   6   2   5   21.40    8.60
  -7  -2  -5   17.10   14.10
  -7  -2  -5    8.60    8.70
   7   2   5   14.00    9.70
   8  -3  -5    3.70    6.50
  -8   3   5   -9.50   10.40
   7  -3  -5   63.49    7.30
  -7   3   5   79.59   11.60
  -7   3   5   63.99    7.70
   6  -3  -5   95.59    8.20
   6  -3  -5   81.49   11.10
  -6   3   5   84.69    5.70
  -6   3   5   82.79   10.70
  -6   3   5   70.99    7.50
   5  -3  -5  464.75   20.00
   5  -3  -5  545.55   19.30
   5  -3  -5  467.95   21.80
   5  -3  -5  501.45   17.00
  -5   3   5  511.65   21.10
  -5   3   5  517.85   18.90
   4  -3  -5   14.60    4.20
   4  -3  -5   16.80    3.50
   4  -3  -5   17.20    5.30
   4  -3  -5   12.40    2.30
  -4   3   5   16.00    3.50
  -4   3   5   17.90    3.70
   3  -3  -5  152.78    9.30
   3  -3  -5  160.78    8.60
   3  -3  -5  156.88   10.60
   3  -3  -5  161.68    7.60
  -3   3   5  171.58    8.00
  -3   3   5  157.08    8.60
   2  -3  -5  476.25   20.30
   2  -3  -5  509.95   18.70
   2  -3  -5  507.25   19.60
  -2   3   5  505.35   19.00
  -2   3   5  493.45   19.00
  -2   3   5  518.55   17.30
   1  -3  -5  368.76   16.00
   1  -3  -5  350.46   14.80
  -1   3   5  375.56   15.70
  -1   3   5  343.07   14.70
  -1   3   5  369.96   12.60
  -1   3   5  358.96   14.30
   0  -3  -5  193.08   10.30
   0  -3  -5  205.58   10.30
   0   3   5  192.38   10.20
   0   3   5  207.18    9.30
   0   3   5  197.78    9.30
   0   3   5  198.58   11.20
  -1  -3  -5 1648.14   54.59
  -1  -3  -5 1562.94   53.79
  -1  -3  -5 1669.23   53.59
   1   3   5 1562.64   54.09
   1   3   5 1662.03   52.69
   1   3   5 1661.43   55.89
  -2  -3  -5  511.15   20.80
  -2  -3  -5  520.45   21.10
  -2  -3  -5  475.45   19.40
   2   3   5  501.45   18.70
   2   3   5  488.75   20.40
   2   3   5  512.55   22.10
  -3  -3  -5  101.69   10.20
  -3  -3  -5  109.59    9.70
   3   3   5  103.09   10.30
   3   3   5  108.09    7.10
  -4  -3  -5  242.88   16.20
  -4  -3  -5  210.48   13.80
   4   3   5  262.87   15.70
   4   3   5  215.68   11.30
  -5  -3  -5  514.95   26.80
  -6  -3  -5   57.29   12.70
  -6  -3  -5   56.59    9.60
   6   3   5   32.40   10.20
  -7  -3  -5   18.10   15.00
  -7  -3  -5   -3.20   10.10
   7   3   5   16.70   10.60
   8  -4  -5    7.70    7.60
  -8   4   5   28.80   12.80
  -7   4   5    0.00    8.60
   6  -4  -5   70.59    9.10
  -6   4   5   71.09    5.20
  -6   4   5   94.99   11.10
   5  -4  -5  170.98   11.20
   5  -4  -5  191.88   11.10
   5  -4  -5  184.88    7.50
   5  -4  -5  162.78   16.00
  -5   4   5  185.78    9.50
  -5   4   5  175.18   12.40
   4  -4  -5   36.50    5.40
   4  -4  -5   33.50    4.80
   4  -4  -5   31.90    7.30
   4  -4  -5   31.40    3.80
  -4   4   5   36.20    5.30
  -4   4   5   39.10    4.80
   3  -4  -5  256.77   12.40
   3  -4  -5  260.57   11.30
   3  -4  -5  262.67   15.10
   3  -4  -5  260.47   12.90
  -3   4   5  267.77   11.30
  -3   4   5  250.67   11.60
   2  -4  -5   78.29    8.70
   2  -4  -5   68.09    7.00
   2  -4  -5   73.09    6.20
  -2   4   5   76.39    7.30
  -2   4   5   74.99    4.80
  -2   4   5   73.49    6.20
   1  -4  -5    8.60    3.20
   1  -4  -5    6.70    4.20
  -1   4   5   12.40    3.90
  -1   4   5    9.60    3.40
   0  -4  -5  189.58   10.40
   0  -4  -5  184.08   11.00
   0   4   5  188.08   11.90
   0   4   5  170.68   10.10
  -1  -4  -5   -5.50    3.30
  -1  -4  -5   -5.30    3.50
   1   4   5    3.00    1.80
   1   4   5   -1.90    4.50
   1   4   5    1.60    3.60
  -2  -4  -5  403.66   18.80
  -2  -4  -5  450.95   19.50
  -2  -4  -5  464.65   18.30
   2   4   5  384.86   16.80
   2   4   5  453.15   21.40
  -3  -4  -5  119.79   10.10
  -3  -4  -5  128.29   10.70
   3   4   5  102.59   12.30
   3   4   5  109.39    7.00
  -4  -4  -5    9.30    6.70
   4   4   5   13.50    4.10
   4   4   5   -4.90    7.00
  -5  -4  -5  144.59   14.60
  -5  -4  -5  169.28   17.50
   5   4   5  130.09   16.70
  -6  -4  -5   66.49   14.40
  -6  -4  -5   84.59   12.10
   6   4   5   92.29   16.00
  -7  -4  -5   15.30   16.00
  -7  -4  -5   23.60   11.80
   7   4   5  -10.60   14.20
   7  -5  -5    7.50    7.50
  -7   5   5    5.50   10.80
  -6   5   5   30.90    9.10
   5  -5  -5  140.49    6.50
   5  -5  -5  127.89   10.60
   5  -5  -5  164.08   11.10
  -5   5   5  161.88   13.10
   4  -5  -5   16.90    4.60
   4  -5  -5   28.40    5.70
   4  -5  -5   16.10    3.20
  -4   5   5   26.20    4.30
  -4   5   5   31.90    5.80
   3  -5  -5   23.90    8.10
   3  -5  -5   40.90    4.70
   3  -5  -5   40.40    5.60
   3  -5  -5   38.40    6.10
  -3   5   5   41.20    5.00
  -3   5   5   42.30    6.00
   2  -5  -5   20.20    7.20
   2  -5  -5   26.00    4.40
  -2   5   5   22.20    4.40
  -2   5   5   15.20    5.20
   1  -5  -5 1279.87   42.60
   1  -5  -5 1127.19   44.70
  -1   5   5 1289.27   44.60
  -1   5   5 1208.18   42.10
   0  -5  -5   45.80    5.80
   0  -5  -5   42.20    6.80
   0   5   5   44.40    5.80
   0   5   5   37.10    6.40
  -1  -5  -5   22.50    5.30
   1   5   5   19.50    5.80
  -2  -5  -5  345.47   17.30
   2   5   5  334.27   12.30
   2   5   5  344.37   20.20
  -3  -5  -5  328.77   16.60
   3   5   5  326.67   20.70
   3   5   5  309.77   12.80
  -4  -5  -5    2.70    7.10
  -4  -5  -5   17.80    8.00
   4   5   5   15.00   10.00
   4   5   5   10.00    4.60
  -5  -5  -5   -3.10    8.80
  -5  -5  -5    6.10    7.40
   5   5   5   -8.50   10.70
  -6  -5  -5   -3.10   10.00
  -6  -5  -5   -9.30   12.30
   6   5   5   -1.30   13.90
   7  -6  -5   -0.60    8.60
  -7   6   5    9.60   13.40
   6  -6  -5   14.40    7.90
  -6   6   5   16.70   10.10
   5  -6  -5   47.80    9.20
   5  -6  -5   44.00    4.20
  -5   6   5   54.49    9.30
   4  -6  -5   69.09    6.30
   4  -6  -5   64.49    9.10
  -4   6   5   77.29   10.30
  -4   6   5   73.49    7.40
   3  -6  -5   29.90    6.90
   3  -6  -5   26.60    4.90
   3  -6  -5   25.90    5.20
  -3   6   5   25.00    5.00
  -3   6   5   36.40    5.40
   2  -6  -5  282.57   13.80
  -2   6   5  272.07   15.80
  -2   6   5  264.87   13.60
   1  -6  -5   48.50    6.50
  -1   6   5   47.20    7.90
  -1   6   5   52.29    6.50
   0  -6  -5  240.78   14.10
   0   6   5  236.68   16.30
  -1  -6  -5  222.58   14.20
   1   6   5  227.58   19.50
  -2  -6  -5  564.44   25.60
   2   6   5  602.44   29.40
  -3  -6  -5  237.68   16.40
  -3  -6  -5  248.98   13.80
   3   6   5  263.97   20.70
  -4  -6  -5   23.10    8.00
  -4  -6  -5   23.00    8.70
   4   6   5   21.90   11.40
  -5  -6  -5   64.79   12.80
  -5  -6  -5   78.79   12.10
   5   6   5   79.89   16.80
   6  -7  -5   -4.90    8.90
   5  -7  -5   38.10    8.50
  -5   7   5   43.60   11.20
   4  -7  -5  100.89   13.90
   4  -7  -5   88.19    7.90
  -4   7   5  115.19   11.70
   3  -7  -5    7.90    4.90
  -3   7   5   13.10    5.10
   2  -7  -5   11.00    5.10
  -2   7   5   22.60    7.00
  -2   7   5   -0.50    5.50
   1  -7  -5  337.27   17.10
  -1   7   5  320.47   19.90
   0  -7  -5    3.50    5.80
   0   7   5   -7.50    7.30
  -1  -7  -5  345.27   19.30
   1   7   5  342.27   22.80
  -2  -7  -5   56.19    9.60
   2   7   5   52.89   11.00
  -3  -7  -5   54.29   10.20
   3   7   5   27.00   11.30
  -4  -7  -5   16.50    8.50
   4   7   5    1.30   13.40
  -5  -7  -5   13.00   11.30
   5   7   5   16.10   15.90
   5  -8  -5   -5.00    9.40
   4  -8  -5   23.40    9.60
   3  -8  -5  142.89   12.00
   3  -8  -5  163.58   17.30
   2  -8  -5   18.60    6.40
  -2   8   5   25.70    8.10
  -1   8   5    6.60    7.50
   0  -8  -5   40.00    8.50
   0   8   5   43.70   10.40
  -1  -8  -5   17.80    7.90
   1   8   5   -4.20   11.00
  -2  -8  -5    6.60    8.10
   2   8   5    2.50   11.70
  -3  -8  -5   81.59   12.70
   3   8   5   79.09   16.80
  -4  -8  -5   -4.90   10.70
   4   8   5   -5.90   18.20
   4  -9  -5  136.39   20.00
   3  -9  -5   -1.00   10.50
   2  -9  -5   87.09   10.40
  -2   9   5  101.29   15.00
   1  -9  -5   -3.30    7.70
  -1   9   5   -6.40    9.70
   0  -9  -5   -1.60    8.70
   0   9   5  -11.80   10.90
  -1  -9  -5  -15.90    8.50
   1   9   5   32.70   14.10
  -2  -9  -5   -0.30   10.80
   2   9   5    8.60   15.60
  -3 -10   6   13.90   10.30
  -3 -10   6    1.70    7.30
  -2 -10   6   -5.00    7.10
  -2 -10   6  -10.40    8.90
  -2 -10   6   -9.80    9.10
  -1 -10   6    6.80    8.70
  -1 -10   6   19.10    8.70
  -1 -10   6   16.40    8.40
   0 -10   6   -7.50    7.00
   0 -10   6   -4.30    7.90
   0 -10   6   -3.10    9.80
   1 -10   6   45.20    8.40
   1 -10   6   49.80   10.50
   1 -10   6   66.29   14.70
   2 -10   6  -11.80    8.50
   2 -10   6    5.80   15.40
   4   9  -6   29.20   12.20
  -4  -9   6   20.60    7.60
  -4  -9   6   16.90    9.90
  -3  -9   6  179.08   17.20
  -3  -9   6  154.98   13.10
  -2  -9   6   99.79   13.80
  -2  -9   6   91.09   10.90
  -2  -9   6   76.49   11.50
  -1  -9   6   44.30    9.10
  -1  -9   6   39.10    7.90
  -1  -9   6   50.69    9.10
   0  -9   6   61.69    8.00
   0  -9   6   49.99    8.60
   0  -9   6   59.69   11.40
   1  -9   6   49.00    7.50
   1  -9   6   51.09   12.90
   1  -9   6   45.70    7.90
   2  -9   6   11.50   13.60
   2  -9   6   31.40    6.00
   2  -9   6   21.20    7.70
  -3   9  -6   29.80   12.60
   3  -9   6   41.70    9.00
  -4   9  -6   23.90   15.20
   4  -9   6  -10.70    7.10
  -6  -8   6   39.70    9.40
   5   8  -6   -3.70   11.40
  -5  -8   6   -0.70    6.50
  -5  -8   6    2.50    8.70
   4   8  -6   17.50    9.40
  -4  -8   6    0.10    7.60
  -4  -8   6   13.90    6.00
   3   8  -6    9.50    7.20
  -3  -8   6   14.10    7.10
  -2  -8   6  197.48   14.00
  -2  -8   6  215.68   14.20
  -2  -8   6  211.08   13.90
  -1  -8   6  113.09   11.10
  -1  -8   6  127.79   10.60
  -1  -8   6  105.09   13.40
   0  -8   6   66.89    9.10
   0  -8   6   57.09    7.00
   0  -8   6   48.70   10.80
   1  -8   6   70.09    9.60
   1  -8   6   66.29    8.00
   2  -8   6    6.90    5.40
   2  -8   6    9.70    4.20
  -3   8  -6   26.00   11.30
   3  -8   6   25.50    5.80
   3  -8   6   29.10    4.60
  -4   8  -6   35.70   13.20
   4  -8   6   26.60    6.80
  -5   8  -6   12.60   14.40
   5  -8   6    8.40    7.60
   6   7  -6   -5.70   11.10
  -6  -7   6    2.10    9.10
  -6  -7   6    4.40    7.40
   5   7  -6   20.00    9.40
  -5  -7   6   11.80    6.30
  -5  -7   6   34.90    8.80
   4   7  -6   11.40    7.60
  -4  -7   6   -3.30    6.00
  -4  -7   6    8.50    4.90
  -4  -7   6   -2.90    5.70
   3   7  -6   38.30    7.30
  -3  -7   6   30.00    5.50
  -3  -7   6   41.90    6.90
  -3  -7   6   20.00    6.40
  -2  -7   6    5.00    6.60
  -2  -7   6   19.20    5.40
  -2  -7   6   17.70    5.70
  -1  -7   6    9.00    7.00
  -1  -7   6    7.00    4.60
  -1  -7   6   -1.10    3.90
  -1  -7   6   13.90    6.80
   0  -7   6  610.14   22.50
   0  -7   6  610.34   28.60
   0  -7   6  564.14   22.60
   0  -7   6  511.25   26.10
   1  -7   6  819.92   36.90
   1  -7   6  742.73   28.80
   1  -7   6  830.22   29.00
   1  -7   6  829.22   29.80
  -2   7  -6   29.70   14.80
   2  -7   6   17.50    4.10
   2  -7   6   22.50    4.80
   3  -7   6  293.47   12.70
   3  -7   6  312.67   15.30
   3  -7   6  296.87   17.40
  -4   7  -6   19.00   10.60
   4  -7   6   23.50    5.80
  -5   7  -6   16.40   12.80
   5  -7   6   15.30    7.40
  -7  -6   6  -17.00    8.30
  -7  -6   6   -2.70    9.40
   6   6  -6    5.20    9.30
  -6  -6   6   25.80    8.10
  -6  -6   6    5.60    6.20
   5   6  -6   15.00    7.50
  -5  -6   6   13.20    4.70
  -5  -6   6   11.90    5.30
  -5  -6   6   17.60    7.20
   4   6  -6    9.70    6.30
  -4  -6   6   18.30    4.80
  -4  -6   6   17.50    5.50
   3   6  -6  251.37   13.50
  -3  -6   6  252.97   13.10
  -3  -6   6  235.88   12.60
  -2  -6   6   18.10    5.40
  -2  -6   6   12.10    4.20
  -2  -6   6   10.30    4.50
  -1  -6   6   14.40    4.00
  -1  -6   6   19.20    6.20
  -1  -6   6   -1.40    7.80
  -1  -6   6   11.70    3.60
  -1  -6   6    5.90    4.60
  -1  -6   6   12.20    5.20
   0  -6   6  291.57   18.30
   0  -6   6  271.77   15.00
   0  -6   6  273.97   12.70
   0  -6   6  270.97   12.40
   0  -6   6  259.97   19.00
  -1   6  -6  295.37   18.30
  -1   6  -6  277.57   11.40
   1  -6   6  277.37   12.70
   1  -6   6  265.47   16.10
   1  -6   6  271.97   12.90
  -2   6  -6  437.86   23.80
  -2   6  -6  424.96   15.40
   2  -6   6  387.06   16.90
   2  -6   6  428.96   17.40
  -3   6  -6    4.20    7.10
  -3   6  -6    1.40    2.40
   3  -6   6   -1.70    4.20
  -4   6  -6   53.39    4.70
  -4   6  -6   40.10   10.50
   4  -6   6   42.80    6.10
  -5   6  -6   60.69   13.60
   5  -6   6   56.79    7.70
  -6   6  -6    8.00   13.60
   6  -6   6   -2.60    7.40
  -8  -5   6  -10.60    9.50
   7   5  -6    7.20    9.90
  -7  -5   6   -0.80    6.90
  -7  -5   6    4.00    7.90
   6   5  -6    8.50    8.50
  -6  -5   6   12.00    5.60
  -6  -5   6    6.00    6.60
   5   5  -6    4.00    6.10
  -5  -5   6   22.30    3.90
  -5  -5   6   17.90    4.90
   4   5  -6    5.90    5.20
  -4  -5   6    2.30    3.00
  -4  -5   6   -1.70    3.40
   3   5  -6  139.39    9.20
  -3  -5   6  134.99    8.30
  -3  -5   6  149.88    9.70
  -3  -5   6  143.69    9.40
  -2  -5   6  742.33   27.20
  -2  -5   6  754.02   29.10
  -2  -5   6  700.03   31.50
  -2  -5   6  748.83   27.50
  -2  -5   6  768.32   26.90
   1   5  -6   49.10    4.80
  -1  -5   6   47.30    6.10
  -1  -5   6   48.30    7.80
  -1  -5   6   54.59    9.00
  -1  -5   6   45.40    5.00
  -1  -5   6   52.39    7.00
   0   5  -6  131.89    7.00
   0  -5   6  130.79    8.00
   0  -5   6  138.69    7.40
   0  -5   6  150.18    9.80
   0  -5   6  142.59   13.40
   0  -5   6  124.09   13.00
  -1   5  -6 1607.44   59.49
  -1   5  -6 1647.44   52.29
   1  -5   6 1690.23   53.39
   1  -5   6 1619.34   60.09
   1  -5   6 1612.94   53.49
   1  -5   6 1624.64   54.79
  -2   5  -6   21.40    3.10
  -2   5  -6   18.20    6.60
   2  -5   6   23.70    4.30
   2  -5   6   15.90    3.70
  -3   5  -6  499.65   17.70
  -3   5  -6  500.25   26.50
   3  -5   6  485.55   19.50
   3  -5   6  510.55   19.90
  -4   5  -6  188.68    8.50
   4  -5   6  192.58   10.70
   4  -5   6  181.58   11.30
  -5   5  -6   27.90   10.70
  -5   5  -6   27.80    3.50
   5  -5   6   34.60    7.00
  -6   5  -6  112.69   18.80
   6  -5   6  118.99   12.40
  -8  -4   6   -6.50    8.60
  -8  -4   6    6.10    8.90
   7   4  -6   -6.60    8.40
  -7  -4   6   -2.60    6.40
  -7  -4   6   -5.80    6.20
   6   4  -6   37.60    8.60
  -6  -4   6   38.80    4.60
  -6  -4   6   38.70    6.70
   5   4  -6   35.10    6.40
  -5  -4   6   40.10    5.10
  -5  -4   6   50.19   10.20
  -5  -4   6   39.80    8.10
   4   4  -6   77.69    7.80
  -4  -4   6   77.49    7.10
  -4  -4   6   69.99    5.30
   3   4  -6   13.40    7.50
   3   4  -6   11.40    3.40
  -3  -4   6    9.90    2.50
  -3  -4   6    7.80    3.50
  -3  -4   6    8.50    3.40
   2   4  -6  725.13   24.80
  -2  -4   6  721.63   25.00
  -2  -4   6  736.13   28.10
  -2  -4   6  704.83   24.10
  -2  -4   6  686.13   29.80
  -2  -4   6  737.63   25.60
   1   4  -6  456.35   16.40
  -1  -4   6  451.15   15.90
  -1  -4   6  439.36   20.90
  -1  -4   6  429.46   21.70
  -1  -4   6  460.85   17.40
   0   4  -6  343.57   13.20
   0  -4   6  335.77   14.20
   0  -4   6  343.67   14.40
   0  -4   6  371.76   19.30
   0  -4   6  357.66   13.10
   0  -4   6  345.37   19.00
  -1   4  -6  767.02   25.00
  -1   4  -6  699.33   25.80
  -1   4  -6  711.83   30.90
   1  -4   6  715.03   25.90
   1  -4   6  756.12   25.30
   1  -4   6  736.63   31.50
  -2   4  -6  116.39    7.90
  -2   4  -6  116.69   11.80
  -2   4  -6  112.99    6.30
   2  -4   6  120.29    7.10
   2  -4   6  122.09   13.00
   2  -4   6   98.69    7.40
  -3   4  -6   52.99    5.10
  -3   4  -6   52.19    7.00
  -3   4  -6   57.69   10.40
   3  -4   6   47.50    5.50
  -4   4  -6   26.40    3.80
  -4   4  -6   27.60   10.20
   4  -4   6   21.90    4.50
   4  -4   6   21.90    4.60
  -5   4  -6  167.28   19.50
  -5   4  -6  197.58    9.60
   5  -4   6  200.68   12.40
   5  -4   6  189.48   11.10
  -6   4  -6  -15.10   11.60
   6  -4   6    0.60    5.30
  -7   4  -6  -14.70   15.90
   7  -4   6    4.00    7.40
   8   3  -6   19.60   10.50
  -8  -3   6   13.40    8.20
  -8  -3   6    9.60    7.90
   7   3  -6   10.80    7.60
  -7  -3   6    5.30    5.80
  -7  -3   6    6.40    6.00
   6   3  -6  121.89   11.40
  -6  -3   6  121.59    7.80
  -6  -3   6  115.29   10.30
   5   3  -6  127.59    9.60
  -5  -3   6  128.09    9.00
  -5  -3   6  123.19    6.40
  -5  -3   6  126.19    8.80
   4   3  -6  110.99   15.30
  -4  -3   6  108.19    7.60
  -4  -3   6  116.19    8.10
  -4  -3   6  109.69    8.00
   3   3  -6   72.49    9.90
   3   3  -6   88.69    5.60
  -3  -3   6   75.29    6.10
  -3  -3   6   73.49    6.70
   2   3  -6  136.99    6.80
  -2  -3   6  130.89    9.20
  -2  -3   6  123.69    7.50
   1   3  -6  291.37   11.40
  -1  -3   6  284.97   11.10
  -1  -3   6  296.17   12.30
  -1  -3   6  299.67   15.50
  -1  -3   6  282.77   10.20
  -1  -3   6  285.37   16.00
   0   3  -6 3022.80   94.69
   0  -3   6 2979.60   93.89
   0  -3   6 3082.49  100.89
   0  -3   6 3036.80   95.69
  -1   3  -6  137.39    6.80
  -1   3  -6  130.39   11.20
  -1   3  -6  124.39    6.90
   1  -3   6  134.49    7.80
   1  -3   6  129.89    6.60
   1  -3   6  121.49   11.30
  -2   3  -6   26.00    6.60
  -2   3  -6   25.60    3.60
  -2   3  -6   28.50    3.50
   2  -3   6   22.10    4.20
   2  -3   6   25.80    3.30
   2  -3   6   17.10    6.50
  -3   3  -6   85.49    7.50
  -3   3  -6   94.79    6.20
  -3   3  -6   94.79   11.80
   3  -3   6   90.19    7.80
   3  -3   6   90.39    6.80
  -4   3  -6  233.48   11.10
   4  -3   6  241.78   12.20
   4  -3   6  236.38   12.10
  -5   3  -6  644.44   23.50
   5  -3   6  609.04   23.90
   5  -3   6  617.24   25.10
  -6   3  -6  306.47   25.50
  -6   3  -6  297.87   14.10
   6  -3   6  278.07   16.40
  -7   3  -6  137.29   21.00
   7  -3   6  121.79   15.00
   8   2  -6   56.29    9.60
  -8  -2   6   64.39   10.20
  -8  -2   6   60.29    9.40
   7   2  -6   29.70    7.30
  -7  -2   6   32.10    6.40
  -7  -2   6   34.60    7.50
   6   2  -6  720.73   27.20
  -6  -2   6  744.73   27.90
  -6  -2   6  737.43   25.30
   5   2  -6   36.00    5.00
  -5  -2   6   48.70    5.00
  -5  -2   6   33.60    5.40
  -5  -2   6   49.70    6.40
  -5  -2   6   33.70    4.90
   4   2  -6  857.91   36.10
   4   2  -6  960.00   30.90
  -4  -2   6  908.21   32.10
  -4  -2   6  943.51   31.70
   3   2  -6   76.69   10.00
   3   2  -6   69.19    4.70
  -3  -2   6   67.69    6.00
  -3  -2   6   76.29    6.20
   2   2  -6   35.90    6.90
   2   2  -6   33.50    3.50
  -2  -2   6   25.30    4.40
  -2  -2   6   32.50    4.00
   1   2  -6  923.31   30.50
  -1  -2   6  918.91   35.00
  -1  -2   6  898.01   34.30
  -1  -2   6  919.31   31.40
   0   2  -6   15.00    4.20
   0   2  -6   16.80    2.60
   0   2  -6   16.20    2.20
   0  -2   6   16.40    2.40
   0  -2   6   14.20    2.80
   0  -2   6   18.30    5.10
  -1   2  -6  677.83   22.70
  -1   2  -6  639.14   21.80
  -1   2  -6  619.44   26.90
   1  -2   6  604.74   23.20
   1  -2   6  637.94   27.20
   1  -2   6  654.63   21.80
  -2   2  -6 2063.49   66.99
  -2   2  -6 2173.38   67.59
  -2   2  -6 2077.89   73.09
   2  -2   6 2084.59   68.19
   2  -2   6 2128.49   67.09
   2  -2   6 2098.49   72.59
  -3   2  -6  127.89    8.10
  -3   2  -6  120.89   12.80
  -3   2  -6  154.38    8.30
   3  -2   6  141.19    8.80
   3  -2   6  129.39   12.40
   3  -2   6  154.48    8.40
  -4   2  -6  524.75   27.10
  -4   2  -6  548.95   20.70
   4  -2   6  522.85   20.80
   4  -2   6  501.55   20.70
  -5   2  -6   23.20    4.80
  -5   2  -6    6.20    8.50
   5  -2   6    5.20    5.10
   5  -2   6   11.10    5.40
  -6   2  -6   87.49   15.40
  -6   2  -6   84.39    8.90
   6  -2   6   82.79   10.70
  -7   2  -6   12.30   14.00
   7  -2   6  -11.30    7.20
   8   1  -6  109.19   12.60
  -8  -1   6  123.69   15.20
  -8  -1   6  111.39   12.10
   7   1  -6    5.50    5.30
  -7  -1   6    3.50    5.30
  -7  -1   6    4.10    4.60
  -7  -1   6   -2.60    5.40
   6   1  -6   80.49    7.30
  -6  -1   6   66.39    7.20
  -6  -1   6   63.39    7.00
  -6  -1   6   69.69   10.20
   5   1  -6  249.88   10.70
   5   1  -6  244.28   10.50
  -5  -1   6  239.28   11.60
  -5  -1   6  239.98   10.30
  -5  -1   6  246.98   12.10
   4   1  -6   77.19   10.30
   4   1  -6   85.39    5.30
  -4  -1   6   83.29    6.60
  -4  -1   6   75.09    6.40
   3   1  -6    8.90    2.00
   3   1  -6   11.60    4.90
  -3  -1   6    9.40    2.70
  -3  -1   6    7.70    2.80
   2   1  -6  143.19    6.80
   2   1  -6  133.29   10.90
  -2  -1   6  142.89    8.60
  -2  -1   6  131.39    7.70
   1   1  -6    3.10    1.60
  -1  -1   6    1.40    3.80
  -1  -1   6    3.10    2.50
  -1  -1   6    2.10    2.70
   0   1  -6 1788.62   55.69
   0   1  -6 1755.02   57.39
   0   1  -6 1805.52   60.99
   0  -1   6 1796.12   61.49
  -1   1  -6   17.30    4.60
  -1   1  -6   15.60    2.40
  -1   1  -6   17.10    3.10
   1  -1   6   13.10    3.30
   1  -1   6   11.90    4.90
   1  -1   6   14.10    2.30
  -2   1  -6   97.89    9.70
  -2   1  -6  108.99    7.10
  -2   1  -6   92.29    5.80
   2  -1   6   77.89    9.60
   2  -1   6   90.19    7.10
   2  -1   6   86.49    5.80
  -3   1  -6  151.18   13.20
  -3   1  -6  148.99    9.10
  -3   1  -6  141.49    8.10
   3  -1   6  133.79   11.90
   3  -1   6  156.98    8.50
   3  -1   6  143.49    9.30
  -4   1  -6  986.70   35.30
  -4   1  -6  999.80   41.30
   4  -1   6  960.40   35.30
   4  -1   6 1014.30   35.40
  -5   1  -6   13.40    8.70
  -5   1  -6   13.50    5.10
   5  -1   6    7.00    4.80
   5  -1   6   10.70    5.60
  -6   1  -6  186.78   21.20
  -6   1  -6  192.48   14.00
   6  -1   6  183.68   14.00
  -7   1  -6   37.90   15.30
   8   0  -6   11.80    6.50
  -8   0   6    6.90    7.80
  -8   0   6    2.50    5.80
   7   0  -6  130.59    9.60
  -7   0   6  131.69    9.80
  -7   0   6  137.09   12.30
  -7   0   6  113.39   12.00
   6   0  -6   69.39    6.40
  -6   0   6   51.79    6.10
  -6   0   6   61.49   10.20
  -6   0   6   68.69    6.80
  -6   0   6   54.79    6.10
   5   0  -6   -1.10    2.30
   5   0  -6    1.40    2.40
  -5   0   6    7.60    3.50
  -5   0   6    7.10    3.10
   4   0  -6  745.23   24.40
   4   0  -6  675.93   28.20
  -4   0   6  719.13   25.70
  -4   0   6  733.03   25.80
   3   0  -6 1594.54   49.80
   3   0  -6 1505.85   53.89
  -3   0   6 1555.54   50.99
  -3   0   6 1541.35   50.49
   2   0  -6  267.17   14.60
   2   0  -6  255.57   10.70
  -2   0   6  262.87   11.80
  -2   0   6  266.97   11.90
   1   0  -6  318.57   12.40
  -1   0   6  287.47   14.20
  -1   0   6  299.67   14.80
   0   0  -6  445.96   17.20
   0   0  -6  457.05   15.50
   0   0   6  441.16   17.70
   0   0   6  461.25   16.50
   0   0   6  453.15   19.90
  -1   0  -6 1030.10   34.50
  -1   0  -6  969.90   36.80
  -1   0  -6  998.40   32.70
   1   0   6  979.70   33.40
   1   0   6 1045.10   37.40
   1   0   6  962.40   34.60
  -2   0  -6   24.20    3.90
  -2   0  -6   20.40    5.10
  -2   0  -6   18.70    2.90
   2   0   6   30.00    4.30
   2   0   6   22.80    4.20
   2   0   6   14.50    5.20
  -3   0  -6  635.44   24.20
  -3   0  -6  591.84   22.50
  -3   0  -6  634.94   27.90
   3   0   6  626.14   23.60
   3   0   6  613.64   26.00
   3   0   6  615.64   23.90
  -4   0  -6   27.60    5.50
  -4   0  -6   22.40    7.10
   4   0   6   18.50    4.80
   4   0   6   21.20    5.10
  -5   0  -6  159.18   12.10
  -5   0  -6  138.29   16.70
   5   0   6  174.98   12.20
  -6   0  -6   11.50   11.20
  -6   0  -6   19.70    7.10
   6   0   6   10.20    6.10
  -7   0  -6    2.70   14.00
   7   0   6    5.50    8.20
   8  -1  -6   68.69    8.10
  -8   1   6   76.29   11.70
  -8   1   6   72.39    9.60
   7  -1  -6   15.10    4.70
  -7   1   6   17.60    6.60
  -7   1   6    8.70    6.00
  -7   1   6    8.20    4.30
   6  -1  -6   20.00    3.90
  -6   1   6   18.10    4.00
  -6   1   6   35.10    8.10
  -6   1   6   19.10    5.20
   5  -1  -6    5.10    2.50
   5  -1  -6    3.60    2.40
   5  -1  -6   -5.40    5.90
   5  -1  -6   10.10    4.80
  -5   1   6   -4.30    2.90
  -5   1   6    3.60    3.50
   4  -1  -6   10.80    2.60
   4  -1  -6   20.60    4.90
   4  -1  -6   14.00    2.50
   4  -1  -6   11.70    4.00
  -4   1   6   11.10    3.30
  -4   1   6   14.20    3.80
   3  -1  -6  485.35   20.60
   3  -1  -6  462.95   16.60
   3  -1  -6  444.06   17.00
   3  -1  -6  460.55   15.80
  -3   1   6  462.25   17.00
  -3   1   6  440.96   17.70
   2  -1  -6 2694.03   86.39
   2  -1  -6 2613.24   82.39
   2  -1  -6 2623.74   82.99
  -2   1   6 2613.24   83.09
  -2   1   6 2612.44   83.99
   1  -1  -6  956.20   33.00
   1  -1  -6 1004.10   31.80
  -1   1   6  971.00   34.10
  -1   1   6  986.60   35.10
  -1   1   6  967.80   32.70
  -1   1   6  932.41   33.50
   0  -1  -6   78.49    5.90
   0  -1  -6   79.19    4.80
   0   1   6   61.59    7.80
   0   1   6   65.99    6.20
   0   1   6   74.19    5.90
   0   1   6   81.49    7.60
  -1  -1  -6  368.36   16.70
  -1  -1  -6  339.97   13.40
  -1  -1  -6  358.96   15.20
   1   1   6  334.27   15.00
   1   1   6  345.47   16.40
   1   1   6  361.46   14.90
  -2  -1  -6    0.20    2.10
  -2  -1  -6   -0.90    3.00
  -2  -1  -6   -0.10    4.00
   2   1   6    0.70    2.60
   2   1   6   -4.90    3.80
   2   1   6    2.30    3.50
  -3  -1  -6 1271.57   42.70
  -3  -1  -6 1142.79   45.10
   3   1   6 1204.48   42.40
   3   1   6 1214.48   42.50
   3   1   6 1197.38   43.40
  -4  -1  -6  131.49   13.80
  -4  -1  -6  133.79   10.40
   4   1   6  126.89   10.50
  -5  -1  -6    9.20    5.70
   5   1   6    1.90    5.60
  -6  -1  -6    4.90   10.70
   6   1   6   17.60    8.00
  -7  -1  -6   40.50   11.00
  -7  -1  -6   75.19   17.50
   7   1   6   58.59   11.80
   8  -2  -6    5.50    7.70
  -8   2   6    0.50    9.20
   7  -2  -6  175.98   11.00
  -7   2   6  172.08   10.00
  -7   2   6  162.98   14.40
   6  -2  -6  266.67   16.60
   6  -2  -6  282.17   12.90
  -6   2   6  320.67   15.80
  -6   2   6  277.07   13.50
   5  -2  -6  207.98    9.50
   5  -2  -6  188.58    8.40
   5  -2  -6  188.68   12.70
   5  -2  -6  188.58   12.50
  -5   2   6  165.38   10.20
  -5   2   6  209.38   10.80
   4  -2  -6   16.00    3.00
   4  -2  -6   17.70    2.90
   4  -2  -6   23.70    5.50
   4  -2  -6    8.40    4.60
  -4   2   6   20.90    3.80
  -4   2   6   14.70    3.60
   3  -2  -6  193.48   12.40
   3  -2  -6  211.58    9.40
   3  -2  -6  219.88    9.30
   3  -2  -6  207.78   11.00
  -3   2   6  206.78   10.40
  -3   2   6  218.38    9.60
   2  -2  -6  254.27   12.10
   2  -2  -6  247.58   13.80
   2  -2  -6  279.47   11.60
  -2   2   6  250.97   11.90
  -2   2   6  255.87   11.00
  -2   2   6  262.77   10.50
   1  -2  -6  181.68    9.20
   1  -2  -6  191.38    9.50
  -1   2   6  194.78   10.60
  -1   2   6  180.18    9.10
  -1   2   6  173.18    9.80
  -1   2   6  186.88    9.80
   0  -2  -6  726.23   25.20
   0  -2  -6  727.93   26.30
   0   2   6  726.53   26.70
   0   2   6  685.63   26.50
   0   2   6  666.83   26.00
   0   2   6  723.63   26.80
  -1  -2  -6  513.15   20.60
  -1  -2  -6  501.45   19.10
  -1  -2  -6  528.45   21.20
   1   2   6  493.35   20.50
   1   2   6  529.75   21.10
   1   2   6  516.95   21.10
  -2  -2  -6   67.29    8.50
  -2  -2  -6   73.29    7.60
   2   2   6   59.09    7.60
   2   2   6   68.89    7.20
   2   2   6   56.59    7.30
  -3  -2  -6  315.57   17.90
  -3  -2  -6  334.27   16.30
  -3  -2  -6  339.27   16.20
   3   2   6  331.47   16.80
   3   2   6  310.97   15.30
  -4  -2  -6   39.20    8.90
  -4  -2  -6   45.10    6.70
   4   2   6   47.30    6.80
   4   2   6   45.70    8.00
  -5  -2  -6  113.79   16.20
   5   2   6  124.59   13.30
  -6  -2  -6   38.70    9.10
  -6  -2  -6   36.50   11.70
   6   2   6   44.80   11.40
  -7  -2  -6  -20.70   14.60
  -7  -2  -6    2.60    9.90
   7   2   6    4.30   12.80
  -8   3   6   50.59   12.50
   7  -3  -6   35.70    6.50
  -7   3   6   30.60    8.00
  -7   3   6   33.00    6.20
   6  -3  -6   -6.30    8.60
   6  -3  -6   -1.00    4.30
   6  -3  -6    4.50    3.00
  -6   3   6   -2.20    4.70
  -6   3   6   -8.90    4.50
   5  -3  -6  988.00   37.80
   5  -3  -6 1146.29   35.70
   5  -3  -6  981.40   38.70
   5  -3  -6 1040.80   34.00
  -5   3   6 1008.70   36.00
  -5   3   6 1115.19   37.40
   4  -3  -6  669.33   23.30
   4  -3  -6  621.04   25.30
   4  -3  -6  631.44   22.20
   4  -3  -6  619.64   25.80
  -4   3   6  643.54   23.90
  -4   3   6  671.33   23.40
   3  -3  -6  699.23   24.60
   3  -3  -6  664.63   26.50
   3  -3  -6  661.43   26.30
   3  -3  -6  661.63   23.90
  -3   3   6  689.63   25.10
  -3   3   6  695.03   23.50
   2  -3  -6  389.56   15.60
   2  -3  -6  379.76   17.00
   2  -3  -6  364.76   16.90
  -2   3   6  395.76   16.20
  -2   3   6  386.56   14.00
  -2   3   6  372.96   15.70
   1  -3  -6    1.40    2.60
   1  -3  -6   -0.80    3.40
  -1   3   6    1.60    3.30
  -1   3   6    1.10    1.90
  -1   3   6    3.70    3.00
  -1   3   6   -1.90    3.30
   0  -3  -6   88.99    7.60
   0  -3  -6   67.39    6.90
   0   3   6   74.79    6.70
   0   3   6   84.69    7.10
   0   3   6   70.89    7.90
   0   3   6   82.39    7.30
  -1  -3  -6  642.84   24.00
  -1  -3  -6  609.54   23.60
  -1  -3  -6  653.83   24.90
   1   3   6  594.84   24.20
   1   3   6  621.14   23.30
   1   3   6  643.24   25.90
  -2  -3  -6   33.00    5.70
  -2  -3  -6   36.20    5.80
  -2  -3  -6   38.50    5.10
   2   3   6   34.60    4.90
   2   3   6   31.50    6.10
  -3  -3  -6  259.37   14.80
  -3  -3  -6  281.47   16.00
   3   3   6  227.48   15.50
   3   3   6  240.58   12.40
  -4  -3  -6   37.30    8.00
  -4  -3  -6   46.70    8.80
   4   3   6   31.20    7.50
   4   3   6   34.00    5.80
  -5  -3  -6   65.89   10.20
  -5  -3  -6   81.79   12.60
   5   3   6  103.39   13.00
  -6  -3  -6   11.80   12.00
  -6  -3  -6    5.80    8.30
   6   3   6    7.30    8.90
  -7  -3  -6   -0.50   11.20
  -7  -3  -6   -0.30   15.30
   7   3   6   10.60   16.20
   8  -4  -6   25.00    8.70
  -8   4   6   52.19   14.50
  -7   4   6   95.49   12.40
   6  -4  -6   20.50    6.00
   6  -4  -6   30.00    3.50
  -6   4   6   27.40    7.90
   5  -4  -6    0.90    9.10
   5  -4  -6   -1.80    2.70
   5  -4  -6    7.60    4.40
   5  -4  -6   -8.30    5.80
  -5   4   6   13.00    5.00
  -5   4   6   -1.20    4.50
   4  -4  -6   20.80    3.40
   4  -4  -6   19.70    4.60
   4  -4  -6   19.90    5.80
   4  -4  -6   17.10    7.40
  -4   4   6   20.20    4.50
  -4   4   6   21.80    4.30
   3  -4  -6 1676.43   53.49
   3  -4  -6 1726.83   54.59
   3  -4  -6 1497.25   56.39
   3  -4  -6 1626.54   55.19
  -3   4   6 1635.24   52.49
  -3   4   6 1618.04   54.09
   2  -4  -6   55.89    6.30
   2  -4  -6   50.59    7.40
  -2   4   6   54.39    6.20
  -2   4   6   68.79    7.70
  -2   4   6   63.79    6.80
  -2   4   6   59.19    4.60
   1  -4  -6   36.30    5.30
   1  -4  -6   36.70    6.10
  -1   4   6   35.90    5.30
  -1   4   6   45.50    5.60
  -1   4   6   56.09    8.10
  -1   4   6   39.10    3.80
   0  -4  -6  117.89    8.90
   0  -4  -6  115.09    9.20
   0   4   6  106.99    9.40
   0   4   6  120.69    6.80
   0   4   6  149.09   10.90
   0   4   6  118.69    6.40
  -1  -4  -6   24.10    5.10
  -1  -4  -6   14.50    4.40
   1   4   6   18.70    3.40
   1   4   6   20.70    6.10
  -2  -4  -6   22.70    5.90
  -2  -4  -6   23.80    5.40
   2   4   6   23.80    7.70
   2   4   6   20.70    3.50
  -3  -4  -6   17.40    6.40
   3   4   6   19.40    4.00
  -4  -4  -6  201.88   15.30
  -4  -4  -6  205.88   16.70
   4   4   6  183.38   17.40
   4   4   6  182.28   11.30
  -5  -4  -6   -6.00    7.20
  -5  -4  -6    2.50    9.60
   5   4   6   17.40   10.20
  -6  -4  -6   36.00   11.30
  -6  -4  -6   43.80   13.80
   6   4   6   40.90   15.20
   7  -5  -6   29.70    8.30
  -7   5   6   10.00   11.10
   6  -5  -6    3.40    8.40
  -6   5   6    8.00    8.00
   5  -5  -6  320.07   15.50
   5  -5  -6  273.37   11.30
   5  -5  -6  266.57   16.80
  -5   5   6  276.37   16.60
   4  -5  -6   70.49    6.50
   4  -5  -6   63.99    7.50
   4  -5  -6   54.19    7.50
  -4   5   6   61.09    8.00
  -4   5   6   65.19    8.30
   3  -5  -6   45.20    6.70
   3  -5  -6   31.60    6.40
   3  -5  -6   40.60   10.20
   3  -5  -6   33.60    4.90
  -3   5   6   39.40    4.90
  -3   5   6   26.40    5.30
   2  -5  -6 1157.68   46.20
   2  -5  -6 1335.37   43.40
  -2   5   6 1256.37   40.00
  -2   5   6 1261.47   44.40
  -2   5   6 1228.68   43.10
   1  -5  -6  159.78   14.00
   1  -5  -6  173.78   11.00
  -1   5   6  135.49   10.90
  -1   5   6  164.68   12.90
   0  -5  -6   40.30    5.90
   0   5   6   46.00    8.00
  -1  -5  -6  130.79   10.70
   1   5   6  108.99   12.80
  -2  -5  -6   21.70    6.40
  -2  -5  -6   33.80    5.70
   2   5   6   27.50    3.70
  -3  -5  -6  107.59   11.70
   3   5   6   92.49   12.50
   3   5   6  105.29    7.50
  -4  -5  -6    6.60    7.90
  -4  -5  -6    5.40    6.80
   4   5   6    3.80   10.00
  -5  -5  -6    9.50   10.30
  -5  -5  -6    4.20    8.30
   5   5   6  -13.50   11.90
  -6  -5  -6   10.00   14.40
  -6  -5  -6    5.60   11.50
   6   5   6  -11.00   15.20
   7  -6  -6  -16.60    9.40
  -7   6   6  -25.00   12.90
   6  -6  -6   79.09   10.20
  -6   6   6   92.79   12.80
   5  -6  -6   -4.20    3.20
  -5   6   6    2.00    7.40
   4  -6  -6  126.69   15.10
   4  -6  -6  130.79    8.70
  -4   6   6  141.49   13.40
  -4   6   6  151.28   11.80
   3  -6  -6  317.87   15.30
   3  -6  -6  362.56   18.60
  -3   6   6  325.47   14.30
  -3   6   6  281.67   15.40
   2  -6  -6    6.90    4.60
  -2   6   6   -3.20    5.30
  -2   6   6   -6.10    6.10
   1  -6  -6  383.16   18.50
  -1   6   6  419.76   21.60
   0  -6  -6  461.05   21.20
   0   6   6  451.55   28.20
  -1  -6  -6   90.59   11.30
   1   6   6   79.39   12.30
  -2  -6  -6   38.00    8.00
   2   6   6   53.39   10.30
  -3  -6  -6   -5.20    5.90
  -3  -6  -6   15.00    7.20
   3   6   6    9.70    9.80
  -4  -6  -6   99.49   12.50
   4   6   6   85.59   15.50
  -5  -6  -6   27.50   10.20
   6  -7  -6   16.80   10.30
   5  -7  -6   22.90    8.70
   4  -7  -6   -2.20    4.70
   4  -7  -6    0.80    7.50
   3  -7  -6   46.90    7.00
   3  -7  -6   53.39    9.50
   2  -7  -6   18.60    6.10
  -2   7   6   26.90    8.90
   1  -7  -6   56.79    8.40
  -1   7   6   56.59   10.00
   0  -7  -6   32.60    7.70
   0   7   6   24.90    8.80
  -1  -7  -6   40.50    8.30
   1   7   6   31.00   12.00
  -2  -7  -6   96.79   11.90
   2   7   6   88.69   13.50
  -3  -7  -6   50.59   10.60
   3   7   6   49.70   12.90
  -4  -7  -6   13.90   10.40
   4   7   6   12.40   14.20
   5  -8  -6   21.80   10.80
   4  -8  -6   75.69   12.40
   3  -8  -6    4.20    6.40
   3  -8  -6   -4.70   10.30
  -2   8   6   10.70    9.60
   1  -8  -6   -3.10    6.70
  -1   8   6    3.40    9.40
   0  -8  -6   71.79   11.10
   0   8   6   96.29   13.80
  -1  -8  -6   23.30    9.50
   1   8   6   26.00   12.50
  -2  -8  -6    7.90   10.00
   2   8   6  -14.70   12.70
  -3  -8  -6  201.48   20.80
   3   8   6  168.68   21.70
   3  -9  -6   -3.20   11.90
   2  -9  -6    5.20    8.40
  -2   9   6   -8.90   11.10
   1  -9  -6   67.59   10.70
  -1   9   6   42.60   12.60
   0  -9  -6   -0.80    9.50
   0   9   6   10.30   12.80
  -1  -9  -6   -5.30   10.30
   1   9   6    0.50   15.20
  -2 -10   7   16.60   10.30
  -2 -10   7   22.80    8.00
  -2 -10   7   40.20   10.10
  -1 -10   7    8.90    9.00
  -1 -10   7   26.50    9.40
  -1 -10   7    8.00    9.40
   0 -10   7   12.40    7.90
   0 -10   7   -0.30    8.10
   0 -10   7  -16.30   10.80
   1 -10   7  111.29   15.50
   1 -10   7  141.09   14.00
   1 -10   7  127.89   18.70
  -4  -9   7   44.10   10.90
  -4  -9   7   54.39    9.00
  -3  -9   7    0.60    6.70
  -3  -9   7    6.70    8.40
  -3  -9   7   12.20    8.20
  -2  -9   7   10.10    7.90
  -2  -9   7   20.20    7.80
  -2  -9   7   18.20    8.00
  -1  -9   7   56.49   10.40
  -1  -9   7   62.59    9.10
  -1  -9   7   57.39    9.20
   0  -9   7   -5.60   10.20
   0  -9   7   -9.90    6.10
   0  -9   7    9.70    6.70
   1  -9   7   -1.10    5.70
   1  -9   7    0.80    7.10
   1  -9   7    8.00   12.50
   2  -9   7   55.69   16.70
   2  -9   7   40.00    6.70
  -3   9  -7   14.90   14.10
  -5  -8   7    0.40    7.30
  -5  -8   7    6.70    9.60
   4   8  -7    7.70    8.20
  -4  -8   7   14.10    6.30
  -4  -8   7   10.00    8.00
  -3  -8   7   35.80    8.00
  -3  -8   7   47.50    7.80
  -2  -8   7    2.70    6.40
  -2  -8   7    4.40    6.00
  -2  -8   7    0.30    5.60
  -1  -8   7  234.08   14.40
  -1  -8   7  228.28   14.30
  -1  -8   7  273.97   19.10
   0  -8   7   -0.50    5.00
   0  -8   7   -4.60    5.10
   0  -8   7   -0.80    9.50
   1  -8   7   78.69   10.20
   1  -8   7  104.49    9.40
   1  -8   7  112.89   15.90
  -2   8  -7   24.20   10.70
   2  -8   7   25.70    5.20
   2  -8   7   24.40    5.60
  -3   8  -7   11.50   10.90
   3  -8   7   11.50    6.90
   3  -8   7    7.20    4.70
  -4   8  -7   70.19   16.40
   4  -8   7  107.69   11.80
  -6  -7   7   18.60    9.90
  -6  -7   7    1.40    7.30
   5   7  -7  134.99   15.80
  -5  -7   7  154.28   15.00
  -5  -7   7  155.68   13.10
   4   7  -7   28.40    7.60
  -4  -7   7   31.00    6.50
  -4  -7   7   27.40    7.60
  -3  -7   7   24.40    6.50
  -3  -7   7   28.80    6.20
  -3  -7   7   33.20    6.20
  -2  -7   7   54.89    6.60
  -2  -7   7   38.00    6.20
  -1  -7   7  162.48   14.30
  -1  -7   7  161.28   15.30
  -1  -7   7  163.08   10.40
   0  -7   7  280.37   23.30
   0  -7   7  249.28   18.10
   0  -7   7  267.47   13.20
   0  -7   7  270.97   13.60
   1  -7   7  253.77   13.30
   1  -7   7  260.77   13.10
   1  -7   7  250.37   21.70
   2  -7   7    6.90    4.70
   2  -7   7   -9.50    5.80
  -3   7  -7  146.99   17.80
   3  -7   7  135.59   11.20
  -4   7  -7   45.90   13.30
   4  -7   7   50.39    7.60
  -5   7  -7   10.00   14.70
   5  -7   7   15.40    8.70
  -7  -6   7   23.00    9.30
  -7  -6   7   23.80   10.30
   6   6  -7   -9.60   10.00
  -6  -6   7    1.10    6.20
  -6  -6   7    1.10    7.60
   5   6  -7    5.10    7.30
  -5  -6   7    4.70    6.30
  -5  -6   7    9.30    5.40
   4   6  -7   97.29   10.20
  -4  -6   7   85.39    9.20
  -4  -6   7   76.99    8.20
  -3  -6   7   95.09    9.70
  -3  -6   7   76.49    8.10
  -3  -6   7   75.79    8.70
  -2  -6   7  430.26   18.90
  -2  -6   7  417.56   20.70
  -2  -6   7  435.96   18.90
  -2  -6   7  427.06   17.10
   1   6  -7   17.20    4.00
  -1  -6   7   23.80    4.00
  -1  -6   7   14.60    6.50
  -1  -6   7   23.10    5.70
   0   6  -7   42.10    4.80
   0  -6   7   49.90   10.20
   0  -6   7   44.90    5.30
   0  -6   7   34.90    6.80
  -1   6  -7  317.17   12.80
  -1   6  -7  350.16   20.70
   1  -6   7  304.07   14.90
   1  -6   7  294.27   17.00
   1  -6   7  298.07   13.70
  -2   6  -7   18.50    8.60
  -2   6  -7   16.80    3.30
   2  -6   7   14.20    4.20
   2  -6   7   13.20    5.30
  -3   6  -7   23.20   13.70
  -3   6  -7   21.90    3.50
   3  -6   7   19.70    6.20
   3  -6   7   29.70    5.90
  -4   6  -7  270.27   23.80
  -4   6  -7  282.57   11.80
   4  -6   7  318.47   16.10
  -5   6  -7   56.29   14.50
   5  -6   7   54.19    8.50
  -6   6  -7    3.70   16.90
   6  -6   7   -0.50    7.50
  -7  -5   7    0.00    8.20
  -7  -5   7    6.90    7.50
   6   5  -7  123.39   14.00
  -6  -5   7  156.58   12.30
  -6  -5   7  127.19   13.10
   5   5  -7    1.20    5.70
  -5  -5   7   17.40    5.50
  -5  -5   7    6.30    3.50
  -5  -5   7    4.80    4.70
   4   5  -7   41.20    5.60
  -4  -5   7   33.90    4.90
  -3  -5   7   18.30    4.60
  -3  -5   7   31.40    5.60
   2   5  -7   41.40    5.10
  -2  -5   7   45.30    4.90
  -2  -5   7   52.49    7.40
  -2  -5   7   37.30    5.50
   1   5  -7  121.89    7.10
  -1  -5   7  120.59    9.30
  -1  -5   7  119.49    9.00
  -1  -5   7  121.59   12.30
  -1  -5   7  111.59    6.50
   0   5  -7   53.89    5.10
   0  -5   7   38.00    4.50
   0  -5   7   43.00    5.50
   0  -5   7   39.50    8.40
   0  -5   7   38.20    5.70
  -1   5  -7    3.20    5.80
  -1   5  -7   16.20    3.10
   1  -5   7    7.50    2.90
   1  -5   7    5.40    4.10
   1  -5   7    1.70    3.60
  -2   5  -7  131.79    7.30
  -2   5  -7  101.09   10.20
  -2   5  -7  127.59   14.10
   2  -5   7  140.79    8.40
   2  -5   7  122.59    9.20
  -3   5  -7   72.09    6.30
   3  -5   7   73.99    8.70
   3  -5   7   81.59    8.10
  -4   5  -7   33.30    4.40
  -4   5  -7   34.20   10.10
   4  -5   7   36.60    6.50
   4  -5   7   23.30    6.10
  -5   5  -7   12.10   11.00
  -5   5  -7   13.10    3.80
   5  -5   7   12.60    5.50
  -6   5  -7   28.20   15.20
   6  -5   7    9.80    6.40
  -8  -4   7  -10.50    9.20
  -8  -4   7   11.40    9.20
  -7  -4   7    5.40    7.40
  -7  -4   7    6.70    6.60
   6   4  -7   12.00    6.50
  -6  -4   7    9.10    5.30
  -6  -4   7    7.90    5.80
  -5  -4   7    1.00    4.40
  -4  -4   7   35.60    5.50
  -4  -4   7   37.40    5.70
   3   4  -7   56.09    5.60
  -3  -4   7   62.89    7.30
   2   4  -7  299.67   12.30
  -2  -4   7  313.57   16.10
  -2  -4   7  298.37   18.80
  -2  -4   7  290.67   13.70
   1   4  -7    2.30    2.50
  -1  -4   7    0.50    6.10
  -1  -4   7    1.90    3.30
  -1  -4   7   -0.70    3.40
  -1  -4   7    3.60    1.80
  -1  -4   7    0.00    4.50
   0   4  -7  323.07   12.80
   0  -4   7  316.47   13.50
   0  -4   7  321.47   12.10
   0  -4   7  333.07   19.40
   0  -4   7  302.07   14.00
   0  -4   7  291.77   19.20
  -1   4  -7    9.60    5.60
  -1   4  -7    4.70    2.60
  -1   4  -7    4.20    3.10
   1  -4   7    3.60    2.40
   1  -4   7    4.30    8.10
   1  -4   7    6.60    3.30
  -2   4  -7  712.03   32.60
  -2   4  -7  688.43   26.40
  -2   4  -7  785.12   25.50
   2  -4   7  676.23   26.50
   2  -4   7  736.03   25.80
  -3   4  -7  155.18    8.40
   3  -4   7  139.59   10.10
   3  -4   7  148.59    9.10
  -4   4  -7   43.80    5.20
   4  -4   7   42.90    6.50
   4  -4   7   45.70    6.70
  -5   4  -7  296.67   13.30
  -5   4  -7  305.17   24.20
   5  -4   7  274.27   15.60
  -6   4  -7   27.20   13.40
   6  -4   7   13.10    7.50
  -8  -3   7  103.09   12.40
  -8  -3   7  118.09   14.90
   7   3  -7    5.10    7.70
  -7  -3   7    1.40    6.00
  -7  -3   7   10.40    6.30
  -5  -3   7   86.49    8.20
   4   3  -7  132.39    7.60
  -4  -3   7  128.89    8.80
   3   3  -7   41.90    4.80
   3   3  -7   54.89   10.00
  -3  -3   7   47.20    5.80
  -3  -3   7   49.20    6.50
   2   3  -7  180.48    8.70
  -2  -3   7  168.68    9.70
  -2  -3   7  206.28   12.20
  -2  -3   7  182.08   13.60
   1   3  -7   93.19    5.90
  -1  -3   7   89.49    7.20
  -1  -3   7  105.59   11.10
  -1  -3   7   85.29    9.60
   0   3  -7   -0.70    2.40
   0   3  -7    2.30    2.30
   0  -3   7   -1.10    4.50
   0  -3   7   -0.50    1.60
   0  -3   7    0.00    2.60
   0  -3   7    2.10    5.10
  -1   3  -7  286.47   11.80
  -1   3  -7  263.47   11.50
  -1   3  -7  267.07   16.80
   1  -3   7  261.37   12.70
   1  -3   7  283.67   11.20
   1  -3   7  289.87   17.80
  -2   3  -7   51.49    5.30
  -2   3  -7   51.19    8.70
  -2   3  -7   44.00    5.80
   2  -3   7   62.69    7.00
   2  -3   7   45.90    5.10
  -3   3  -7 1148.09   36.50
  -3   3  -7  999.40   47.10
  -3   3  -7  976.70   37.10
   3  -3   7 1092.29   36.70
   3  -3   7 1084.49   37.80
  -4   3  -7   26.30    4.60
   4  -3   7   22.00    5.40
   4  -3   7   11.80    4.20
  -5   3  -7   30.40   11.40
  -5   3  -7   33.00    5.60
   5  -3   7   18.90    5.50
   5  -3   7   28.20    6.70
  -6   3  -7   41.20   12.80
  -6   3  -7   48.90    7.00
   6  -3   7   52.39    9.40
  -7   3  -7   36.50   18.20
   7  -3   7   45.20    9.50
  -8  -2   7  130.89   15.70
  -8  -2   7  108.19   13.90
   7   2  -7  120.69   11.90
  -7  -2   7  138.59   12.70
  -6  -2   7   14.80    4.70
   5   2  -7  147.49    8.30
   4   2  -7   81.79    5.70
  -4  -2   7   67.89    7.90
  -4  -2   7   76.19    6.80
   3   2  -7   58.29    9.20
   3   2  -7   57.19    4.90
  -3  -2   7   52.69    6.40
  -3  -2   7   54.19    6.50
   2   2  -7  622.14   21.60
  -2  -2   7  591.74   26.20
  -2  -2   7  606.54   22.80
  -2  -2   7  608.24   24.60
   1   2  -7    2.70    2.10
  -1  -2   7   -4.10    3.60
  -1  -2   7    0.10    4.60
  -1  -2   7    0.10    2.50
   0   2  -7   -3.60    1.70
   0   2  -7    1.50    1.70
   0  -2   7    3.40    3.00
   0  -2   7    3.60    5.10
   0  -2   7    0.90    1.60
  -1   2  -7  151.78   12.20
  -1   2  -7  140.79    7.90
  -1   2  -7  134.79    6.80
   1  -2   7  133.39    8.80
   1  -2   7  132.59   12.20
   1  -2   7  143.79    6.90
  -2   2  -7   37.20    7.60
  -2   2  -7   30.80    4.30
  -2   2  -7   35.40    4.40
   2  -2   7   35.00    7.60
   2  -2   7   26.40    4.50
   2  -2   7   31.00    4.40
  -3   2  -7    6.00    6.40
  -3   2  -7    2.20    3.20
  -3   2  -7    5.30    3.70
   3  -2   7    6.90    4.00
   3  -2   7   -0.10    3.00
  -4   2  -7  485.85   28.20
  -4   2  -7  500.85   20.20
   4  -2   7  514.25   20.70
   4  -2   7  454.95   20.90
  -5   2  -7  132.79   11.10
  -5   2  -7  166.38   19.30
   5  -2   7  157.18   11.90
  -6   2  -7    2.40    6.30
  -6   2  -7   25.80   12.70
   6  -2   7    9.00    6.80
  -7   2  -7   -6.10   16.40
   7  -2   7   -7.90    8.40
  -8  -1   7   13.10    8.00
   7   1  -7  146.49   10.90
  -7  -1   7  142.69   13.00
  -6  -1   7   10.60    4.00
   5   1  -7  196.08    9.20
  -5  -1   7  193.48   11.60
  -5  -1   7  181.88   10.80
   4   1  -7   14.00    7.30
   4   1  -7   14.60    3.00
  -4  -1   7   14.10    4.50
  -4  -1   7    7.70    3.20
   3   1  -7   65.29    5.00
   3   1  -7   60.49    8.90
  -3  -1   7   63.49    6.10
  -3  -1   7   50.39    6.30
   2   1  -7   64.99    5.00
  -2  -1   7   55.29    6.90
  -2  -1   7   60.59    8.30
  -2  -1   7   47.80    5.80
   1   1  -7  229.28   10.10
  -1  -1   7  213.68   13.90
  -1  -1   7  209.98   10.90
  -1  -1   7  224.38   13.10
   0   1  -7   58.09    3.80
   0   1  -7   53.69    5.10
   0  -1   7   43.50    7.30
   0  -1   7   52.29    6.00
   0  -1   7   62.19    4.40
  -1   1  -7  421.76   15.40
  -1   1  -7  424.36   20.70
  -1   1  -7  412.36   17.00
   1  -1   7  427.96   21.10
   1  -1   7  424.46   17.70
   1  -1   7  440.26   16.00
  -2   1  -7  356.26   14.20
  -2   1  -7  345.57   19.50
  -2   1  -7  367.76   15.60
   2  -1   7  354.46   16.10
   2  -1   7  371.56   19.50
   2  -1   7  359.16   14.60
  -3   1  -7  172.38   14.70
  -3   1  -7  160.18   10.20
  -3   1  -7  165.18    9.60
   3  -1   7  160.08   10.90
   3  -1   7  173.48    9.90
  -4   1  -7    1.10    6.90
  -4   1  -7    2.40    4.30
   4  -1   7    0.00    4.00
   4  -1   7    6.50    6.00
  -5   1  -7   -3.60    5.40
  -5   1  -7   11.40    9.40
   5  -1   7    1.60    4.80
  -6   1  -7  162.08   21.10
   6  -1   7  151.08   15.00
  -7   1  -7   17.50   14.40
   7  -1   7   20.70    9.40
  -8   0   7  -14.90    7.20
   7   0  -7   32.60    5.50
  -7   0   7   49.30    6.60
  -7   0   7   40.20    7.10
   6   0  -7    2.70    5.50
   6   0  -7    2.90    3.40
   5   0  -7   15.20    3.30
  -5   0   7   23.90    5.00
  -5   0   7   19.80    4.40
   4   0  -7  647.74   29.40
   4   0  -7  728.73   24.00
  -4   0   7  694.93   25.20
  -4   0   7  672.63   25.50
   3   0  -7   54.29    4.80
   3   0  -7   65.09    9.10
  -3   0   7   54.09    5.70
   2   0  -7  124.59    7.00
  -2   0   7  105.79    7.80
  -2   0   7  131.69    8.50
   1   0  -7  924.41   32.00
  -1   0   7  922.21   34.60
  -1   0   7  933.11   35.40
  -1   0   7  934.01   33.00
   0   0  -7  264.97   12.00
   0   0   7  245.68   14.50
   0   0   7  249.88   12.30
   0   0   7  265.47   11.10
   0   0   7  242.88   14.70
  -1   0  -7 1103.79   41.20
  -1   0  -7 1103.79   36.20
  -1   0  -7 1111.99   38.30
   1   0   7 1104.19   37.30
   1   0   7 1127.69   41.50
   1   0   7 1060.59   38.60
  -2   0  -7  171.88   10.10
  -2   0  -7  163.58   12.90
  -2   0  -7  161.18    8.40
   2   0   7  174.38   13.10
   2   0   7  169.18    9.50
   2   0   7  162.38   10.40
  -3   0  -7   -3.70    3.00
  -3   0  -7   -5.60    5.90
  -3   0  -7    0.20    3.90
   3   0   7    0.60    3.40
   3   0   7   -4.10    4.60
   3   0   7   -2.20    5.70
  -4   0  -7  344.47   17.10
  -4   0  -7  320.87   21.70
   4   0   7  352.36   17.30
  -5   0  -7   53.99   11.70
  -5   0  -7   90.19   11.10
   5   0   7   78.69   11.20
  -6   0  -7  191.48   23.20
   6   0   7  146.19   16.10
  -7   0  -7  -14.40    9.60
  -7   0  -7  -12.90   15.40
   7   0   7  -17.50    9.70
   8  -1  -7   13.10   10.30
  -8   1   7   10.90    5.90
  -8   1   7    3.70    7.80
   7  -1  -7    3.00    4.30
  -7   1   7    4.40    4.30
  -7   1   7   -6.70    5.50
   6  -1  -7   19.80    3.80
   6  -1  -7   18.10    6.20
   6  -1  -7   21.20    3.80
  -6   1   7   17.20    5.70
  -6   1   7   23.60    5.80
   5  -1  -7  279.67   11.30
   5  -1  -7  286.57   10.80
   5  -1  -7  249.88   13.50
  -5   1   7  253.67   13.50
  -5   1   7  278.87   13.20
   4  -1  -7   25.80    7.50
   4  -1  -7   45.80    4.70
  -4   1   7   42.60    5.90
  -4   1   7   31.80    4.80
   3  -1  -7  100.09   11.70
   3  -1  -7  115.89    6.70
  -3   1   7  107.99    7.90
  -3   1   7  118.69    7.20
   2  -1  -7  541.15   20.20
  -2   1   7  532.05   21.30
  -2   1   7  559.84   20.70
   1  -1  -7  119.59    7.50
   1  -1  -7  113.49    5.90
  -1   1   7  108.89    7.20
  -1   1   7  111.99    8.80
  -1   1   7  107.49    9.50
  -1   1   7   91.49    7.70
   0  -1  -7  441.16   18.00
   0  -1  -7  451.05   16.10
   0   1   7  439.76   20.10
   0   1   7  418.56   20.00
   0   1   7  437.86   18.50
   0   1   7  445.56   17.80
  -1  -1  -7  379.06   18.10
  -1  -1  -7  392.86   16.50
  -1  -1  -7  354.36   14.30
   1   1   7  361.36   18.00
   1   1   7  368.36   16.60
   1   1   7  381.86   16.20
  -2  -1  -7  222.58   14.40
  -2  -1  -7  203.88   10.00
  -2  -1  -7  202.38   11.90
   2   1   7  230.38   12.00
   2   1   7  194.58   12.30
   2   1   7  198.38   13.30
  -3  -1  -7  497.75   21.10
  -3  -1  -7  479.45   24.30
   3   1   7  437.56   21.70
   3   1   7  480.15   21.00
  -4  -1  -7  122.89   15.40
  -4  -1  -7  113.59   11.00
  -5  -1  -7   29.20   11.10
   5   1   7   36.30    7.90
  -6  -1  -7    3.60    7.90
  -6  -1  -7    1.60   11.50
   6   1   7    5.40    9.30
  -7  -1  -7    0.20   15.70
  -7  -1  -7   -9.50   10.80
   7   1   7   16.20   11.00
   8  -2  -7    0.50    7.20
  -8   2   7    5.80    8.90
   7  -2  -7   95.19    9.40
  -7   2   7  109.89   12.80
  -7   2   7   98.89    8.70
   6  -2  -7   57.29    9.10
   6  -2  -7   68.29    5.80
   6  -2  -7   69.59    7.40
  -6   2   7   48.00    7.00
  -6   2   7   81.79    9.40
   5  -2  -7  144.69    7.50
   5  -2  -7  131.99   11.60
   5  -2  -7  154.48    8.20
  -5   2   7  149.59    9.60
  -5   2   7  138.79   10.10
   4  -2  -7  232.88   10.50
   4  -2  -7  237.08   15.70
   4  -2  -7  249.97   10.20
   4  -2  -7  227.88   13.00
  -4   2   7  230.88   12.30
  -4   2   7  251.17   11.50
   3  -2  -7   -5.50    5.50
   3  -2  -7    0.70    2.50
   3  -2  -7    2.40    3.80
   3  -2  -7   -0.90    2.70
  -3   2   7    2.20    2.60
  -3   2   7   -4.10    3.50
   2  -2  -7  255.47   11.50
   2  -2  -7  252.97   11.60
  -2   2   7  234.68   10.90
  -2   2   7  244.58   10.70
  -2   2   7  222.08   12.00
  -2   2   7  240.28   13.10
   1  -2  -7  146.29    8.70
   1  -2  -7  127.29    7.70
  -1   2   7  127.59    9.10
  -1   2   7  125.79    9.80
  -1   2   7  122.49    8.20
  -1   2   7  136.19    8.80
   0  -2  -7  408.36   15.90
   0  -2  -7  405.46   17.50
   0   2   7  398.56   18.30
   0   2   7  398.06   17.50
   0   2   7  410.36   17.90
   0   2   7  397.66   18.30
  -1  -2  -7  563.14   22.50
  -1  -2  -7  559.04   23.10
  -1  -2  -7  507.55   20.10
   1   2   7  513.65   22.30
   1   2   7  572.44   22.90
   1   2   7  563.24   23.10
  -2  -2  -7   15.20    3.50
  -2  -2  -7   19.80    4.30
  -2  -2  -7   19.50    5.80
   2   2   7   17.70    5.20
   2   2   7   14.20    4.70
  -3  -2  -7   -2.10    4.50
  -3  -2  -7   -3.60    6.30
   3   2   7   -1.70    4.80
   3   2   7    3.00    5.20
  -4  -2  -7  -14.10    7.60
  -4  -2  -7    2.60    6.90
   4   2   7   -7.90    5.20
  -5  -2  -7   63.49    9.80
  -5  -2  -7   53.79   12.60
   5   2   7   57.19    9.70
  -6  -2  -7   42.50   13.90
  -6  -2  -7   48.10   10.40
   6   2   7   43.10   11.40
  -8   3   7   -8.20   10.10
   7  -3  -7   -2.20    5.50
  -7   3   7   13.20    7.30
   6  -3  -7   -7.40    4.60
   6  -3  -7    6.20    3.40
   6  -3  -7   -5.20    9.10
  -6   3   7   -5.70    7.50
  -6   3   7    7.90    7.30
   5  -3  -7   49.20    5.60
   5  -3  -7   47.10    8.60
   5  -3  -7   71.99    7.70
  -5   3   7   62.39    7.70
  -5   3   7   54.59    6.60
   4  -3  -7  182.68    9.00
   4  -3  -7  175.88    9.60
   4  -3  -7  149.69   13.20
   4  -3  -7  144.19   13.50
  -4   3   7  179.38   11.10
  -4   3   7  192.08    9.70
   3  -3  -7  389.46   15.70
   3  -3  -7  378.76   18.80
   3  -3  -7  363.96   15.20
   3  -3  -7  344.47   17.20
  -3   3   7  338.87   16.30
  -3   3   7  382.86   14.50
   2  -3  -7  333.57   14.50
   2  -3  -7  315.07   15.20
  -2   3   7  325.37   15.40
  -2   3   7  332.37   14.70
  -2   3   7  294.67   14.80
  -2   3   7  333.07   12.60
   1  -3  -7    2.90    3.20
   1  -3  -7    5.60    3.70
  -1   3   7    3.30    4.00
  -1   3   7    6.40    2.70
  -1   3   7   -0.10    4.30
  -1   3   7    7.90    4.20
   0  -3  -7   -0.70    3.20
   0  -3  -7   -3.60    3.80
   0   3   7   -1.60    4.30
   0   3   7    2.20    3.60
   0   3   7    0.50    4.30
   0   3   7    7.90    4.40
  -1  -3  -7    5.10    3.40
  -1  -3  -7    5.00    4.00
  -1  -3  -7    8.10    4.20
   1   3   7    8.40    5.00
   1   3   7    3.00    4.30
  -2  -3  -7  311.77   16.10
  -2  -3  -7  302.57   16.20
   2   3   7  285.57   14.40
   2   3   7  274.07   17.00
  -3  -3  -7  255.17   16.70
  -3  -3  -7  259.37   16.30
   3   3   7  245.08   16.90
   3   3   7  216.78   13.00
  -4  -3  -7   81.59   12.70
  -4  -3  -7   54.79    8.40
   4   3   7   68.99    9.80
  -5  -3  -7   22.50   11.00
  -5  -3  -7   31.80    8.80
   5   3   7   15.30    9.00
  -6  -3  -7   22.20   14.40
  -6  -3  -7   15.40   10.10
   6   3   7    5.70   11.50
   7  -4  -7   36.00    7.60
  -7   4   7   34.70   10.20
   6  -4  -7   76.19    6.20
   6  -4  -7   76.09   10.40
   5  -4  -7  122.49    7.90
   5  -4  -7  156.38   10.60
   5  -4  -7  101.79   13.50
   5  -4  -7  115.29   15.70
  -5   4   7  154.38   11.10
  -5   4   7  111.09   10.70
   4  -4  -7    7.70    7.10
   4  -4  -7   17.20    3.90
   4  -4  -7   20.20    5.20
   4  -4  -7   13.20    7.90
  -4   4   7   21.80    4.40
  -4   4   7   24.80    5.50
   3  -4  -7    4.30    4.80
   3  -4  -7   12.50    6.90
   3  -4  -7    8.70    3.90
   3  -4  -7   25.50    6.80
  -3   4   7   17.90    3.60
  -3   4   7   13.70    4.90
   2  -4  -7   81.59   10.50
   2  -4  -7  111.69    8.70
  -2   4   7   92.19    9.00
  -2   4   7  112.79   10.00
  -2   4   7  105.49    9.10
  -2   4   7  107.39    6.20
   1  -4  -7  211.38   13.00
   1  -4  -7  221.38   12.40
  -1   4   7  227.08   13.90
  -1   4   7  216.18    8.90
  -1   4   7  203.68   12.90
  -1   4   7  219.08   11.60
   0  -4  -7  388.36   18.00
   0  -4  -7  357.36   17.70
   0   4   7  369.96   14.90
   0   4   7  397.06   19.70
   0   4   7  381.66   15.70
  -1  -4  -7    4.70    4.80
   1   4   7   -2.60    6.10
   1   4   7    9.00    3.70
   1   4   7    9.30    5.20
  -2  -4  -7  119.49   10.70
   2   4   7  120.89   13.60
   2   4   7  107.69    8.30
  -3  -4  -7  315.47   18.50
   3   4   7  290.87   20.50
   3   4   7  285.67   13.70
  -4  -4  -7   13.10    7.50
  -4  -4  -7   25.40    9.90
   4   4   7    9.80    9.30
   4   4   7   10.20    6.50
  -5  -4  -7   31.10    9.30
   5   4   7   10.10   12.40
  -6  -4  -7    7.50   14.30
  -6  -4  -7   11.40   11.70
   6   4   7   16.80   15.00
   7  -5  -7   12.50    8.70
  -7   5   7   10.10   11.60
   6  -5  -7   92.89   12.10
  -6   5   7  103.09   12.90
   5  -5  -7  348.97   15.00
   5  -5  -7  412.76   18.60
   5  -5  -7  409.36   26.70
  -5   5   7  384.56   19.50
   4  -5  -7  219.38   16.80
   4  -5  -7  216.18   11.30
   4  -5  -7  217.58   13.60
  -4   5   7  188.28   12.80
  -4   5   7  220.88   12.60
   3  -5  -7   11.10    4.60
  -3   5   7   16.50    4.00
  -3   5   7    4.60    5.80
   2  -5  -7   -5.60    3.90
  -2   5   7   -2.60    4.50
  -2   5   7   -5.70    5.80
  -2   5   7   -3.50    5.70
   1  -5  -7    4.70    4.40
  -1   5   7    7.90    6.20
   0  -5  -7   34.60    6.30
   0   5   7   33.10    8.10
  -1  -5  -7   52.89    7.60
   1   5   7   57.49   10.00
  -2  -5  -7   39.00    7.50
   2   5   7   61.79   11.20
   2   5   7   42.70    6.00
  -3  -5  -7    9.50    7.00
  -3  -5  -7   18.00    6.90
   3   5   7   14.20    9.50
  -4  -5  -7   74.59   11.70
  -4  -5  -7   60.99   10.10
   4   5   7   74.29   14.90
  -5  -5  -7   20.30    9.80
  -5  -5  -7   38.70   14.00
   5   5   7   51.59   16.70
   6  -6  -7  -19.80    8.40
  -6   6   7  -12.50   13.00
   5  -6  -7    5.80    4.90
  -5   6   7   13.60    8.30
   4  -6  -7   19.50    4.90
   4  -6  -7   19.80    8.20
  -4   6   7   19.20    6.40
   3  -6  -7  139.19   10.70
   2  -6  -7   16.50    5.80
  -2   6   7  -14.20   11.80
   1  -6  -7   34.00    7.10
   0  -6  -7    9.40    6.50
   0   6   7   15.90    7.90
  -1  -6  -7   -3.10    5.90
   1   6   7    5.50    8.40
  -2  -6  -7   23.80    8.00
   2   6   7   16.40    9.80
  -3  -6  -7   52.89   10.50
   3   6   7   58.79   12.50
  -4  -6  -7   25.70   10.80
   4   6   7   -4.70   12.80
   5  -7  -7  -13.70    8.80
   4  -7  -7    7.20    5.60
   4  -7  -7   19.40    8.90
   3  -7  -7    6.30    9.50
   3  -7  -7   14.60    6.40
  -2   7   7   95.09   12.60
   1  -7  -7   98.39   12.80
  -1   7   7   85.09   12.80
   0  -7  -7    4.60    6.50
   0   7   7   10.20    9.90
  -1  -7  -7    1.30    7.40
   1   7   7   -3.60   11.50
  -2  -7  -7   10.20    8.60
   2   7   7   12.00   12.70
  -3  -7  -7   -1.80   10.20
   3   7   7    9.50   13.80
   4  -8  -7   22.20   12.00
   3  -8  -7   30.70   13.50
   3  -8  -7   35.40   12.10
   2  -8  -7   23.70    8.30
  -2   8   7   38.30   11.20
   1  -8  -7   41.00    9.60
  -1   8   7   47.90   12.90
   0  -8  -7    0.00    8.80
   0   8   7   17.10   11.90
  -1  -8  -7   15.90   15.80
   1   8   7   36.50   13.70
  -2  -8  -7   -3.70    9.30
   2   8   7   12.70   15.60
  -3  -9   8   -1.10    9.10
  -3  -9   8    3.10    7.80
  -3  -9   8    5.30    9.40
  -2  -9   8   -7.50    7.90
  -2  -9   8    4.40    8.10
  -2  -9   8   11.40    7.50
  -1  -9   8   11.20    7.50
  -1  -9   8   27.40   10.80
  -1  -9   8    8.10    7.20
   0  -9   8   14.10    7.00
   0  -9   8    7.70   12.00
   0  -9   8    3.40    6.60
   1  -9   8   14.90    7.70
   1  -9   8  -16.60   13.40
   1  -9   8    1.90    6.30
   2  -9   8   74.19   19.40
   2  -9   8   79.79    9.60
   2  -9   8   44.30    8.20
  -5  -8   8    9.20    8.30
  -5  -8   8   -5.10    9.60
  -4  -8   8    3.90    6.80
  -4  -8   8   19.00    8.70
  -3  -8   8   -2.60    7.00
  -3  -8   8   14.30    6.50
  -3  -8   8    1.30    6.10
  -2  -8   8   -1.40    7.10
  -2  -8   8    4.60    5.80
  -2  -8   8   -2.30    6.00
  -1  -8   8   38.70   10.10
  -1  -8   8   35.20    7.00
  -1  -8   8   32.20    7.10
   0  -8   8   14.40    5.90
   0  -8   8   -2.20   10.90
   0  -8   8   15.90    6.10
   1  -8   8   11.60    5.70
   1  -8   8   19.40   13.00
   1  -8   8    2.90    5.60
   2  -8   8   62.79    8.00
   2  -8   8   58.19    7.30
  -3   8  -8    6.00   12.50
   3  -8   8    4.90    6.80
   4  -8   8  137.49   15.60
  -6  -7   8   -4.30    9.80
  -6  -7   8   11.80    8.30
  -5  -7   8    7.50    8.20
  -5  -7   8   -2.40    6.60
  -4  -7   8   53.89    8.30
  -4  -7   8   63.89    8.60
  -3  -7   8    1.90    5.20
  -3  -7   8   -1.20    5.70
  -3  -7   8    5.90    5.90
  -2  -7   8   15.70    5.50
  -2  -7   8   15.20    7.50
  -2  -7   8   19.10    7.40
  -2  -7   8   15.40    4.80
  -1  -7   8   12.60    5.30
  -1  -7   8    4.30    7.70
  -1  -7   8    6.40    4.30
  -1  -7   8    9.70    7.70
   0  -7   8   21.20    9.40
   0  -7   8   28.50   10.00
  -1   7  -8  129.79    8.50
   1  -7   8  141.59   17.50
   1  -7   8  113.09    9.40
  -2   7  -8   27.80   10.90
  -2   7  -8   28.30    4.60
   2  -7   8   18.40    5.30
  -3   7  -8  172.78   21.80
  -3   7  -8  150.18    9.10
   3  -7   8  175.98   13.10
  -4   7  -8   42.80   14.20
   4  -7   8   18.70    8.00
  -6  -6   8    9.00    7.40
  -6  -6   8   -4.10    7.90
  -5  -6   8    0.60    5.50
  -5  -6   8   10.40    7.10
  -4  -6   8   16.70    5.80
  -4  -6   8   18.70    6.40
  -3  -6   8    4.90    5.20
  -3  -6   8    8.80    4.10
  -3  -6   8    1.00    3.70
  -3  -6   8    5.80    4.90
   2   6  -8    3.20    4.70
  -2  -6   8    1.50    3.20
  -2  -6   8   11.20    6.20
  -2  -6   8    1.10    5.20
   1   6  -8   24.80    4.40
  -1  -6   8   32.20    6.60
  -1  -6   8   32.00    4.30
   0   6  -8    5.70    3.20
   0  -6   8   11.50    3.50
   0  -6   8   16.60    6.30
   0  -6   8    5.90    8.50
  -1   6  -8   -2.20    2.90
   1  -6   8   -3.80    7.00
   1  -6   8   -7.10    3.30
  -2   6  -8   10.60    3.60
  -2   6  -8   11.40   10.60
   2  -6   8   11.80    4.40
  -3   6  -8    6.90    3.70
  -3   6  -8   11.80   10.30
   3  -6   8    4.70    7.80
   3  -6   8    9.70    5.00
  -4   6  -8   23.50   12.30
  -4   6  -8   28.90    4.60
   4  -6   8   34.60    7.50
  -5   6  -8   78.09   18.70
   5  -6   8   89.09   13.00
  -7  -5   8    3.00    7.90
  -7  -5   8   -1.90    8.40
  -6  -5   8   -2.70    6.00
  -6  -5   8   -7.40    7.40
  -5  -5   8   73.59    9.70
  -5  -5   8  102.39   10.70
  -4  -5   8    8.90    5.10
  -3  -5   8    1.40    8.00
   2   5  -8   26.70    4.30
  -2  -5   8   23.00    6.70
   1   5  -8  549.95   20.10
  -1  -5   8  523.35   21.20
  -1  -5   8  555.94   27.00
  -1  -5   8  534.25   18.90
   0   5  -8  469.95   17.30
   0  -5   8  445.66   16.70
   0  -5   8  449.86   25.20
   0  -5   8  412.56   18.60
  -1   5  -8   95.79   13.30
  -1   5  -8  106.99    7.00
   1  -5   8   86.89    7.00
   1  -5   8   78.29    9.20
   1  -5   8   93.79   12.00
  -2   5  -8    3.20    3.30
   2  -5   8    7.00    3.70
   2  -5   8    4.70    5.60
  -3   5  -8  312.27   23.10
  -3   5  -8  344.57   14.10
   3  -5   8  312.77   17.30
  -4   5  -8   61.29    7.60
  -4   5  -8   52.39   13.40
   4  -5   8   69.59    9.60
  -5   5  -8   26.40   13.00
   5  -5   8   28.40    8.10
  -6   5  -8   47.80   18.80
   6  -5   8   83.69   10.80
  -7  -4   8   26.80    7.90
  -7  -4   8   26.50    7.90
  -6  -4   8   19.80    6.20
  -6  -4   8    2.90    5.60
  -5  -4   8    4.40    5.90
  -5  -4   8   12.60    4.90
   4   4  -8  471.75   18.40
  -4  -4   8  458.95   20.10
  -3  -4   8  127.89   10.30
   2   4  -8   80.69    6.10
  -2  -4   8   71.19   10.10
   1   4  -8   72.79    5.90
  -1  -4   8   72.29    4.50
  -1  -4   8   68.49   10.00
   0   4  -8   62.29    5.90
   0  -4   8   64.09    8.10
   0  -4   8   59.09    4.70
   0  -4   8   66.29    6.70
   0  -4   8   53.09    9.20
  -1   4  -8  617.94   28.90
  -1   4  -8  559.34   22.00
  -1   4  -8  619.44   21.70
   1  -4   8  538.55   23.20
   1  -4   8  612.34   21.20
  -2   4  -8   62.89    8.40
  -2   4  -8   70.09    6.60
   2  -4   8   51.19    7.20
   2  -4   8   67.29    6.60
  -3   4  -8   16.00    4.00
   3  -4   8   19.70    4.70
   3  -4   8    6.10    6.00
  -4   4  -8   75.39    8.00
  -4   4  -8   48.50   15.60
   4  -4   8   73.59    9.60
   4  -4   8   52.39    6.70
  -5   4  -8    3.50    4.90
  -5   4  -8    3.60   12.00
   5  -4   8    4.40    6.80
  -6   4  -8   21.50   14.50
   6  -4   8   -9.90    7.00
  -8  -3   8   35.40    9.70
  -8  -3   8   30.70    9.00
  -7  -3   8   16.40    6.80
  -7  -3   8   17.20    7.20
  -6  -3   8    5.00    6.10
  -6  -3   8    2.20    4.90
   4   3  -8   12.70    3.60
   3   3  -8   10.90    3.20
  -3  -3   8    6.40    4.20
   2   3  -8  829.92   28.90
  -2  -3   8  846.02   33.30
   1   3  -8   20.80    3.60
  -1  -3   8   15.80    4.30
  -1  -3   8   20.60    6.10
  -1  -3   8   24.30    8.30
   0   3  -8    7.90    2.90
   0   3  -8   13.10    3.40
   0  -3   8   13.40    2.50
   0  -3   8    2.70    7.70
   0  -3   8    1.00    5.90
   0  -3   8   10.60    4.00
  -1   3  -8  139.49    7.90
  -1   3  -8  114.79    7.30
  -1   3  -8  112.09   12.10
   1  -3   8  121.39    6.80
   1  -3   8  102.19    9.20
  -2   3  -8    3.30    3.10
  -2   3  -8    3.30    6.50
  -2   3  -8    8.10    3.80
   2  -3   8    8.50    3.20
   2  -3   8    4.70    4.60
  -3   3  -8   12.90   11.80
  -3   3  -8    4.60    3.60
   3  -3   8    2.70    3.40
   3  -3   8    1.00    5.70
  -4   3  -8  390.96   17.10
  -4   3  -8  404.86   28.50
   4  -3   8  388.96   18.10
  -5   3  -8   -6.00    5.20
  -5   3  -8    9.80   11.60
   5  -3   8   -1.80    6.00
  -6   3  -8  -14.70   13.20
  -6   3  -8   23.70    7.20
   6  -3   8    6.40    7.30
  -8  -2   8    4.30    8.20
  -8  -2   8   12.20    7.80
  -7  -2   8   -2.70    5.30
  -7  -2   8    4.90    6.30
  -6  -2   8   35.80    6.70
   5   2  -8  152.78    8.70
   4   2  -8    5.80    3.20
  -4  -2   8    6.80    4.00
   3   2  -8  520.25   19.30
  -3  -2   8  523.05   21.60
   2   2  -8  191.18    9.30
  -2  -2   8  206.88   12.70
  -2  -2   8  167.48   14.50
  -2  -2   8  167.58   11.10
   1   2  -8  487.35   18.10
  -1  -2   8  435.26   19.40
  -1  -2   8  485.55   22.90
  -1  -2   8  491.05   24.00
   0   2  -8 1028.60   36.60
   0   2  -8 1205.18   38.20
   0  -2   8 1062.49   39.10
   0  -2   8 1041.60   43.50
   0  -2   8 1181.18   36.30
   0  -2   8 1186.88   44.30
  -1   2  -8    5.40    5.40
  -1   2  -8    4.40    2.50
  -1   2  -8    8.50    3.30
   1  -2   8    5.20    7.10
   1  -2   8    7.70    4.50
   1  -2   8    6.40    2.60
  -2   2  -8   35.70    8.40
  -2   2  -8   43.70    5.40
  -2   2  -8   53.69    5.60
   2  -2   8   50.99    5.70
   2  -2   8   38.80    6.40
  -3   2  -8   -2.60    3.60
  -3   2  -8   -4.20    7.30
   3  -2   8    0.10    3.30
  -4   2  -8   14.50    8.80
  -4   2  -8    7.70    4.80
  -5   2  -8  269.27   24.50
  -5   2  -8  268.77   15.60
   5  -2   8  272.77   16.70
  -6   2  -8   -5.60    7.40
  -6   2  -8   15.20   14.60
   6  -2   8   -3.90    7.70
  -8  -1   8   17.10    8.40
  -8  -1   8   16.90    7.30
  -7  -1   8   -3.70    5.70
   6   1  -8   15.00    4.80
  -6  -1   8   13.00    5.10
   5   1  -8   34.30    4.30
   4   1  -8   73.89    5.90
  -4  -1   8   57.09    7.00
   3   1  -8    8.50    2.90
   3   1  -8    1.40    7.50
  -3  -1   8   10.10    4.00
  -3  -1   8    8.40    4.40
   2   1  -8 1088.49   35.90
  -2  -1   8 1019.20   40.90
  -2  -1   8 1004.80   37.40
  -2  -1   8 1125.79   39.10
   1   1  -8   11.60    2.90
  -1  -1   8   14.20    5.00
  -1  -1   8   13.50    4.10
  -1  -1   8   10.90    5.90
   0   1  -8  245.98   10.20
   0   1  -8  275.67   12.50
   0  -1   8  273.07   16.60
   0  -1   8  266.37   13.60
   0  -1   8  275.77   17.20
   0  -1   8  270.97   11.10
  -1   1  -8  170.98    8.10
  -1   1  -8  183.68   10.10
  -1   1  -8  188.38   13.80
   1  -1   8  155.28   14.60
   1  -1   8  164.98   10.90
   1  -1   8  176.38    9.00
  -2   1  -8  460.55   18.20
  -2   1  -8  482.15   24.40
  -2   1  -8  507.65   20.10
   2  -1   8  508.05   19.20
   2  -1   8  453.15   20.90
  -3   1  -8   78.89    8.70
  -3   1  -8   54.89    9.80
   3  -1   8   66.99    7.80
  -4   1  -8  130.49   11.20
  -4   1  -8  126.99   16.70
   4  -1   8  105.59   10.60
  -5   1  -8   97.69   12.20
  -5   1  -8  140.69   20.40
   5  -1   8   87.59   12.20
  -6   1  -8  242.58   18.70
  -6   1  -8  218.98   27.50
   6  -1   8  266.07   18.90
  -8   0   8  -15.10    7.50
  -7   0   8   40.90    7.50
   6   0  -8   73.19    7.20
   5   0  -8  150.78    8.30
  -5   0   8  146.29   10.10
   4   0  -8   69.79    5.80
  -4   0   8   41.70    6.20
  -4   0   8   54.19    6.70
   3   0  -8  207.88   17.20
   3   0  -8  230.68   10.60
  -3   0   8  219.08   11.50
  -3   0   8  220.38   12.20
   2   0  -8   28.60    3.90
  -2   0   8   41.80    6.00
  -2   0   8   32.60    6.20
  -2   0   8   37.40    5.60
   1   0  -8  477.25   18.40
  -1   0   8  449.06   21.80
  -1   0   8  463.65   21.30
  -1   0   8  444.56   19.40
   0   0  -8  178.88    7.80
   0   0  -8  175.38   10.20
   0   0   8  181.08   14.20
   0   0   8  177.68   11.10
   0   0   8  183.78    9.50
   0   0   8  175.48   13.40
  -1   0  -8  372.66   16.40
  -1   0  -8  358.46   19.20
  -1   0  -8  357.16   14.10
   1   0   8  386.46   15.80
   1   0   8  374.76   17.70
   1   0   8  353.26   19.70
  -2   0  -8  554.34   22.00
  -2   0  -8  479.15   19.40
  -2   0  -8  509.55   25.10
   2   0   8  527.95   21.10
   2   0   8  534.05   26.00
  -3   0  -8  282.77   19.50
  -3   0  -8  311.07   15.90
   3   0   8  288.37   15.30
  -4   0  -8  108.49   16.00
   4   0   8   66.99    8.50
  -5   0  -8   12.70   11.40
   5   0   8    5.90    6.50
  -6   0  -8   65.69   15.80
  -6   0  -8   51.59   10.10
   6   0   8   82.49   12.90
  -8   1   8   17.10    8.70
   7  -1  -8   14.00    5.60
  -7   1   8   24.50    5.70
  -7   1   8   12.70    6.40
   6  -1  -8   10.50    3.80
   5  -1  -8   72.69    6.40
  -5   1   8   60.79    7.90
  -5   1   8   77.69    8.00
   4  -1  -8    0.80    8.10
   4  -1  -8   17.10    3.50
  -4   1   8   13.10    3.90
  -4   1   8    1.80    4.80
   3  -1  -8    2.60    2.80
   3  -1  -8   -8.00    6.70
  -3   1   8    3.00    3.10
  -3   1   8   -0.60    4.00
   2  -1  -8   86.99    6.70
  -2   1   8   79.09   10.10
  -2   1   8   78.69    8.50
  -2   1   8   82.69    7.50
   1  -1  -8   21.20    2.90
   1  -1  -8   19.20    4.10
  -1   1   8   19.80    5.00
  -1   1   8   22.70    5.00
  -1   1   8   24.80    6.30
  -1   1   8   15.30    3.80
   0  -1  -8  399.46   15.00
   0  -1  -8  397.26   17.30
   0   1   8  422.96   17.40
   0   1   8  354.76   17.90
   0   1   8  413.06   19.90
   0   1   8  388.06   19.70
  -1  -1  -8  108.39    7.10
  -1  -1  -8  129.59    9.10
  -1  -1  -8  121.99   11.10
   1   1   8  112.59    9.10
   1   1   8  100.49   10.90
  -2  -1  -8  461.65   23.50
  -2  -1  -8  523.35   21.10
  -2  -1  -8  459.55   18.60
   2   1   8  471.15   20.90
   2   1   8  457.75   23.00
  -3  -1  -8   81.19   10.10
  -3  -1  -8   98.69   13.70
   3   1   8   93.29   10.50
   4   1   8  445.46   22.40
  -5  -1  -8    7.50    7.20
  -5  -1  -8  -11.00   11.50
   5   1   8   -0.70    7.40
  -6  -1  -8   11.60    9.10
  -6  -1  -8   26.00   15.00
   6   1   8   -1.20   10.60
  -8   2   8   22.80    9.50
   7  -2  -8   17.20    5.30
  -7   2   8   25.40    7.60
  -7   2   8    7.80    4.90
   6  -2  -8   38.70    5.00
   6  -2  -8   37.80    4.90
  -6   2   8   41.60    8.60
   5  -2  -8    9.30    6.50
   5  -2  -8    4.40    3.50
   5  -2  -8   -1.10    3.30
  -5   2   8    2.60    3.80
  -5   2   8   -5.20    5.60
   4  -2  -8   83.89    9.60
   4  -2  -8   78.69   11.80
   4  -2  -8   89.89    6.90
   4  -2  -8   84.39    6.20
  -4   2   8   89.49    7.60
  -4   2   8   72.79    9.80
   3  -2  -8  205.08   11.20
   3  -2  -8  208.18   10.80
   3  -2  -8  214.88    9.70
   3  -2  -8  206.18   16.10
  -3   2   8  209.68   10.20
  -3   2   8  190.38   12.40
   2  -2  -8   56.49    6.50
   2  -2  -8   48.40    6.10
  -2   2   8   59.39    7.90
  -2   2   8   45.40    5.80
  -2   2   8   50.79    6.40
  -2   2   8   42.70    6.30
   1  -2  -8  113.99    7.60
   1  -2  -8  121.99    8.60
  -1   2   8  115.39    9.20
  -1   2   8  122.19   10.20
  -1   2   8  123.39   10.70
  -1   2   8  106.29    8.80
   0  -2  -8  573.54   22.90
   0  -2  -8  547.75   20.70
   0   2   8  588.94   23.40
   0   2   8  550.44   23.90
   0   2   8  541.65   23.90
  -1  -2  -8   63.29    7.50
  -1  -2  -8   67.79    8.50
  -1  -2  -8   48.70    6.00
   1   2   8   60.99    8.90
   1   2   8   56.99    8.10
  -2  -2  -8   54.09    8.70
  -2  -2  -8   42.80    7.00
   2   2   8   40.90    7.50
   2   2   8   45.50    8.20
  -3  -2  -8  452.55   24.30
   3   2   8  431.56   22.00
  -4  -2  -8   45.00    8.60
  -4  -2  -8   66.99   12.30
   4   2   8   41.00    8.50
  -5  -2  -8  168.48   22.60
  -5  -2  -8  132.69   16.10
   5   2   8  116.09   14.90
  -6  -2  -8   97.79   14.50
  -6  -2  -8  117.99   20.00
   6   2   8   85.89   14.20
   7  -3  -8   28.00    6.20
  -7   3   8   35.60    8.90
   6  -3  -8   19.70    5.30
   6  -3  -8   13.20    4.30
   5  -3  -8   -6.80    7.90
   5  -3  -8    1.00    3.40
   5  -3  -8    2.10    4.20
  -5   3   8   -9.30    6.20
  -5   3   8    7.00    4.20
   4  -3  -8   69.79   11.40
   4  -3  -8   58.79    7.20
   4  -3  -8   45.60    8.20
   4  -3  -8   59.59    6.70
  -4   3   8   58.59    7.10
  -4   3   8   55.69    7.80
   3  -3  -8   78.79    8.30
   3  -3  -8   82.19   10.10
   3  -3  -8   72.99   10.40
   3  -3  -8   82.19    7.70
  -3   3   8   77.89    8.60
  -3   3   8   91.49    7.00
   2  -3  -8  851.81   30.20
   2  -3  -8  810.22   30.20
  -2   3   8  854.31   28.00
  -2   3   8  816.62   29.90
  -2   3   8  780.62   31.40
  -2   3   8  775.02   31.40
   1  -3  -8   49.99    7.10
   1  -3  -8   57.59    7.50
  -1   3   8   62.89    7.80
  -1   3   8   44.50    6.30
  -1   3   8   51.49    7.50
   0  -3  -8  451.85   20.00
   0  -3  -8  445.66   18.60
   0   3   8  455.65   19.70
   0   3   8  426.96   20.00
   0   3   8  442.56   20.80
  -1  -3  -8  541.45   23.10
  -1  -3  -8  488.15   20.90
   1   3   8  555.14   24.70
   1   3   8  532.95   24.00
   1   3   8  527.95   22.50
  -2  -3  -8   -4.90    6.00
   2   3   8   -5.10    5.30
   2   3   8   -3.50    6.50
  -3  -3  -8  365.46   21.70
  -3  -3  -8  398.56   20.20
   3   3   8  388.46   22.00
   3   3   8  336.17   18.60
  -4  -3  -8   12.90    7.40
  -4  -3  -8    7.90   10.00
   4   3   8  -13.80    8.20
  -5  -3  -8   17.10   12.90
  -5  -3  -8   15.20    9.40
   5   3   8   -5.10   10.30
   6   3   8   24.10   15.00
  -7   4   8   35.20   10.10
   6  -4  -8    1.20    4.00
   6  -4  -8    9.50    6.20
  -6   4   8    6.90    7.10
   5  -4  -8   -1.00    3.80
   5  -4  -8   16.00    5.40
   5  -4  -8   -1.20   10.50
  -5   4   8    4.90    7.30
  -5   4   8    2.10    5.00
   4  -4  -8  157.78   11.20
   4  -4  -8  147.29   17.40
   4  -4  -8  140.89   16.40
   4  -4  -8  151.18    9.70
  -4   4   8  143.69   13.00
  -4   4   8  159.48    9.60
   3  -4  -8    9.10    7.10
   3  -4  -8   -1.10    3.90
  -3   4   8    8.60    3.20
  -3   4   8    7.70    6.30
   2  -4  -8   11.90    6.10
   2  -4  -8   13.30    4.60
  -2   4   8    6.50    5.60
  -2   4   8    7.40    5.70
  -2   4   8    8.90    3.20
   1  -4  -8  179.38   11.90
   1  -4  -8  141.79   12.20
  -1   4   8  168.38   11.80
  -1   4   8  148.89    7.80
  -1   4   8  167.48   13.30
   0  -4  -8  318.07   16.50
   0  -4  -8  271.57   16.30
   0   4   8  275.77   17.30
   0   4   8  271.47   12.80
   0   4   8  275.07   14.70
  -1  -4  -8    0.90    5.20
   1   4   8   -2.40    4.40
   1   4   8    6.30    5.70
   1   4   8   -0.60    6.60
  -2  -4  -8   77.99   11.00
   2   4   8   73.19    8.80
   2   4   8   58.59   10.00
  -3  -4  -8  108.79   13.70
  -3  -4  -8  120.29   14.60
   3   4   8   92.59   12.80
  -4  -4  -8   -0.60   10.30
  -4  -4  -8   -3.70    7.80
   4   4   8    3.60   11.90
  -5  -4  -8    8.10   13.10
  -5  -4  -8   -3.10   10.00
   5   4   8    4.60   12.40
   6  -5  -8   38.30   12.40
  -6   5   8   21.90    9.80
   5  -5  -8  129.19   13.00
   5  -5  -8  114.89    9.00
  -5   5   8  137.79   12.90
   4  -5  -8  159.58   11.20
   4  -5  -8  170.88   13.80
  -4   5   8  171.88   11.30
   3  -5  -8    0.60    5.00
  -3   5   8   -2.60    3.40
  -3   5   8    2.50    6.90
   2  -5  -8  140.79   11.50
  -2   5   8  137.29    7.30
  -2   5   8  136.49   13.20
  -1   5   8   -0.90    7.00
   0  -5  -8    3.80    5.60
   0   5   8   -1.20    7.20
  -1  -5  -8  328.77   18.70
   1   5   8  284.17   13.90
   1   5   8  342.87   21.40
  -2  -5  -8   21.80    7.50
   2   5   8   15.00    7.50
   2   5   8   16.60    9.40
  -3  -5  -8   58.59    9.40
  -3  -5  -8   48.90    9.70
   3   5   8   53.79   12.70
  -4  -5  -8   63.39   12.10
   4   5   8   60.79   15.90
   6  -6  -8   -2.10   10.00
   5  -6  -8   67.19   10.20
   4  -6  -8    3.20    5.30
   3  -6  -8  574.24   24.00
   2  -6  -8   35.00    7.40
  -2   6   8   28.50    8.80
   1  -6  -8    0.00    6.40
  -1   6   8    2.70    8.50
   0  -6  -8   48.50    9.00
   0   6   8   37.10   10.60
  -1  -6  -8    1.10    7.80
   1   6   8   14.70   11.40
  -2  -6  -8   -2.80    7.40
   2   6   8   -1.10   10.60
  -3  -6  -8   16.30    9.50
   3   6   8   31.80   15.00
  -4  -6  -8    9.80   11.10
   4   6   8   30.50   16.60
   5  -7  -8  139.69   19.30
   4  -7  -8    6.70   10.30
   4  -7  -8   -3.60    6.50
   3  -7  -8    6.00    6.60
   3  -7  -8   21.90   10.40
   2  -7  -8   19.30    7.80
  -2   7   8    6.40    9.70
   1  -7  -8   59.79    9.90
  -1   7   8   52.69   12.60
   0  -7  -8   13.60    8.40
   0   7   8    6.50   10.60
  -1  -7  -8   14.20    9.60
   1   7   8   23.40   12.50
  -2  -7  -8   12.40    9.90
   2   7   8   21.60   14.50
   3   7   8   11.60   15.30
   3  -8  -8   12.10   12.90
   3  -8  -8    1.70    8.10
   2  -8  -8   -2.90    8.60
  -2   8   8    9.90   12.50
   1  -8  -8   17.60    9.90
  -1   8   8   -9.70   12.60
   0  -8  -8    7.60   10.20
   0   8   8   22.40   13.60
  -1  -8  -8    7.30   10.20
   1   8   8    4.80   16.10
  -2  -9   9   -7.60    8.10
  -2  -9   9    7.90    9.90
  -1  -9   9   -6.50    6.70
  -1  -9   9    4.20   11.30
  -1  -9   9    5.30    7.80
   0  -9   9   22.90    8.20
   0  -9   9   20.80    7.80
   0  -9   9   52.19   15.10
   1  -9   9   -9.60   15.80
   1  -9   9    4.00    6.50
   1  -9   9   -4.90    7.20
  -4  -8   9   22.30    8.40
  -4  -8   9   21.40    9.00
  -3  -8   9   95.29   11.70
  -3  -8   9   75.99   10.80
  -2  -8   9   21.00    9.30
  -2  -8   9   25.20    7.70
  -2  -8   9   24.00    5.80
  -1  -8   9  119.59   12.90
  -1  -8   9  140.69   20.00
  -1  -8   9  125.29   10.90
   0  -8   9   -4.00    6.00
   0  -8   9   -4.40    5.70
   0  -8   9   -4.50   12.30
   1  -8   9  109.09   19.10
   1  -8   9  105.49   11.90
   1  -8   9  101.09   11.10
   2  -8   9    4.60   15.70
   2  -8   9   -2.40    6.10
   2  -8   9    0.90    6.10
  -3   8  -9    3.10   14.60
   3  -8   9   -2.30    7.80
  -5  -7   9    8.70    8.20
  -5  -7   9    4.40    7.50
  -4  -7   9   -1.40    6.60
  -4  -7   9   16.40    7.10
  -3  -7   9   52.89    8.70
  -3  -7   9   75.79    7.70
  -3  -7   9   79.39    9.80
  -2  -7   9  282.37   16.80
  -2  -7   9  301.27   20.30
  -2  -7   9  271.77   12.80
  -1  -7   9   85.69    8.00
  -1  -7   9  102.69   14.20
   0  -7   9   61.69   13.70
   0  -7   9   50.49   13.60
   0  -7   9   52.39    7.70
  -1   7  -9   47.00    6.50
   1  -7   9   46.30   14.00
   1  -7   9   65.19    8.60
  -2   7  -9   28.70   11.50
   2  -7   9    9.80    6.10
  -3   7  -9   70.79    8.20
  -3   7  -9   46.50   14.00
   3  -7   9   83.79   12.10
  -4   7  -9    3.40   14.10
   4  -7   9    2.70    7.10
  -6  -6   9   20.70    8.20
  -6  -6   9    6.70    7.50
  -5  -6   9  -12.40    6.80
  -5  -6   9   10.10    6.50
  -4  -6   9   20.90    6.50
  -4  -6   9   25.00    7.00
  -3  -6   9   44.50    7.50
  -3  -6   9   47.50    8.90
   2   6  -9   96.29    8.70
  -2  -6   9   94.39   13.60
  -2  -6   9   87.29    6.30
  -1  -6   9  311.77   16.90
  -1  -6   9  351.96   13.70
  -1  -6   9  344.77   22.50
   0   6  -9   -5.10    3.50
   0  -6   9    2.00    3.40
   0  -6   9    3.90    6.80
   0  -6   9   15.70    9.80
  -1   6  -9  329.67   14.70
   1  -6   9  321.87   25.50
   1  -6   9  329.37   14.60
   1  -6   9  287.17   21.50
  -2   6  -9  280.37   23.30
  -2   6  -9  287.27   13.60
   2  -6   9  304.67   16.70
  -3   6  -9    0.30    4.50
  -3   6  -9   21.30   11.70
   3  -6   9    3.00    5.30
  -4   6  -9  194.08   11.10
  -4   6  -9  137.69   19.30
   4  -6   9  173.08   14.30
  -7  -5   9   16.20    8.70
  -7  -5   9   21.80    9.50
  -6  -5   9   36.20    8.40
  -6  -5   9   28.60    7.70
  -5  -5   9   40.90    7.10
  -5  -5   9   41.40    7.60
  -4  -5   9   66.89    8.60
  -3  -5   9  133.09   12.50
  -2  -5   9   10.30    6.90
  -1  -5   9   54.39    9.80
  -1  -5   9   68.49    5.20
  -1  -5   9   44.70    6.20
   0   5  -9   24.50    4.20
   0  -5   9   26.50    5.90
   0  -5   9   25.10    3.90
   0  -5   9   30.90    9.60
  -1   5  -9    7.90    3.70
   1  -5   9    4.90    5.40
   1  -5   9    9.50    3.70
  -2   5  -9    4.20    8.40
  -2   5  -9    8.30    3.90
   2  -5   9    1.00    4.30
  -3   5  -9  234.08   22.20
  -3   5  -9  238.78   12.40
   3  -5   9  231.18   13.40
  -4   5  -9   -6.50    4.90
  -4   5  -9   -2.80   10.50
   4  -5   9    4.80    5.80
  -5   5  -9   34.90   16.30
   5  -5   9   18.10    8.00
  -7  -4   9    3.50    8.10
  -7  -4   9  -11.10    7.60
  -6  -4   9   12.00    6.40
  -6  -4   9   15.00    6.30
  -5  -4   9   23.30    6.10
  -5  -4   9    8.20    6.00
   4   4  -9  107.29   10.30
   2   4  -9  306.17   14.60
   1   4  -9   16.70    3.90
   0   4  -9   30.90    4.50
   0  -4   9   26.00    4.80
   0  -4   9   27.40    3.50
  -1   4  -9   19.90    4.80
  -1   4  -9   24.50    4.20
   1  -4   9   29.40    4.20
  -2   4  -9  184.58   13.50
  -2   4  -9  251.37   11.80
   2  -4   9  237.98   11.70
  -3   4  -9  194.08   11.20
   3  -4   9  172.88   12.90
  -4   4  -9   75.79    9.30
  -4   4  -9   47.80   12.80
   4  -4   9   85.09   10.50
  -5   4  -9   14.80   13.20
  -5   4  -9   32.10    7.40
   5  -4   9   22.00    7.50
  -7  -3   9   -6.70    6.90
  -7  -3   9   -2.70    6.60
  -6  -3   9   37.90    7.30
  -6  -3   9   45.40    7.50
   5   3  -9   20.80    4.90
   4   3  -9    6.90    3.60
   3   3  -9  125.79    8.40
   2   3  -9  267.67   12.20
  -2  -3   9  263.47   16.70
   1   3  -9   13.00    3.60
  -1  -3   9   26.60    7.60
   0   3  -9  905.61   30.70
   0   3  -9  827.62   29.20
   0  -3   9  860.71   38.10
   0  -3   9  866.01   28.80
  -1   3  -9  207.58   16.80
  -1   3  -9  210.28   10.90
  -1   3  -9  246.48   11.70
   1  -3   9  232.08   10.60
  -2   3  -9   14.70    4.00
  -2   3  -9   -2.10    6.50
  -2   3  -9   -1.30    4.30
   2  -3   9    7.90    4.10
  -3   3  -9   55.99    7.00
  -3   3  -9   54.19   11.40
   3  -3   9   58.69    8.50
  -4   3  -9   78.19   14.10
  -4   3  -9   94.79    9.60
   4  -3   9   91.59   10.80
  -5   3  -9   30.60   12.80
  -5   3  -9    1.70    5.70
   5  -3   9    4.70    7.00
  -6   3  -9   44.40   19.40
   6  -3   9   18.10    9.90
  -8  -2   9   -6.80    7.90
  -8  -2   9   -0.40   11.40
  -7  -2   9   30.20    6.90
  -7  -2   9   49.10    8.40
  -6  -2   9   -4.30    5.50
   5   2  -9   34.00    5.20
   4   2  -9  335.97   17.00
  -4  -2   9  335.87   19.50
   3   2  -9   86.09    6.90
  -3  -2   9   75.39    9.00
   2   2  -9  542.65   20.70
  -2  -2   9  552.64   24.80
   1   2  -9   48.90    5.70
  -1  -2   9   63.69    9.70
   0   2  -9  151.38    8.80
   0   2  -9  140.59    7.20
   0  -2   9  143.49   15.10
   0  -2   9  139.79    7.50
  -1   2  -9 1104.39   36.80
  -1   2  -9  981.30   34.60
  -1   2  -9 1053.29   42.60
   1  -2   9 1029.20   35.20
  -2   2  -9  514.65   31.90
  -2   2  -9  502.25   20.50
  -2   2  -9  575.54   21.90
   2  -2   9  538.45   20.90
  -3   2  -9  176.28   18.00
  -3   2  -9  181.58   11.60
   3  -2   9  165.68   11.50
  -4   2  -9   51.79   11.50
  -4   2  -9   36.70    8.20
   4  -2   9   50.49    7.60
  -5   2  -9  141.99   20.20
   5  -2   9  119.79   14.10
  -6   2  -9   27.50    9.30
  -6   2  -9   -5.60   16.00
   6  -2   9    4.10    8.80
  -8  -1   9   33.20    9.70
  -8  -1   9    6.20    8.30
  -7  -1   9   10.90    6.90
  -7  -1   9    8.00    6.20
   6   1  -9   -8.30    4.70
  -6  -1   9   -7.40    5.00
   4   1  -9   -1.60    3.10
  -4  -1   9    3.40    4.10
   3   1  -9   73.99    6.60
  -3  -1   9   67.69    8.40
   2   1  -9  300.07   14.10
  -2  -1   9  316.07   16.80
   1   1  -9   83.39    6.90
  -1  -1   9   57.79    9.20
  -1  -1   9   74.79   10.90
   0   1  -9  116.19    8.30
   0   1  -9  107.69    6.10
   0  -1   9  117.69    7.40
   0  -1   9   95.99   13.00
   0  -1   9  109.99   13.70
  -1   1  -9  191.78   11.00
  -1   1  -9  170.68    9.00
  -1   1  -9  188.98   15.10
   1  -1   9  192.38   10.20
  -2   1  -9  571.54   22.70
  -2   1  -9  639.74   24.80
  -2   1  -9  620.14   30.10
   2  -1   9  616.54   24.10
  -3   1  -9  397.06   21.50
  -3   1  -9  396.86   24.60
   3  -1   9  421.16   19.20
  -4   1  -9   51.59   12.90
   4  -1   9   43.10    7.60
  -5   1  -9   10.10    7.50
  -5   1  -9  -14.80   11.60
   5  -1   9   -3.90    7.40
  -6   1  -9   22.30   10.30
  -6   1  -9   34.50   17.20
   6  -1   9   16.50   10.70
  -8   0   9   31.00    9.20
  -8   0   9   20.40    7.80
  -7   0   9   -2.30    6.30
   6   0  -9   83.99    7.70
  -6   0   9   78.59   10.00
   5   0  -9   13.00    4.00
  -5   0   9   20.00    6.40
   4   0  -9   20.50    4.30
  -4   0   9   28.70    5.30
   3   0  -9  151.68    8.80
  -3   0   9  148.89    9.90
   2   0  -9  198.48   10.30
  -2   0   9  183.08   12.50
  -2   0   9  173.68   15.60
   1   0  -9  222.38   11.10
  -1   0   9  166.38   15.10
  -1   0   9  196.58   14.30
   0   0  -9  154.48    7.60
   0   0  -9  166.18   10.00
   0   0   9  157.48   14.30
   0   0   9  162.08    9.70
   0   0   9  132.89   14.60
  -1   0  -9    9.00    3.40
  -1   0  -9   17.20    4.70
  -1   0  -9   14.40    6.30
   1   0   9   15.10    4.50
   1   0   9   16.50    8.80
  -2   0  -9   98.39    8.40
  -2   0  -9  107.59   10.20
  -2   0  -9   88.29   13.20
   2   0   9  114.19   10.30
  -3   0  -9   19.20    7.30
   3   0   9   17.70    6.40
  -4   0  -9   27.50    8.60
  -4   0  -9   16.80   10.00
   4   0   9   32.20    8.70
  -5   0  -9  134.69   19.80
  -5   0  -9  127.49   15.90
   5   0   9  158.68   16.70
  -6   0  -9    2.70   10.60
  -6   0  -9   -4.50   16.50
   6   0   9    8.70   10.20
  -8   1   9   -3.30    8.70
  -7   1   9   -2.00    6.20
   6  -1  -9    3.20    4.40
  -6   1   9    2.30    5.10
   5  -1  -9  348.47   15.00
  -5   1   9  373.16   19.10
   4  -1  -9   11.80    3.80
  -4   1   9   15.30    4.40
   3  -1  -9    3.60    3.50
  -3   1   9   -0.10    3.70
  -3   1   9   -2.30    6.90
   2  -1  -9  547.05   21.50
  -2   1   9  538.85   25.60
  -2   1   9  550.34   22.30
   1  -1  -9   18.80    4.30
   1  -1  -9   30.80    4.20
  -1   1   9   25.20    4.70
  -1   1   9   19.80    5.70
  -1   1   9   22.10    7.00
   0  -1  -9  289.37   12.00
   0  -1  -9  289.67   14.40
   0   1   9  293.67   18.00
   0   1   9  280.77   14.50
   0   1   9  254.57   17.60
  -1  -1  -9  539.25   21.20
  -1  -1  -9  609.24   26.90
  -1  -1  -9  582.34   25.30
   1   1   9  561.94   27.30
   1   1   9  613.14   24.50
  -2  -1  -9   17.50    7.30
  -2  -1  -9   22.60    6.30
   2   1   9   18.00    6.40
  -3  -1  -9  115.49   15.60
   3   1   9   69.79   15.10
  -4  -1  -9   78.79   10.80
  -4  -1  -9   68.99   13.50
   4   1   9   60.59   10.00
  -5  -1  -9  -12.20   13.20
  -5  -1  -9   10.70    8.70
   5   1   9   -4.90   10.20
   6   1   9  122.69   18.70
   7  -2  -9   43.10    7.30
  -7   2   9   45.10    8.60
   6  -2  -9   22.00    5.20
   6  -2  -9   22.60    5.10
  -6   2   9   19.40    6.20
   5  -2  -9    7.70    4.20
  -5   2   9   11.20    5.10
   4  -2  -9  189.68   10.30
  -4   2   9  178.38   10.70
   3  -2  -9    5.10    3.60
   3  -2  -9   -1.20    3.50
   3  -2  -9    1.30    4.20
  -3   2   9    4.10    3.60
  -3   2   9   -1.70    7.10
   2  -2  -9    3.90    3.70
   2  -2  -9    4.50    4.00
  -2   2   9    4.90    4.00
  -2   2   9   10.80    7.10
  -2   2   9    4.30    3.90
   1  -2  -9  584.64   23.40
   1  -2  -9  567.14   21.20
  -1   2   9  604.44   23.60
  -1   2   9  566.64   26.10
  -1   2   9  563.54   23.60
   0  -2  -9   -1.40    4.40
   0  -2  -9   -2.10    3.10
   0   2   9    4.20    5.20
   0   2   9   -8.10    7.00
   0   2   9    6.90    5.60
  -1  -2  -9  388.96   17.00
   1   2   9  426.86   21.10
   1   2   9  419.76   21.90
  -2  -2  -9   95.79   13.20
   2   2   9   92.19   12.00
   2   2   9   94.99   11.80
  -3  -2  -9   18.50    8.50
  -3  -2  -9   17.80    6.90
   3   2   9    6.00    7.30
  -4  -2  -9   -3.40    7.30
  -4  -2  -9   -2.60   10.90
   4   2   9   -6.20    8.30
  -5  -2  -9   40.40   15.50
  -5  -2  -9   20.30    9.50
   5   2   9    5.10   12.00
  -7   3   9    7.00    8.50
   6  -3  -9   -0.80    4.70
   6  -3  -9    4.80    5.10
  -6   3   9    2.40    7.50
   5  -3  -9  276.87   12.90
   5  -3  -9  267.77   13.40
  -5   3   9  284.77   14.60
   4  -3  -9   -1.20    4.10
   4  -3  -9    0.60    7.30
   4  -3  -9    2.50   11.90
   4  -3  -9    2.40    4.30
  -4   3   9    1.30    3.90
   3  -3  -9  128.09    9.80
   3  -3  -9  138.89   10.00
   3  -3  -9  125.29   11.40
  -3   3   9  124.49    8.60
  -3   3   9  107.79   13.50
   2  -3  -9   28.10    5.60
   2  -3  -9   28.10    5.30
  -2   3   9   39.90    5.80
  -2   3   9   34.50    6.20
  -2   3   9   33.10    8.00
   1  -3  -9   22.00    6.00
   1  -3  -9   10.00    4.80
  -1   3   9   15.40    6.20
  -1   3   9    9.00    4.40
  -1   3   9   13.70    6.80
   0  -3  -9   42.70    6.90
   0  -3  -9   57.59    8.10
   0   3   9   56.29    8.90
   0   3   9   70.19    9.40
   0   3   9   58.79    8.20
   1   3   9  108.89   13.30
   1   3   9  108.29   14.30
   1   3   9  107.69   12.30
  -2  -3  -9   55.99    9.80
   2   3   9   47.80    8.90
  -3  -3  -9   82.19   12.10
  -3  -3  -9   79.99   10.50
   3   3   9  103.29   13.90
  -4  -3  -9   53.89   10.50
  -4  -3  -9   43.20   13.20
   4   3   9   69.69   13.80
  -5  -3  -9    0.70   10.70
  -5  -3  -9   15.90   14.80
   5   3   9   -5.30   14.60
  -7   4   9   46.30   11.80
   6  -4  -9  115.09    9.40
   6  -4  -9   99.89   12.70
   5  -4  -9    6.00    4.90
   5  -4  -9    4.90    5.60
  -5   4   9    2.10    5.30
   4  -4  -9   34.90   10.60
   4  -4  -9   28.70   13.30
   4  -4  -9   39.00    7.00
   4  -4  -9   30.70    5.70
  -4   4   9   48.10    6.20
   3  -4  -9  108.29    9.90
   3  -4  -9   90.09   11.10
  -3   4   9  101.19   11.50
  -3   4   9  114.19    8.30
   2  -4  -9    9.60    7.00
   2  -4  -9   -0.80    7.90
  -2   4   9    2.20    7.10
  -2   4   9   -5.40    6.10
  -2   4   9    1.00    3.50
   1  -4  -9   13.50    7.00
   1  -4  -9   27.30    6.00
  -1   4   9   20.70    7.20
  -1   4   9   10.40    3.70
  -1   4   9   10.70    7.00
   0  -4  -9  371.76   19.20
   0   4   9  332.17   17.90
   0   4   9  329.17   15.60
   0   4   9  365.66   20.60
  -1  -4  -9   23.90    6.90
   1   4   9   34.60    7.00
   1   4   9   22.60    7.50
  -2  -4  -9    4.00    6.50
   2   4   9   24.30   10.20
  -3  -4  -9   38.00   10.20
  -3  -4  -9   25.80    8.40
   3   4   9   17.50   11.00
  -4  -4  -9   17.40   11.90
  -4  -4  -9   11.40    9.80
   4   4   9    3.60   13.90
   5  -5  -9  108.79   10.40
   5  -5  -9  133.29   13.40
  -5   5   9  105.39   12.90
   4  -5  -9  107.89   10.90
   4  -5  -9   96.89   13.20
  -4   5   9  113.49   10.40
   3  -5  -9  253.07   17.20
  -3   5   9  296.47   13.00
   2  -5  -9  219.78   14.90
  -2   5   9  213.78    9.90
  -2   5   9  208.68   16.50
   1  -5  -9   20.70    7.10
  -1   5   9   25.70    3.90
  -1   5   9   37.10    9.80
   0  -5  -9   -0.30    6.30
   0   5   9    7.60    8.90
   0   5   9    2.80    3.70
  -1  -5  -9   11.00    7.30
   1   5   9   -2.80    9.60
  -2  -5  -9   14.60    8.10
   2   5   9    9.80   10.60
  -3  -5  -9   -0.30    8.40
   3   5   9   -2.70   12.60
  -4  -5  -9   21.20   12.10
   4   5   9    3.80   15.10
   5  -6  -9   -4.20    9.40
   4  -6  -9    1.20    6.00
   3  -6  -9  138.69   13.90
   2  -6  -9    1.50    6.90
  -2   6   9   10.30    9.40
   1  -6  -9  229.88   17.50
  -1   6   9  246.48   21.40
   0  -6  -9   40.30   10.10
   0   6   9   78.89   12.90
  -1  -6  -9    3.40    8.90
   1   6   9  -20.80   11.20
  -2  -6  -9   52.19   10.70
   2   6   9   38.20   15.10
  -3  -6  -9   15.20   11.80
   3   6   9   27.70   16.70
   4  -7  -9   36.30   12.80
   3  -7  -9    3.80    8.30
   3  -7  -9   16.70   12.00
   2  -7  -9    8.60    8.60
  -2   7   9   15.80   11.70
   1  -7  -9   65.79   11.40
  -1   7   9   70.29   14.20
   0  -7  -9    9.00    9.00
   0   7   9    7.90   13.30
  -1  -7  -9   36.60   11.70
   1   7   9   79.29   17.60
  -3  -8  10   31.20   10.10
  -3  -8  10   47.50   10.00
  -2  -8  10   32.90   11.00
  -2  -8  10   47.70    9.20
  -1  -8  10   -8.80   11.00
  -1  -8  10   -1.90    7.30
   0  -8  10    0.20    7.50
   0  -8  10   -4.80   13.20
   1  -8  10   12.80    6.50
   1  -8  10   10.80   16.30
   2  -8  10   33.40   19.50
   2  -8  10   11.10    7.50
  -5  -7  10    0.70    9.20
  -5  -7  10   -3.60    8.20
  -4  -7  10   60.59    9.60
  -4  -7  10   56.19   10.00
  -3  -7  10   15.80    7.10
  -3  -7  10   23.90    8.40
  -2  -7  10   39.80   10.80
  -2  -7  10   38.20    8.50
   1   7 -10   54.29    6.80
  -1  -7  10   66.49   13.30
  -1  -7  10   49.50    5.70
   0   7 -10   90.69    9.10
   0  -7  10   99.19   16.80
   0  -7  10   93.39    9.00
  -1   7 -10    1.40    4.60
   1  -7  10    6.50    6.00
   1  -7  10    1.10   13.70
  -2   7 -10   14.50    5.50
   2  -7  10   19.10    7.10
  -3   7 -10   10.80   13.60
   3  -7  10    8.10    7.50
  -6  -6  10   -8.00   10.00
  -6  -6  10   17.10    9.30
  -5  -6  10   20.80    8.00
  -5  -6  10   39.80    9.10
  -4  -6  10   28.20    7.80
  -4  -6  10   22.20    7.40
   3   6 -10   20.60    5.60
  -3  -6  10   19.50    7.90
   2   6 -10   19.20    5.10
  -2  -6  10   37.00    9.30
   1   6 -10   37.60    5.60
  -1  -6  10   39.00   10.90
  -1  -6  10   27.90    4.20
   0   6 -10    1.70    4.00
   0  -6  10   -6.40   10.40
   0  -6  10    2.10    4.10
   1  -6  10   96.69   16.70
   1  -6  10  124.99    9.40
  -2   6 -10    1.80   10.40
   2  -6  10    2.60    5.10
  -3   6 -10   21.90   13.10
   3  -6  10   11.40    6.90
  -4   6 -10    9.10   13.90
   4  -6  10    6.30    7.00
  -6  -5  10   -2.10    7.70
  -6  -5  10   -8.70    7.00
  -5  -5  10   -3.50    6.70
  -5  -5  10    3.20    6.60
   4   5 -10   96.59    8.90
  -4  -5  10   87.59   12.20
   3   5 -10   19.00    4.70
  -3  -5  10    8.10    6.40
   2   5 -10  132.89    9.20
  -2  -5  10  109.09   14.80
  -1  -5  10    9.90    9.30
   0  -5  10   65.69    6.50
   0  -5  10   74.69   10.60
   0  -5  10   87.59   14.60
   1  -5  10  177.08   22.40
   1  -5  10  181.28   10.40
   1  -5  10  165.58   13.70
  -2   5 -10   78.89   10.10
  -2   5 -10   64.99   13.40
   2  -5  10   60.69    8.50
  -3   5 -10   55.49   13.30
   3  -5  10   87.89   10.70
  -4   5 -10   21.20   14.30
   4  -5  10   37.40    8.60
  -7  -4  10    2.80    8.40
  -7  -4  10   31.70   10.10
  -6  -4  10   -6.30    6.90
  -6  -4  10   -0.40    6.60
   5   4 -10   12.80    5.50
  -5  -4  10   -0.10    5.80
   4   4 -10    6.50    4.40
   0   4 -10  117.09    8.70
   0  -4  10  104.59    7.00
   0  -4  10   92.79    8.70
  -1   4 -10   83.59    9.40
  -1   4 -10   98.39    8.40
   1  -4  10   96.89    7.80
  -2   4 -10   66.19   13.00
  -2   4 -10   61.99    8.00
   2  -4  10   52.89    6.90
  -3   4 -10    5.10   10.40
   3  -4  10    9.70    5.80
  -4   4 -10   20.30   12.00
  -5   4 -10   -4.70   14.80
  -5   4 -10   15.70    7.60
   5  -4  10   18.20    8.80
  -7  -3  10   23.00    7.90
  -7  -3  10    6.40    7.80
  -6  -3  10   15.90    7.00
  -6  -3  10    5.90    6.80
   5   3 -10   -4.90    4.80
  -5  -3  10    8.40    6.00
  -4  -3  10   15.10    6.00
   1   3 -10    5.10    4.30
  -1  -3  10   -4.00    7.20
   0   3 -10  656.33   25.00
   0  -3  10  799.12   39.70
   0  -3  10  739.23   25.00
  -1   3 -10   26.40    9.30
  -1   3 -10   35.80    8.30
  -1   3 -10   33.50    5.20
   1  -3  10   38.60    5.30
  -2   3 -10   15.00    4.60
  -2   3 -10   20.30    9.40
   2  -3  10   14.70    4.90
  -3   3 -10  189.38   21.10
   3  -3  10  142.19   15.50
  -4   3 -10   11.90   12.20
  -4   3 -10   -2.70    8.50
   4  -3  10   -0.20    7.00
  -5   3 -10   11.90   14.40
  -5   3 -10   -0.10    7.50
   5  -3  10    0.70    7.80
  -7  -2  10   36.60    8.10
  -7  -2  10   35.00    8.40
   6   2 -10   10.30    5.50
  -6  -2  10   -5.80    6.20
   5   2 -10   -3.00    4.10
  -5  -2  10    1.30    5.20
   4   2 -10  102.99    8.50
   3   2 -10    3.00    3.80
  -3  -2  10   -1.70    5.00
  -2  -2  10   12.60    6.10
  -1  -2  10   51.09   10.20
   0   2 -10   90.39    9.90
   0   2 -10   84.99    6.40
   0  -2  10   99.99   13.80
   0  -2  10   94.99    7.20
  -1   2 -10  308.77   20.80
  -1   2 -10  280.47   12.70
  -1   2 -10  302.47   20.90
   1  -2  10  292.77   13.70
  -2   2 -10   16.00    5.30
  -2   2 -10    7.70    8.20
  -2   2 -10   22.10    5.60
   2  -2  10   22.70    5.30
  -3   2 -10  176.38   19.90
  -4   2 -10   70.09   14.80
  -4   2 -10   71.69    9.20
   4  -2  10   78.49   10.40
  -5   2 -10    8.90    7.50
  -5   2 -10  -14.30   13.40
   5  -2  10   19.30    8.40
  -7  -1  10    4.40    7.10
  -7  -1  10    7.00    7.10
  -6  -1  10   29.50    7.50
   5   1 -10   58.29    7.30
  -5  -1  10   77.69    9.90
   4   1 -10   11.70    4.20
   3   1 -10  131.39    9.70
  -3  -1  10  150.58   11.60
   2   1 -10  172.08   14.60
  -2  -1  10  191.38   14.10
  -1  -1  10  150.68   14.50
   0   1 -10    3.70    2.80
   0   1 -10    0.50    5.10
   0  -1  10   -2.50    7.70
   0  -1  10    8.00    3.80
  -1   1 -10   52.09    9.70
  -1   1 -10   56.89    7.20
  -1   1 -10   46.40    6.40
   1  -1  10   53.79    6.70
  -2   1 -10   -2.60    7.40
  -2   1 -10   -5.40    5.40
   2  -1  10   -2.30    4.60
  -3   1 -10   49.99   12.70
  -3   1 -10   43.90    8.70
  -4   1 -10  254.27   16.60
  -4   1 -10  262.37   25.00
   4  -1  10  250.97   18.00
  -5   1 -10   -0.70   14.90
  -5   1 -10   -5.20    8.30
   5  -1  10  -10.50    9.60
   7   0 -10   59.19    7.90
  -7   0  10   72.09   10.20
   6   0 -10    7.40    5.00
  -6   0  10    9.90    6.10
   5   0 -10  136.49    9.50
  -5   0  10  158.58   13.30
   4   0 -10   20.20    4.80
  -4   0  10   27.30    6.80
  -3   0  10   96.39    9.60
   2   0 -10  149.79   10.90
  -2   0  10  157.28   12.40
   1   0 -10    0.80    4.60
  -1   0  10    0.90    5.80
   0   0 -10   94.49    6.50
   0   0  10   93.19    9.20
   0   0  10   78.29   11.30
  -1   0 -10   63.39    6.90
  -1   0 -10   57.59   10.10
   1   0  10   73.89    9.20
   2   0  10    9.90    5.60
  -3   0 -10    6.30    9.80
  -3   0 -10    7.30    6.40
   3   0  10    8.90    7.20
  -4   0 -10   -0.90   10.90
  -4   0 -10   -7.80    7.50
   4   0  10    6.10    8.20
  -5   0 -10   76.49   12.00
  -5   0 -10   71.69   18.20
   5   0  10   98.09   13.90
   7  -1 -10    9.60    6.10
  -7   1  10    2.20    7.20
   6  -1 -10   28.40    6.00
  -6   1  10   34.00    7.00
   5  -1 -10   24.50    5.30
   4  -1 -10    7.40    4.60
  -4   1  10    2.30    4.60
  -3   1  10  270.47   13.90
  -2   1  10   60.79    9.10
   1  -1 -10  227.98   15.20
   1  -1 -10  232.18   10.10
  -1   1  10  255.97   15.90
  -1   1  10  252.77   19.10
  -1   1  10  204.98   12.50
   0  -1 -10    6.10    3.50
   0   1  10    6.20    5.70
   0   1  10   18.60    7.00
   0   1  10   -3.90   10.70
  -1  -1 -10   12.40    4.50
   1   1  10   18.10    6.70
   1   1  10   31.80    9.60
  -2  -1 -10   -7.00    7.70
  -2  -1 -10   -5.10    5.80
   2   1  10   -0.40    6.30
  -3  -1 -10   12.60    7.40
  -3  -1 -10    8.70   10.70
   3   1  10    7.20    7.70
  -4  -1 -10    5.00    8.60
  -4  -1 -10   -2.40   11.90
   4   1  10   -5.00    9.20
  -5  -1 -10   -8.40   15.10
  -5  -1 -10   25.70   11.20
   5   1  10   35.40   11.70
   7  -2 -10   30.50    6.90
  -7   2  10   16.80    7.80
   6  -2 -10   30.80    6.30
  -6   2  10   24.60    7.00
   5  -2 -10   14.20    5.10
   4  -2 -10    7.70    4.50
  -4   2  10    4.80    4.80
   3  -2 -10    8.80    4.80
  -3   2  10    6.10    4.60
   2  -2 -10   47.30    6.40
   2  -2 -10   32.30    5.70
  -2   2  10   41.60    6.60
  -2   2  10   36.30   10.20
  -2   2  10   37.30    6.10
   1  -2 -10   25.00    6.00
   1  -2 -10   16.80    4.10
  -1   2  10   21.70    6.60
  -1   2  10   13.70    6.10
  -1   2  10   22.10    9.20
   0  -2 -10   52.19    6.80
   0  -2 -10   43.80    7.60
   0   2  10   50.59    8.30
   0   2  10   49.50   10.40
   0   2  10   66.79   10.20
   1   2  10   79.29   12.70
   1   2  10   83.69   10.80
   1   2  10   88.09   13.50
  -2  -2 -10  217.98   18.70
  -2  -2 -10  292.77   17.50
   2   2  10  241.98   19.90
  -3  -2 -10    1.50   10.10
  -3  -2 -10    9.10    8.10
   3   2  10   23.30   10.20
  -4  -2 -10   15.10    9.30
  -4  -2 -10    2.40   12.40
   4   2  10    7.40   10.40
   5   2  10  -28.10   13.60
   6  -3 -10   22.00    6.10
  -6   3  10   22.50    7.10
   5  -3 -10  173.68   11.90
  -5   3  10  191.28   12.90
   4  -3 -10    4.40    4.70
   4  -3 -10   -0.50    5.00
  -4   3  10   -3.10    4.70
   3  -3 -10   -6.90    5.30
   3  -3 -10   -0.20    6.60
   3  -3 -10    5.20    4.90
  -3   3  10   -8.80    9.70
  -3   3  10   -1.00    4.30
   2  -3 -10  187.98   12.50
   2  -3 -10  227.88   13.70
  -2   3  10  212.58   13.80
  -2   3  10  185.48   17.60
  -2   3  10  207.28   11.20
   1  -3 -10   18.70    6.10
   1  -3 -10   32.90    5.60
  -1   3  10   27.70    9.10
  -1   3  10   32.10    6.00
  -1   3  10   36.40    7.80
   0  -3 -10    7.20    5.90
   0  -3 -10   -0.70    8.80
   0   3  10   -1.20    8.70
   0   3  10   -0.50    7.20
   0   3  10    7.80    6.50
  -1  -3 -10   29.50    7.60
   1   3  10   26.30    8.90
   1   3  10   56.39   10.30
   1   3  10   37.40   10.30
  -2  -3 -10   -3.40    6.70
   2   3  10   13.50   10.50
  -3  -3 -10  139.09   16.50
  -3  -3 -10   84.49   13.10
   3   3  10   96.49   14.30
  -4  -3 -10   42.80   11.60
  -4  -3 -10   23.90   13.90
   4   3  10   17.20   12.50
   6  -4 -10   17.20    6.60
  -6   4  10   31.80    9.10
   5  -4 -10   36.90    7.00
  -5   4  10   62.89   12.20
   4  -4 -10  193.68   13.60
   4  -4 -10  180.08   12.90
  -4   4  10  200.78   12.30
   3  -4 -10   38.00    6.60
  -3   4  10   22.00    5.10
   2  -4 -10    0.90    7.40
   2  -4 -10    6.40    6.30
  -2   4  10    6.70    7.60
   1  -4 -10   -0.40    6.00
  -1   4  10    0.10    7.60
  -1   4  10   -0.40    4.10
   0  -4 -10  175.98   15.00
   0   4  10  167.08   17.30
   0   4  10  146.09   11.80
  -1  -4 -10   33.20    8.60
   1   4  10   23.90    8.40
   1   4  10   36.00   11.40
  -2  -4 -10  -12.80    7.50
   2   4  10   -0.10   10.70
   2   4  10  -12.30   10.40
  -3  -4 -10   19.60   11.20
  -3  -4 -10   19.30    9.80
   3   4  10    0.60   12.50
   4   4  10    3.00   15.00
   5  -5 -10   -1.60    6.70
   4  -5 -10   21.00    8.20
   4  -5 -10   20.00    7.30
   3  -5 -10  118.29   13.10
   2  -5 -10   21.90    7.40
  -2   5  10   17.90    9.40
   1  -5 -10   62.49    9.30
  -1   5  10   47.40   10.80
   0  -5 -10    8.90    9.20
   0   5  10   24.00   11.20
  -1  -5 -10    5.80    8.50
   1   5  10   18.50   11.80
  -2  -5 -10   23.10    9.70
   2   5  10   -0.90   13.30
  -3  -5 -10  -14.50   10.00
   3   5  10   10.60   13.70
   4  -6 -10   26.60   10.70
   4  -6 -10    2.50    7.80
   3  -6 -10    9.80    8.00
   2  -6 -10   -7.40    7.60
  -2   6  10   -8.30   10.20
   1  -6 -10   91.39   12.50
  -1   6  10   96.49   14.90
   0  -6 -10   36.90   10.40
   0   6  10   36.00   13.20
  -1  -6 -10    7.40   10.00
   1   6  10   29.90   14.30
  -2  -8  11   31.90    9.80
  -2  -8  11   32.60   12.30
  -1  -8  11    5.40   13.60
  -1  -8  11   16.10    9.00
   0  -8  11    4.10   15.90
  -4  -7  11   21.50    9.30
  -4  -7  11  -10.00    8.60
  -3  -7  11    5.40    9.00
  -3  -7  11    4.00    8.60
   2   7 -11    2.40    6.10
  -2  -7  11   -9.40   10.30
   1   7 -11   -5.40    5.40
  -1  -7  11  -25.80   11.20
   0   7 -11   -3.60    5.40
   0  -7  11  -18.40   14.00
  -1   7 -11   37.20    6.40
   1  -7  11   36.00    7.60
   1  -7  11   34.80   17.60
  -2   7 -11    7.10    6.00
   2  -7  11   -6.60   18.60
   2  -7  11   -6.10    6.60
  -5  -6  11   15.10    8.50
  -5  -6  11   17.90    8.90
  -4  -6  11    9.90    8.00
  -4  -6  11   11.20    8.20
   3   6 -11   29.60    6.20
  -3  -6  11   32.10    9.70
   2   6 -11   19.70    5.60
  -2  -6  11   33.10   10.60
   1   6 -11   31.80    5.70
  -1  -6  11   54.09   12.40
   0   6 -11    2.50    5.30
   0  -6  11   -3.20    4.40
   0  -6  11   18.30   12.70
  -1   6 -11   24.70    5.90
   1  -6  11   46.30    6.50
   1  -6  11   65.49   15.50
  -2   6 -11   88.09   10.50
   2  -6  11   96.09   11.00
  -3   6 -11   26.90   14.60
  -3   6 -11   16.90    6.80
   3  -6  11    8.00    7.30
  -6  -5  11    9.80    9.40
  -6  -5  11   19.70   11.10
  -5  -5  11   33.30    9.20
  -5  -5  11   35.40    8.60
   4   5 -11   19.80    5.90
  -4  -5  11   37.00    8.40
   3   5 -11   47.80    6.30
  -3  -5  11   48.00    9.60
   2   5 -11    8.40    4.90
  -2  -5  11    2.80    8.60
   1   5 -11  158.78   10.60
  -1  -5  11  144.49   19.80
   0   5 -11   11.60    4.70
   0  -5  11    3.00    3.80
   0  -5  11   -5.40   10.90
  -1   5 -11    2.60    5.10
   1  -5  11   -0.40    4.50
   1  -5  11   13.20   13.30
  -2   5 -11   44.70    6.90
  -2   5 -11   41.30   13.50
   2  -5  11   62.39   12.70
  -3   5 -11  117.29   18.40
  -3   5 -11  116.19   12.20
   3  -5  11  127.79   13.40
  -6  -4  11   12.80    8.20
  -6  -4  11    5.30    8.40
   5   4 -11   -2.80    5.50
  -5  -4  11   -5.20    6.60
   4   4 -11    6.70    5.00
  -4  -4  11    1.30    6.60
   3   4 -11    0.70    4.50
  -3  -4  11    2.00    6.50
   2   4 -11   47.20    6.30
  -2  -4  11   52.29   10.20
   1   4 -11    5.00    4.70
  -1  -4  11    9.10    9.00
   0   4 -11   13.70    4.90
   0  -4  11   20.30    4.30
   0  -4  11   20.20   11.20
  -1   4 -11   57.19    7.10
   1  -4  11   62.59    7.90
   1  -4  11   92.29   16.20
  -2   4 -11   -7.90    9.90
  -2   4 -11   -1.90    5.00
   2  -4  11    0.90    5.20
  -3   4 -11   13.80    6.00
  -3   4 -11   18.10   12.40
   3  -4  11    8.40    6.70
  -4   4 -11   59.19   17.00
  -4   4 -11   40.60    8.50
   4  -4  11   67.69   10.40
   6   3 -11    3.90    6.40
  -6  -3  11    3.10    7.50
   5   3 -11  114.19   10.30
  -5  -3  11   74.69    9.90
   4   3 -11   10.30    4.70
  -4  -3  11   11.40    6.40
   3   3 -11   23.00    4.90
  -3  -3  11   28.80    8.10
  -2  -3  11   25.50    8.80
   1   3 -11   13.10    4.80
  -1  -3  11   25.90    9.90
   0   3 -11   17.50    5.00
   0   3 -11   15.10    5.00
   0  -3  11    6.60   10.10
   0  -3  11   10.20    4.00
  -1   3 -11   85.89    9.30
  -1   3 -11   97.89    9.60
   1  -3  11  108.39   17.10
   1  -3  11   92.19    8.80
  -2   3 -11   27.90   11.20
  -2   3 -11    6.80    5.30
   2  -3  11   12.10    5.50
  -3   3 -11   17.30    6.50
  -3   3 -11    8.70   11.40
   3  -3  11   23.40    7.30
  -4   3 -11   -0.10    7.40
  -4   3 -11  -14.90   13.60
   4  -3  11    6.80    8.10
  -7  -2  11    6.80    9.10
  -7  -2  11   11.90    8.40
   6   2 -11   -2.30    6.10
  -6  -2  11    6.90    7.40
   5   2 -11   51.09    6.60
  -5  -2  11   46.40    8.10
   4   2 -11   81.59    8.40
  -4  -2  11   62.69    8.70
   3   2 -11   -3.20    4.50
  -3  -2  11   -1.00    6.00
   0   2 -11   86.79    7.30
   0  -2  11   98.09    8.40
  -1   2 -11   33.60    5.30
  -1   2 -11   50.39    7.10
   1  -2  11   46.30   12.70
   1  -2  11   61.59    7.40
  -2   2 -11  293.37   23.80
  -2   2 -11  320.37   16.70
   2  -2  11  298.57   16.30
  -3   2 -11    8.00   11.30
  -3   2 -11   11.70    6.10
   3  -2  11    8.10    7.20
  -4   2 -11   24.10    7.70
  -4   2 -11   31.60   15.40
   4  -2  11   18.70   10.30
  -7  -1  11   18.80    8.90
   6   1 -11   13.70    5.90
  -6  -1  11    6.40    7.20
   5   1 -11   14.70    5.50
  -5  -1  11    6.00    6.30
   4   1 -11    6.90    4.80
  -4  -1  11    2.60    5.50
   3   1 -11   -5.80    4.10
  -2  -1  11  249.28   17.70
  -1  -1  11   29.30    9.80
   0   1 -11  659.03   31.60
   0   1 -11  606.34   22.90
   0  -1  11  676.23   25.70
   0  -1  11  755.62   36.30
  -1   1 -11   35.20    5.20
  -1   1 -11   41.10    7.00
   1  -1  11   45.20    7.00
  -2   1 -11    0.00    5.80
  -2   1 -11   -4.10    8.90
   2  -1  11    2.40    6.00
  -3   1 -11   63.99    9.70
  -3   1 -11   77.39   14.50
   3  -1  11   97.29   11.90
  -4   1 -11    8.00   14.10
  -4   1 -11    4.20    8.00
   4  -1  11    5.10    9.90
   7   0 -11   11.40    7.00
  -7   0  11   24.20    8.50
   6   0 -11   31.80    6.60
  -6   0  11   42.40    8.40
   5   0 -11   36.90    6.20
  -5   0  11   22.50    7.10
   4   0 -11   35.70    6.10
   3   0 -11   48.60    6.40
  -3   0  11   53.09    7.80
   2   0 -11   17.40    5.50
  -2   0  11   12.30    7.90
  -1   0  11   16.50    8.00
   0   0 -11  276.77   12.60
   0   0  11  323.17   16.40
   0   0  11  321.57   24.90
  -1   0 -11  149.69   10.00
  -1   0 -11  156.48   12.80
   1   0  11  149.39   20.10
   1   0  11  146.19   13.60
  -2   0 -11   28.70   10.70
  -2   0 -11   24.50    7.20
   2   0  11   31.20    8.20
  -3   0 -11  151.58   15.20
  -3   0 -11  149.59   22.00
   3   0  11  143.89   16.20
  -4   0 -11   52.79   16.50
  -4   0 -11   28.10    9.40
   4   0  11   44.80   11.70
   6  -1 -11   -7.90    6.10
  -6   1  11   11.10    6.70
   5  -1 -11   12.60    6.20
  -5   1  11   18.50    6.40
   4  -1 -11   16.90    5.40
   3  -1 -11   74.39    9.00
  -3   1  11   62.19    9.40
   2  -1 -11   82.89    9.70
  -2   1  11   95.19   11.10
   1  -1 -11  110.69   10.80
   1  -1 -11  102.19    7.10
  -1   1  11   92.49   13.00
  -1   1  11   85.29   10.70
   0  -1 -11   66.49    7.60
   0   1  11   74.49   11.20
   0   1  11   66.49    9.50
  -1  -1 -11  129.29   12.30
   1   1  11   98.79   11.80
   1   1  11  132.79   16.50
  -2  -1 -11    5.60    9.40
  -2  -1 -11    0.40    7.40
   2   1  11   -4.00   13.40
  -3  -1 -11  -17.90   11.10
  -3  -1 -11   16.60    9.10
   3   1  11    4.50    9.30
  -4  -1 -11  111.29   13.70
  -4  -1 -11   98.69   19.10
   4   1  11   81.29   13.50
   6  -2 -11   64.49    8.00
  -6   2  11   69.89    9.60
   5  -2 -11   13.60    6.20
  -5   2  11   16.40    6.50
   4  -2 -11   16.30    5.90
  -4   2  11    8.30    6.00
   3  -2 -11  304.47   16.00
  -3   2  11  292.67   15.10
   2  -2 -11  143.29   11.70
  -2   2  11  104.89   10.70
  -2   2  11  112.99   10.90
   1  -2 -11  296.07   16.40
   1  -2 -11  277.77   13.60
  -1   2  11  306.87   17.20
  -1   2  11  267.17   17.10
   0  -2 -11   44.60    6.40
   0  -2 -11   43.60    8.20
   0   2  11   55.99   10.80
   0   2  11   52.69    9.70
  -1  -2 -11   25.40    7.20
   1   2  11   26.70    9.70
   1   2  11   40.70   12.10
  -2  -2 -11   34.60    9.20
   2   2  11   29.20   10.90
  -3  -2 -11   21.90    9.90
  -3  -2 -11   21.60   12.80
   3   2  11    9.80   11.00
  -4  -2 -11    0.80   10.80
  -4  -2 -11   -3.70   14.20
   4   2  11   14.10   13.40
   6  -3 -11   10.30    6.80
  -6   3  11   24.40    7.90
   5  -3 -11   19.60    6.90
  -5   3  11   24.90    9.70
   4  -3 -11    1.30    6.10
  -4   3  11    4.10    6.30
   3  -3 -11   20.70    6.90
   3  -3 -11   18.10    6.20
  -3   3  11   18.00    5.90
   2  -3 -11  139.99   12.90
  -2   3  11  132.79   10.50
  -2   3  11  133.89   13.10
   1  -3 -11   30.70    8.20
  -1   3  11   23.40    8.20
  -1   3  11   36.90    7.00
   0  -3 -11   22.90    7.10
   0   3  11   27.70    8.90
   0   3  11   22.20    9.20
  -1  -3 -11   98.39   12.40
   1   3  11  117.59   14.40
   1   3  11   93.69   13.00
  -2  -3 -11    9.80    9.10
   2   3  11   30.50   12.70
   2   3  11   15.10   13.40
  -3  -3 -11   13.60   10.20
  -3  -3 -11    7.40   12.00
   3   3  11    2.50   12.70
   5  -4 -11   -4.50    6.90
   4  -4 -11   -9.50    6.80
  -4   4  11    9.00    5.80
   3  -4 -11   53.59    8.80
   3  -4 -11   56.49    8.90
  -3   4  11   59.09    7.40
   2  -4 -11   10.40    7.20
  -2   4  11    1.60    5.20
  -2   4  11    1.70    8.30
   1  -4 -11  243.88   17.30
  -1   4  11  210.88   18.50
  -1   4  11  190.28   12.00
   0  -4 -11    0.30    8.30
   0   4  11    9.50    7.60
   0   4  11    0.30   10.40
  -1  -4 -11    4.70    9.10
   1   4  11  -12.50   10.90
  -2  -4 -11  139.59   18.40
   2   4  11   89.49   15.70
   4  -5 -11    5.70    7.80
   3  -5 -11   -5.10    7.40
   2  -5 -11   10.60    8.40
  -2   5  11   16.00   10.20
   1  -5 -11   -4.50    8.30
  -1   5  11   24.80   10.80
   0  -5 -11    6.00    9.80
   0   5  11   10.80   13.10
  -1  -5 -11   22.80   11.20
   1   5  11    5.20   13.40
   2  -6 -11    8.60    9.60
  -2   6  11   17.70   12.30
   1  -6 -11   -0.60   10.00
  -1   6  11   10.70   13.50
   2   7 -12    3.80    7.00
  -2  -7  12   16.60   12.10
   1   7 -12   19.70    7.00
  -1  -7  12   18.10   14.60
   0   7 -12   65.89    8.00
   0  -7  12   90.59   19.60
   4   6 -12   12.60    7.90
  -4  -6  12    8.00    9.90
   3   6 -12    2.10    6.50
  -3  -6  12   -0.50   10.00
   2   6 -12   10.90    6.00
  -2  -6  12   10.10   11.40
   1   6 -12   -7.30    5.50
  -1  -6  12  -16.40   11.60
   0   6 -12   -5.20    5.90
   0  -6  12   27.90   15.80
  -1   6 -12   56.59    7.70
   1  -6  12   57.39   18.60
  -5  -5  12   -0.90    9.20
   4   5 -12  -15.50    6.00
  -4  -5  12   -0.50    8.30
   3   5 -12   30.50    6.30
  -3  -5  12   15.20    9.10
   2   5 -12   29.50    6.20
  -2  -5  12   -1.00   10.00
   1   5 -12   -5.20    5.10
  -1  -5  12   24.30   12.00
   0   5 -12   24.20    6.30
   0  -5  12   37.20   14.40
  -1   5 -12   12.90    6.40
   1  -5  12   13.20   15.80
   1  -5  12    0.70    5.30
  -2   5 -12   29.30    7.40
   2  -5  12   35.00    7.50
   2  -5  12   76.49   18.70
   5   4 -12   44.10    7.70
  -5  -4  12   64.99    9.80
   4   4 -12   84.99   10.30
  -4  -4  12   64.19   10.60
   3   4 -12   27.90    6.20
  -3  -4  12   35.90    9.60
   2   4 -12   24.70    5.80
  -2  -4  12   24.80    9.90
   1   4 -12   23.30    6.10
  -1  -4  12   28.20   11.80
   0   4 -12    0.60    5.50
   0  -4  12    5.70   12.50
  -1   4 -12   55.99    7.70
   1  -4  12   66.19   16.80
   1  -4  12   46.00    6.80
  -2   4 -12   33.40   13.20
  -2   4 -12    4.80    6.60
   2  -4  12    4.40    9.10
  -3   4 -12   -6.00   14.50
  -3   4 -12    3.90    7.20
   6   3 -12  -13.00    7.40
  -6  -3  12   -6.80    9.10
   5   3 -12    3.70    6.20
  -5  -3  12    2.50    8.00
   4   3 -12  125.29   10.90
  -4  -3  12  123.89   14.00
   3   3 -12   74.29    9.30
  -3  -3  12   74.29   10.50
   2   3 -12  213.88   12.70
  -2  -3  12  210.08   18.60
   1   3 -12   17.80    5.60
  -1  -3  12   -9.70    8.90
   0   3 -12   39.40    6.30
   0  -3  12   58.69   14.10
  -1   3 -12   19.50    6.30
   1  -3  12   11.70    5.90
   1  -3  12    1.40   14.10
  -2   3 -12   37.20    7.40
  -2   3 -12   51.69   13.90
   2  -3  12   28.50    7.90
  -3   3 -12   46.20    8.80
  -3   3 -12   33.50   14.60
   3  -3  12   30.50    9.70
   6   2 -12  -11.70    6.90
  -6  -2  12  -17.70    7.80
   5   2 -12   14.30    6.10
  -5  -2  12   -0.50    7.30
   4   2 -12   18.90    5.80
  -4  -2  12   15.00    7.60
   3   2 -12   -2.00    5.10
  -3  -2  12  -14.30    7.10
   2   2 -12  475.45   20.30
  -2  -2  12  467.75   25.80
   1   2 -12  272.57   14.80
  -1  -2  12  286.07   22.40
   0   2 -12   17.10    5.90
   0  -2  12   24.40    6.20
   0  -2  12   19.00   11.60
  -1   2 -12    0.10    5.60
   1  -2  12   -0.30    6.50
   1  -2  12   12.20   13.50
  -2   2 -12   21.50   12.10
  -2   2 -12   19.80    6.70
   2  -2  12   15.60    7.60
  -3   2 -12   13.70   13.80
  -3   2 -12    3.50    7.10
   3  -2  12   -3.00    8.30
   6   1 -12    1.70    7.20
  -6  -1  12   -6.10    7.70
   5   1 -12   12.60    6.50
  -5  -1  12   16.20    7.40
   4   1 -12   -7.40    5.90
  -4  -1  12    0.20    6.60
   3   1 -12   26.40    6.00
  -3  -1  12   28.60    7.90
   2   1 -12   31.30    6.00
  -2  -1  12   19.90    8.80
   1   1 -12   53.29    8.10
  -1  -1  12   68.49   11.70
   0   1 -12  320.37   16.70
   0  -1  12  286.67   16.20
   0  -1  12  300.87   24.00
  -1   1 -12   53.59    7.80
   1  -1  12   41.20   14.80
   1  -1  12   65.59    9.20
  -2   1 -12   17.20    6.70
  -2   1 -12    5.30   12.20
   2  -1  12    6.70    8.00
  -3   1 -12   40.00    9.10
  -3   1 -12   47.70   15.80
   3  -1  12   46.10   11.30
   6   0 -12   19.60    7.10
  -6   0  12   -0.40    8.40
   5   0 -12    2.50    6.40
  -5   0  12   -1.50    7.10
   4   0 -12  132.89   11.30
  -4   0  12  111.09   12.40
   3   0 -12   38.00    6.60
  -3   0  12   35.40    7.80
   2   0 -12   44.00    6.80
   1   0 -12   57.09    8.20
   0   0 -12   22.10    6.10
   0   0  12   17.20    7.40
  -1   0 -12   46.00    8.20
   1   0  12   44.80    9.50
   1   0  12   54.79   14.90
  -2   0 -12  166.58   15.10
   2   0  12  166.18   21.50
  -3   0 -12   -6.70    8.10
  -3   0 -12   -6.70   13.10
   3   0  12   12.70   10.20
   6  -1 -12   10.00    7.50
  -6   1  12   23.30    8.70
   5  -1 -12   91.09   11.50
  -5   1  12   61.99    9.10
   4  -1 -12   43.50    7.70
  -4   1  12   52.29    8.30
   3  -1 -12  276.77   15.70
   2  -1 -12   40.10    6.90
  -2   1  12   33.60   15.60
   1  -1 -12  154.98   12.60
  -1   1  12  132.19   13.10
  -1   1  12  154.98   16.40
   0  -1 -12   53.69    7.80
   0   1  12   61.99   10.30
  -1  -1 -12    9.00    6.80
   1   1  12   16.80    9.30
  -2  -1 -12   13.80    8.30
   2   1  12   17.50   15.40
   2   1  12    7.60   10.10
  -3  -1 -12   69.69   11.90
  -3  -1 -12   99.49   17.70
   3   1  12   78.89   14.10
   5  -2 -12   38.80    8.50
  -5   2  12   27.40    8.40
   4  -2 -12    5.90    6.60
  -4   2  12   -1.10    7.00
   3  -2 -12   10.40    6.70
  -3   2  12   21.30    8.10
   2  -2 -12   10.00    6.30
  -2   2  12   -2.50   13.40
   1  -2 -12   30.40    7.70
  -1   2  12   28.40    8.80
  -1   2  12   21.90    8.50
   0  -2 -12  134.09   15.00
   0   2  12  172.28   27.40
   0   2  12  136.09   16.60
  -1  -2 -12   55.69    9.20
   1   2  12  104.29   20.10
   2   2  12   32.90   17.00
   2   2  12   32.00   12.10
  -3  -2 -12   41.50   14.40
  -3  -2 -12   41.90   12.40
   3   2  12   23.20   13.70
   5  -3 -12    1.80    7.60
  -5   3  12    4.20    7.60
   4  -3 -12   11.40    7.40
   3  -3 -12  129.29   13.90
  -3   3  12   87.99   11.30
   2  -3 -12   26.60    7.60
  -2   3  12   16.60    6.70
  -2   3  12   29.40   16.20
   1  -3 -12   17.20    7.10
  -1   3  12    9.10    9.00
  -1   3  12    9.10    7.00
   0  -3 -12   25.20    8.40
   0   3  12   36.30    9.60
   0   3  12   35.30   11.00
  -1  -3 -12  102.89   13.20
   1   3  12  119.39   15.90
   1   3  12   93.89   14.20
  -2  -3 -12   -0.80   10.40
   2   3  12    4.30   13.30
   4  -4 -12    6.80    8.10
   3  -4 -12    1.40    8.30
   2  -4 -12   32.10    9.30
   1  -4 -12   -1.10    8.70
  -1   4  12   -1.10   22.60
   0  -4 -12   35.10    9.70
   0   4  12    4.10   12.60
  -1  -4 -12   46.40   12.80
   1   4  12   13.00   12.90
  -1   5  12    0.10   13.20
   1   6 -13   -1.90    6.80
  -1  -6  13    8.10   19.50
   3   5 -13   89.89   11.40
  -3  -5  13   54.49   12.30
   2   5 -13   -0.40    6.20
  -2  -5  13    4.30   11.80
   1   5 -13   37.80    7.20
  -1  -5  13   34.00   14.00
   0   5 -13   36.50    7.80
   0  -5  13   33.20   16.10
  -1   5 -13   17.90    7.60
   1  -5  13   31.40   18.90
   4   4 -13   -6.20    6.80
  -4  -4  13   -6.60    8.60
   3   4 -13   20.20    6.70
  -3  -4  13    5.60    9.70
   2   4 -13   49.70    7.10
  -2  -4  13   72.49   13.60
   1   4 -13    7.80    6.90
  -1  -4  13   23.30   12.40
   0   4 -13   17.30    6.60
   0  -4  13   25.40   15.00
  -1   4 -13   74.69    9.50
   1  -4  13   53.59   19.70
   5   3 -13    2.30    7.60
  -5  -3  13   18.60    9.60
  -4  -3  13   40.70   10.20
   3   3 -13    4.90    6.20
  -3  -3  13    7.40    9.70
   2   3 -13    5.60    5.90
  -2  -3  13   10.40   10.40
   1   3 -13   22.00    7.00
  -1  -3  13   30.30   12.60
   0   3 -13   -0.30    6.50
   0  -3  13    4.40   13.70
  -1   3 -13   -5.90    6.50
   1  -3  13    9.70   16.40
  -2   3 -13    6.10    7.60
   2  -3  13    4.10   19.20
   5   2 -13   20.50    7.40
  -5  -2  13    6.10    8.90
   4   2 -13    7.60    6.30
  -4  -2  13   18.10    8.90
   3   2 -13   35.30    7.10
  -3  -2  13   27.70   10.00
   2   2 -13  -14.50    5.30
  -2  -2  13   15.30   10.10
   1   2 -13    6.20    5.80
  -1  -2  13   10.90   11.60
   0   2 -13   11.10    6.30
   0  -2  13   26.70   13.60
  -1   2 -13   59.89    9.40
   1  -2  13   57.89   17.20
  -2   2 -13   -1.30    7.50
   2  -2  13    7.60    9.80
   2  -2  13   11.90   17.80
   5   1 -13    4.90    7.50
  -5  -1  13   -1.80    8.70
   4   1 -13   29.80    7.80
  -4  -1  13   22.20    8.70
   3   1 -13   -2.10    6.40
  -3  -1  13   20.30    8.60
   2   1 -13    1.20    5.60
  -2  -1  13    6.50    9.60
   1   1 -13   -2.70    6.10
  -1  -1  13    0.80   10.60
   0   1 -13   16.40    7.10
   0  -1  13   11.00   12.90
  -1   1 -13  -13.80    6.90
   1  -1  13   17.00   14.50
   1  -1  13  -25.80   14.70
  -2   1 -13   46.90    8.90
   2  -1  13   31.90   19.10
   2  -1  13   46.20   11.30
   5   0 -13   42.40    8.40
  -5   0  13   55.49   10.10
   4   0 -13   13.70    7.20
  -4   0  13    9.10    7.70
   3   0 -13   45.50    7.30
  -3   0  13   45.30    9.30
   2   0 -13    7.20    6.20
  -2   0  13   -3.70    8.90
   1   0 -13    7.10    6.20
  -1   0  13    4.70   10.20
   0   0 -13   -1.90    7.30
   0   0  13   17.00   12.00
  -1   0 -13   -3.60    7.40
   1   0  13   25.40   10.60
   1   0  13    5.50   14.90
  -2   0 -13   63.69   11.10
   2   0  13   57.49   12.70
   2   0  13   84.59   20.60
   5  -1 -13   -0.20    8.10
  -5   1  13    2.00    8.60
   4  -1 -13   -2.90    7.40
  -4   1  13   -6.10    8.20
   3  -1 -13    8.20    7.00
  -3   1  13   14.20    8.10
   2  -1 -13   80.49    9.40
  -2   1  13   87.29   11.70
   1  -1 -13    6.40    7.30
  -1   1  13   -1.80    9.40
   0  -1 -13   75.99    9.80
   0   1  13  127.49   16.60
  -1  -1 -13   10.30    9.00
   1   1  13   24.60   15.00
   1   1  13   14.70   12.60
  -2  -1 -13   16.70   10.20
   2   1  13   16.30   19.30
   2   1  13    5.80   13.00
   4  -2 -13   -0.40    8.00
  -4   2  13    8.70    8.30
   3  -2 -13   -3.40    7.50
  -3   2  13   15.10    8.10
   2  -2 -13    2.80    7.60
  -2   2  13    2.60    9.10
   1  -2 -13   27.50    8.60
   0  -2 -13    9.20    9.30
   0   2  13   18.10   12.70
  -1  -2 -13   59.79   11.00
   1   2  13   71.79   17.40
   1   2  13  102.79   15.60
   3  -3 -13    7.60    8.60
   2  -3 -13    2.60    9.20
   1  -3 -13    9.20    9.30
   0  -3 -13   -5.90    9.60
   2   4 -14   -5.50    7.90
  -2  -4  14    7.70   13.00
   1   4 -14   11.90    7.90
  -1  -4  14    6.50   15.00
   3   3 -14    3.00    7.90
  -3  -3  14   -2.40   10.60
   2   3 -14   10.70    7.60
  -2  -3  14   22.60   13.00
   1   3 -14   43.60    8.60
  -1  -3  14  -14.00   13.40
   0   3 -14   29.10    8.10
   0  -3  14   45.60   18.20
   3   2 -14   45.00    9.00
  -3  -2  14   52.49   12.00
   2   2 -14    6.20    7.10
  -2  -2  14    2.60   11.30
   1   2 -14    1.20    7.00
  -1  -2  14    1.80   12.90
   0   2 -14   -2.60    7.20
   0  -2  14  -12.80   15.40
   3   1 -14  -12.00    7.70
  -3  -1  14   28.40   10.30
   2   1 -14   29.60    8.10
  -2  -1  14   21.20   11.60
   1   1 -14  -12.80    7.00
  -1  -1  14  -18.40   12.20
   0   1 -14    3.60    8.10
   0  -1  14    1.50   14.90
   3   0 -14   20.10    8.70
  -3   0  14   22.80    9.60
   2   0 -14   16.80    8.00
  -2   0  14   13.70   10.40
   1   0 -14   15.90    7.90
  -1   0  14   22.90   13.00
   0   0 -14   20.30    8.60
   0   0  14   25.00   15.00
   2  -1 -14   -5.90    8.40
  -2   1  14   -1.90   10.20
   1  -1 -14    3.10    8.50
  -1   1  14   -2.10   12.60
   0   0   0    0.00    0.00

_computing_structure_solution     'SHELXT 2014/5 (Sheldrick, 2014)'
;
_shelx_hkl_checksum              69455
loop_
_space_group_symop_operation_xyz
'x, y, z'
'-x, -y, -z'
loop_
_atom_site_label
_atom_site_type_symbol
_atom_site_fract_x
_atom_site_fract_y
_atom_site_fract_z
_atom_site_U_iso_or_equiv
_atom_site_adp_type
_atom_site_occupancy
_atom_site_site_symmetry_order
_atom_site_calc_flag
_atom_site_refinement_flags_posn
_atom_site_refinement_flags_adp
_atom_site_refinement_flags_occupancy
_atom_site_disorder_assembly
_atom_site_disorder_group
K1 K 1.16431(9) 0.23305(8) 0.01669(6) 0.0467(2) Uani 1 1 d . . . . .
C1 C 0.2434(5) 0.0852(3) 0.3449(3) 0.0436(7) Uani 1 1 d . . . . .
H1A H 0.139454 0.026672 0.290141 0.052 Uiso 1 1 calc R U . . .
H1B H 0.257692 0.044097 0.423077 0.052 Uiso 1 1 calc R U . . .
C2 C 0.4206(4) 0.0616(3) 0.2930(2) 0.0384(6) Uani 1 1 d . . . . .
C3 C 0.6189(4) 0.0730(3) 0.1772(3) 0.0409(7) Uani 1 1 d . . . . .
C4 C 0.0890(4) 0.4656(3) 0.3056(2) 0.0336(6) Uani 1 1 d . . . . .
C5 C 0.1859(4) 0.5060(3) 0.4263(2) 0.0317(5) Uani 1 1 d . . . . .
C6 C 0.2593(4) 0.3616(3) 0.4602(2) 0.0326(6) Uani 1 1 d . . . . .
N1 N 0.5565(4) -0.0216(3) 0.3417(2) 0.0553(7) Uani 1 1 d . . . . .
N2 N 0.4509(3) 0.1237(3) 0.1910(2) 0.0358(5) Uani 1 1 d . . . . .
N3 N 0.7365(4) 0.0811(3) 0.0942(3) 0.0516(7) Uani 1 1 d . . . . .
N4 N 0.6865(4) 0.1749(3) 0.0089(3) 0.0516(7) Uani 1 1 d . . . . .
N5 N 0.1996(3) 0.2529(2) 0.36191(19) 0.0351(5) Uani 1 1 d . . . . .
N6 N 0.0965(3) 0.3151(3) 0.2664(2) 0.0366(5) Uani 1 1 d . . . . .
N7 N -0.0146(4) 0.5609(3) 0.2191(2) 0.0445(6) Uani 1 1 d . . . . .
N8 N 0.2122(3) 0.6500(3) 0.5050(2) 0.0433(6) Uani 1 1 d . . . . .
N9 N 0.3661(4) 0.3286(3) 0.5621(2) 0.0442(6) Uani 1 1 d . . . . .
H9A H 0.401535 0.233085 0.568400 0.053 Uiso 1 1 calc R U . . .
H9B H 0.400141 0.402623 0.621933 0.053 Uiso 1 1 calc R U . . .
O1 O 0.6931(3) -0.0160(3) 0.2644(2) 0.0591(6) Uani 1 1 d . . . . .
O2 O 0.7924(3) 0.1756(3) -0.0693(2) 0.0740(8) Uani 1 1 d . . . . .
O3 O 0.5446(3) 0.2580(3) 0.0028(2) 0.0591(6) Uani 1 1 d . . . . .
O4 O -0.0721(5) 0.4988(3) 0.1171(3) 0.0997(12) Uani 1 1 d . . . . .
O5 O -0.0367(7) 0.6942(4) 0.2479(3) 0.1381(19) Uani 1 1 d . . . . .
O6 O 0.1464(5) 0.7693(3) 0.4701(3) 0.1083(13) Uani 1 1 d . . . . .
O7 O 0.3003(3) 0.6471(3) 0.6088(2) 0.0545(6) Uani 1 1 d . . . . .
O8 O 1.4374(5) 0.5210(3) 0.1858(3) 0.0771(8) Uani 1 1 d D . . . .
H8A H 1.512(6) 0.455(4) 0.156(4) 0.116 Uiso 1 1 d D U . . .
H8B H 1.425(7) 0.596(4) 0.142(4) 0.116 Uiso 1 1 d D U . . .
loop_
_atom_site_aniso_label
_atom_site_aniso_U_11
_atom_site_aniso_U_22
_atom_site_aniso_U_33
_atom_site_aniso_U_23
_atom_site_aniso_U_13
_atom_site_aniso_U_12
K1 0.0477(4) 0.0489(4) 0.0402(4) 0.0052(3) -0.0024(3) 0.0181(3)
C1 0.0666(19) 0.0245(13) 0.0403(15) 0.0070(11) 0.0081(14) 0.0049(12)
C2 0.0564(17) 0.0220(12) 0.0319(13) 0.0009(10) -0.0049(12) 0.0091(11)
C3 0.0414(15) 0.0311(14) 0.0417(15) -0.0088(11) -0.0079(12) 0.0101(12)
C4 0.0335(13) 0.0325(13) 0.0371(14) 0.0098(11) 0.0084(11) 0.0041(10)
C5 0.0357(13) 0.0259(12) 0.0361(13) 0.0055(10) 0.0126(11) 0.0033(10)
C6 0.0363(14) 0.0313(13) 0.0330(13) 0.0071(10) 0.0115(11) 0.0035(10)
N1 0.0740(19) 0.0390(14) 0.0484(15) 0.0095(11) -0.0065(14) 0.0216(13)
N2 0.0389(12) 0.0328(12) 0.0324(12) 0.0010(9) -0.0017(9) 0.0090(9)
N3 0.0387(14) 0.0521(16) 0.0565(16) -0.0150(13) 0.0023(12) 0.0102(12)
N4 0.0393(14) 0.0545(16) 0.0556(16) -0.0160(13) 0.0103(12) -0.0131(12)
N5 0.0472(13) 0.0263(11) 0.0327(11) 0.0067(9) 0.0067(10) 0.0068(9)
N6 0.0416(13) 0.0342(12) 0.0347(12) 0.0085(9) 0.0051(10) 0.0052(10)
N7 0.0531(15) 0.0416(14) 0.0427(14) 0.0143(11) 0.0124(12) 0.0162(11)
N8 0.0422(13) 0.0287(12) 0.0574(16) 0.0035(11) 0.0057(12) 0.0002(10)
N9 0.0607(16) 0.0344(12) 0.0364(12) 0.0086(10) 0.0016(11) 0.0091(11)
O1 0.0605(14) 0.0482(13) 0.0625(14) 0.0040(11) -0.0060(12) 0.0301(11)
O2 0.0540(14) 0.094(2) 0.0712(17) -0.0204(14) 0.0276(13) -0.0208(13)
O3 0.0525(13) 0.0607(14) 0.0711(16) 0.0185(12) 0.0229(12) 0.0082(11)
O4 0.140(3) 0.0567(16) 0.077(2) 0.0122(14) -0.0573(19) 0.0114(17)
O5 0.274(5) 0.072(2) 0.0558(17) 0.0030(15) -0.009(2) 0.100(3)
O6 0.144(3) 0.0301(13) 0.121(3) -0.0011(14) -0.059(2) 0.0166(15)
O7 0.0727(15) 0.0427(12) 0.0441(12) -0.0028(9) 0.0050(11) 0.0003(10)
O8 0.106(2) 0.0611(17) 0.0730(18) 0.0155(14) 0.0367(16) 0.0102(15)
loop_
_atom_type_symbol
_atom_type_description
_atom_type_scat_dispersion_real
_atom_type_scat_dispersion_imag
_atom_type_scat_source
C C 0.0033 0.0016 'International Tables Vol C Tables 4.2.6.8 and 6.1.1.4'
H H 0.0000 0.0000 'International Tables Vol C Tables 4.2.6.8 and 6.1.1.4'
N N 0.0061 0.0033 'International Tables Vol C Tables 4.2.6.8 and 6.1.1.4'
O O 0.0106 0.0060 'International Tables Vol C Tables 4.2.6.8 and 6.1.1.4'
K K 0.2009 0.2494 'International Tables Vol C Tables 4.2.6.8 and 6.1.1.4'
loop_
_geom_angle_atom_site_label_1
_geom_angle_atom_site_label_2
_geom_angle_atom_site_label_3
_geom_angle
_geom_angle_site_symmetry_1
_geom_angle_site_symmetry_3
_geom_angle_publ_flag
O2 K1 O3 156.20(8) . 1_655 ?
O2 K1 N2 138.26(8) . 1_655 ?
O3 K1 N2 57.44(7) 1_655 1_655 ?
O2 K1 O4 78.62(10) . 2_665 ?
O3 K1 O4 92.79(9) 1_655 2_665 ?
N2 K1 O4 141.52(8) 1_655 2_665 ?
O2 K1 N6 92.18(7) . 1_655 ?
O3 K1 N6 111.62(7) 1_655 1_655 ?
N2 K1 N6 67.71(6) 1_655 1_655 ?
O4 K1 N6 108.81(8) 2_665 1_655 ?
O2 K1 N3 92.08(8) . 2_755 ?
O3 K1 N3 74.43(7) 1_655 2_755 ?
N2 K1 N3 74.12(7) 1_655 2_755 ?
O4 K1 N3 124.53(9) 2_665 2_755 ?
N6 K1 N3 126.25(8) 1_655 2_755 ?
O2 K1 O4 69.02(8) . 1_655 ?
O3 K1 O4 125.55(9) 1_655 1_655 ?
N2 K1 O4 115.39(7) 1_655 1_655 ?
O4 K1 O4 59.83(13) 2_665 1_655 ?
N6 K1 O4 51.40(7) 1_655 1_655 ?
N3 K1 O4 160.01(9) 2_755 1_655 ?
O2 K1 O5 65.73(12) . 2_665 ?
O3 K1 O5 93.40(11) 1_655 2_665 ?
N2 K1 O5 147.99(10) 1_655 2_665 ?
O4 K1 O5 40.01(8) 2_665 2_665 ?
N6 K1 O5 142.58(8) 1_655 2_665 ?
N3 K1 O5 86.18(8) 2_755 2_665 ?
O4 K1 O5 91.56(8) 1_655 2_665 ?
O2 K1 O8 137.80(8) . . ?
O3 K1 O8 59.10(7) 1_655 . ?
N2 K1 O8 66.49(7) 1_655 . ?
O4 K1 O8 77.61(8) 2_665 . ?
N6 K1 O8 63.79(6) 1_655 . ?
N3 K1 O8 130.10(7) 2_755 . ?
O4 K1 O8 68.93(8) 1_655 . ?
O5 K1 O8 112.12(10) 2_665 . ?
O2 K1 N7 68.91(8) . 2_665 ?
O3 K1 N7 95.59(7) 1_655 2_665 ?
N2 K1 N7 152.47(7) 1_655 2_665 ?
O4 K1 N7 20.25(7) 2_665 2_665 ?
N6 K1 N7 125.35(6) 1_655 2_665 ?
N3 K1 N7 105.95(7) 2_755 2_665 ?
O4 K1 N7 74.08(7) 1_655 2_665 ?
O5 K1 N7 20.01(7) 2_665 2_665 ?
O8 K1 N7 96.19(7) . 2_665 ?
O2 K1 K1 52.59(7) . 2_755 ?
O3 K1 K1 124.30(6) 1_655 2_755 ?
N2 K1 K1 90.05(5) 1_655 2_755 ?
O4 K1 K1 128.35(6) 2_665 2_755 ?
N6 K1 K1 90.79(5) 1_655 2_755 ?
N3 K1 K1 52.31(6) 2_755 2_755 ?
O4 K1 K1 108.56(7) 1_655 2_755 ?
O5 K1 K1 97.67(9) 2_665 2_755 ?
O8 K1 K1 150.05(5) . 2_755 ?
N7 K1 K1 112.10(5) 2_665 2_755 ?
N5 C1 C2 110.9(2) . . ?
N5 C1 H1A 109.5 . . ?
C2 C1 H1A 109.5 . . ?
N5 C1 H1B 109.5 . . ?
C2 C1 H1B 109.5 . . ?
H1A C1 H1B 108.1 . . ?
N1 C2 N2 115.4(3) . . ?
N1 C2 C1 121.7(3) . . ?
N2 C2 C1 122.8(2) . . ?
N2 C3 O1 112.7(3) . . ?
N2 C3 N3 136.4(3) . . ?
O1 C3 N3 110.8(2) . . ?
N6 C4 C5 112.8(2) . . ?
N6 C4 N7 115.5(2) . . ?
C5 C4 N7 131.6(2) . . ?
N8 C5 C4 132.6(2) . . ?
N8 C5 C6 123.2(2) . . ?
C4 C5 C6 104.2(2) . . ?
N9 C6 N5 123.9(2) . . ?
N9 C6 C5 131.1(2) . . ?
N5 C6 C5 105.0(2) . . ?
C2 N1 O1 103.5(2) . . ?
C3 N2 C2 102.6(2) . . ?
C3 N2 K1 129.11(18) . 1_455 ?
C2 N2 K1 125.00(18) . 1_455 ?
N4 N3 C3 116.8(2) . . ?
N4 N3 K1 110.62(18) . 2_755 ?
C3 N3 K1 113.02(19) . 2_755 ?
O3 N4 O2 119.9(3) . . ?
O3 N4 N3 124.4(3) . . ?
O2 N4 N3 115.7(3) . . ?
C6 N5 N6 113.5(2) . . ?
C6 N5 C1 128.1(2) . . ?
N6 N5 C1 118.3(2) . . ?
C4 N6 N5 104.5(2) . . ?
C4 N6 K1 116.99(16) . 1_455 ?
N5 N6 K1 121.65(15) . 1_455 ?
O5 N7 O4 121.3(3) . . ?
O5 N7 C4 120.4(3) . . ?
O4 N7 C4 118.3(2) . . ?
O5 N7 K1 65.67(18) . 2_665 ?
O4 N7 K1 56.89(16) . 2_665 ?
C4 N7 K1 166.14(17) . 2_665 ?
O6 N8 O7 122.6(3) . . ?
O6 N8 C5 119.8(3) . . ?
O7 N8 C5 117.5(2) . . ?
C6 N9 H9A 120.0 . . ?
C6 N9 H9B 120.0 . . ?
H9A N9 H9B 120.0 . . ?
C3 O1 N1 105.9(2) . . ?
N4 O2 K1 116.4(2) . . ?
N4 O3 K1 139.4(2) . 1_455 ?
N7 O4 K1 102.86(19) . 2_665 ?
N7 O4 K1 116.3(2) . 1_455 ?
K1 O4 K1 120.17(13) 2_665 1_455 ?
N7 O5 K1 94.3(2) . 2_665 ?
K1 O8 H8A 74(4) . . ?
K1 O8 H8B 103(4) . . ?
H8A O8 H8B 108(3) . . ?
loop_
_geom_bond_atom_site_label_1
_geom_bond_atom_site_label_2
_geom_bond_distance
_geom_bond_site_symmetry_2
_geom_bond_publ_flag
K1 O2 2.694(3) . ?
K1 O3 2.760(2) 1_655 ?
K1 N2 2.831(2) 1_655 ?
K1 O4 2.899(3) 2_665 ?
K1 N6 2.908(2) 1_655 ?
K1 N3 2.942(3) 2_755 ?
K1 O4 3.046(3) 1_655 ?
K1 O5 3.084(3) 2_665 ?
K1 O8 3.302(3) . ?
K1 N7 3.375(2) 2_665 ?
K1 K1 4.5323(15) 2_755 ?
C1 N5 1.457(3) . ?
C1 C2 1.485(4) . ?
C1 H1A 0.9700 . ?
C1 H1B 0.9700 . ?
C2 N1 1.294(3) . ?
C2 N2 1.361(4) . ?
C3 N2 1.307(3) . ?
C3 O1 1.349(3) . ?
C3 N3 1.358(4) . ?
C4 N6 1.304(3) . ?
C4 C5 1.408(4) . ?
C4 N7 1.451(3) . ?
C5 N8 1.406(3) . ?
C5 C6 1.409(3) . ?
C6 N9 1.323(3) . ?
C6 N5 1.350(3) . ?
N1 O1 1.412(4) . ?
N3 N4 1.323(4) . ?
N4 O3 1.240(3) . ?
N4 O2 1.248(3) . ?
N5 N6 1.359(3) . ?
N7 O5 1.158(4) . ?
N7 O4 1.198(4) . ?
N8 O6 1.203(3) . ?
N8 O7 1.227(3) . ?
N9 H9A 0.8600 . ?
N9 H9B 0.8600 . ?
O8 H8A 0.853(19) . ?
O8 H8B 0.850(19) . ?
loop_
_geom_hbond_atom_site_label_D
_geom_hbond_atom_site_label_H
_geom_hbond_atom_site_label_A
_geom_hbond_distance_DH
_geom_hbond_distance_HA
_geom_hbond_distance_DA
_geom_hbond_angle_DHA
_geom_hbond_site_symmetry_A
_geom_hbond_publ_flag
C1 H1B O6 0.97 2.60 3.297(4) 128.6 1_545 yes
N9 H9A N1 0.86 2.16 2.965(3) 154.7 2_656 yes
N9 H9B O7 0.86 2.22 2.751(3) 120.1 . yes
N9 H9B O8 0.86 2.28 3.047(4) 149.0 2_766 yes
O8 H8A O3 0.853(19) 2.28(3) 3.027(4) 146(5) 1_655 yes
O8 H8B O2 0.850(19) 2.62(3) 3.353(4) 145(4) 2_765 yes
O8 H8B O3 0.850(19) 2.19(3) 3.009(3) 161(4) 2_765 yes
loop_
_geom_torsion_atom_site_label_1
_geom_torsion_atom_site_label_2
_geom_torsion_atom_site_label_3
_geom_torsion_atom_site_label_4
_geom_torsion
_geom_torsion_site_symmetry_1
_geom_torsion_site_symmetry_2
_geom_torsion_site_symmetry_3
_geom_torsion_site_symmetry_4
_geom_torsion_publ_flag
N5 C1 C2 N1 129.5(3) . . . . ?
N5 C1 C2 N2 -51.3(3) . . . . ?
N6 C4 C5 N8 -178.7(3) . . . . ?
N7 C4 C5 N8 1.7(5) . . . . ?
N6 C4 C5 C6 0.5(3) . . . . ?
N7 C4 C5 C6 -179.0(3) . . . . ?
N8 C5 C6 N9 -2.5(4) . . . . ?
C4 C5 C6 N9 178.1(3) . . . . ?
N8 C5 C6 N5 178.4(2) . . . . ?
C4 C5 C6 N5 -0.9(3) . . . . ?
N2 C2 N1 O1 -0.2(3) . . . . ?
C1 C2 N1 O1 179.1(2) . . . . ?
O1 C3 N2 C2 -0.1(3) . . . . ?
N3 C3 N2 C2 176.5(3) . . . . ?
O1 C3 N2 K1 -159.88(17) . . . 1_455 ?
N3 C3 N2 K1 16.7(5) . . . 1_455 ?
N1 C2 N2 C3 0.2(3) . . . . ?
C1 C2 N2 C3 -179.1(2) . . . . ?
N1 C2 N2 K1 161.09(19) . . . 1_455 ?
C1 C2 N2 K1 -18.2(3) . . . 1_455 ?
N2 C3 N3 N4 8.3(5) . . . . ?
O1 C3 N3 N4 -175.0(2) . . . . ?
N2 C3 N3 K1 -121.7(3) . . . 2_755 ?
O1 C3 N3 K1 55.0(3) . . . 2_755 ?
C3 N3 N4 O3 2.3(4) . . . . ?
K1 N3 N4 O3 133.5(2) 2_755 . . . ?
C3 N3 N4 O2 -177.2(2) . . . . ?
K1 N3 N4 O2 -46.1(3) 2_755 . . . ?
N9 C6 N5 N6 -178.0(2) . . . . ?
C5 C6 N5 N6 1.1(3) . . . . ?
N9 C6 N5 C1 -2.7(4) . . . . ?
C5 C6 N5 C1 176.5(3) . . . . ?
C2 C1 N5 C6 -87.8(3) . . . . ?
C2 C1 N5 N6 87.4(3) . . . . ?
C5 C4 N6 N5 0.1(3) . . . . ?
N7 C4 N6 N5 179.8(2) . . . . ?
C5 C4 N6 K1 -137.57(18) . . . 1_455 ?
N7 C4 N6 K1 42.1(3) . . . 1_455 ?
C6 N5 N6 C4 -0.8(3) . . . . ?
C1 N5 N6 C4 -176.7(2) . . . . ?
C6 N5 N6 K1 134.41(18) . . . 1_455 ?
C1 N5 N6 K1 -41.5(3) . . . 1_455 ?
N6 C4 N7 O5 176.2(4) . . . . ?
C5 C4 N7 O5 -4.2(5) . . . . ?
N6 C4 N7 O4 -5.5(4) . . . . ?
C5 C4 N7 O4 174.1(3) . . . . ?
N6 C4 N7 K1 -71.3(8) . . . 2_665 ?
C5 C4 N7 K1 108.3(7) . . . 2_665 ?
C4 C5 N8 O6 -1.3(5) . . . . ?
C6 C5 N8 O6 179.6(3) . . . . ?
C4 C5 N8 O7 177.6(3) . . . . ?
C6 C5 N8 O7 -1.5(4) . . . . ?
N2 C3 O1 N1 0.0(3) . . . . ?
N3 C3 O1 N1 -177.5(2) . . . . ?
C2 N1 O1 C3 0.1(3) . . . . ?
O3 N4 O2 K1 127.7(2) . . . . ?
N3 N4 O2 K1 -52.8(3) . . . . ?
O2 N4 O3 K1 133.3(3) . . . 1_455 ?
N3 N4 O3 K1 -46.2(4) . . . 1_455 ?
O5 N7 O4 K1 13.4(5) . . . 2_665 ?
C4 N7 O4 K1 -164.88(19) . . . 2_665 ?
O5 N7 O4 K1 146.9(4) . . . 1_455 ?
C4 N7 O4 K1 -31.4(4) . . . 1_455 ?
K1 N7 O4 K1 133.5(3) 2_665 . . 1_455 ?
O4 N7 O5 K1 -12.3(4) . . . 2_665 ?
C4 N7 O5 K1 165.9(2) . . . 2_665 ?
