#------------------------------------------------------------------------------
#$Date: 2021-10-06 18:34:01 +0300 (Wed, 06 Oct 2021) $
#$Revision: 269711 $
#$URL: file:///home/coder/svn-repositories/cod/cif/7/70/81/7708162.cif $
#------------------------------------------------------------------------------
#
# This file is available in the Crystallography Open Database (COD),
# http://www.crystallography.net/
#
# All data on this site have been placed in the public domain by the
# contributors.
#
data_7708162
loop_
_publ_author_name
'Yang, Feng'
'Xu, Yuangang'
'Wang, Pengcheng'
'Lin, Qiuhan'
'Lu, Ming'
_publ_section_title
;
 Novel metal-organic frameworks assembled from the combination of
 polynitro-pyrazole and 5-nitroamine-1,2,4-oxadiazole: synthesis,
 structure and thermal properties.
;
_journal_issue                   37
_journal_name_full
'Dalton transactions (Cambridge, England : 2003)'
_journal_page_first              12906
_journal_page_last               12912
_journal_paper_doi               10.1039/d1dt02093e
_journal_volume                  50
_journal_year                    2021
_chemical_formula_moiety         'C6 H5 N9 O7, H2 O'
_chemical_formula_sum            'C6 H7 N9 O8'
_chemical_formula_weight         333.21
_space_group_crystal_system      monoclinic
_space_group_IT_number           14
_space_group_name_Hall           '-P 2ybc'
_space_group_name_H-M_alt        'P 1 21/c 1'
_atom_sites_solution_hydrogens   mixed
_audit_creation_method           SHELXL-2018/3
_audit_update_record
;
2021-06-10 deposited with the CCDC.	2021-08-16 downloaded from the CCDC.
;
_cell_angle_alpha                90
_cell_angle_beta                 108.117(3)
_cell_angle_gamma                90
_cell_formula_units_Z            4
_cell_length_a                   7.8296(8)
_cell_length_b                   22.796(3)
_cell_length_c                   7.4593(7)
_cell_measurement_reflns_used    2568
_cell_measurement_temperature    296(2)
_cell_measurement_theta_max      22.88
_cell_measurement_theta_min      2.74
_cell_volume                     1265.4(2)
_computing_cell_refinement       'Bruker SAINT'
_computing_data_collection       'Bruker APEX3'
_computing_data_reduction        'Bruker SAINT'
_computing_molecular_graphics    'Bruker SHELXTL'
_computing_publication_material  'Bruker SHELXTL'
_computing_structure_refinement  'SHELXL-2018/3 (Sheldrick, 2018)'
_computing_structure_solution    'SHELXT 2014/5 (Sheldrick, 2014)'
_diffrn_ambient_temperature      296(2)
_diffrn_detector_area_resol_mean 10.42
_diffrn_measured_fraction_theta_full 0.995
_diffrn_measured_fraction_theta_max 0.990
_diffrn_measurement_device_type  'Bruker D8 QUEST PHOTON 100'
_diffrn_measurement_method       '\f and \w scans'
_diffrn_radiation_type           MoK\a
_diffrn_radiation_wavelength     0.71073
_diffrn_reflns_av_R_equivalents  0.0749
_diffrn_reflns_av_unetI/netI     0.0947
_diffrn_reflns_Laue_measured_fraction_full 0.995
_diffrn_reflns_Laue_measured_fraction_max 0.990
_diffrn_reflns_limit_h_max       10
_diffrn_reflns_limit_h_min       -9
_diffrn_reflns_limit_k_max       29
_diffrn_reflns_limit_k_min       -25
_diffrn_reflns_limit_l_max       9
_diffrn_reflns_limit_l_min       -8
_diffrn_reflns_number            12417
_diffrn_reflns_point_group_measured_fraction_full 0.995
_diffrn_reflns_point_group_measured_fraction_max 0.990
_diffrn_reflns_theta_full        25.242
_diffrn_reflns_theta_max         27.465
_diffrn_reflns_theta_min         2.737
_diffrn_source.source            'Ius 2.0'
_diffrn_source.type              microfocus
_exptl_absorpt_coefficient_mu    0.161
_exptl_absorpt_correction_T_max  0.7456
_exptl_absorpt_correction_T_min  0.6969
_exptl_absorpt_correction_type   multi-scan
_exptl_absorpt_process_details   sadabs
_exptl_crystal_colour            yellow
_exptl_crystal_density_diffrn    1.749
_exptl_crystal_description       plate
_exptl_crystal_F_000             680
_exptl_crystal_size_max          0.120
_exptl_crystal_size_mid          0.100
_exptl_crystal_size_min          0.010
_refine_diff_density_max         0.360
_refine_diff_density_min         -0.573
_refine_diff_density_rms         0.059
_refine_ls_extinction_method     none
_refine_ls_goodness_of_fit_ref   1.030
_refine_ls_hydrogen_treatment    constr
_refine_ls_matrix_type           full
_refine_ls_number_parameters     246
_refine_ls_number_reflns         2867
_refine_ls_number_restraints     0
_refine_ls_restrained_S_all      1.030
_refine_ls_R_factor_all          0.1695
_refine_ls_R_factor_gt           0.0689
_refine_ls_shift/su_max          0.000
_refine_ls_shift/su_mean         0.000
_refine_ls_structure_factor_coef Fsqd
_refine_ls_weighting_details
'w=1/[\s^2^(Fo^2^)+(0.0805P)^2^+0.8965P] where P=(Fo^2^+2Fc^2^)/3'
_refine_ls_weighting_scheme      calc
_refine_ls_wR_factor_gt          0.1590
_refine_ls_wR_factor_ref         0.1960
_reflns_Friedel_coverage         0.000
_reflns_number_gt                1434
_reflns_number_total             2867
_reflns_threshold_expression     'I > 2\s(I)'
_cod_data_source_file            d1dt02093e2.cif
_cod_data_source_block           YF_052_a
_cod_depositor_comments
'Adding full bibliography for 7708161--7708163.cif.'
_cod_original_sg_symbol_H-M      'P 21/c'
_cod_database_code               7708162
_shelx_shelxl_version_number     2018/3
_shelx_space_group_comment
;
The symmetry employed for this shelxl refinement is uniquely defined
by the following loop, which should always be used as a source of
symmetry information in preference to the above space-group names.
They are only intended as comments.
;
_shelx_estimated_absorpt_t_min   0.981
_shelx_estimated_absorpt_t_max   0.998
_shelx_res_file
;
TITL YF_052_a.res in P2(1)/c
    YF_052_a.res
    created by SHELXL-2018/3 at 15:48:11 on 24-Mar-2021
CELL 0.71073 7.8296 22.7963 7.4593 90 108.117 90
ZERR 4 0.0008 0.0025 0.0007 0 0.003 0
LATT 1
SYMM -X,0.5+Y,0.5-Z
SFAC C  H  N  O
UNIT 24  28  36  32
L.S. 10
omit 0   2   0
ACTA
BOND $H
FMAP 2
PLAN -5
SIZE 0.12 0.1 0.01
TEMP 23
EQIV $1 x, y, z-1
HTAB C4 N5_$1
HTAB N4 O8
EQIV $2 x-1, y, z-1
HTAB N9 N6_$2
HTAB N9 O6_$2
HTAB N9 O7_$2
HTAB N9 O4A
HTAB N9 O4B
EQIV $3 x-1, y, z
HTAB N9 O1A_$3
HTAB N9 O1B_$3
EQIV $4 x-1, -y+1/2, z-1/2
HTAB N9 O1B_$4
HTAB O8 O7_$1
EQIV $5 x+1, -y+1/2, z+1/2
HTAB O8 O4A_$5
HTAB O8 O4B_$5

WGHT    0.080500    0.896500
FVAR       0.59922   0.54682   0.59366
C1    1    0.318070    0.280992    0.001775    11.00000    0.05455    0.03934 =
         0.04667   -0.00207    0.01423    0.01669
C2    1    0.138870    0.267336   -0.041651    11.00000    0.06206    0.03002 =
         0.04922   -0.00929    0.01536   -0.00255
C3    1    0.052390    0.321386   -0.057449    11.00000    0.04610    0.03623 =
         0.05489   -0.00989    0.00844   -0.00212
C4    1    0.169383    0.424993   -0.003411    11.00000    0.05374    0.02691 =
         0.03985    0.00287    0.00634    0.00305
AFIX  23
H4A   2    0.053426    0.438577   -0.083744    11.00000   -1.20000
H4B   2    0.262061    0.445120   -0.040826    11.00000   -1.20000
AFIX   0
C5    1    0.188845    0.438943    0.197292    11.00000    0.03567    0.02023 =
         0.04383    0.00146    0.01323    0.00216
C6    1    0.305179    0.447375    0.489197    11.00000    0.03561    0.02325 =
         0.04657   -0.00005    0.01782   -0.00183
N1    3    0.184542    0.361721   -0.027013    11.00000    0.03785    0.02951 =
         0.03596   -0.00296    0.00261    0.00305
N2    3    0.349721    0.337309    0.012520    11.00000    0.04294    0.04481 =
         0.05586   -0.00469    0.01244    0.00516
N3    3    0.053536    0.455460    0.249442    11.00000    0.03574    0.04559 =
         0.05583   -0.00467    0.01079    0.00609
N4    3    0.347060    0.433196    0.339235    11.00000    0.02588    0.03042 =
         0.03592   -0.00160    0.01443    0.00301
AFIX  43
H4    2    0.450036    0.422698    0.331496    11.00000   -1.20000
AFIX   0
N5    3    0.388956    0.452238    0.676497    11.00000    0.05283    0.04565 =
         0.03729   -0.00375    0.02128   -0.00594
N6    3    0.561947    0.439618    0.734906    11.00000    0.05627    0.03738 =
         0.03806    0.00117    0.01110   -0.01011
N8    3    0.053764    0.212774   -0.061698    11.00000    0.09817    0.04025 =
         0.08395   -0.01631    0.03951   -0.01117
N9    3   -0.119585    0.334807   -0.093251    11.00000    0.04110    0.05946 =
         0.17176   -0.02934    0.01410   -0.00915
AFIX  93
H9A   2   -0.152235    0.370946   -0.098109    11.00000   -1.20000
H9B   2   -0.198597    0.307382   -0.111639    11.00000   -1.20000
PART 1  31.00
AFIX   0
O3A   4    0.120406    0.171219   -0.104997    31.00000    0.11436    0.03805 =
         0.12895   -0.02438    0.02544    0.00851
O4A   4   -0.096738    0.208591   -0.048811    31.00000    0.08855    0.05985 =
         0.15954   -0.02657    0.05573   -0.02546
PART 2  -31.00
O3B   4    0.155436    0.172183    0.025106   -31.00000    0.16855    0.03368 =
         0.10626   -0.00632    0.06425   -0.00894
O4B   4   -0.115096    0.215380   -0.153718   -31.00000    0.16446    0.07031 =
         0.12735   -0.03359    0.03870   -0.06930
PART 0
O5    4    0.130275    0.461761    0.447033    11.00000    0.04076    0.05371 =
         0.05612   -0.00725    0.02526    0.00507
O6    4    0.651811    0.425825    0.631662    11.00000    0.04618    0.06226 =
         0.04552   -0.00274    0.01027    0.00508
O7    4    0.638421    0.443154    0.909241    11.00000    0.08673    0.08889 =
         0.03066   -0.00050    0.00375   -0.02669
O8    4    0.688498    0.403389    0.279714    11.00000    0.06188    0.09164 =
         0.06520    0.00933    0.02155    0.01256
AFIX   3
H8A   2    0.709240    0.404844    0.174509    11.00000   -1.50000
H8B   2    0.775744    0.383821    0.350950    11.00000   -1.50000
AFIX   0
N7    3    0.470829    0.241680    0.035777    11.00000    0.07658    0.08555 =
         0.11186   -0.01729    0.01015    0.04058
PART 1  21.00
O1A   4    0.584610    0.251855   -0.012736    21.00000    0.11341    0.23702 =
         0.37150    0.10979    0.15861    0.09366
O2A   4    0.467392    0.199084    0.146215    21.00000    0.12169    0.08298 =
         0.17611    0.05683    0.04086    0.07338
PART 2  -21.00
O1B   4    0.630080    0.266399    0.119077   -21.00000    0.10872    0.11220 =
         0.14054   -0.04794   -0.03276    0.07170
O2B   4    0.467596    0.202157   -0.062326   -21.00000    0.11565    0.04112 =
         0.12802   -0.02649    0.05381    0.02815
PART 0
HKLF 4




REM  YF_052_a.res in P2(1)/c
REM wR2 = 0.1960, GooF = S = 1.030, Restrained GooF = 1.030 for all data
REM R1 = 0.0689 for 1434 Fo > 4sig(Fo) and 0.1695 for all 2867 data
REM 246 parameters refined using 0 restraints

END

WGHT      0.0795      0.9443

REM Highest difference peak  0.360,  deepest hole -0.573,  1-sigma level  0.059
Q1    1   0.5880  0.4180  0.3327  11.00000  0.05    0.36
Q2    1   0.7939  0.4500  0.3075  11.00000  0.05    0.28
Q3    1   0.5499  0.2447  0.2324  11.00000  0.05    0.26
Q4    1  -0.1920  0.3011 -0.2028  11.00000  0.05    0.23
Q5    1   0.6234  0.4220  1.1131  11.00000  0.05    0.21
;
_shelx_res_checksum              78056
_shelx_hkl_file
;
   0   0   1    0.30    0.40
   0   0   1   -0.50    0.50
   0   0   1   -0.10    0.30
   0   0  -1    0.10    0.40
   0   0   2 4493.35  140.39
   0   0   2 4482.05  139.89
   0   0   2 4561.84  140.29
   0   0   3    4.10    1.60
   0   0   3    1.40    1.10
   0   0   3    1.60    1.80
   0   0   4  574.64   19.90
   0   0   4  557.14   19.10
   0   0   4  569.24   20.50
   0   0   5    5.90    3.50
   0   0   5    1.80    1.80
   0   0   5    0.20    2.20
   0   0   6   21.90    3.00
   0   0   6   30.30    5.40
   0   0   6   25.60    3.90
   0   0   7   -1.70    6.40
   0   0   7   -4.00    4.30
   0   0   8   15.60    6.20
   0   1   0   -0.50    0.20
   0  -1   0   -0.10    0.20
   0  -1   0   -0.20    0.20
   0   1  -1   66.09    2.90
   0   1   1   64.09    2.80
   0   1   1   68.59    2.70
   0  -1   1   70.19    3.00
   0  -1  -1   68.39    2.70
   0  -1  -1   68.19    2.90
   0   1   2 1130.79   39.10
   0   1  -2 1227.08   38.80
   0   1   2 1237.68   38.60
   0  -1   2 1219.58   39.00
   0  -1  -2 1244.48   38.60
   0   1   3  943.61   30.60
   0   1   3  948.31   30.80
   0   1   3  940.51   30.90
   0  -1   3  940.21   30.90
   0  -1   3  933.01   31.20
   0  -1   3  923.91   29.90
   0   1   4  492.15   17.30
   0   1   4  487.75   17.90
   0   1   4  505.25   17.60
   0  -1   4  494.45   18.40
   0  -1   4  499.45   17.80
   0  -1   4  477.75   16.50
   0   1   5   25.00    4.40
   0   1   5   24.60    3.30
   0   1   5   28.70    3.50
   0  -1   5   22.50    2.80
   0  -1   5   18.80    4.30
   0  -1   5   30.50    3.70
   0   1   6   36.70    5.40
   0   1   6   36.70    4.60
   0   1   6   48.80    5.80
   0  -1   6   41.80    6.00
   0  -1   6   38.40    4.90
   0   1   7    9.90    3.20
   0   1   7    6.20    4.50
   0   1   7    7.20    3.70
   0   1   7    4.30    6.30
   0  -1   7   -2.20    4.10
   0  -1   7   -2.40    6.50
   0   1   8    6.90    6.00
   0  -1   8   -0.60    5.90
   0  -2   0    2.10    0.60
   0   2  -1   35.20    1.60
   0   2  -1   31.50    2.20
   0   2   1   36.20    2.20
   0   2   1   35.90    1.90
   0   2  -1   35.50    1.60
   0  -2   1   30.50    2.30
   0  -2   1   36.00    1.60
   0  -2  -1   39.10    2.30
   0  -2  -1   37.20    1.90
   0   2   2 4644.44  149.59
   0   2  -2 4762.72  148.89
   0   2   2 4693.53  148.29
   0  -2  -2 4866.11  148.69
   0  -2  -2 4715.43  148.29
   0  -2   2 4955.80  148.99
   0   2   3  490.85   17.10
   0   2   3  478.95   17.30
   0   2  -3  491.15   17.60
   0  -2  -3  497.55   17.00
   0  -2   3  512.15   17.90
   0   2   4    1.60    2.10
   0   2   4    6.70    2.00
   0   2   4    3.40    2.40
   0  -2   4    3.60    2.00
   0  -2   4    4.70    2.70
   0   2   5    1.50    3.00
   0   2   5    3.80    2.40
   0   2   5    0.50    2.00
   0  -2   5   -2.50    2.40
   0  -2   5   -0.60    3.50
   0   2   6   -0.30    4.50
   0   2   6    1.90    2.50
   0   2   6    5.60    3.20
   0  -2   6    6.40    3.00
   0  -2   6    2.00    5.10
   0   2   7    9.10    6.40
   0   2   7    3.80    4.30
   0   2   7    6.30    3.50
   0   2   7    8.60    4.60
   0  -2   7    5.00    4.30
   0  -2   7   -0.60    7.30
   0   2   8    4.40    6.10
   0  -2   8    6.30    5.70
   0   3   0   -0.20    0.60
   0   3   0    0.90    0.90
   0   3   0   -0.20    0.70
   0  -3   0    2.40    1.00
   0  -3   0    0.90    0.70
   0   3  -1 1122.19   36.00
   0   3  -1 1154.38   36.20
   0   3  -1 1153.88   36.90
   0   3   1 1134.99   36.40
   0   3   1 1137.19   36.90
   0  -3  -1 1169.88   36.90
   0  -3   1 1125.69   36.10
   0  -3   1 1127.79   36.90
   0  -3  -1 1167.88   36.40
   0   3  -2    2.80    1.70
   0   3   2    1.10    1.30
   0   3   2    0.60    1.20
   0  -3  -2    3.00    1.20
   0  -3  -2    3.30    1.50
   0  -3   2    4.20    1.80
   0   3  -3  320.47   14.30
   0   3   3  357.56   12.80
   0   3   3  360.36   13.30
   0  -3   3  346.17   14.90
   0  -3  -3  357.06   12.70
   0   3   4   94.89    5.50
   0   3   4  103.39    5.80
   0  -3  -4  102.49    5.80
   0  -3   4  101.99    7.00
   0  -3   4   95.79    5.70
   0   3   5  109.59    7.40
   0   3   5  109.09    6.60
   0   3   5  116.99    6.70
   0  -3   5  105.79    6.70
   0  -3   5  120.79    8.60
   0   3   6   -0.50    2.60
   0   3   6   -2.00    4.10
   0   3   6    6.70    3.30
   0  -3   6    2.40    5.10
   0  -3   6    7.70    3.20
   0   3   7   13.10    6.40
   0   3   7   14.40    4.80
   0   3   7   11.90    4.60
   0   3   7    6.20    4.20
   0  -3   7   13.80    4.70
   0  -3   7   20.80    8.40
   0   3   8  -11.00    5.90
   0   3   8    1.40    4.50
   0   3   8    0.20    5.50
   0  -3   8   -3.10    5.50
   0   4   0 1157.08   37.70
   0   4   0 1154.18   37.80
   0  -4   0 1186.38   37.70
   0  -4   0 1187.98   37.80
   0   4   1   44.60    3.80
   0   4  -1   31.30    2.40
   0   4  -1   29.80    2.80
   0   4   1   31.70    2.50
   0   4  -1   31.80    2.10
   0  -4   1   30.30    3.00
   0  -4  -1   34.10    2.50
   0  -4  -1   29.50    2.80
   0  -4   1   31.30    2.10
   0   4   2  297.57   11.60
   0   4  -2  300.67   10.10
   0   4  -2  288.17   11.60
   0   4   2  298.07   11.00
   0  -4   2  304.77   10.30
   0  -4   2  297.07   11.80
   0  -4  -2  306.97   10.90
   0  -4  -2  304.57   11.70
   0   4   3  278.57   11.20
   0   4   3  273.67   10.70
   0   4  -3  277.67   11.50
   0  -4  -3  280.77   10.50
   0  -4   3  262.67   11.70
   0   4   4   -2.10    1.70
   0   4   4    0.30    1.80
   0   4  -4    2.10    2.80
   0  -4  -4    1.70    2.30
   0  -4   4    0.80    2.90
   0   4   5   49.99    5.70
   0   4   5   46.60    5.30
   0   4   5   46.20    4.80
   0  -4  -5   45.40    5.10
   0  -4   5   50.29    5.10
   0  -4   5   56.99    6.50
   0   4   6    9.10    3.50
   0   4   6    8.20    3.60
   0   4   6    7.30    4.40
   0  -4   6    7.40    5.60
   0  -4   6    9.40    3.70
   0   4   7   42.40    6.60
   0   4   7   43.60    7.40
   0   4   7   52.09    6.30
   0   4   7   47.90    6.80
   0  -4   7   49.70    9.40
   0  -4   7   55.29    6.10
   0   4   8   -0.70    6.40
   0   4   8   14.60    6.60
   0   4   8    7.80    5.40
   0  -4   8   -2.40    6.00
   0   4   9    4.90    5.90
   0   5   0    0.90    1.30
   0   5   0    1.70    1.80
   0   5   0    4.30    2.60
   0  -5   0   -1.40    1.50
   0  -5   0    1.00    1.20
   0   5  -1  238.38    9.90
   0   5  -1  264.87    9.30
   0   5   1  239.08   10.10
   0   5  -1  263.37    9.50
   0   5   1  252.47    9.70
   0  -5   1  236.98    9.20
   0  -5  -1  251.27    9.60
   0  -5  -1  247.58   10.20
   0  -5   1  264.97   10.20
   0   5   2   63.49    4.20
   0   5   2   57.19    4.40
   0   5  -2   55.79    6.00
   0   5  -2   67.19    3.40
   0   5  -2   71.19    3.50
   0  -5   2   69.99    3.50
   0  -5  -2   67.39    4.00
   0  -5   2   61.69    5.00
   0   5   3  130.39    6.90
   0   5  -3  135.29    7.40
   0   5   3  114.79    7.50
   0  -5   3  129.69    5.20
   0  -5  -3  136.39    6.30
   0  -5   3  141.99    7.90
   0   5   4  309.17   12.30
   0   5   4  295.37   12.90
   0   5  -4  305.87   13.20
   0  -5  -4  308.57   12.20
   0  -5   4  322.47   14.20
   0   5  -5   20.00    4.30
   0   5   5   18.80    3.80
   0   5   5   20.30    3.30
   0  -5  -5   17.50    3.70
   0  -5   5   12.30    5.20
   0  -5   5   15.80    3.40
   0   5   6    5.40    3.40
   0   5   6    4.90    4.30
   0   5   6    0.40    3.60
   0  -5   6   -2.90    5.90
   0  -5   6    0.10    3.60
   0   5   7    4.70    5.10
   0   5   7    6.40    6.10
   0   5   7    0.30    4.20
   0   5   7    6.80    4.80
   0  -5   7    2.80    4.60
   0  -5   7    1.80    8.50
   0   5   8    5.00    6.80
   0   5   8    0.50    5.70
   0   5   8   -1.70    6.90
   0  -5   8    3.30    6.00
   0   5   9    5.60    6.30
   0   6   0 3463.25  115.89
   0   6   0 3459.05  115.69
   0   6   0 4145.08  116.49
   0  -6   0 3657.03  115.89
   0   6   1   11.60    2.10
   0   6  -1    6.40    1.70
   0   6  -1    8.00    2.30
   0   6  -1    9.70    2.00
   0   6   1    7.00    2.30
   0  -6  -1   10.90    2.50
   0  -6   1   10.60    2.60
   0  -6  -1    7.70    2.20
   0   6   2  634.64   21.80
   0   6  -2  627.34   21.00
   0   6   2  591.14   22.30
   0   6  -2  617.04   22.40
   0   6  -2  629.34   20.80
   0  -6   2  624.74   21.10
   0  -6   2  646.54   22.60
   0  -6  -2  641.34   21.50
   0   6   3  117.09    6.40
   0   6   3  119.89    6.90
   0   6  -3  112.89    7.10
   0  -6   3  108.49    7.60
   0  -6   3  111.99    5.00
   0   6   4    3.60    2.20
   0   6   4    2.50    2.10
   0   6  -4    3.50    3.30
   0  -6  -4    3.40    2.40
   0  -6   4    7.00    3.90
   0   6  -5   62.89    6.90
   0   6   5   56.49    5.50
   0   6   5   44.00    5.60
   0  -6  -5   49.50    5.60
   0  -6   5   57.59    7.30
   0   6   6   12.10    4.00
   0   6   6   11.20    4.50
   0   6   6   11.20    4.40
   0  -6   6    6.90    3.70
   0  -6   6    6.80    6.30
   0   6   7   23.10    5.60
   0   6   7    9.00    5.50
   0   6   7   20.50    6.50
   0   6   7   30.30    6.10
   0  -6   7   18.10    5.40
   0   6   8    3.50    5.90
   0   6   8    4.20    7.80
   0   6   8   10.30    7.30
   0  -6   8    5.30    6.10
   0   7   0    4.50    2.00
   0   7   0    0.70    1.50
   0   7   0    2.80    2.20
   0  -7   0    4.60    2.40
   0   7   1 1318.37   42.90
   0   7  -1 1249.38   41.90
   0   7  -1 1266.77   42.40
   0   7   1 1274.87   42.10
   0   7  -1 1281.77   41.70
   0  -7  -1 1271.17   41.90
   0   7  -2  369.36   13.80
   0   7   2  371.46   15.30
   0   7  -2  400.76   15.40
   0   7  -2  393.76   13.70
   0  -7   2  420.76   15.70
   0  -7  -2  375.56   14.40
   0  -7   2  354.96   13.70
   0   7   3  215.08    9.70
   0   7  -3  209.48   10.40
   0   7   3  223.58   10.60
   0   7  -3  225.68    8.00
   0   7  -3  205.98    8.60
   0  -7   3  216.68    8.60
   0  -7   3  230.88   11.10
   0  -7  -3  217.68    9.40
   0   7   4  533.15   21.50
   0   7  -4  542.55   21.60
   0   7   4  586.44   20.60
   0  -7   4  556.44   22.30
   0  -7   4  557.44   18.80
   0  -7  -4  566.44   20.20
   0   7  -5   14.40    4.70
   0   7   5   12.70    4.10
   0   7   5   20.90    3.70
   0  -7   5   27.40    6.00
   0  -7  -5   13.20    3.60
   0   7   6   14.80    5.10
   0   7   6    8.20    4.10
   0  -7   6   -0.70    7.20
   0  -7   6   15.40    4.30
   0  -7  -6    5.40    4.20
   0   7   7    7.70    6.00
   0   7   7    5.80    5.20
   0   7   7   14.70    6.70
   0   7   7    9.70    6.20
   0  -7   7   15.20    5.40
   0   7   8   -5.50    6.20
   0   7   8   -7.90    7.50
   0   7   8   -2.10    7.90
   0  -7   8    4.50    6.60
   0   8   0 9999.00  308.77
   0   8   0 9804.82  308.27
   0   8   0 9832.32  308.57
   0  -8   0 9991.10  308.57
   0   8   1  276.17   11.40
   0   8   1  265.87   11.90
   0   8  -1  254.67   11.50
   0   8  -1  276.07   11.70
   0  -8   1  267.67   11.90
   0  -8  -1  248.78   11.20
   0   8  -2   27.20    3.80
   0   8  -2   46.00    3.90
   0   8   2   45.70    4.70
   0   8   2   36.60    4.60
   0   8  -2   38.40    3.70
   0  -8  -2   45.00    4.30
   0  -8   2   42.60    3.70
   0  -8   2   47.50    5.40
   0   8   3   15.80    3.60
   0   8  -3   10.50    3.30
   0   8  -3   14.90    2.30
   0   8  -3   14.80    2.60
   0   8   3   16.80    3.10
   0  -8  -3   17.30    2.90
   0  -8   3   15.80    2.40
   0  -8   3   21.00    4.40
   0   8   4    5.80    2.80
   0   8  -4    6.10    3.50
   0   8   4    5.70    2.90
   0  -8  -4    5.70    2.80
   0  -8   4    2.90    4.40
   0   8   5    8.50    3.50
   0   8  -5    5.00    4.30
   0   8   5    8.70    3.60
   0  -8   5    3.60    5.90
   0  -8  -5    3.00    3.20
   0   8   6    0.30    4.10
   0   8  -6   -5.90    5.30
   0   8   6    5.10    5.30
   0  -8   6    2.10    7.40
   0  -8  -6   -2.10    4.50
   0   8   7    4.30    6.20
   0   8   7   -4.10    5.30
   0   8   7   -0.70    6.00
   0  -8   7   -7.80    5.30
   0   8   8   -0.80    8.50
   0   8   8    3.00    6.60
   0  -8   8   -5.60    6.90
   0   9   0    1.50    2.00
   0   9   0   -0.30    2.00
   0   9   0    1.00    2.20
   0  -9   0    1.70    2.90
   0   9  -1   30.30    3.70
   0   9   1   26.10    4.60
   0   9  -1   35.20    4.40
   0   9   1   26.10    3.80
   0   9   1   25.20    3.90
   0  -9   1   25.40    4.30
   0  -9  -1   35.80    4.10
   0   9   2    7.00    2.50
   0   9  -2    7.50    3.00
   0   9   2    5.10    3.00
   0   9  -2    6.50    2.60
   0   9  -2    8.30    2.20
   0  -9   2    7.90    3.70
   0  -9  -2    6.10    3.00
   0   9   3   15.90    4.30
   0   9   3   12.40    3.00
   0   9  -3   15.20    4.00
   0   9  -3   10.40    2.40
   0   9  -3   12.20    2.30
   0  -9   3   18.40    4.90
   0  -9  -3   13.90    3.10
   0   9  -4   22.80    4.80
   0   9   4   10.30    3.60
   0   9   4   26.20    4.00
   0  -9   4   21.00    5.50
   0  -9  -4   21.40    3.80
   0   9   5   36.10    5.80
   0   9   5   42.70    5.60
   0   9  -5   44.00    6.60
   0   9   5   49.20    5.70
   0  -9  -5   39.40    5.10
   0  -9   5   42.50    7.20
   0   9   6    0.50    4.20
   0   9  -6   -0.30    5.60
   0   9   6    4.20    6.90
   0  -9  -6    7.30    5.00
   0   9   7   40.40    6.90
   0   9   7   29.70    9.20
   0   9   7   36.00    7.80
   0   9   7   30.50    7.90
   0  -9   7   43.70    7.20
   0   9   8   -1.20    8.90
   0   9   8   -4.80    6.70
   0  -9   8   -3.40    8.30
   0  10   0 3385.56  105.69
   0  10   0 2863.11  106.99
   0  10   0 3403.56  105.89
   0 -10   0 3519.85  105.69
   0  10  -1  144.69    7.70
   0  10   1  138.79   11.10
   0  10   1  143.49    8.30
   0  10  -1  142.29    8.10
   0  10   1  139.89    8.30
   0 -10  -1  142.19    8.20
   0 -10   1  149.09    9.20
   0  10   2   74.49    6.60
   0  10  -2   74.59    5.30
   0  10   2   69.79    5.80
   0  10  -2   68.29    5.40
   0  10  -2   69.29    6.40
   0 -10   2   66.29    7.50
   0 -10  -2   75.59    6.10
   0  10  -3  174.78   10.50
   0  10   3  169.78   10.30
   0  10  -3  175.78    8.00
   0  10   3  181.58    9.20
   0  10  -3  175.18    8.40
   0 -10  -3  170.68    9.00
   0 -10   3  161.48   10.70
   0  10  -4   81.89    8.60
   0  10   4   79.59    6.70
   0  10   4   81.89    8.10
   0 -10  -4   85.59    6.60
   0 -10   4   80.19    9.00
   0  10  -5   47.60    6.90
   0  10   5   32.10    5.60
   0  10   5   27.90    6.10
   0  10   5   25.40    4.90
   0 -10   5   24.10    7.00
   0 -10  -5   34.90    5.10
   0  10  -6    4.20    6.20
   0  10   6    0.00    5.90
   0  10   6   10.50    4.90
   0 -10  -6   -7.00    5.00
   0  10   7   41.50    7.70
   0  10   7   43.80    7.40
   0  10   7   30.90    8.00
   0 -10   7   33.50    6.90
   0  10   8   -7.80    7.30
   0 -10   8    8.70    7.50
   0  11   0    6.70    2.70
   0  11   0    7.00    2.90
   0  11   0    8.30    6.30
   0 -11   0    8.10    3.70
   0  11   1    2.70    3.20
   0  11   1    5.00    4.30
   0  11  -1    4.10    2.90
   0  11   1    1.30    2.70
   0  11  -1    8.80    3.00
   0 -11   1    6.50    4.20
   0 -11  -1    5.50    3.50
   0  11   2   20.30    4.20
   0  11   2   32.10    4.60
   0  11  -2   25.00    4.50
   0  11  -2   28.60    3.90
   0  11  -2   28.40    3.80
   0  11   2   43.50    8.50
   0 -11  -2   27.70    4.60
   0 -11   2   25.70    5.90
   0  11  -3    1.80    2.60
   0  11  -3    2.20    2.20
   0  11   3   -0.80    2.80
   0  11   3    3.60    2.90
   0  11  -3    4.60    4.00
   0  11   3    5.40    3.90
   0 -11  -3    3.20    3.40
   0 -11   3    3.60    4.70
   0  11   4   -1.40    3.50
   0  11   4    3.40    4.40
   0  11  -4    1.10    2.60
   0  11  -4   -4.00    4.40
   0  11   4    3.80    4.40
   0  11  -4   -0.60    2.10
   0 -11  -4    5.10    3.70
   0 -11   4   -5.90    5.60
   0  11  -5    1.20    5.00
   0  11   5   -2.00    4.00
   0  11   5    3.50    4.50
   0  11   5    1.10    5.60
   0 -11   5   -4.80    6.40
   0 -11  -5    4.50    4.10
   0  11   6   28.00    6.00
   0  11   6   22.90    7.50
   0  11  -6   26.00    7.30
   0 -11  -6   24.20    6.20
   0  11   7    1.50    6.40
   0  11  -7   -6.70    7.60
   0  11   7   -8.00    6.20
   0 -11   7    9.40    6.10
   0  11   8    1.30    8.00
   0 -11   8  -17.50    7.70
   0  12   0   68.59    6.70
   0  12   0   90.39    8.30
   0 -12   0   88.89    7.70
   0  12  -1   40.30    5.50
   0  12  -1   50.69    5.60
   0  12   1   45.00    5.60
   0  12  -1   46.00    5.80
   0  12   1   49.00    6.30
   0  12   1   62.59    6.90
   0 -12   1   62.29    7.70
   0 -12  -1   53.79    6.60
   0  12   2   17.70    4.20
   0  12  -2   25.50    4.00
   0  12   2   15.20    4.00
   0  12  -2   12.00    4.20
   0  12   2   13.20    4.30
   0  12  -2   18.20    4.00
   0 -12   2   19.30    5.40
   0 -12  -2   20.10    4.20
   0  12  -3   13.80    3.60
   0  12  -3   14.90    4.90
   0  12   3   -0.10    4.30
   0  12  -3    6.30    2.50
   0  12   3   14.60    3.70
   0  12   3   12.80    4.70
   0 -12   3   19.20    5.50
   0 -12  -3    5.50    4.00
   0  12  -4   21.30    3.30
   0  12   4   20.00    5.80
   0  12  -4   16.30    3.10
   0  12  -4   24.90    5.50
   0  12   4   14.80    5.30
   0  12   4   29.80    4.90
   0 -12   4   14.30    6.50
   0 -12  -4   17.20    4.80
   0  12   5   76.69    9.90
   0  12  -5   66.69    8.50
   0  12   5   55.39    6.80
   0  12   5   57.79    8.60
   0 -12  -5   55.39    6.60
   0  12   6   11.20    5.80
   0  12  -6    4.30    7.00
   0  12   6   15.50    6.70
   0 -12  -6    4.90    6.40
   0  12   7   21.90    7.40
   0  12   7    3.60    7.50
   0  12   8   -2.90    8.00
   0 -12   8   21.90    8.50
   0  13   0    5.70    3.00
   0  13   0    3.00    3.10
   0  13   0   -0.40    3.10
   0 -13   0    0.90    4.50
   0  13  -1  673.83   25.70
   0  13  -1  649.93   25.80
   0  13   1  778.92   28.10
   0  13  -1  640.04   26.20
   0  13   1  646.94   26.10
   0  13   1  794.62   29.00
   0 -13  -1  666.73   26.10
   0 -13   1  656.23   26.90
   0  13   2   15.90    4.20
   0  13  -2    9.90    3.60
   0  13   2   11.50    7.50
   0  13   2   23.60    7.10
   0  13  -2    9.90    3.70
   0  13  -2    7.70    3.80
   0 -13  -2   11.80    4.10
   0 -13   2    7.70    5.10
   0  13  -3  305.77   13.60
   0  13   3  310.57   16.10
   0  13   3  298.87   15.70
   0  13   3  313.07   14.40
   0  13  -3  316.57   15.80
   0  13  -3  293.27   12.80
   0 -13  -3  299.57   14.00
   0 -13   3  291.07   16.50
   0  13  -4  187.88   12.40
   0  13   4  160.68   12.50
   0  13  -4  183.98    9.30
   0  13   4  187.58   12.90
   0  13   4  168.28   11.00
   0 -13   4  180.88   13.70
   0 -13  -4  188.38   10.90
   0  13   5   97.19   10.20
   0  13   5   78.99    9.30
   0  13  -5   98.29   11.40
   0  13   5   58.49    8.30
   0 -13  -5   76.29    8.90
   0  13   6    4.00    6.50
   0  13   6    9.00    7.80
   0  13   6   -0.80    6.10
   0  13  -6   12.40    7.90
   0 -13  -6   -1.40    6.80
   0  13   7   -3.60    7.70
   0  13   7  -12.10    7.30
   0  13   8    3.50    9.40
   0 -13   8    2.40    8.50
   0  14   0  178.98   11.40
   0  14   0  198.48   11.30
   0  14   0  178.88   10.80
   0 -14   0  197.68   12.10
   0  14   1   42.80   10.30
   0  14  -1   21.20    4.40
   0  14   1   22.10    4.50
   0  14   1   26.60    6.00
   0  14  -1   18.60    4.30
   0  14  -1   15.10    4.30
   0 -14  -1   22.20    5.10
   0 -14   1   32.70    6.50
   0  14   2   -1.40    3.60
   0  14  -2    6.90    4.20
   0  14  -2   10.30    3.90
   0  14  -2    7.60    3.90
   0  14   2    4.00    3.80
   0  14   2    7.60    5.00
   0 -14  -2    3.70    4.40
   0 -14   2   25.60    6.50
   0  14  -3   13.80    4.20
   0  14   3   13.10    4.70
   0  14   3    8.10    5.10
   0  14  -3   10.90    5.50
   0  14  -3   14.50    3.70
   0  14   3   12.30    4.40
   0 -14   3    0.30    6.00
   0 -14  -3    8.40    4.70
   0  14  -4    1.30    5.50
   0  14   4    3.80    4.70
   0  14   4    5.90    4.60
   0  14  -4    9.20    4.00
   0  14   4    7.00    6.10
   0 -14  -4   -8.10    4.80
   0  14  -5    2.90    7.40
   0  14   5    9.00    6.30
   0  14   5   -1.30    5.40
   0  14   5   -3.80    5.60
   0 -14  -5    9.70    5.70
   0  14   6   47.50    8.20
   0  14  -6   42.90    9.50
   0  14   6   35.80    8.40
   0  14   6   29.30    8.30
   0 -14  -6   24.50    7.20
   0  14   7    6.00    8.40
   0  14  -7   27.60   10.50
   0  14   7   18.90    8.50
   0  14   8  -11.90    8.50
   0 -14   8   11.80    9.40
   0  15   0    6.50    3.70
   0  15   0    4.40    4.20
   0  15   0    6.80    4.80
   0 -15   0   -4.30    4.40
   0  15   1   50.09    9.90
   0  15  -1   36.20    5.30
   0  15  -1   37.60    6.30
   0  15   1   27.00    5.80
   0  15  -1   22.60    5.60
   0  15   1   20.60    4.70
   0 -15   1   36.00    7.20
   0 -15  -1   40.10    6.60
   0  15   2   16.60    5.00
   0  15   2    4.70    5.30
   0  15  -2   10.10    4.90
   0  15  -2   13.40    4.50
   0  15  -2    8.00    4.00
   0  15   2    9.70    4.50
   0 -15  -2   15.50    5.50
   0 -15   2   14.90    6.10
   0  15  -3   17.60    5.00
   0  15  -3    7.80    5.40
   0  15   3   16.40    5.10
   0  15   3   24.30    7.00
   0  15   3   23.10    6.10
   0 -15  -3   22.80    5.50
   0  15  -4   32.60    5.50
   0  15  -4   38.40    7.00
   0  15   4   53.29    8.80
   0  15   4   42.20    6.40
   0  15   4   46.30    8.70
   0 -15  -4   32.70    6.60
   0  15   5   -0.60    7.00
   0  15  -5    8.00    7.90
   0  15   5    3.30    8.10
   0  15   5    9.70    5.70
   0 -15  -5    3.00    6.40
   0  15   6    6.60    7.20
   0  15   6   -6.70    8.10
   0  15  -7   10.60   11.00
   0  15   7   11.40    9.40
   0  15   7   -0.40    8.80
   0  16   0   24.20    5.60
   0  16   0   38.80    6.20
   0  16   0   33.30    6.00
   0 -16   0   43.30    7.40
   0  16  -1  -10.30    4.70
   0  16   1   -2.40    4.30
   0  16   1  -10.30    8.10
   0  16  -1    3.00    4.30
   0  16   1    1.30    4.10
   0  16  -1    4.30    4.70
   0 -16  -1   -4.30    5.40
   0 -16   1   -6.10    5.60
   0  16  -2   67.39    8.70
   0  16   2   56.89    8.30
   0  16   2   68.09    7.80
   0  16   2   67.59    9.50
   0  16  -2   55.39    7.50
   0  16  -2   43.70    6.50
   0 -16  -2   52.59    8.10
   0 -16   2  100.69   16.30
   0  16  -3   16.90    6.30
   0  16  -3   31.90    5.90
   0  16   3   34.50    7.30
   0  16   3   25.90    6.30
   0  16   3   39.60    6.80
   0 -16  -3   38.30    7.30
   0  16  -4    9.00    7.00
   0  16   4    3.90    6.20
   0  16   4   12.40    7.70
   0  16   4    3.20    5.50
   0  16  -4    7.60    5.20
   0 -16  -4  -10.00    5.90
   0  16  -5    0.90    8.60
   0  16   5    4.20    6.50
   0  16   5   -1.00    7.30
   0  16   5  -10.20    6.40
   0  16   6    4.10    7.80
   0  16  -6    3.50    9.90
   0  16   6    4.30    9.00
   0  16   7    1.40    9.80
   0  16   7  -13.00    9.60
   0  16  -7   -8.90   10.60
   0  17   0   -0.70    4.40
   0  17   0    4.90    6.30
   0  17   0    1.70    5.20
   0 -17   0   -1.50    5.60
   0  17  -1   57.29    7.10
   0  17   1  106.09   13.00
   0  17  -1   62.09    8.00
   0  17   1   61.09    8.10
   0  17  -1   61.19    8.30
   0  17   1   73.09    8.20
   0 -17  -1   48.60    7.60
   0  17  -2   47.50    7.80
   0  17   2   56.59    7.50
   0  17   2   63.39    8.60
   0  17  -2   65.69    7.80
   0  17   2   68.39    9.30
   0 -17  -2   42.40    7.50
   0  17  -3    4.60    6.50
   0  17   3   -4.50    6.50
   0  17  -3    2.20    5.00
   0  17   3    3.70    5.30
   0  17   3    4.60    6.20
   0 -17  -3    2.60    6.20
   0  17  -4   22.50    6.30
   0  17   4   21.20    8.60
   0  17  -4   33.10    7.60
   0  17   4    8.10    6.50
   0  17   4   18.10    6.70
   0  17   5   22.20    7.60
   0  17   5    9.90    9.20
   0  17  -5   19.00    5.70
   0  17   6   -5.30    8.90
   0  17  -6   -3.80    9.90
   0  17   6    2.00    8.40
   0  17   7   44.20   12.30
   0  17   7    2.00   10.60
   0  17  -7   39.40   12.60
   0  18   0  415.86   21.30
   0  18   0  398.26   19.80
   0  18   0  399.66   19.40
   0  18  -1   35.30    6.80
   0  18   1   45.00    7.50
   0  18  -1   48.50    7.90
   0  18   1   33.30    7.00
   0  18  -1   41.10    7.30
   0  18   1   39.20    6.80
   0  18   2    5.30    6.00
   0  18   2    5.80    5.30
   0  18  -2    8.10    6.00
   0  18  -2   -0.90    5.70
   0  18   2    8.80    5.90
   0  18   3   50.19    7.90
   0  18  -3   66.19    9.90
   0  18  -3   46.10    8.10
   0  18   3   47.30    8.10
   0  18   3   58.89    9.80
   0  18   4   -3.40    7.40
   0  18   4   14.40    7.10
   0  18   4   15.90    8.30
   0  18  -4    7.00    6.70
   0  18   5  167.88   15.10
   0  18  -5  185.68   16.70
   0  18  -5  142.89   11.10
   0  18   6    0.90    9.10
   0  18  -6  -22.00   10.20
   0  18   6    4.10    9.80
   0  18  -7    8.20   14.00
   0  18   7    1.40   10.30
   0  19   0   13.70    6.50
   0  19   0    6.50    5.60
   0  19   0   -1.00   14.30
   0  19   1   64.59    9.00
   0  19   1   92.39   10.80
   0  19  -1   58.39    9.20
   0  19  -1   56.39    9.00
   0  19   1   73.79   10.70
   0  19   2   11.00    8.40
   0  19   2    2.50    6.30
   0  19   2   14.20    7.10
   0  19  -2   16.00    6.30
   0  19  -2   26.60    8.30
   0  19   3   42.70    8.20
   0  19  -3   53.09   10.30
   0  19  -3   42.50    9.40
   0  19   3   27.40    8.50
   0  19   3   38.00    9.40
   0  19  -4    7.70    6.80
   0  19   4   -7.50    6.90
   0  19   4  -14.00    7.80
   0  19   4   -8.00    7.70
   0  19   5    1.80   11.00
   0  19   5   33.40    9.50
   0  19  -5   24.20   10.10
   0  19   6   25.30   10.80
   0  19   6    9.70   12.40
   0  19  -6    5.50   11.90
   0  19  -7  -11.90   14.60
   0  20   0   -2.00    6.20
   0  20   0   -3.20    5.90
   0  20   1    7.90    6.90
   0  20  -1    2.20    6.80
   0  20   1    0.80    7.60
   0  20   1   -5.90    6.20
   0  20  -1    5.80    6.40
   0  20   2   55.29   10.30
   0  20   2   63.69    9.30
   0  20  -2   53.69    9.80
   0  20   2   46.20    8.50
   0  20   3   55.69    9.10
   0  20  -3   39.30    9.40
   0  20   3   63.99   12.90
   0  20   3   50.69   10.20
   0  20   4   19.70    8.50
   0  20  -4   21.20   10.30
   0  20   4   36.80   10.60
   0  20   5  -14.60   10.10
   0  20  -5  -14.60   10.40
   0  20   5   -4.80    9.50
   0  20  -6    7.80   13.40
   0  20   6   19.30   12.40
   0  20   6    0.20   10.70
   0  21   0   10.90    7.90
   0  21   0    5.90    7.80
   0  21  -1   -0.70    7.70
   0  21   1   -1.10    7.50
   0  21   1    0.40    7.90
   0  21   1   -2.10    7.80
   0  21  -2    6.10    8.40
   0  21   2   14.10    6.40
   0  21   2    5.00    8.30
   0  21   2    9.80    7.30
   0  21   3   12.00    8.30
   0  21   3   15.20   11.60
   0  21   3   15.10    8.10
   0  21  -3   -4.80    9.30
   0  21  -3   20.50    9.30
   0  21  -4  -12.40    9.70
   0  21   4   -4.90   12.00
   0  21   5   46.40   14.10
   0  21   5   44.10   11.20
   0  21  -5   31.60   12.00
   0  21  -6   22.30   14.00
   0  21   6   29.90   15.00
   0  21   6   11.80   12.20
   0  22   0    4.20    8.60
   0  22   0   33.30    8.20
   0  22   1    1.70    7.20
   0  22  -1   -5.60    8.80
   0  22   1    2.40    8.40
   0  22   2   15.80    9.80
   0  22  -2    4.10    8.40
   0  22   2   -6.00    6.30
   0  22   2    0.60   13.90
   0  22   3   35.10   10.00
   0  22   3   25.10   10.90
   0  22  -3   13.40   10.00
   0  22   3    9.40   10.80
   0  22   4   -8.10    9.60
   0  22   4   20.80   12.10
   0  22  -4   11.40   11.90
   0  22  -5   18.10   12.90
   0  22   5   18.10   11.20
   0  22   5   -3.50   12.20
   0  22   6   -9.30   15.20
   0  22   6  -10.80   12.50
   0  22  -6    5.30   17.10
   0  23   0   16.60    9.30
   0  23   0   11.50   10.30
   0  23  -1   19.80   10.30
   0  23   1   -9.50    8.10
   0  23   1    7.00   10.40
   0  23   2    4.50   10.10
   0  23   2   -5.30    8.90
   0  23   2    3.40    8.40
   0  23  -2    4.20   13.30
   0  23   3    1.20   11.60
   0  23   3   18.20   10.90
   0  23  -3    6.90   10.20
   0  23   4   -8.20   10.60
   0  23  -4  -10.40   13.00
   0  23  -5   16.50   14.70
   0  23   5   -5.50   13.60
   0  23   5   19.60   12.40
   0  24   0    5.80    9.20
   0  24   0    5.00    9.90
   0  24   1   18.20    9.90
   0  24  -1   -7.00    9.10
   0  24   1  -11.00   18.30
   0  24  -2   23.40   11.60
   0  24   2   39.40   10.70
   0  24   2   46.80   14.50
   0  24  -3   -2.10   11.50
   0  24   3   -9.90   12.30
   0  24   3  -11.20    9.70
   0  24   4  -11.10   11.80
   0  24  -4   -2.80   13.60
   0  24   5   -2.80   17.00
   0  24   5   -8.10   12.80
   0  24  -5    3.00   15.40
   0  25   0    3.10    9.50
   0  25  -1   13.30   11.30
   0  25   1    8.40   12.10
   0  25   1   -7.30   10.20
   0  25   2   23.60   10.80
   0  25  -2   19.00   12.10
   0  25   2    6.70   12.60
   0  25  -3   18.50   13.20
   0  25   3    2.60   15.30
   0  25   3   15.00   12.10
   0  25   4   11.50   16.10
   0  25  -4   34.30   14.70
   0  25   4  -13.40   12.50
   0  26   0   55.39   13.50
   0  26  -1   10.40   12.50
   0  26   1    5.30   11.70
   0  26   2  -14.40   10.90
   0  26   2   17.90   16.10
   0  26  -2   -5.00   12.90
   0  26  -3   11.50   14.30
   0  26   3   26.50   13.60
   0  26   3   -8.70   14.00
   0  26   4    3.20   14.50
   0  26  -4    8.10   15.70
   0  26   4    9.50   20.10
   0  27   0   -2.80   13.70
   0  27   1    7.50   13.10
   0  27  -1   15.80   13.70
   0  27   2   23.20   14.80
   0  27  -2    9.10   13.90
   0  27   3   39.20   15.30
   0  27   3   40.50   25.10
   0  27  -3   28.10   15.30
   0  28   0  -19.00   13.30
   0  28  -1    1.60   14.50
   0  28   1   32.40   15.10
   0  28  -2    2.90   16.00
   0  28   2  -12.50   14.90
   0  29   0    4.60   15.20
   0  29  -1  -15.10   13.60
   0  29   1    5.40   15.60
  -1   0   8  117.49    8.10
  -1   0   8  100.79    9.40
  -1   0   7    1.40    3.20
  -1   0   7   -1.30    3.40
  -1   0   7   -5.60    5.20
  -1   0   6   39.10    4.50
  -1   0   6   34.90    5.20
  -1   0   6   38.70    4.60
  -1   0   5   -0.50    1.80
   1   0  -5    2.10    2.20
  -1   0   5    0.40    2.70
   1   0  -4   65.19    4.40
  -1   0   4   60.89    4.40
  -1   0   4   66.69    4.20
  -1   0   4   66.39    4.00
   1   0  -3   -0.10    1.40
  -1   0   3    0.80    1.20
  -1   0   3    0.80    0.90
  -1   0   3   -1.30    1.10
  -1   0   2  381.76   13.50
   1   0  -2  383.26   12.50
  -1   0   2  395.76   12.60
   1   0  -2  389.26   13.50
   1   0  -1    0.40    0.70
  -1   0   1    0.20    0.30
  -1   0   1   -0.10    0.70
   1   0   0  119.59    4.60
   1   0   0  118.39    4.50
  -1   0   0  118.49    4.50
  -1   0  -1   -0.20    0.80
   1   0   1    0.00    0.70
  -1   0  -1    0.20    0.70
   1   0   1    0.20    0.80
   1   0   2  759.52   26.40
   1   0   2  789.32   25.30
  -1   0  -2  810.62   26.40
   1   0   3    0.60    1.90
   1   0   3    1.70    2.40
   1   0   3    0.90    1.30
   1   0   4  450.05   17.20
   1   0   4  452.95   17.80
   1   0   5    3.30    2.70
   1   0   5    0.80    3.90
   1   0   6   25.50    4.90
   1   0   6   18.60    5.90
   1   0   7   -8.60    5.20
   1   0   8   21.50    7.50
  -1   1   8   12.70    4.90
  -1   1   8    8.10    4.50
  -1  -1   8    8.90    5.10
  -1   1   7   -0.80    3.50
  -1   1   7    5.80    5.10
  -1   1   7   -1.60    3.50
  -1  -1   7    4.30    3.20
  -1  -1   7    5.20    5.70
  -1  -1   7    0.10    3.40
  -1   1   6  246.28   11.10
  -1   1   6  256.87   10.70
  -1   1   6  245.98   11.70
  -1  -1   6  264.97   12.50
  -1  -1   6  236.78   10.60
  -1  -1   6  252.87   10.70
  -1   1   5  122.79    6.70
  -1   1   5  119.59    7.20
  -1   1   5  124.49    7.00
  -1  -1   5  119.49    6.30
   1  -1  -5  119.09    6.60
  -1  -1   5  122.29    6.30
   1   1  -4 1459.35   46.30
  -1   1   4 1446.56   46.00
  -1   1   4 1433.66   46.30
  -1   1   4 1381.76   47.00
  -1  -1   4 1451.35   46.20
  -1  -1   4 1454.05   46.60
  -1  -1   4 1500.35   46.90
   1  -1  -4 1414.96   46.90
   1   1  -3   18.10    2.00
  -1   1   3   15.00    1.50
  -1   1   3   15.50    1.90
   1   1  -3   18.00    2.20
  -1   1   3   14.00    2.10
  -1  -1   3   18.60    2.30
   1  -1  -3   15.80    2.50
  -1  -1   3   19.00    2.20
   1   1  -1 1463.55   45.30
   1   1  -1 1426.36   44.80
   1  -1  -1 1463.35   45.50
  -1  -1   1 1416.26   45.30
  -1  -1   1 1418.16   44.70
   1  -1  -1 1417.46   44.30
   1  -1  -1 1402.46   44.40
   1   1   0 1390.76   44.30
   1   1   0 1391.86   44.10
   1  -1   0 1390.86   44.20
   1  -1   0 1425.96   44.10
   1  -1   0 1397.56   44.00
  -1  -1   0 1400.86   44.10
   1   1   1  205.08    7.80
   1   1   1  215.98    7.60
  -1   1  -1  214.18    7.10
  -1  -1  -1  207.18    7.50
  -1  -1  -1  204.68    7.70
   1  -1   1  212.88    8.00
   1  -1   1  199.08    7.10
   1  -1   1  193.18    7.70
   1   1   2    0.80    1.20
   1   1   2    2.00    1.50
   1  -1   2    0.70    0.90
   1  -1   2    2.00    1.90
  -1  -1  -2    1.50    1.50
   1   1   3 1116.69   37.90
   1   1   3 1175.98   38.90
   1  -1   3 1212.88   39.50
   1  -1   3 1200.68   39.00
  -1  -1  -3 1170.68   38.90
   1   1   4   24.20    2.90
   1   1   4   21.60    2.70
   1   1   4   19.20    3.00
   1   1   4   20.60    3.90
   1  -1   4   18.80    4.10
   1  -1   4   25.50    3.50
   1   1   5  102.09    5.50
   1   1   5   92.89    6.80
   1   1   5   92.09    8.00
   1   1   5  104.29    5.50
   1  -1   5  104.29    8.70
   1  -1   5  102.99    7.10
   1   1   6   16.20    4.40
   1   1   6   13.20    6.10
   1  -1   6    9.90    6.50
   1  -1   6    4.70    4.10
   1   1   7   11.80    5.60
   1  -1   7   19.60    5.80
   1   1   8   -5.20    6.90
   1  -1   8    2.30    7.10
  -1   2   9   19.40    5.90
  -1   2   9    8.80   12.40
  -1   2   8   -1.30    5.00
  -1   2   8   -1.80    4.50
  -1  -2   8   -0.50    4.90
  -1   2   7   39.30    5.90
  -1   2   7   34.90    5.10
  -1   2   7   28.00    4.40
  -1  -2   7   29.10    4.50
  -1  -2   7   33.70    4.70
  -1  -2   7   38.50    6.90
  -1   2   6   13.10    3.10
  -1   2   6   13.40    3.90
  -1   2   6    8.00    3.50
  -1  -2   6    6.20    2.50
  -1  -2   6   10.60    2.90
  -1  -2   6   10.40    4.70
  -1   2   5  204.88    9.50
  -1   2   5  203.48    9.10
  -1   2   5  206.08    9.00
  -1  -2   5  201.08    8.60
  -1  -2   5  198.78   10.00
   1  -2  -5  203.48    9.50
  -1  -2   5  209.08    9.00
   1   2  -4   92.09    4.60
  -1   2   4   82.69    5.10
  -1   2   4   92.59    4.60
  -1   2   4   85.89    4.70
   1   2  -4   88.79    5.50
  -1  -2   4   95.19    4.70
  -1  -2   4   81.89    5.70
   1  -2  -4   91.99    5.70
   1   2  -3  316.47   11.30
  -1   2   3  298.27   11.80
   1   2  -3  304.57   11.10
  -1   2   3  318.87   10.60
  -1   2   3  315.37   10.50
   1  -2  -3  316.17   12.00
  -1  -2   3  307.57   11.20
  -1  -2   3  291.67   11.40
   1   2  -2   57.99    3.20
   1   2  -2   60.29    3.30
  -1   2   2   56.29    3.80
  -1   2   2   59.69    2.40
   1  -2  -2   61.39    3.80
   1  -2  -2   60.99    2.30
  -1  -2   2   57.79    3.30
   1   2  -1  169.38    6.50
  -1   2   1  168.28    5.80
   1   2  -1  163.08    6.30
  -1  -2   1  177.08    6.30
   1  -2  -1  169.48    5.90
   1  -2  -1  173.78    6.80
  -1  -2   1  164.68    6.50
   1   2   0  321.67   11.30
  -1   2   0  333.47   11.40
   1  -2   0  334.27   11.40
  -1  -2   0  324.67   11.30
   1  -2   0  341.67   11.50
  -1   2  -1  825.92   26.70
   1   2   1  830.92   27.40
  -1   2  -1  837.72   27.80
   1   2   1  844.32   27.50
   1  -2   1  837.92   26.80
  -1  -2  -1  833.92   27.40
   1  -2   1  877.91   27.90
  -1  -2  -1  856.81   27.50
   1   2   2   41.70    4.10
   1   2   2   46.50    3.10
   1  -2   2   49.20    4.00
  -1  -2  -2   46.50    3.50
   1  -2   2   41.00    4.70
   1   2   3   38.30    3.70
   1   2   3   42.90    3.40
   1   2   3   40.70    3.70
   1  -2   3   42.70    4.80
  -1  -2  -3   46.50    4.40
   1  -2   3   39.60    3.90
   1   2   4  153.78    7.10
   1   2   4  156.28    8.00
   1   2   4  156.08    7.30
   1   2   4  169.08    8.70
   1  -2   4  151.78    8.00
  -1  -2  -4  146.89    8.20
   1  -2   4  153.88    9.10
   1   2   5  106.69    6.20
   1   2   5  111.69    7.50
   1   2   5  103.59    8.50
   1   2   5  104.39    6.20
   1  -2   5  104.19    7.40
   1  -2   5  109.19    8.90
   1   2   6    1.00    3.00
   1   2   6    0.30    5.30
   1   2   6    3.20    3.00
   1   2   6    8.50    4.10
   1  -2   6   -4.20    6.10
   1  -2   6    1.40    4.00
   1   2   7   12.50    5.80
   1  -2   7    9.40    5.40
   1   2   8   26.00    7.30
   1  -2   8   24.10    7.50
  -1   3   9   -7.30   10.40
  -1   3   9    8.90    5.90
  -1   3   8    3.30    4.90
  -1   3   8    1.50    5.20
  -1  -3   8   -1.60    5.10
  -1   3   7   26.40    4.30
  -1   3   7   31.20    5.70
  -1   3   7   27.90    5.30
  -1  -3   7   27.10    4.50
  -1  -3   7   34.50    7.00
  -1   3   6   70.19    6.60
  -1   3   6   84.99    5.80
  -1   3   6   92.69    7.00
  -1  -3   6   79.99    8.60
  -1  -3   6   74.19    5.10
  -1  -3   6   72.39    6.00
  -1   3   5  290.57   11.40
  -1   3   5  281.47   12.20
  -1   3   5  280.77   11.30
  -1  -3   5  283.67   11.00
  -1  -3   5  284.57   11.40
  -1  -3   5  282.17   12.80
   1  -3  -5  280.17   12.10
   1   3  -4    0.40    3.20
   1   3  -4   -0.30    1.60
  -1   3   4   -1.10    1.70
  -1   3   4    0.20    1.60
  -1   3   4    0.90    1.70
  -1  -3   4    1.50    1.30
   1  -3  -4   -1.00    2.10
  -1  -3   4   -0.90    2.80
  -1   3   3    1.40    1.30
  -1   3   3    2.40    1.20
   1   3  -3    1.30    1.40
   1   3  -3    1.60    1.80
   1  -3  -3    1.50    1.80
   1  -3  -3    1.10    1.00
  -1  -3   3    2.10    2.00
  -1  -3   3    1.60    1.20
  -1   3   2   59.39    4.50
   1   3  -2   60.59    3.40
  -1   3   2   64.89    2.80
   1   3  -2   59.29    3.70
  -1  -3   2   61.19    3.80
   1  -3  -2   59.99    2.70
  -1  -3   2   58.89    3.50
   1  -3  -2   64.39    4.10
   1   3  -1  145.09    6.20
   1   3  -1  152.58    6.20
  -1   3   1  149.09    5.70
   1  -3  -1  156.18    5.80
  -1  -3   1  145.19    6.20
  -1  -3   1  161.18    6.20
   1   3   0  154.38    6.30
   1   3   0  147.69    6.20
  -1   3   0  150.38    6.10
   1  -3   0  153.98    6.10
  -1  -3   0  157.88    6.40
   1  -3   0  155.88    6.30
   1   3   1  396.46   13.80
  -1   3  -1  388.86   12.90
   1   3   1  391.16   13.70
  -1   3  -1  383.86   14.00
   1  -3   1  395.46   14.20
   1  -3   1  377.56   13.00
   1   3   2  566.94   19.60
  -1   3  -2  575.64   20.20
  -1  -3  -2  563.94   19.80
   1  -3   2  559.34   20.50
   1   3   3   75.09    4.90
   1   3   3   67.69    4.70
   1   3   3   71.09    4.80
   1  -3   3   75.89    5.90
   1  -3   3   72.89    4.90
  -1  -3  -3   70.69    5.10
   1   3   4  148.69    7.90
   1   3   4  160.68    7.80
   1   3   4  151.88    7.60
   1  -3   4  150.58    9.40
   1  -3   4  157.08    8.20
  -1  -3  -4  154.08    8.30
   1   3   5    3.60    2.60
   1   3   5    1.40    3.20
   1   3   5   -7.50    3.90
   1   3   5   -0.80    2.40
   1  -3   5   -5.60    4.50
   1  -3   5    0.20    2.90
   1   3   6  124.69    7.80
   1   3   6  125.19    7.70
   1   3   6  126.79   10.30
   1   3   6  122.99    9.00
   1  -3   6   98.49   11.20
   1  -3   6  105.99    8.80
   1   3   7    6.90    4.40
   1   3   7    4.20    3.80
   1   3   7    9.30    5.30
   1  -3   7    2.80    5.80
   1   3   8   -4.40    7.00
   1  -3   8    3.70    7.10
  -1   4   9    8.80    6.40
  -1   4   8    2.40    5.30
  -1   4   8    4.30    5.40
  -1  -4   8   10.70    5.30
  -1   4   7   -4.80    4.20
  -1   4   7   -6.10    3.60
  -1   4   7    2.10    4.60
  -1  -4   7   -0.10    6.60
  -1  -4   7   -1.80    3.90
  -1   4   6   34.70    4.70
  -1   4   6   33.60    4.10
  -1   4   6   40.40    5.30
  -1  -4   6   38.20    4.40
  -1  -4   6   37.50    6.40
  -1  -4   6   33.40    4.10
  -1   4   5  200.08   10.00
   1   4  -5  215.08   10.00
  -1   4   5  200.78    8.90
  -1   4   5  202.98    9.40
  -1  -4   5  224.08   11.00
  -1  -4   5  205.18    8.60
   1  -4  -5  201.08   10.20
   1   4  -4    4.60    1.60
  -1   4   4    8.30    2.30
  -1   4   4    2.60    1.80
   1   4  -4   -1.10    2.60
   1  -4  -4    5.10    1.70
  -1  -4   4    1.50    3.00
  -1  -4   4    4.20    1.50
   1  -4  -4    1.80    2.60
  -1   4   3  353.86   13.70
  -1   4   3  350.56   12.10
   1   4  -3  352.86   12.30
   1   4  -3  341.97   13.30
   1  -4  -3  350.86   11.80
   1  -4  -3  336.87   13.60
  -1  -4   3  345.77   12.50
  -1  -4   3  322.07   13.10
  -1   4   2  306.07   10.60
   1   4  -2  271.87   11.30
   1   4  -2  303.07   11.00
  -1  -4   2  315.57   11.20
   1  -4  -2  291.17   11.80
   1  -4  -2  311.97   10.40
  -1  -4   2  309.17   11.50
   1   4  -1 2754.62   86.59
   1   4  -1 2692.03   86.39
  -1   4   1 2705.13   85.99
   1  -4  -1 2772.82   85.99
   1  -4  -1 2906.41   87.19
  -1  -4   1 2636.44   86.39
  -1  -4   1 2756.72   86.49
   1   4   0  144.29    6.40
   1   4   0  154.28    6.50
  -1   4   0  145.09    6.30
   1  -4   0  154.28    6.60
  -1  -4   0  142.59    6.40
  -1  -4   0  159.38    6.50
  -1   4  -1  183.68    6.90
   1   4   1  183.18    7.70
  -1   4  -1  184.18    7.90
   1   4   1  177.78    7.50
   1  -4   1  179.48    7.00
   1  -4   1  195.28    8.20
  -1  -4  -1  186.08    7.60
  -1   4  -2   97.39    6.00
   1   4   2  113.79    5.70
   1   4   2  102.59    5.60
   1  -4   2  111.19    6.40
   1  -4   2  106.89    4.40
  -1  -4  -2   94.39    6.20
   1   4   3  233.48   10.10
   1   4   3  222.68   10.00
   1   4   3  232.38   10.20
  -1   4  -3  241.18   10.60
   1  -4   3  253.17   11.30
  -1  -4  -3  241.38   10.10
   1   4   4   20.40    3.30
   1   4   4   14.60    4.20
   1   4   4   12.50    2.60
  -1  -4  -4   15.00    3.60
   1  -4   4   13.60    3.00
   1  -4   4    8.90    3.90
   1   4   5   72.29    6.80
   1   4   5   82.49    6.50
   1   4   5   74.79    6.10
   1  -4   5   84.29    6.90
  -1  -4  -5   73.59    6.90
   1  -4   5   75.89    8.50
   1   4   6   -3.20    4.10
   1   4   6    2.30    5.50
   1   4   6   -0.50    3.40
   1   4   6   -4.30    3.60
   1  -4   6    7.40    6.80
   1  -4   6   -1.00    4.20
   1   4   7   24.80    5.00
   1   4   7   23.20    5.40
   1   4   7   16.20    5.80
   1  -4   7   22.40    6.30
   1   4   8   -5.20    5.30
   1   4   8   -7.80    7.50
   1   4   8    2.60    6.10
  -1   5   9    6.90    6.70
  -1   5   8    5.20    5.50
  -1   5   8   -1.00    5.70
  -1  -5   8   -3.00    4.90
  -1   5   7    3.80    3.90
  -1   5   7   -0.50    4.60
  -1  -5   7   10.40    7.00
  -1  -5   7    9.00    4.20
  -1   5   6  148.39    8.30
  -1   5   6  132.59    7.80
  -1   5   6  130.59    8.70
  -1  -5   6  155.48   10.70
  -1  -5   6  140.89    7.00
  -1  -5   6  156.68    8.30
  -1   5   5    6.00    3.10
   1   5  -5    6.10    3.60
   1  -5  -5    8.50    2.50
  -1  -5   5   10.30    4.50
  -1  -5   5    8.40    2.20
   1  -5  -5    8.80    3.50
   1   5  -4   51.89    3.60
  -1   5   4   51.59    4.30
   1   5  -4   47.10    5.30
  -1   5   4   48.60    4.70
  -1  -5   4   54.19    3.80
   1  -5  -4   48.60    3.60
  -1  -5   4   58.89    5.80
   1  -5  -4   55.39    5.50
  -1   5   3   82.69    5.50
  -1   5   3   68.99    4.20
   1   5  -3   76.39    4.10
   1  -5  -3   59.49    5.10
   1  -5  -3   72.19    3.70
  -1  -5   3   72.79    5.50
  -1  -5   3   63.89    4.00
   1   5  -2    7.70    2.10
  -1   5   2   10.20    1.80
  -1   5   2    7.30    2.00
   1   5  -2    7.80    2.40
   1  -5  -2    6.00    1.60
   1  -5  -2    8.50    2.40
  -1  -5   2    6.20    2.30
  -1  -5   2    5.60    1.70
  -1   5   1  485.05   17.50
   1   5  -1  492.05   17.30
  -1   5   1  490.05   16.70
   1   5  -1  487.95   17.00
  -1  -5   1  475.45   17.00
   1  -5  -1  489.05   16.70
   1  -5  -1  463.65   17.40
   1   5   0  287.97   11.00
   1   5   0  282.67   11.00
  -1   5   0  297.87   11.00
  -1  -5   0  269.77   11.00
   1  -5   0  289.97   10.90
  -1  -5   0  274.47   10.90
   1  -5   0  294.67   11.10
  -1   5  -1  234.88    9.60
   1   5   1  303.37   10.80
   1   5   1  257.57   10.50
   1  -5   1  246.28   10.90
   1  -5   1  233.28    9.70
  -1  -5  -1  294.97   10.50
  -1  -5  -1  290.77   10.70
  -1   5  -2   31.70    3.90
   1   5   2   40.50    3.80
   1   5   2   35.60    3.60
   1  -5   2   37.40    2.80
  -1  -5  -2   37.70    3.70
   1  -5   2   48.10    5.10
   1   5   3   41.90    4.20
  -1   5  -3   44.80    5.10
   1   5   3   45.00    4.60
   1   5   3   52.89    4.80
  -1  -5  -3   49.60    4.60
   1  -5   3   39.30    5.00
   1   5   4  105.19    7.40
  -1   5  -4   94.99    7.60
   1   5   4  110.39    6.80
   1   5   4   99.29    6.50
  -1  -5  -4  100.99    7.10
   1  -5   4  109.39    6.70
   1  -5   4  103.29    8.50
   1   5   5  112.59    7.40
   1   5   5  104.99    7.60
   1   5   5  108.79    7.60
   1  -5   5   98.09    9.70
  -1  -5  -5   92.59    7.90
   1  -5   5  107.29    7.80
   1   5   6   21.40    4.80
   1   5   6   22.70    6.00
   1   5   6   29.10    4.90
   1  -5   6   11.70    8.80
   1  -5   6   28.00    5.20
   1   5   7  -10.50    5.40
   1   5   7   10.30    4.80
   1   5   7    0.80    4.70
   1  -5   7   12.30    5.50
   1   5   8    8.10    6.80
   1   5   8    7.70    5.70
   1   5   8   -1.60    7.80
   1  -5   8    6.40    7.60
  -1   6   9    4.70    7.50
  -1   6   8   16.40    6.60
  -1   6   8   15.60    6.40
  -1  -6   8   27.30    6.10
  -1   6   7    2.00    4.70
  -1   6   7   -8.10    4.00
  -1  -6   7   16.50    7.80
  -1  -6   7   -5.60    4.00
  -1   6   6   51.49    6.20
  -1   6   6   57.29    5.90
  -1   6   6   61.99    7.20
   1   6  -6   56.89    6.70
  -1  -6   6   52.99    4.90
  -1  -6   6   58.29    7.50
   1   6  -5   59.99    6.40
  -1   6   5   59.49    5.40
  -1   6   5   62.29    6.20
  -1  -6   5   63.79    4.70
   1  -6  -5   57.09    6.90
  -1  -6   5   65.69    7.00
  -1   6   4   16.50    3.50
   1   6  -4    8.30    3.50
  -1   6   4   14.20    3.00
   1   6  -4   17.50    2.30
  -1  -6   4   13.90    2.60
   1  -6  -4   16.30    2.40
  -1  -6   4   17.70    4.30
   1  -6  -4   18.40    4.00
  -1   6   3    1.50    1.80
   1   6  -3    3.00    2.80
  -1   6   3    2.80    2.00
   1   6  -3    1.50    1.70
  -1  -6   3   -0.40    2.60
  -1  -6   3    1.80    1.50
   1  -6  -3    0.80    2.30
   1  -6  -3    2.10    1.50
  -1   6   2  117.49    5.90
   1   6  -2  126.79    6.00
  -1   6   2  124.29    6.90
   1  -6  -2  120.69    5.80
  -1  -6   2  132.39    7.10
  -1  -6   2  126.19    6.10
   1  -6  -2  125.39    7.10
   1   6  -1 5073.99  158.48
  -1   6   1 4892.31  157.88
   1   6  -1 4969.20  158.08
  -1  -6   1 5307.47  158.48
   1  -6  -1 5096.59  157.88
  -1  -6   1 5013.00  158.28
   1  -6  -1 5022.80  158.78
   1   6   0 3307.67  104.59
  -1   6   0 3406.06  104.59
  -1   6   0 3245.38  104.39
  -1  -6   0 3349.47  104.49
  -1  -6   0 3219.78  104.59
   1  -6   0 3355.96  104.59
   1  -6   0 3272.17  104.49
  -1   6  -1  431.66   16.40
   1   6   1  410.26   16.20
   1   6   1  458.35   16.40
  -1   6  -1  457.45   15.50
   1  -6   1  442.46   16.60
  -1  -6  -1  393.86   16.00
   1  -6   1  458.25   15.70
  -1   6  -2   45.50    3.00
   1   6   2   48.60    4.20
  -1   6  -2   46.00    3.00
  -1   6  -2   43.40    4.40
   1   6   2   44.70    4.40
   1  -6   2   55.79    5.20
  -1  -6  -2   55.69    4.50
   1  -6   2   48.70    3.50
   1   6   3   14.70    3.00
   1   6   3   12.60    3.00
  -1   6  -3   19.10    3.90
   1   6   3   19.10    3.30
   1  -6   3   13.10    3.90
  -1  -6  -3   13.30    2.80
   1   6   4   44.80    5.30
   1   6   4   41.40    4.90
   1   6   4   49.90    6.20
  -1   6  -4   46.40    5.80
  -1  -6  -4   48.90    5.20
   1  -6   4   35.90    5.70
   1   6   5   60.19    6.90
   1   6   5   61.99    6.30
   1   6   5   47.90    5.60
   1  -6   5   54.39    6.20
  -1  -6  -5   56.29    6.40
   1  -6   5   51.69    7.50
   1   6   6   -0.20    4.40
   1   6   6   -3.90    3.70
   1   6   6    5.60    5.80
   1   6   6    6.10    4.30
  -1  -6  -6   -1.20    5.00
   1  -6   6    2.00    4.60
   1   6   7    2.90    5.20
   1   6   7    1.60    5.20
   1   6   7    9.70    6.40
   1  -6   7    0.10    5.70
   1   6   8   22.00    8.40
   1   6   8   14.10    6.10
   1   6   8   27.40    9.00
   1  -6   8   11.50    7.60
  -1   7   9   15.90    7.80
  -1   7   8   -1.40    9.80
  -1   7   8   -7.70    6.20
  -1  -7   8    8.00    5.90
  -1   7   7    6.10    4.90
  -1   7   7    8.90    4.30
  -1  -7   7    9.40    4.70
  -1  -7   7    5.60    8.00
  -1   7   6   46.70    5.20
   1   7  -6   53.39    6.60
  -1   7   6   55.09    7.10
  -1  -7   6   60.99    5.10
   1  -7  -6   41.00    4.90
  -1  -7   6   53.09    7.40
  -1   7   5   48.60    6.10
  -1   7   5   43.90    4.70
   1   7  -5   44.10    5.70
   1  -7  -5   45.50    5.70
  -1  -7   5   53.99    6.80
   1  -7  -5   41.00    4.70
  -1  -7   5   40.50    4.50
  -1   7   4   46.60    5.20
   1   7  -4   39.20    3.60
   1   7  -4   45.10    5.30
  -1   7   4   37.60    5.00
   1  -7  -4   38.90    5.60
   1  -7  -4   41.00    4.00
  -1  -7   4   47.20    4.00
  -1  -7   4   39.20    5.40
   1   7  -3   90.69    4.90
   1   7  -3   81.39    6.50
  -1   7   3   89.49    5.50
  -1  -7   3   85.89    5.10
  -1  -7   3   82.29    6.70
   1  -7  -3   84.49    6.50
   1  -7  -3   93.29    5.10
  -1   7   2  100.49    5.70
   1   7  -2   99.19    5.40
   1   7  -2  102.89    6.50
  -1  -7   2   97.09    5.40
   1  -7  -2   97.99    5.50
  -1  -7   2   86.09    6.40
   1  -7  -2   98.29    6.40
   1   7  -1  432.86   15.60
  -1   7   1  412.36   15.40
  -1   7   1  400.66   16.00
   1   7  -1  429.76   16.10
   1  -7  -1  411.86   15.50
   1  -7  -1  405.56   16.10
  -1  -7   1  424.86   15.80
   1   7   0 2178.88   68.69
  -1   7   0 2115.09   68.39
   1   7   0 2149.58   68.49
  -1  -7   0 2010.10   69.59
   1  -7   0 2180.38   68.59
   1  -7   0 2176.88   68.89
  -1  -7   0 2075.39   68.59
   1   7   1   88.59    5.70
   1   7   1   90.39    5.60
  -1   7  -1   87.79    4.90
  -1   7  -1   88.19    5.80
  -1  -7  -1   83.19    5.70
  -1  -7  -1   81.99    5.30
   1  -7   1   83.29    4.90
   1  -7   1   88.39    6.40
   1   7   2  191.98    9.90
  -1   7  -2  216.28    8.30
  -1   7  -2  220.78    8.30
   1   7   2  211.88   10.00
  -1   7  -2  207.38   10.10
   1   7   2  189.28    9.50
  -1  -7  -2  223.18    9.50
   1  -7   2  216.48   10.80
   1  -7   2  223.38    9.00
   1   7   3  187.28   10.10
   1   7   3  209.18   10.20
   1   7   3  196.38    9.50
  -1   7  -3  188.88   10.30
   1  -7   3  194.48   11.10
  -1  -7  -3  202.58    9.40
   1   7   4   39.70    5.40
   1   7   4   40.60    5.40
   1   7   4   29.40    4.60
  -1   7  -4   37.40    5.70
  -1  -7  -4   34.80    4.70
   1  -7   4   43.00    6.60
   1   7   5   78.99    7.40
  -1   7  -5   86.59    8.70
   1   7   5   79.69    7.50
  -1  -7  -5   83.09    7.80
   1  -7   5   76.89    9.10
   1  -7   5   91.49    7.30
   1   7   6    7.10    4.70
   1   7   6   -3.60    4.60
   1  -7   6   14.30    4.80
  -1  -7  -6    7.90    5.50
   1   7   7   -0.50    5.30
   1   7   7   14.90    5.70
   1   7   7   -3.20    6.40
   1  -7   7  -10.90    6.00
   1   7   8   -0.10    9.00
   1   7   8   -7.30    5.90
   1  -7   8    4.40    7.70
  -1   8   9   -4.40    7.30
  -1   8   8    4.70    7.00
  -1  -8   8    9.30    6.30
  -1   8   7    7.20    4.90
  -1   8   7    0.50    4.60
  -1  -8   7   -6.00    8.50
  -1  -8   7    1.40    4.40
  -1   8   6    7.30    3.50
  -1   8   6    2.70    3.90
   1   8  -6    1.00    4.70
  -1  -8   6    1.20    2.80
   1  -8  -6    4.80    3.60
  -1  -8   6   -1.20    6.10
  -1   8   5   33.60    4.40
   1   8  -5   30.10    5.50
  -1   8   5   24.60    4.60
   1  -8  -5   26.80    3.80
   1  -8  -5   30.70    5.50
  -1  -8   5   36.20    6.30
  -1  -8   5   33.20    3.80
  -1   8   4  101.49    7.80
  -1   8   4  111.79    6.70
   1   8  -4  113.69    8.20
   1   8  -4  109.19    5.60
   1  -8  -4   84.59    6.70
  -1  -8   4   93.99    8.40
   1  -8  -4  117.79    8.80
  -1  -8   4  113.69    6.20
   1   8  -3  198.08   10.10
  -1   8   3  177.58   11.40
  -1   8   3  202.58   10.30
   1   8  -3  188.18    8.60
  -1  -8   3  207.38   10.40
  -1  -8   3  181.98    8.60
   1  -8  -3  199.48   10.50
   1  -8  -3  203.88    8.80
  -1   8   2  304.37   12.60
   1   8  -2  297.87   12.00
   1   8  -2  296.37   13.00
   1  -8  -2  299.37   12.10
  -1  -8   2  316.87   13.30
  -1  -8   2  302.47   12.20
  -1   8   1 1284.27   46.20
   1   8  -1 1323.17   45.20
   1   8  -1 1377.16   45.60
   1  -8  -1 1253.37   45.90
  -1  -8   1 1431.66   45.60
  -1  -8   1 1313.47   45.20
   1  -8  -1 1568.74   46.90
  -1   8   0    0.90    2.00
  -1   8   0   -2.10    1.90
   1   8   0   -0.80    1.70
   1   8   0    1.80    2.00
   1  -8   0    2.40    2.40
  -1  -8   0   -1.90    2.50
  -1  -8   0    0.70    2.10
   1  -8   0    0.40    1.40
  -1   8  -1  315.07   13.50
   1   8   1  312.57   13.40
  -1   8  -1  314.77   12.60
   1   8   1  337.87   13.40
   1  -8   1  330.57   12.90
   1  -8   1  332.47   14.00
  -1  -8  -1  311.47   13.00
  -1   8  -2  179.78    7.70
  -1   8  -2  177.98    7.60
   1   8   2  168.08    9.30
  -1   8  -2  170.68    9.30
   1   8   2  175.18    8.80
   1   8   2  167.58    9.10
   1  -8   2  182.78    8.30
  -1  -8  -2  176.68    8.60
   1  -8   2  174.78    9.80
  -1   8  -3   68.39    6.60
   1   8   3   69.29    6.10
   1   8   3   71.49    6.70
   1   8   3   67.39    6.10
  -1  -8  -3   69.19    5.90
   1  -8   3   69.79    7.40
   1   8   4    9.10    3.50
   1   8   4   11.50    4.10
  -1   8  -4   16.10    5.00
   1   8   4   17.00    3.80
  -1  -8  -4   10.70    3.20
   1  -8   4   13.60    5.70
   1   8   5   -2.10    3.90
   1   8   5   -1.30    5.10
  -1   8  -5   -0.50    4.50
   1   8   5   -0.70    3.40
   1  -8   5   14.80    6.60
  -1  -8  -5   -1.00    4.10
   1   8   6   29.00    5.80
   1   8   6   31.60    6.30
  -1  -8  -6   34.50    6.70
   1  -8   6   28.00    6.10
   1   8   7   -5.40    6.40
   1   8   7   -5.20    5.40
   1   8   7   -8.10    6.60
   1  -8   7    1.60    6.60
   1   8   8   -2.90    6.90
   1   8   8   10.10    9.00
   1  -8   8   19.40    8.20
  -1   9   8  -13.40    6.30
  -1  -9   8    4.50    6.30
   1   9  -7   12.00    6.60
  -1   9   7   -6.20    5.20
  -1   9   7    4.00    4.80
  -1   9   7    1.20    5.10
  -1  -9   7   -8.70   10.40
  -1   9   6    3.80    3.70
  -1   9   6    6.00    4.40
   1   9  -6   14.30    5.70
  -1  -9   6   15.30    7.00
   1  -9  -6   -2.40    3.70
  -1  -9   6    0.70    3.10
   1   9  -5   98.89    8.60
  -1   9   5   98.49    6.90
  -1   9   5   79.29    8.70
   1  -9  -5  101.49    6.50
   1  -9  -5   98.39   11.10
  -1  -9   5   83.99    6.20
  -1  -9   5   92.09    9.80
  -1   9   4   32.90    4.20
   1   9  -4   34.60    5.70
   1   9  -4   30.10    4.00
   1   9  -4   35.30    4.60
  -1   9   4   21.90    4.30
  -1  -9   4   29.90    3.90
   1  -9  -4   28.80    5.60
   1  -9  -4   30.70    3.80
  -1  -9   4   36.60    6.30
   1   9  -3    7.20    2.40
  -1   9   3   10.80    3.80
  -1   9   3    8.20    2.80
   1   9  -3   11.70    3.70
  -1  -9   3   15.00    4.30
   1  -9  -3    9.80    2.90
  -1  -9   3    7.90    2.20
   1  -9  -3    8.40    3.80
  -1   9   2   15.30    3.50
   1   9  -2   21.50    4.10
  -1   9   2   14.40    3.70
   1   9  -2   17.20    3.10
   1  -9  -2   13.60    3.30
   1  -9  -2    9.20    2.90
  -1  -9   2   16.20    2.70
  -1  -9   2   17.00    4.30
  -1   9   1 2002.70   65.19
   1   9  -1 1915.41   64.69
   1   9  -1 2052.89   64.39
  -1   9   1 1961.50   64.29
  -1  -9   1 1945.01   64.49
   1  -9  -1 2041.10   64.39
   1  -9  -1 1883.31   64.89
  -1  -9   1 1998.00   64.79
   1   9   0  402.06   16.70
  -1   9   0  450.25   17.00
   1  -9   0  429.36   16.90
  -1  -9   0  453.15   17.90
  -1  -9   0  436.26   17.00
   1  -9   0  413.96   16.90
   1   9   1  719.33   25.60
  -1   9  -1  690.83   24.50
  -1   9  -1  688.23   25.40
   1   9   1  660.63   25.00
   1  -9   1  709.43   24.90
  -1  -9  -1  702.73   25.00
   1  -9   1  686.53   25.70
  -1   9  -2    1.40    2.20
   1   9   2    6.00    2.90
   1   9   2    7.80    3.20
   1   9   2    5.40    2.90
  -1   9  -2    3.20    2.10
  -1   9  -2   -1.50    2.80
  -1  -9  -2    2.00    2.80
   1  -9   2    4.40    2.60
   1  -9   2    4.60    3.50
   1   9   3  382.76   16.60
  -1   9  -3  378.46   16.40
  -1   9  -3  379.36   13.10
   1   9   3  368.16   15.50
   1   9   3  355.76   16.00
  -1  -9  -3  370.06   15.20
   1  -9   3  351.96   17.00
   1   9   4   12.60    4.20
   1   9   4    9.00    3.80
   1   9   4   12.70    3.80
  -1   9  -4   14.20    4.90
   1  -9   4    9.50    5.90
  -1  -9  -4    9.20    3.80
   1   9   5    3.30    4.20
   1   9   5    5.10    4.00
  -1   9  -5    4.80    5.30
   1   9   5    1.90    5.10
  -1  -9  -5   -2.70    4.50
   1   9   6   22.40    6.40
   1   9   6   23.80    6.30
  -1  -9  -6   24.20    6.50
   1  -9   6   25.50    6.10
   1   9   7    8.30    6.70
   1   9   7   12.90    6.60
   1   9   7    2.00    6.20
   1  -9   7    3.60    7.70
   1   9   8   -2.70    7.10
   1   9   8    0.60   10.50
   1  -9   8    1.40    8.30
  -1  10   8    8.70    7.30
  -1 -10   8   13.70    6.70
  -1  10   7    8.80    5.30
  -1  10   7   -0.20    6.10
   1  10  -7   -8.60    6.60
  -1  10   6   37.10    5.10
   1  10  -6   40.90    7.20
  -1 -10   6   24.40    8.20
  -1 -10   6   35.20    4.80
   1 -10  -6   30.00    5.30
   1  10  -5   13.20    5.00
  -1  10   5   20.60    5.40
  -1  10   5   23.70    4.50
  -1 -10   5   19.90    3.70
   1 -10  -5   22.00    3.80
  -1 -10   5   26.00    6.70
   1  10  -4    5.90    2.40
   1  10  -4    5.20    3.10
  -1  10   4    6.30    3.90
   1  10  -4    7.30    4.40
  -1  10   4    4.20    3.00
   1 -10  -4    2.70    4.20
  -1 -10   4    4.80    2.60
  -1 -10   4   -3.10    4.80
   1 -10  -4    5.10    2.90
  -1  10   3   11.10    3.10
  -1  10   3   18.40    3.30
   1  10  -3   14.00    3.00
   1  10  -3   15.80    4.50
   1 -10  -3   14.20    3.30
  -1 -10   3   20.30    4.80
  -1 -10   3   16.00    3.00
   1 -10  -3   19.80    4.30
  -1  10   2   59.69    5.50
   1  10  -2   65.89    6.30
  -1  10   2   75.49    6.60
   1  10  -2   63.69    5.20
  -1 -10   2   68.89    5.20
   1 -10  -2   71.59    6.60
  -1 -10   2   66.99    7.00
   1 -10  -2   65.39    5.80
  -1  10   1   12.10    3.10
   1  10  -1    2.20    2.70
  -1  10   1   -0.60    2.30
   1  10  -1    3.60    2.60
   1 -10  -1    8.70    3.90
  -1 -10   1    0.10    2.90
   1 -10  -1    7.10    3.10
  -1 -10   1    2.70    2.20
  -1  10   0  128.19    7.50
   1  10   0  128.79    8.50
   1  10   0  109.89    7.30
  -1  10   0  120.59    7.40
  -1 -10   0  142.99    9.60
  -1 -10   0  118.69    7.90
   1 -10   0  122.49    8.20
   1  10   1   60.59    5.90
   1  10   1   62.09    5.90
   1  10   1   61.39    6.50
  -1  10  -1   66.99    5.60
  -1  10  -1   73.89    5.50
  -1  10  -1   61.09    5.80
   1 -10   1   63.99    6.50
  -1 -10  -1   66.69    6.40
   1 -10   1   67.49    5.60
   1  10   2   40.90    4.90
   1  10   2   72.99    9.70
  -1  10  -2   44.00    4.70
  -1  10  -2   48.30    4.60
  -1  10  -2   48.80    5.90
   1  10   2   42.80    5.90
   1 -10   2   50.59    6.50
   1 -10   2   38.20    5.00
  -1 -10  -2   48.90    5.50
  -1  10  -3   93.89    7.90
   1  10   3   88.19    7.90
   1  10   3   90.59    7.80
   1  10   3   82.69    7.00
  -1  10  -3   88.99    5.20
  -1  10  -3   82.89    5.30
  -1 -10  -3   89.39    7.20
   1 -10   3   87.09    9.30
   1  10   4   23.20    5.50
   1  10   4   13.80    4.10
  -1  10  -4   21.20    4.90
   1  10   4   13.90    4.90
   1 -10   4   34.30    7.80
  -1 -10  -4   20.30    4.70
   1  10   5   22.30    4.90
   1  10   5   -0.20    4.00
  -1  10  -5    9.60    5.50
   1  10   5   11.20    5.90
  -1 -10  -5   10.30    5.00
   1  10   6   -9.40    5.40
   1  10   6    2.30    6.40
  -1  10  -6    1.60    7.40
   1 -10   6    9.90    5.40
   1  10   7    6.70    7.30
   1  10   7    4.00    7.00
   1 -10   7   -7.60    6.60
   1  10   8   20.10    8.30
   1  10   8   22.70   11.80
   1 -10   8   14.80    9.20
  -1  11   8   16.80    9.20
  -1 -11   8   -3.90    6.90
   1  11  -7    0.00    7.30
  -1  11   7    6.20    6.20
  -1  11   7   -0.20    5.50
  -1  11   6   87.69   10.30
  -1  11   6   79.89    8.10
   1  11  -6   99.69   11.70
  -1 -11   6   83.69   11.10
  -1 -11   6   76.29    7.80
   1 -11  -6   85.79    8.50
   1  11  -5  153.88    7.90
   1  11  -5  155.98   11.50
  -1  11   5  144.89    9.10
  -1  11   5  157.18   11.90
   1 -11  -5  156.78    9.00
  -1 -11   5  144.59   12.60
  -1 -11   5  148.39    9.40
  -1  11   4   98.19    7.50
   1  11  -4  115.89    6.80
  -1  11   4  119.19    9.50
   1  11  -4  133.59   10.00
   1  11  -4  101.49    8.20
  -1 -11   4  123.39    7.30
  -1 -11   4  133.39   10.50
   1 -11  -4  119.79    7.70
   1 -11  -4  126.59    9.70
   1  11  -3  107.99    6.70
  -1  11   3   95.59    6.90
   1  11  -3  101.09    8.40
   1  11  -3   89.49    7.10
  -1 -11   3  108.09    6.70
  -1 -11   3  107.49    9.20
   1 -11  -3  109.29    8.80
   1 -11  -3   98.39    7.30
  -1  11   2    6.90    2.70
   1  11  -2    9.10    3.10
   1  11  -2   12.90    4.10
  -1  11   2    7.00    4.00
   1  11  -2   14.50    3.60
  -1 -11   2    6.90    4.40
   1 -11  -2    4.40    3.30
   1 -11  -2    6.60    3.60
  -1 -11   2   10.70    2.80
  -1  11   1   23.20    3.60
  -1  11   1   12.20    3.30
   1  11  -1   23.50    4.20
   1  11  -1   25.90    4.40
   1 -11  -1   14.30    3.60
  -1 -11   1   14.30    3.30
   1 -11  -1   27.10    5.00
  -1 -11   1   19.20    4.40
  -1  11   0  172.78    9.90
   1  11   0  182.88    9.80
  -1  11   0  197.48    9.90
   1  11   0  180.38   10.80
   1 -11   0  184.08   10.60
  -1 -11   0  199.58   10.70
   1 -11   0  186.18   10.00
  -1 -11   0  188.58   10.50
  -1  11  -1  139.19    8.10
   1  11   1  129.59    8.30
  -1  11  -1  135.09    8.00
  -1  11  -1  134.29    8.60
   1  11   1  135.69    9.40
   1  11   1  128.29    8.50
   1 -11   1  121.99    9.40
   1 -11   1  123.89    8.00
  -1 -11  -1  134.39    8.70
  -1  11  -2   13.70    4.00
   1  11   2   18.90    5.00
  -1  11  -2   18.40    3.80
  -1  11  -2   16.20    3.30
   1  11   2   16.60    4.10
   1  11   2   12.90    3.70
   1 -11   2   17.50    5.50
   1 -11   2   17.80    4.00
  -1 -11  -2   22.40    4.40
  -1  11  -3   28.20    3.50
   1  11   3   25.70    5.50
   1  11   3   25.00    5.00
  -1  11  -3   25.40    3.30
  -1  11  -3   19.40    4.70
   1  11   3   17.90    3.70
  -1 -11  -3   19.50    4.00
   1 -11   3   38.10    7.30
   1  11   4   61.49    7.20
   1  11   4   62.59    7.80
  -1  11  -4   72.89    8.60
   1  11   4   43.90    6.10
   1 -11   4   45.10    7.60
  -1 -11  -4   61.69    7.30
   1  11   5   -0.70    5.30
  -1  11  -5    5.00    6.20
   1  11   5    5.70    4.80
   1  11   5    3.60    4.40
  -1 -11  -5   10.30    5.50
   1  11   6   40.50    7.70
   1  11   6   41.20    9.50
  -1  11  -6   61.19    9.30
   1  11   6   40.10    8.10
   1  11   7    7.70    7.90
   1  11   7   11.10    7.10
   1 -11   7   24.40    7.70
   1  11   8    0.10    8.10
   1 -11   8   -4.80    8.90
  -1  12   8    5.30    8.50
  -1 -12   8    8.80    7.20
   1  12  -7   22.70    8.70
  -1  12   7   15.60    7.90
  -1  12   7   24.80    6.70
  -1  12   6   60.39    6.90
   1  12  -6   47.10    8.20
  -1 -12   6   60.69    8.00
   1 -12  -6   52.49    6.70
  -1  12   5   -4.20    4.80
   1  12  -5    1.40    3.40
   1  12  -5    6.70    5.30
  -1  12   5   -0.80    3.80
   1 -12  -5    0.50    3.80
  -1 -12   5    5.10    3.30
  -1 -12   5   -4.80    7.20
   1  12  -4    7.60    4.80
  -1  12   4   14.90    5.40
   1  12  -4   15.60    5.40
  -1  12   4   15.30    4.00
   1  12  -4   14.50    3.20
   1 -12  -4   16.20    5.00
  -1 -12   4   19.70    4.20
   1 -12  -4   14.70    4.00
  -1 -12   4   22.10    6.40
  -1  12   3  229.68   11.20
   1  12  -3  261.27   13.20
   1  12  -3  230.28   11.60
  -1  12   3  221.58   12.80
   1  12  -3  212.18   10.60
   1 -12  -3  222.38   13.20
   1 -12  -3  225.08   11.20
  -1 -12   3  236.48   11.20
  -1 -12   3  223.48   13.20
   1  12  -2   37.90    5.50
  -1  12   2   60.69   10.30
   1  12  -2   34.60    4.60
   1  12  -2   35.70    5.30
  -1  12   2   33.30    4.60
   1 -12  -2   22.40    4.70
  -1 -12   2   35.30    5.90
  -1 -12   2   40.70    5.20
   1 -12  -2   35.00    5.30
   1  12  -1   -2.30    3.00
  -1  12   1    1.90    2.70
   1  12  -1    1.10    3.10
   1  12  -1    3.30    3.80
  -1  12   1   10.10    4.40
   1 -12  -1    4.00    3.50
   1 -12  -1    9.00    3.90
  -1 -12   1   -3.20    3.80
  -1 -12   1    1.80    3.00
   1  12   0   84.49    8.40
   1  12   0   88.99    7.30
  -1  12   0   82.69    7.20
  -1  12   0   87.79    7.10
   1 -12   0   76.79    7.80
  -1 -12   0   79.19    7.30
   1 -12   0   89.79    7.40
   1  12   1  502.45   20.40
  -1  12  -1  504.65   19.90
  -1  12  -1  514.75   19.70
  -1  12  -1  508.05   20.80
   1  12   1  514.95   20.80
   1 -12   1  496.45   21.00
   1 -12   1  495.55   20.20
  -1 -12  -1  493.25   20.30
   1  12   2   24.00    4.50
   1  12   2   28.40    5.70
   1  12   2   19.30    4.50
  -1  12  -2   21.10    4.20
  -1  12  -2   21.60    4.90
  -1  12  -2   21.00    3.90
  -1 -12  -2   14.90    4.30
   1 -12   2   20.70    5.50
  -1  12  -3   29.30    5.70
  -1  12  -3   14.30    3.40
   1  12   3    9.50    4.20
   1  12   3    8.90    4.30
  -1  12  -3   20.50    3.60
   1  12   3   11.90    4.50
   1 -12   3   11.60    6.40
  -1 -12  -3   13.90    4.50
  -1  12  -4  114.29   10.10
   1  12   4  108.49   10.10
   1  12   4  131.99   10.50
   1  12   4  123.59    9.10
  -1 -12  -4  104.89    9.00
   1  12   5   77.09    9.50
   1  12   5   89.69   10.90
   1  12   5   60.39    8.90
  -1  12  -5   83.99   10.40
  -1 -12  -5   74.89    9.20
   1  12   6    4.30    6.60
   1  12   6   12.30    7.30
  -1  12  -6   14.20   11.40
   1  12   6   13.10    6.70
   1  12   7    3.50    7.40
   1  12   7   12.70    8.10
   1 -12   7   10.40    7.70
   1  12   8    0.90    8.60
   1 -12   8    5.00    9.50
  -1  13   8   -2.20    9.10
  -1  13   7  -15.50    6.40
   1  13  -7    8.90    9.20
  -1  13   7    1.80    8.20
   1  13  -6  106.59   12.60
  -1  13   6   80.79   10.00
   1 -13  -6   86.39    9.60
   1  13  -5   98.79   11.10
   1  13  -5   87.59    7.60
  -1  13   5   94.99   11.50
  -1  13   5   97.19    9.00
   1 -13  -5  104.89    8.70
  -1 -13   5  110.69    8.40
   1  13  -4   10.80    5.90
  -1  13   4   11.30    5.00
  -1  13   4   18.60    4.50
  -1 -13   4   -9.70    6.60
  -1 -13   4   21.10    4.30
   1 -13  -4    7.60    6.10
   1 -13  -4   17.10    4.60
   1  13  -3    0.40    2.70
  -1  13   3    4.10    3.70
   1  13  -3    2.90    3.70
  -1  13   3    5.00    3.70
   1  13  -3    9.60    4.80
  -1 -13   3   -0.20    2.60
   1 -13  -3    5.90    4.40
   1 -13  -3    2.30    4.10
  -1 -13   3   11.90    5.50
  -1  13   2   44.80    6.50
   1  13  -2   43.10    6.00
  -1  13   2   40.40    5.30
   1  13  -2   34.50    5.50
   1  13  -2   46.40    5.80
  -1 -13   2   40.30    6.30
  -1 -13   2   27.80    4.00
   1 -13  -2   46.50    6.30
   1 -13  -2   32.70    5.30
   1  13  -1  172.88    9.80
  -1  13   1  170.88    9.90
   1  13  -1  169.68   10.80
  -1  13   1  183.78   11.90
   1  13  -1  178.78   10.40
  -1 -13   1  177.28   10.60
   1 -13  -1  180.48   11.10
   1 -13  -1  180.18   10.90
  -1 -13   1  163.68   11.00
   1  13   0  249.08   12.60
  -1  13   0  236.68   12.80
   1  13   0  257.57   14.10
  -1  13   0  236.68   12.50
   1  13   0  243.58   12.60
   1 -13   0  244.48   13.50
  -1 -13   0  237.08   12.60
   1 -13   0  248.18   13.10
   1  13   1    1.90    4.00
  -1  13  -1    3.50    3.10
  -1  13  -1    2.20    3.40
   1  13   1   -3.90    3.40
  -1  13  -1    1.30    3.50
   1  13   1    1.90    4.00
   1 -13   1   -3.80    4.60
   1 -13   1    4.00    3.40
  -1 -13  -1   -4.40    3.60
   1  13   2    4.00    3.50
  -1  13  -2   -2.80    3.60
   1  13   2   -2.10    4.10
   1  13   2    0.40    4.60
  -1  13  -2    2.00    3.20
  -1  13  -2    3.10    3.40
   1 -13   2   -7.60    4.80
  -1 -13  -2    0.80    4.20
   1  13   3    5.70    4.00
   1  13   3    9.90    4.80
   1  13   3   18.00    5.80
  -1  13  -3   15.00    3.50
  -1  13  -3    9.30    5.40
  -1  13  -3   10.10    3.60
  -1 -13  -3   12.00    4.60
   1 -13   3   30.90    7.10
  -1  13  -4  156.78   12.30
   1  13   4  147.49   12.00
   1  13   4  156.58   11.70
   1  13   4  142.39   10.70
  -1 -13  -4  133.19   10.80
   1  13   5   66.79    8.50
   1  13   5   62.69   11.40
  -1  13  -5   51.39    8.90
   1  13   5   54.99    8.70
   1  13   6   22.10    9.00
   1  13   6   23.60    7.70
   1  13   6    7.60    6.70
   1  13   7    4.50    8.60
   1  13   7   -3.60    8.80
   1 -13   7   -6.80    7.60
  -1  14   8  -21.70    9.80
   1  14  -8   20.00   14.50
  -1  14   7    1.80    7.20
  -1  14   7   -7.60    8.60
   1  14  -6   19.70    8.10
  -1  14   6   10.20    6.10
   1 -14  -6   17.20    6.00
   1  14  -5   96.99   11.00
   1  14  -5   81.19    8.30
  -1  14   5   85.69   10.10
  -1  14   5   84.29    9.10
   1 -14  -5   77.49    9.30
  -1  14   4   17.90    5.90
   1  14  -4   30.20    7.10
  -1  14   4   29.00    5.40
  -1 -14   4   22.10    5.00
  -1 -14   4   28.40    7.30
   1 -14  -4   26.10    5.20
   1  14  -3    3.10    3.80
   1  14  -3    4.60    4.70
   1  14  -3   15.50    5.10
  -1  14   3    3.10    3.80
  -1  14   3    6.20    4.80
   1 -14  -3    0.40    4.50
  -1 -14   3   14.80    5.90
   1 -14  -3    2.50    4.90
  -1 -14   3    7.50    4.00
  -1  14   2   -4.70    3.40
  -1  14   2    7.10    4.30
   1  14  -2    3.90    3.80
   1  14  -2   -0.90    3.30
   1  14  -2   -2.40    3.90
  -1 -14   2    1.00    3.20
   1 -14  -2   -5.00    4.20
   1 -14  -2   -7.50    4.90
  -1 -14   2   -0.70    5.40
   1  14  -1  805.12   31.20
   1  14  -1  822.52   30.40
   1  14  -1  787.92   30.90
  -1  14   1  852.31   30.80
   1 -14  -1  805.82   30.70
  -1 -14   1  808.62   31.10
   1 -14  -1  842.22   31.90
  -1  14   0   57.79    7.50
   1  14   0   98.69   11.90
  -1  14   0   55.59    6.60
   1  14   0   58.99    7.00
   1  14   0   50.89    7.90
  -1  14   0   62.09    7.10
   1 -14   0   70.39    7.90
   1 -14   0   61.39    7.40
  -1 -14   0   50.69    6.50
  -1  14  -1    4.70    3.80
   1  14   1   12.60    4.50
  -1  14  -1   11.10    4.00
   1  14   1   10.90    5.30
  -1  14  -1    9.00    4.40
   1  14   1   10.10    5.00
   1 -14   1   12.60    4.30
   1 -14   1   14.90    5.80
  -1 -14  -1   16.70    5.20
   1  14   2   92.49    9.50
  -1  14  -2   96.29    7.80
   1  14   2   89.79    9.20
   1  14   2  100.19    8.60
  -1  14  -2   92.09    7.90
  -1  14  -2   94.19    9.30
   1 -14   2   98.39    9.90
  -1 -14  -2   90.99    8.90
   1  14   3   48.50    7.60
   1  14   3   39.80    6.30
  -1  14  -3   57.09    7.90
   1  14   3   51.49    7.30
  -1  14  -3   53.99    6.10
  -1 -14  -3   50.39    7.20
   1  14   4    3.10    5.10
   1  14   4   -4.30    4.80
   1  14   4   -0.20    5.50
  -1  14  -4    0.60    6.60
  -1  14  -4   -3.80    3.20
  -1 -14  -4   -4.00    5.30
   1  14   5  -11.00    6.70
  -1  14  -5   -9.40    6.50
   1  14   5    8.40    6.10
   1  14   6    4.60    7.30
  -1  14  -6    9.20    9.50
   1  14   6    2.90    8.00
   1  14   7   12.20   11.10
   1  14   7    5.50    8.20
  -1  14  -7   21.70   12.00
   1 -14   7   22.00    9.70
  -1  15   8   10.50   10.40
   1  15  -8   -3.80   15.00
  -1  15   7    8.40    8.50
  -1  15   7    3.70    9.40
  -1  15   6    7.10    6.40
  -1  15   6   -0.10    7.90
   1  15  -6    5.50    8.40
   1 -15  -6   -3.80    6.10
   1  15  -5    5.40    5.10
  -1  15   5   -1.20    5.10
  -1  15   5    4.70    6.50
   1  15  -5    8.40    7.10
   1 -15  -5   -2.10    5.50
   1  15  -4   46.80    8.70
  -1  15   4   38.20    7.50
  -1  15   4   42.10    6.20
   1 -15  -4   47.10    6.80
  -1 -15   4   46.60    6.80
   1  15  -3   57.99    7.90
   1  15  -3   67.79    8.30
   1  15  -3   41.80    5.90
  -1  15   3   46.60    6.00
  -1  15   3   68.39    8.50
  -1 -15   3   66.69    7.70
   1 -15  -3   70.69    7.50
   1 -15  -3   43.70    7.80
  -1 -15   3   50.89    8.40
  -1  15   2   55.49    7.50
  -1  15   2   73.49    7.70
   1  15  -2   76.99    8.70
   1  15  -2   62.99    7.30
  -1 -15   2   79.49    8.80
   1 -15  -2   67.59    8.90
   1 -15  -2   84.19    8.50
   1  15  -1  384.36   17.60
  -1  15   1  381.96   19.20
   1  15  -1  388.96   18.60
  -1  15   1  396.66   17.90
   1  15  -1  400.76   18.30
  -1 -15   1  373.46   18.60
   1 -15  -1  397.76   18.30
   1 -15  -1  410.66   19.50
  -1  15   0   65.59    8.60
   1  15   0   79.99    7.70
  -1  15   0   75.89    8.30
   1  15   0   69.59    8.10
  -1  15   0   72.99    8.20
  -1 -15   0   70.89    8.30
   1 -15   0   75.09    8.30
   1 -15   0   79.09    8.70
   1  15   1   29.20    5.70
   1  15   1   28.10    6.40
  -1  15  -1   25.20    5.50
  -1  15  -1   23.50    5.00
   1  15   1   20.00    5.10
   1 -15   1   26.30    6.90
  -1 -15  -1   40.30    6.80
  -1  15  -2   44.00    6.20
   1  15   2   27.80    5.80
   1  15   2   41.70    6.30
   1  15   2   42.40    7.60
  -1  15  -2   39.60    7.00
  -1  15  -2   31.80    5.40
   1 -15   2   47.00    7.60
  -1 -15  -2   42.20    6.60
  -1  15  -3    7.90    5.30
   1  15   3   12.60    5.40
   1  15   3    1.50    5.00
   1  15   3   -3.30    4.20
  -1  15  -3    3.90    5.00
  -1 -15  -3   -2.10    5.50
  -1  15  -4   -2.10    6.50
   1  15   4   -3.70    6.00
   1  15   4    5.00    5.90
   1  15   4    2.40    5.60
  -1  15  -4    3.10    3.80
   1  15   5   33.20    8.30
   1  15   5   48.50    9.00
  -1  15  -6   10.30    9.30
   1  15   6  -12.60    8.10
   1  15   6    6.50    8.10
   1  15   7   22.20   10.60
   1  15   7   -4.60    9.10
  -1  15  -7    8.50   11.60
   1  16  -7   10.30   11.00
  -1  16   7    6.20   11.20
  -1  16   7    4.60    9.30
  -1  16   6    8.90    8.60
  -1  16   6   13.50    6.90
   1  16  -5    9.60    6.10
  -1  16   5   10.10    7.60
  -1  16   5    2.10    5.50
   1  16  -5    9.10    7.60
   1 -16  -5   -5.10    6.50
  -1  16   4   25.30    6.30
   1  16  -4   30.30    7.30
  -1  16   4   25.10    7.00
   1 -16  -4   30.10    6.40
   1  16  -3   13.30    5.80
  -1  16   3   23.80   11.30
  -1  16   3   -0.80    4.60
   1  16  -3    7.70    5.50
   1 -16  -3   10.50    5.70
   1  16  -2    2.70    4.20
   1  16  -2   -6.10    3.70
   1  16  -2   -6.20    5.20
  -1  16   2   -0.50    4.70
  -1  16   2    5.90    4.40
  -1 -16   2   -0.30    5.90
   1 -16  -2    1.60    5.40
   1 -16  -2    7.90    8.50
  -1  16   1  421.76   19.00
   1  16  -1  416.16   19.70
   1  16  -1  432.56   20.00
  -1  16   1  438.06   20.60
  -1  16   1  412.16   19.70
   1  16  -1  390.36   18.40
  -1 -16   1  397.96   19.10
   1 -16  -1  405.56   19.60
   1  16   0  257.67   14.30
  -1  16   0  237.98   13.60
  -1  16   0  231.98   14.30
   1  16   0  221.38   14.50
  -1  16   0  230.38   13.40
   1  16   0  268.97   15.50
  -1 -16   0  229.58   14.30
   1 -16   0  242.38   15.30
   1 -16   0  249.18   14.60
   1  16   1  118.69   10.40
  -1  16  -1  108.29    9.30
  -1  16  -1  116.69   10.50
   1  16   1  119.39   10.30
   1  16   1  128.79   10.90
   1 -16   1  115.49   11.70
  -1 -16  -1  108.39   10.80
   1  16   2   14.90    6.30
   1  16   2    7.90    5.20
   1  16   2   -0.10    4.80
  -1  16  -2    9.50    5.60
  -1  16  -2    4.90    4.80
  -1 -16  -2   11.10    5.70
   1  16   3   91.49   11.10
  -1  16  -3  102.59   10.60
   1  16   3   94.39   11.20
   1  16   3   95.99   10.50
   1  16   4   -3.30    6.90
   1  16   4    3.50    6.30
  -1  16  -4    9.70    7.00
   1  16   4    5.90    6.50
  -1  16  -4    4.70    4.70
   1  16   5   13.10    7.40
   1  16   5    6.30    8.60
   1  16   6    1.00    9.40
  -1  16  -6    8.20   10.00
   1  16   6   17.60    9.00
  -1  16  -7  -22.50   12.00
   1  16   7   16.70   11.80
   1  16   7   -5.30   10.30
  -1  17   7    0.60   10.90
  -1  17   7   -2.60   10.80
   1  17  -7    7.90   12.00
  -1  17   6   11.60    7.50
  -1  17   6    0.50    8.40
   1  17  -5   -2.70    8.10
  -1  17   5   11.70    8.90
  -1  17   5    5.90    6.20
   1  17  -5    7.40    6.30
  -1  17   5   -1.80    8.70
   1 -17  -5    2.40    7.00
  -1  17   4    6.80    5.70
  -1  17   4    5.40    6.50
   1  17  -4    8.70    7.80
   1 -17  -4    8.10    6.50
  -1  17   3    2.00    5.60
   1  17  -3    9.90    6.30
  -1  17   3    0.50    5.00
   1  17  -3    7.50    5.50
   1 -17  -3   -0.40    6.00
   1  17  -2  104.09    9.10
   1  17  -2   98.69   11.20
  -1  17   2  109.49    9.50
  -1  17   2  103.49   11.60
   1 -17  -2  128.49   11.70
  -1  17   1  282.87   15.40
   1  17  -1  258.17   16.10
   1  17  -1  282.67   14.80
  -1  17   1  315.27   17.40
  -1  17   1  279.77   16.00
   1  17  -1  293.37   16.10
   1 -17  -1  267.87   15.90
   1  17   0   19.10    7.00
   1  17   0    6.00    4.70
   1  17   0   12.00    5.80
  -1  17   0   18.30    6.00
  -1  17   0   11.80    5.40
  -1  17   0   23.00    6.30
   1 -17   0   30.30    7.90
  -1  17  -1    9.10    4.60
   1  17   1   12.90    5.50
  -1  17  -1   -6.10    5.00
   1  17   1    0.00    6.60
   1  17   1   -1.80    5.10
  -1  17  -1   -7.40    4.60
   1  17   2   -3.80    5.50
   1  17   2    8.00    5.10
   1  17   2   -4.20    5.00
  -1  17  -2    3.60    5.90
  -1  17  -2   -3.40    5.00
  -1  17  -3   19.30    6.50
   1  17   3   29.30    7.40
   1  17   3   24.00    7.30
   1  17   3   35.90    8.40
   1  17   4   -5.10    7.40
   1  17   4   -2.50    8.00
  -1  17  -4   -4.60    5.00
   1  17   4   -3.60    6.40
   1  17   5   11.90    8.50
   1  17   5    3.00    8.00
  -1  17  -5    8.90    9.90
  -1  17  -6   -8.00   11.30
   1  17   6   10.10   10.10
   1  17   6    1.40   10.40
   1  17   7    7.00   11.20
   1  17   7   28.60   13.30
  -1  17  -7   11.50   14.80
  -1  18   7   13.30   12.20
   1  18  -7   21.60   13.20
   1  18  -6  -12.30   10.30
  -1  18   6   -3.60    7.80
  -1  18   6  -14.90    9.40
  -1  18   5   22.20    8.80
   1  18  -5   17.70    7.30
  -1  18   5    3.90    7.30
   1  18  -4   43.20    9.50
  -1  18   4   18.60    7.10
  -1  18   4   14.70    8.20
  -1  18   4   19.40    8.20
  -1  18   3   76.79    9.00
  -1  18   3   84.19   11.40
   1  18  -3   83.39    9.90
  -1  18   3   52.19    8.70
   1  18  -3   95.49   10.70
   1 -18  -3   70.99    9.00
  -1  18   2   33.40    6.40
   1  18  -2   23.00    7.50
   1  18  -2   22.40    7.10
  -1  18   2   50.09   13.40
  -1  18   2   37.30    8.10
   1 -18  -2   30.40    7.90
   1  18  -1   97.59   11.50
  -1  18   1  110.59   11.70
   1  18  -1  117.59   10.60
  -1  18   1  111.79   10.40
  -1  18   1  106.89   10.90
   1  18  -1   91.99   10.80
  -1  18   0   13.00    5.40
   1  18   0   -2.60    5.30
   1  18   0    4.00    5.00
   1  18   0    1.40    5.60
  -1  18   0    6.20    6.70
  -1  18   0    2.30    4.70
   1  18   1   -0.70    6.20
  -1  18  -1   -9.90    5.20
   1  18   1    2.90    5.90
   1  18   1   -1.90    5.50
  -1  18  -1   -5.20    5.40
  -1  18  -2   26.90    7.30
  -1  18  -2   29.00    7.20
   1  18   2   18.60    6.60
   1  18   2   35.20    8.10
   1  18   2   42.70   12.80
   1  18   3   11.30    6.80
   1  18   3   10.40    7.10
   1  18   3   -5.70    7.80
  -1  18  -3    3.80    6.70
   1  18   4   36.10   10.00
  -1  18  -4   36.30    6.80
   1  18   4   25.10    9.50
   1  18   4   45.10    8.40
   1  18   5    5.20    8.80
  -1  18  -5    3.00   10.40
   1  18   5    8.70    9.30
  -1  18  -6   17.30   12.30
   1  18   6   28.40   12.20
   1  18   6   21.40   11.50
   1  19  -7    4.00   13.60
  -1  19   7   16.50   12.80
  -1  19   6    7.20   10.90
  -1  19   6    8.60    9.10
   1  19  -6    4.20   12.20
   1  19  -5   51.39   11.40
  -1  19   5   36.20    9.00
  -1  19   4   38.30    8.60
  -1  19   4   34.70   10.20
  -1  19   4   47.40   15.20
  -1  19   3   19.80    8.90
  -1  19   3   55.19   14.90
   1  19  -3   18.80    8.00
  -1  19   3   15.30    6.60
   1  19  -3   10.90    7.90
  -1  19   2    0.10    6.70
  -1  19   2  -12.20    5.70
  -1  19   2    2.20    6.50
   1  19  -2    9.90    6.40
   1  19  -2    2.10    5.50
  -1  19   1   99.39   11.20
   1  19  -1   93.39   10.20
  -1  19   1   93.09   11.70
  -1  19   1   81.89   10.30
   1  19  -1   96.99   12.80
   1  19  -1   99.69   10.60
  -1  19   0   12.40    5.10
   1  19   0   15.70    6.40
  -1  19   0   29.80    7.20
  -1  19   0   20.10    7.50
   1  19   0   27.90    7.70
   1  19   0   20.70    6.40
  -1  19  -1  123.79   12.40
   1  19   1  120.89   12.30
   1  19   1  138.09   12.70
  -1  19  -1  136.89   11.90
   1  19   2    2.50    6.20
   1  19   2   -5.50    6.50
   1  19   2    4.70    6.80
  -1  19  -2    4.60    7.20
   1  19   3  130.09   14.30
   1  19   3  106.89   13.30
   1  19   3  134.39   15.60
  -1  19  -4    1.90    8.30
   1  19   4    8.20    8.10
  -1  19  -4   -4.60    6.20
  -1  19  -5   19.80   11.30
   1  19   5   26.80   10.10
   1  19   5   19.10   11.30
  -1  19  -6   17.00   13.00
   1  19   6   12.00   12.30
   1  19   6   -9.30   11.00
   1  20  -7  -11.10   14.60
  -1  20   6   -3.10    9.70
  -1  20   6    0.80   12.20
   1  20  -6   -6.70   12.40
  -1  20   5  -12.90    8.20
   1  20  -5   19.00   11.60
  -1  20   4    1.90    7.50
  -1  20   4   20.20    9.50
  -1  20   4   -4.30    8.30
  -1  20   3   14.10    8.30
  -1  20   3    1.40    6.90
   1  20  -3    2.60    7.40
  -1  20   3   -3.40    7.80
   1  20  -2    2.90    8.00
  -1  20   2   19.00    8.30
  -1  20   2   -1.00   12.90
  -1  20   2    7.40    6.50
   1  20  -2    5.10    7.10
  -1  20   1    4.00    6.40
  -1  20   1    0.60    6.80
  -1  20   1   18.90    7.30
   1  20  -1   10.20    8.40
   1  20   0   93.39   12.20
   1  20   0  102.79   13.40
   1  20   0  116.79   12.40
  -1  20   0  118.09   12.10
  -1  20   0   81.19   11.00
   1  20   1    3.10    6.80
  -1  20  -1    1.30    7.20
   1  20   1   -2.50    6.80
  -1  20  -1   15.60    7.50
   1  20   1    3.40    7.10
   1  20   2  119.59   16.10
   1  20   2  176.88   19.80
   1  20   2  139.79   12.70
  -1  20  -2  126.79   14.80
   1  20   3    6.80    8.60
   1  20   3   10.90    9.00
  -1  20  -3    8.00   10.70
   1  20   3   -6.30    7.90
   1  20   4  -20.40    8.50
  -1  20  -4   -0.10    9.20
   1  20   4  -13.10   11.00
   1  20   5   18.70   13.00
  -1  20  -5   13.40   12.10
   1  20   5   18.90   10.60
  -1  20  -6    4.50   14.30
   1  20   6    1.50   12.40
   1  20   6  -24.90   11.60
  -1  21   6    3.10   12.60
   1  21  -6  -16.00   13.40
  -1  21   6  -12.10   13.30
  -1  21   5   11.00   10.80
   1  21  -5   15.40   12.80
  -1  21   5   10.50    9.50
  -1  21   4   32.00    9.30
   1  21  -4    8.90    9.80
  -1  21   4   17.90    9.70
   1  21  -3   -4.00    9.20
  -1  21   3   -9.50    9.10
  -1  21   3   -2.40    7.70
  -1  21   3    5.40    9.80
  -1  21   2  119.49   14.40
  -1  21   2   86.69   10.60
  -1  21   2  111.19   14.00
   1  21  -2   86.79   11.30
  -1  21   1    0.90    6.60
  -1  21   1    3.30    6.50
  -1  21   1   -7.50    7.10
   1  21  -1    7.20    7.70
   1  21   0    8.40    7.40
  -1  21   0   23.10    9.00
   1  21   0    6.80    7.20
   1  21   0   23.40    7.90
  -1  21   0   19.40    7.40
   1  21   1  186.58   17.00
  -1  21  -1  168.48   16.20
   1  21   1  185.98   16.30
   1  21   1  150.08   14.30
   1  21   2    6.90    6.90
  -1  21  -2    5.80    8.70
   1  21   2   -9.00   14.90
  -1  21  -3   43.00   10.80
   1  21   3   42.80    9.90
   1  21   3   39.50   10.60
   1  21   3   39.60   10.20
   1  21   4   -3.80    9.70
  -1  21  -4  -10.30   10.20
  -1  21  -5    9.10   12.70
   1  21   5   19.60   13.80
   1  21   5   -3.80   11.50
   1  21   6  -19.20   13.40
  -1  21  -6   11.70   14.60
   1  21   6  -21.30   12.50
  -1  22   6   14.70   14.40
  -1  22   6   22.30   13.00
   1  22  -6   16.70   15.80
  -1  22   5   -6.70   12.50
  -1  22   5  -14.30   11.60
   1  22  -5   -0.30   13.80
  -1  22   4   -6.50   11.80
  -1  22   4    2.30   11.80
   1  22  -4    0.80   11.20
   1  22  -3   -4.80    9.60
  -1  22   3   68.19   24.30
  -1  22   3   -9.50    7.70
  -1  22   3   14.10   10.30
   1  22  -2    5.90    9.80
   1  22  -2    8.40   10.10
  -1  22   2  -18.40    9.10
  -1  22   2   -7.60    8.30
  -1  22   2   -6.90    7.60
  -1  22   1   -0.20    8.10
   1  22  -1   11.60   10.00
   1  22   0   46.80    9.70
  -1  22   0   34.00    9.60
   1  22   0   31.20    9.50
  -1  22   0   38.80   10.70
   1  22   1    4.00    8.00
   1  22   1    3.40    9.30
   1  22   1    5.10    8.80
  -1  22  -1    7.00    8.30
  -1  22  -1    0.70    8.50
   1  22   2  -18.30    9.10
   1  22   2    9.10    9.40
   1  22   2   13.30    9.10
  -1  22  -3   23.50   10.30
   1  22   3   40.00   12.80
   1  22   3   44.60   10.50
   1  22   4   44.90   11.20
  -1  22  -4   45.90   13.20
   1  22   4   76.39   21.50
   1  22   5    6.30   13.90
  -1  22  -5   -7.10   13.10
   1  22   5   -5.10   12.00
  -1  23   6   -6.10   14.70
   1  23  -6  -15.30   16.50
  -1  23   5   27.70   10.80
  -1  23   5   -3.50   14.10
   1  23  -5    9.50   15.30
  -1  23   4    2.90   13.40
  -1  23   4    6.20    9.70
   1  23  -4   -0.40   11.20
  -1  23   3  -11.20    9.30
   1  23  -3    0.80   11.10
  -1  23   3   16.00   11.80
   1  23  -2   -8.50    9.00
  -1  23   2   -8.60   10.40
  -1  23   2   -9.70    8.20
  -1  23   1   77.09   11.40
  -1  23   1  108.39   12.70
   1  23  -1   90.99   14.60
   1  23   0    5.60    9.20
   1  23   0   14.80    9.80
  -1  23   0   20.10    9.60
  -1  23   0   -8.40    8.70
  -1  23  -1   -0.80    9.80
   1  23   1    4.40   16.70
  -1  23  -1    2.70    8.90
   1  23   1   -0.30    9.10
   1  23   2   10.80   11.00
   1  23   2   -2.40   10.60
  -1  23  -2    0.50   12.80
   1  23   2   11.10   10.40
   1  23   3    4.20   11.40
  -1  23  -3    9.30   11.00
   1  23   3   -6.80   10.40
   1  23   4  -15.30   12.70
   1  23   4   21.50   12.60
  -1  23  -4    6.20   13.00
  -1  23  -5   15.90   16.10
   1  23   5   26.60   15.80
   1  23   5   16.50   14.80
  -1  24   5    4.40   11.80
   1  24  -5   -7.10   14.50
  -1  24   5   10.10   15.00
  -1  24   4  -13.60   14.70
   1  24  -4   -1.20   13.90
  -1  24   4    2.10   10.70
   1  24  -3  -20.00   11.20
  -1  24   3  -15.00   11.70
  -1  24   3    6.10   10.20
  -1  24   2    0.90   10.10
   1  24  -2   -4.00   11.30
  -1  24   2    9.90   18.60
   1  24  -1    6.90   15.50
  -1  24   1    4.80    9.50
  -1  24   1    7.20    9.80
   1  24  -1   22.90   10.80
   1  24   0   40.50   12.50
   1  24   0   30.60   10.40
  -1  24   0   43.00   11.30
  -1  24  -1   13.60    9.20
   1  24   1   19.00   12.20
   1  24   1   -5.50    9.40
   1  24   2    8.50   10.90
   1  24   2  -11.40   12.50
  -1  24  -2  -24.40    9.20
   1  24   3   33.90   12.60
   1  24   3   28.10   23.00
  -1  24  -3   22.20   13.30
  -1  24  -4  -12.20   12.90
   1  24   4   28.50   15.50
   1  24   4    7.00   13.50
  -1  24  -5   -0.60   14.90
  -1  25   5   -4.60   18.10
   1  25  -5  -23.70   15.00
  -1  25   5  -19.80   12.70
  -1  25   4  -12.20   12.20
   1  25  -4  -26.00   13.90
  -1  25   3   -1.10   14.10
   1  25  -3   -7.10   13.00
  -1  25   3  -19.00   11.40
  -1  25   2   -9.00   10.50
  -1  25   2   16.40   12.50
   1  25  -2    9.50   12.40
  -1  25   1    5.60   11.00
  -1  25   1   -3.00   12.50
   1  25  -1   25.50   11.30
   1  25   0   -8.80    9.50
   1  25   0    7.70   13.10
  -1  25   0   -0.40    9.70
   1  25   1   -5.60   14.20
  -1  25  -1   -1.50   10.30
   1  25   1    6.20   10.90
   1  25   2   -3.70   13.30
  -1  25  -2  -10.90   12.10
   1  25   2    4.50   10.80
   1  25   3   22.90   14.00
   1  25   3   13.10   16.30
  -1  25  -3   21.60   13.60
  -1  25  -4   20.30   14.80
   1  25   4   22.60   14.90
   1  25   4   31.30   21.90
   1  26  -4   37.20   15.30
  -1  26   4   16.20   20.60
  -1  26   4    7.20   14.10
  -1  26   3    7.10   12.60
   1  26  -3   13.20   14.30
  -1  26   3   28.40   17.50
  -1  26   2    0.40   12.20
  -1  26   2    3.00   14.10
   1  26  -2   17.60   13.10
  -1  26   1   24.40   11.30
   1  26  -1   11.60   12.90
   1  26   0    5.40   11.70
  -1  26   0  -16.20   10.40
   1  26   1    8.30   19.20
   1  26   1  -13.90   11.70
  -1  26  -1    6.10   11.60
  -1  26  -2   -9.40   13.60
   1  26   2  -17.90   12.70
   1  26   2    8.00   15.60
  -1  26  -3   25.40   14.80
   1  26   3    9.20   15.10
  -1  26  -4   -1.70   15.10
  -1  27   3   27.30   15.10
   1  27  -3    1.40   14.40
   1  27  -2   -7.10   13.60
  -1  27   2   -6.70   13.30
  -1  27   1   18.30   13.60
   1  27  -1  -12.50   11.90
   1  27   0    1.40   12.90
  -1  27   0   10.80   13.60
   1  27   1    0.00   12.60
  -1  27  -1   -9.90   13.40
   1  27   2  -25.90   12.80
  -1  27  -2    8.70   13.20
   1  27   3   14.30   15.60
   1  27   3  -10.30   23.80
  -1  27  -3   43.70   17.10
  -1  28   3    3.40   16.70
   1  28  -3   34.50   15.70
   1  28  -2   12.00   14.50
  -1  28   2  -18.70   14.40
  -1  28   1  -29.50   13.10
   1  28  -1  -22.60   14.80
   1  28   0   23.20   14.30
  -1  28   0   34.50   15.20
  -1  28  -1   17.00   13.40
   1  28   1    7.20   15.00
  -1  28  -2   36.00   15.60
   1  28   2   40.70   15.70
   1  29  -1   -9.50   16.80
  -1  29   1   18.90   15.90
  -1  29   0   17.10   14.80
   1  29   0    1.20   14.90
   1  29   1   12.80   15.90
  -1  29  -1   12.70   14.80
  -2   0   9   -3.70    5.40
  -2   0   8   10.50    4.80
  -2   0   8    8.70    4.20
  -2   0   7   -6.50    3.90
  -2   0   7   -2.20    3.50
  -2   0   7   -0.30    4.90
  -2   0   6  695.63   25.80
  -2   0   6  710.63   24.30
  -2   0   6  715.73   23.60
  -2   0   5    0.90    1.40
  -2   0   5   -2.70    2.40
  -2   0   5   -1.70    2.00
   2   0  -5   -1.80    2.70
  -2   0   4 1052.29   36.10
  -2   0   4 1053.49   33.60
   2   0  -4 1066.19   36.10
  -2   0   4 1103.79   33.90
  -2   0   3    3.70    2.00
   2   0  -2  233.48    9.30
   2   0  -2  224.28    7.60
  -2   0   2  190.08   10.00
  -2   0   2  226.68    7.40
  -2   0   1    1.90    1.80
   2   0  -1   -0.50    0.80
   2   0  -1   -1.10    1.20
  -2   0   1    1.00    0.90
  -2   0   0    0.60    1.10
   2   0   0   -0.80    1.20
  -2   0   0    1.20    1.30
   2   0   0   -0.30    1.00
   2   0   1   -0.90    1.20
  -2   0  -1   -0.10    1.10
   2   0   1   -1.80    1.10
  -2   0  -1    0.70    1.70
  -2   0  -2   24.30    3.10
  -2   0  -2   27.20    2.70
   2   0   2   25.50    3.30
   2   0   2   29.10    3.00
   2   0   3    0.20    2.90
   2   0   3    0.10    1.90
   2   0   3   -2.40    1.30
   2   0   4  235.98    9.10
   2   0   4  236.28   11.40
   2   0   4  231.58   12.10
   2   0   5    4.60    5.20
   2   0   5   -2.10    3.10
   2   0   6    7.10    4.60
   2   0   7   -9.50    6.50
   2   0   8   -5.70    8.20
  -2   1   9   15.60    5.90
  -2  -1   9    6.40    5.40
  -2   1   8    4.20    4.70
  -2  -1   8    5.90    4.20
  -2  -1   8   -3.60    4.20
  -2   1   7   25.40    4.40
  -2   1   7   29.50    3.90
  -2   1   7   23.20    5.00
  -2  -1   7   23.00    3.80
  -2  -1   7   22.50    4.50
  -2   1   6  121.89    7.90
  -2   1   6  102.79    5.50
  -2   1   6  106.49    6.30
  -2  -1   6  106.89    7.20
  -2  -1   6  103.89    7.30
  -2  -1   6  115.99    6.20
  -2   1   5    5.80    1.80
  -2   1   5    3.10    2.50
   2   1  -5   -0.50    2.50
  -2   1   5    1.70    1.30
  -2  -1   5    4.40    2.30
   2  -1  -5    6.80    3.20
  -2  -1   5    1.70    2.60
  -2  -1   5    3.50    1.60
   2   1  -4  109.49    4.60
  -2   1   4   95.89    6.00
   2   1  -4  103.79    6.30
   2  -1  -4  102.49    6.60
  -2  -1   4  102.89    6.10
  -2  -1   4  112.49    5.00
   2   1  -3  488.65   17.80
  -2   1   3  501.55   18.20
   2   1  -3  503.85   16.20
  -2  -1   3  492.85   16.10
   2  -1  -3  495.05   18.10
  -2  -1   3  474.25   17.80
   2   1  -2   40.50    2.60
   2   1  -2   37.10    3.40
  -2   1   2   39.70    3.90
   2  -1  -2   39.00    1.90
  -2  -1   2   40.90    2.30
   2  -1  -2   38.40    1.90
   2  -1  -2   36.40    3.50
   2   1  -1    0.80    1.20
  -2   1   1    0.40    0.90
   2   1  -1    1.50    1.10
  -2   1   1    1.60    1.50
   2  -1  -1    3.70    2.30
  -2  -1   1    1.20    1.40
   2  -1  -1    0.40    0.80
  -2  -1   1    0.90    1.00
   2   1   0  542.15   18.50
   2   1   0  515.45   18.10
  -2   1   0  539.25   18.10
   2  -1   0  543.95   18.40
   2  -1   0  518.65   18.00
  -2  -1   0  509.25   18.40
  -2  -1   0  543.65   18.10
   2   1   1  129.69    6.30
  -2   1  -1  140.59    6.60
  -2   1  -1  138.59    5.90
   2   1   1  138.29    6.20
  -2  -1  -1  136.19    6.20
   2  -1   1  128.49    6.70
   2  -1   1  132.19    6.40
  -2  -1  -1  139.29    6.60
   2  -1   1  131.79    6.00
  -2   1  -2    1.80    1.40
   2   1   2   -0.70    1.50
   2   1   2   -3.00    1.70
  -2  -1  -2   -0.10    1.60
   2  -1   2    0.10    1.30
   2  -1   2   -1.90    2.40
  -2  -1  -2   -0.40    2.30
   2  -1   2    0.80    1.60
   2   1   3  104.59    6.40
   2  -1   3  108.79    6.30
  -2  -1  -3   98.29    6.90
   2  -1   3  101.19    4.90
   2  -1   3  112.99    7.60
   2   1   4   13.80    2.50
   2   1   4   13.00    3.40
   2   1   4    9.60    4.30
   2  -1   4   18.00    4.60
   2  -1   4   15.00    2.00
   2  -1   4    7.80    3.00
   2   1   5   36.20    5.10
   2   1   5   33.90    3.80
   2   1   5   33.80    4.30
   2   1   5   35.10    6.50
   2  -1   5   40.20    6.60
   2  -1   5   29.00    4.90
   2   1   6   22.00    5.40
   2  -1   6   23.90    5.70
   2   1   7    4.20    6.80
   2  -1   7   -5.70    6.40
   2   1   8    2.50    8.30
   2  -1   8  -10.10    8.30
  -2   2   9    6.60    6.40
  -2  -2   9    7.20    5.30
  -2   2   8   23.00    6.80
  -2   2   8   36.90    6.40
  -2  -2   8   31.80    4.90
  -2  -2   8   27.60    4.60
  -2   2   7   -1.30    3.10
  -2   2   7    2.90    3.60
  -2  -2   7   -1.50    4.70
  -2  -2   7    2.10    3.40
  -2  -2   7    6.60    3.00
  -2   2   6    2.10    3.10
  -2   2   6    1.10    2.60
  -2  -2   6    5.80    3.80
  -2  -2   6    4.30    3.20
  -2   2   5    7.00    2.90
  -2   2   5   11.20    1.50
   2   2  -5    5.20    2.60
  -2   2   5    9.50    1.60
  -2  -2   5    8.20    3.00
   2  -2  -5    7.30    2.90
  -2  -2   5    4.80    2.80
  -2  -2   5    7.10    2.10
   2   2  -4    1.00    1.70
   2   2  -4    2.10    2.30
  -2   2   4    1.30    2.00
  -2  -2   4    3.60    1.90
  -2  -2   4    1.40    1.90
   2  -2  -4    2.00    2.40
  -2   2   3  292.87   12.00
   2   2  -3  299.27   11.60
   2   2  -3  270.77   10.40
   2  -2  -3  289.37   12.10
  -2  -2   3  292.17   10.40
  -2  -2   3  289.07   11.60
  -2   2   2 1018.80   34.30
   2   2  -2  944.71   32.60
   2   2  -2 1054.19   33.80
  -2  -2   2 1016.40   32.50
   2  -2  -2 1059.49   34.10
   2  -2  -2 1015.30   31.80
  -2  -2   2  983.40   33.90
   2  -2  -2 1026.00   31.90
   2   2  -1  268.77   10.60
  -2   2   1  251.57   10.50
   2   2  -1  276.97   10.00
  -2  -2   1  274.47   10.70
   2  -2  -1  267.97   10.70
   2  -2  -1  281.77    9.80
  -2  -2   1  275.07    9.80
   2  -2  -1  265.37    9.50
   2   2   0 1426.96   46.00
  -2  -2   0 1455.75   45.90
   2  -2   0 1479.45   46.10
   2  -2   0 1417.86   45.80
   2  -2   0 1403.66   46.10
  -2  -2   0 1384.96   46.20
   2   2   1  131.19    6.60
  -2   2  -1  143.99    6.10
   2   2   1  149.09    6.70
   2  -2   1  145.69    6.20
  -2  -2  -1  130.89    6.50
  -2  -2  -1  144.59    6.70
   2  -2   1  148.39    6.80
   2  -2   1  146.49    7.20
  -2   2  -2  187.78    7.20
   2   2   2  192.08    8.70
   2   2   2  179.08    8.10
  -2  -2  -2  194.88    8.10
   2  -2   2  191.38    7.60
  -2  -2  -2  193.98    8.90
   2  -2   2  191.38    9.10
   2  -2   2  182.48    8.50
   2   2   3   49.10    4.80
   2   2   3   49.20    4.30
  -2  -2  -3   43.50    5.20
   2  -2   3   53.89    6.10
   2  -2   3   52.19    3.20
   2  -2   3   54.09    4.80
   2   2   4   56.29    6.90
   2   2   4   54.99    4.60
   2   2   4   55.59    5.90
   2  -2   4   50.59    5.60
   2  -2   4   56.99    6.50
  -2  -2  -4   55.79    6.10
   2   2   5    6.70    2.90
   2   2   5    0.00    3.70
   2   2   5   -5.00    5.20
   2   2   5    5.60    2.70
   2  -2   5    9.80    3.70
   2  -2   5    0.20    5.40
   2   2   6    8.80    3.20
   2   2   6   15.60    5.50
   2   2   6   12.20    3.20
   2  -2   6    3.70    5.10
   2   2   7    7.60    6.70
   2  -2   7   10.90   11.90
   2   2   8   -1.70    8.20
   2  -2   8  -20.00    8.30
  -2   3   9   11.80    6.20
  -2  -3   9    4.40    4.80
  -2   3   8   26.80    6.20
  -2  -3   8   22.90    4.70
  -2  -3   8   27.50    5.00
  -2   3   7  118.09    7.10
  -2   3   7  112.19    6.50
  -2  -3   7  111.49    7.00
  -2  -3   7  115.69    7.80
  -2  -3   7  112.89    9.80
  -2   3   6  184.48   10.30
  -2   3   6  170.58    7.30
  -2   3   6  182.18    7.60
  -2  -3   6  183.18    8.40
  -2  -3   6  174.38    9.20
  -2  -3   6  188.18   10.20
   2   3  -5  128.39    6.90
   2   3  -5  116.19    7.10
  -2   3   5  123.99    4.80
  -2   3   5  123.89    4.90
  -2   3   5  124.19    8.00
  -2  -3   5  129.49    7.40
   2  -3  -5  111.09    7.80
  -2  -3   5  114.09    6.80
  -2   3   4   30.20    4.00
   2   3  -4   34.00    3.90
   2   3  -4   28.50    3.30
  -2  -3   4   34.80    3.70
  -2  -3   4   34.10    3.50
   2   3  -3  115.39    5.70
  -2   3   3  100.59    6.20
   2   3  -3  108.19    6.00
   2  -3  -3  109.89    6.50
  -2  -3   3  109.69    5.40
  -2  -3   3  115.79    6.00
  -2   3   2   93.79    3.70
   2   3  -2   98.89    5.50
   2   3  -2   82.29    4.80
  -2   3   2   86.79    6.60
  -2  -3   2   91.19    5.40
   2  -3  -2  101.39    5.80
   2  -3  -2   94.79    4.00
  -2  -3   2  102.99    4.70
   2   3  -1  469.85   17.00
  -2   3   1  480.55   16.50
   2   3  -1  502.25   17.60
   2  -3  -1  497.45   16.70
  -2  -3   1  500.15   17.70
   2  -3  -1  484.55   17.60
  -2  -3   1  494.55   16.80
   2   3   0 2233.68   65.19
  -2   3   0 1963.60   64.09
   2   3   0 1965.40   64.19
  -2  -3   0 1983.20   64.59
   2  -3   0 1989.20   64.29
   2  -3   0 1979.20   64.19
  -2  -3   0 1986.40   64.09
   2   3   1  571.14   20.20
   2   3   1  566.54   20.00
  -2   3  -1  583.44   19.40
  -2  -3  -1  597.34   20.10
   2  -3   1  582.94   20.50
  -2  -3  -1  514.45   19.90
   2  -3   1  565.84   20.10
   2  -3   1  578.74   19.50
  -2   3  -2   24.60    2.40
   2   3   2   25.90    3.20
   2   3   2   22.30    3.00
  -2  -3  -2   22.30    3.30
   2  -3   2   21.40    2.80
   2  -3   2   27.00    3.40
  -2  -3  -2   22.10    3.10
   2  -3   2   15.30    3.40
   2   3   3  103.59    6.70
   2   3   3  117.89    6.60
   2  -3   3  115.29    8.20
   2  -3   3  115.59    7.00
  -2  -3  -3  105.89    7.30
   2  -3   3  117.39    4.90
   2   3   4   76.19    5.60
   2   3   4   64.59    6.20
   2  -3   4   71.39    6.30
   2  -3   4   73.59    7.90
  -2  -3  -4   63.19    6.50
   2   3   5   25.80    3.70
   2   3   5   19.00    4.50
   2   3   5    9.80    5.80
   2   3   5   22.60    4.10
   2  -3   5   21.70    4.90
   2  -3   5   19.50    6.20
   2   3   6    1.60    3.40
   2   3   6   -1.30    5.20
   2   3   6    2.70    3.50
   2  -3   6    0.00    4.70
   2   3   7   11.60    6.80
   2  -3   7    2.90   11.20
   2   3   8    3.90    8.80
   2  -3   8   19.90    8.40
  -2   4   9   -2.00    6.30
  -2   4   8   -4.20    5.00
  -2  -4   8   -4.50    4.30
  -2  -4   8    2.90    4.20
  -2   4   7   59.09    5.20
  -2   4   7   62.29    5.80
  -2  -4   7   64.69    7.30
  -2  -4   7   55.89    6.20
  -2  -4   7   54.79    5.90
  -2   4   6   -0.10    2.40
  -2   4   6    4.60    3.50
  -2   4   6    1.80    2.10
  -2  -4   6    0.60    4.30
  -2  -4   6    2.50    2.90
  -2  -4   6    3.00    2.40
   2   4  -5  159.88    8.10
  -2   4   5  172.28    6.20
   2   4  -5  177.38    8.80
  -2   4   5  166.68    9.40
  -2   4   5  162.48    6.10
  -2  -4   5  163.88    8.30
   2  -4  -5  152.18    9.30
   2   4  -4    0.00    2.90
  -2   4   4    1.30    2.10
   2   4  -4    4.00    2.30
   2  -4  -4   -4.20    3.00
  -2  -4   4   -0.20    1.60
  -2  -4   4    1.00    2.60
  -2   4   3   35.40    4.10
   2   4  -3   43.90    4.40
   2   4  -3   40.70    3.90
  -2  -4   3   32.90    3.70
   2  -4  -3   38.30    1.80
   2  -4  -3   35.70    4.50
  -2  -4   3   38.70    3.70
   2   4  -2   34.20    3.80
  -2   4   2   37.80    2.40
   2   4  -2   39.10    3.70
  -2   4   2   28.10    5.50
  -2  -4   2   43.00    3.60
   2  -4  -2   41.50    4.10
  -2  -4   2   38.80    3.70
   2  -4  -2   35.10    2.70
   2   4  -1 1470.35   48.20
  -2   4   1 1490.15   47.30
   2   4  -1 1444.16   47.80
  -2  -4   1 1477.75   47.60
  -2  -4   1 1456.45   48.30
   2  -4  -1 1523.55   47.50
  -2   4   0 1524.05   49.00
   2   4   0 1489.15   49.30
  -2  -4   0 1533.95   48.90
   2  -4   0 1594.64   49.30
   2  -4   0 1460.35   49.00
  -2  -4   0 1482.45   49.40
   2   4   1  142.99    7.20
  -2   4  -1  155.38    6.60
  -2   4  -1  150.68    7.50
   2   4   1  151.38    7.30
  -2  -4  -1  149.49    7.20
   2  -4   1  146.49    6.60
   2  -4   1  155.78    8.00
  -2   4  -2   96.49    6.40
   2   4   2   94.79    5.70
   2   4   2   97.79    6.00
  -2   4  -2   97.39    4.50
   2  -4   2   95.79    6.90
  -2  -4  -2  100.89    6.00
   2  -4   2  100.09    5.10
   2  -4   2  100.99    6.00
  -2  -4  -2   97.59    6.00
   2   4   3   32.10    4.10
   2   4   3   30.90    4.50
   2  -4   3   28.20    2.50
   2  -4   3   31.50    5.30
   2  -4   3   30.00    3.90
  -2  -4  -3   25.80    4.20
   2   4   4   68.39    6.40
   2   4   4   69.49    6.10
   2   4   4   63.59    5.90
  -2  -4  -4   73.49    7.00
   2  -4   4   70.39    8.10
   2  -4   4   74.29    6.70
   2   4   5   26.80    3.90
   2   4   5   20.10    4.00
   2   4   5   17.80    4.60
  -2  -4  -5   18.80    5.30
   2  -4   5   17.80    7.50
   2  -4   5   19.50    4.50
   2   4   6   -2.90    3.70
   2   4   6    0.30    5.20
   2   4   6   -0.10    3.80
   2  -4   6    2.90    5.00
   2   4   7   12.50    4.70
   2   4   7    3.00    4.70
   2   4   7   -4.90    6.90
   2  -4   7    2.60    6.40
   2   4   8   11.50    9.20
   2  -4   8   13.50    8.70
  -2   5   9  -10.20    6.70
  -2   5   8    5.90    5.70
  -2  -5   8    4.80    4.40
  -2  -5   8   -0.10    4.30
  -2   5   7   -2.20    2.80
  -2   5   7    2.50    3.30
  -2  -5   7    5.80    6.00
  -2  -5   7   -1.60    3.40
  -2  -5   7    5.20    3.60
  -2   5   6  284.37   13.90
   2   5  -6  266.77   12.30
  -2   5   6  283.27   10.30
  -2   5   6  270.17   10.40
  -2  -5   6  274.87   13.20
  -2  -5   6  275.57   13.70
  -2   5   5   24.10    2.80
   2   5  -5   29.00    4.50
  -2   5   5   27.30    4.60
   2   5  -5   31.00    3.60
  -2   5   5   26.40    2.60
  -2  -5   5   24.40    3.60
  -2  -5   5   27.40    4.60
   2  -5  -5   21.40    4.60
  -2   5   4    2.80    1.30
  -2   5   4   -0.10    2.00
   2   5  -4    4.70    2.40
   2   5  -4    1.30    3.50
  -2  -5   4   -1.10    4.70
  -2  -5   4    2.90    1.90
   2  -5  -4   -5.60    2.30
   2  -5  -4    1.70    1.00
   2   5  -3  315.57   12.70
   2   5  -3  320.57   12.40
  -2   5   3  311.57   10.80
  -2   5   3  281.27   13.00
  -2  -5   3  316.67   12.60
   2  -5  -3  307.27   13.40
  -2  -5   3  312.37   12.40
   2  -5  -3  323.77   10.70
  -2   5   2   24.30    2.50
   2   5  -2   19.70    3.10
   2   5  -2   31.60    3.80
   2  -5  -2   51.09    7.00
  -2  -5   2   32.10    3.50
  -2  -5   2   25.60    3.40
   2  -5  -2   29.60    3.00
  -2   5   1   61.99    4.00
  -2   5   1   62.49    4.70
   2   5  -1   63.49    4.50
   2   5  -1   69.29    4.70
   2  -5  -1   59.79    4.60
  -2  -5   1   63.89    5.00
   2  -5  -1   59.49    4.30
  -2  -5   1   61.79    4.50
   2   5   0 1774.52   58.79
   2   5   0 1818.92   58.59
  -2   5   0 1694.63   59.49
  -2  -5   0 1868.31   58.39
   2  -5   0 1765.82   59.99
  -2  -5   0 1884.91   59.09
   2  -5   0 1870.31   58.69
   2   5   1  598.94   21.30
  -2   5  -1  604.64   20.40
   2   5   1  574.14   21.20
  -2   5  -1  561.84   21.30
  -2  -5  -1  632.64   21.30
   2  -5   1  570.24   20.50
   2  -5   1  609.74   21.90
   2   5   2   74.19    5.40
   2   5   2   73.49    5.50
  -2   5  -2   64.79    5.70
  -2   5  -2   76.39    3.90
   2  -5   2   80.19    4.60
   2  -5   2   84.19    6.30
  -2  -5  -2   76.59    5.60
  -2  -5  -2   77.19    5.60
   2   5   3   42.50    5.20
   2   5   3   41.30    4.70
  -2  -5  -3   49.00    5.60
   2  -5   3   41.40    4.90
   2  -5   3   41.80    6.10
   2  -5   3   36.80    2.90
   2   5   4   14.50    3.80
   2   5   4   17.40    6.50
   2   5   4   17.50    4.00
  -2  -5  -4    7.40    3.70
   2  -5   4   10.00    3.40
   2  -5   4   11.50    4.60
   2   5   5   16.80    4.50
   2   5   5   14.10    3.60
   2   5   5    8.20    3.50
  -2  -5  -5    4.60    5.00
   2  -5   5   14.10    4.80
   2   5   6   60.79    8.10
   2   5   6   65.49    7.50
   2   5   6   50.29    6.20
   2  -5   6   54.89    7.90
   2   5   7   -2.10    6.90
   2   5   7    0.70    4.80
   2   5   7   -7.80    5.20
   2  -5   7    4.40    7.10
   2   5   8   -3.10    5.70
   2   5   8    2.30   10.00
   2   5   8   10.20    6.80
   2  -5   8   13.60    9.10
  -2   6   9    5.70    7.30
  -2   6   8   10.80    6.30
  -2  -6   8    9.00    5.10
  -2  -6   8   10.30    4.60
  -2   6   7   12.50    3.30
  -2   6   7   13.50    3.50
  -2  -6   7   15.30    6.60
  -2  -6   7   14.10    4.10
  -2  -6   7   17.30    4.40
  -2   6   6   36.40    4.50
  -2   6   6   37.90    6.00
  -2   6   6   34.50    4.00
   2   6  -6   42.10    5.60
  -2  -6   6   34.80    6.10
  -2  -6   6   44.10    5.20
  -2   6   5    2.00    3.40
  -2   6   5   -0.80    2.00
   2   6  -5    0.30    3.30
   2   6  -5   -0.40    2.70
  -2  -6   5    6.10    4.00
  -2  -6   5   -1.20    2.40
   2  -6  -5    4.90    4.20
   2   6  -4   20.60    3.40
   2   6  -4   19.20    4.20
  -2   6   4   20.40    3.60
  -2   6   4   24.20    2.80
  -2  -6   4   22.70    3.30
   2  -6  -4   27.50    4.30
   2  -6  -4   20.50    2.30
  -2  -6   4   30.60    4.20
  -2   6   3  455.85   18.40
  -2   6   3  475.35   16.10
   2   6  -3  493.35   17.90
   2   6  -3  475.15   17.50
  -2  -6   3  463.55   17.60
   2  -6  -3  470.85   15.90
   2  -6  -3  481.45   18.80
  -2  -6   3  434.96   18.70
   2   6  -2  400.36   15.50
   2   6  -2  402.16   15.20
  -2   6   2  395.16   14.10
  -2   6   2  451.15   19.20
   2  -6  -2  372.06   15.70
   2  -6  -2  369.96   14.10
  -2  -6   2  381.66   15.20
   2   6  -1  250.17   10.90
  -2   6   1  258.37   10.40
   2   6  -1  260.37   10.90
   2  -6  -1  290.97   11.90
  -2  -6   1  241.48   10.80
   2  -6  -1  235.28   10.30
  -2   6   0  164.88    7.80
   2   6   0  159.78    8.10
  -2  -6   0  175.28    8.10
   2  -6   0  162.68    8.20
   2  -6   0  170.78    7.90
  -2  -6   0  156.68    8.30
   2   6   1  144.09    7.50
  -2   6  -1  148.09    6.80
   2   6   1  149.19    7.70
  -2   6  -1  150.58    7.50
   2  -6   1  133.99    6.80
   2  -6   1  146.89    8.30
  -2  -6  -1  137.19    7.30
  -2  -6  -1  137.29    7.70
   2   6   2   64.49    5.00
  -2   6  -2   70.39    5.50
  -2   6  -2   67.19    3.90
   2   6   2   51.69    5.30
  -2  -6  -2   62.19    5.50
   2  -6   2   69.89    4.80
  -2  -6  -2   63.29    5.50
   2  -6   2   63.19    6.50
   2   6   3  224.48   10.60
   2   6   3  205.18   10.40
  -2   6  -3  214.88   11.10
   2  -6   3  213.58   12.00
   2  -6   3  222.48    8.50
  -2  -6  -3  218.68   10.70
   2   6   4   65.09    6.40
   2   6   4   60.69    7.10
   2   6   4   68.99    6.50
   2  -6   4   56.19    6.20
  -2  -6  -4   60.09    6.40
   2   6   5   -0.60    3.50
   2   6   5    6.00    4.00
   2   6   5    2.50    4.00
   2  -6   5   -1.70    4.00
  -2  -6  -5    0.20    4.70
   2   6   6   -2.30    4.20
   2   6   6   -7.00    5.40
   2   6   6   -0.10    4.50
   2  -6   6    3.80    5.60
   2   6   7   15.20    5.80
   2   6   7    1.40    7.40
   2   6   7   16.90    6.10
   2  -6   7   11.70    7.30
   2   6   8   11.10   10.70
   2   6   8    3.70    6.30
   2  -6   8    2.60    9.20
  -2   7   9    2.30    7.90
  -2   7   8    3.90    7.10
  -2  -7   8   -3.20    5.10
  -2  -7   8   12.60    4.80
  -2   7   7   64.89    6.10
   2   7  -7   70.29    7.80
  -2   7   7   62.49    5.80
  -2  -7   7   79.69    9.50
  -2  -7   7   63.89    7.20
  -2  -7   7   66.09    7.30
  -2   7   6   32.20    5.30
  -2   7   6   35.00    4.00
   2   7  -6   35.50    5.60
  -2   7   6   37.20    4.10
  -2  -7   6   42.90    5.70
  -2  -7   6   38.40    6.40
  -2   7   5   32.50    5.50
  -2   7   5   33.10    3.40
   2   7  -5   31.50    4.70
   2   7  -5   30.30    3.90
   2  -7  -5   32.40    3.20
  -2  -7   5   33.30    5.80
  -2  -7   5   29.20    4.30
   2   7  -4   20.20    3.40
   2   7  -4   16.60    4.10
  -2   7   4   27.50    5.20
  -2   7   4   20.20    2.70
  -2  -7   4   17.40    3.00
  -2  -7   4   18.70    4.30
   2  -7  -4   12.00    4.10
   2  -7  -4   16.60    2.40
   2   7  -3  231.58   10.30
  -2   7   3  211.68   11.10
  -2   7   3  223.88    9.30
   2   7  -3  232.48   11.00
  -2  -7   3  250.47   11.00
   2  -7  -3  246.08   11.80
   2  -7  -3  225.58    9.10
  -2  -7   3  239.48   10.50
  -2   7   2   62.79    5.50
  -2   7   2   54.99    4.50
   2   7  -2   54.59    5.40
   2   7  -2   70.09    5.10
   2  -7  -2   58.69    4.70
  -2  -7   2   64.39    4.90
  -2  -7   2   61.79    5.30
   2  -7  -2   56.89    5.40
   2   7  -1 1016.70   34.10
  -2   7   1 1018.90   34.40
   2   7  -1  967.80   34.00
  -2  -7   1  958.50   34.40
  -2  -7   1 1027.10   33.90
   2  -7  -1  995.10   33.60
   2  -7  -1  977.50   34.30
  -2   7   0   84.49    5.50
   2   7   0   98.69    6.40
   2   7   0   75.89    5.50
  -2  -7   0   88.79    6.10
   2  -7   0   77.49    6.20
   2  -7   0   71.49    5.20
  -2  -7   0   81.89    5.80
  -2   7  -1    0.30    2.20
   2   7   1    3.30    2.10
   2   7   1    5.60    2.60
  -2   7  -1    2.20    1.90
   2  -7   1    1.40    3.30
   2  -7   1    4.50    2.10
  -2  -7  -1    1.70    2.50
  -2  -7  -1    2.20    2.00
  -2   7  -2   38.70    5.10
   2   7   2   37.30    4.20
  -2   7  -2   29.60    3.40
   2   7   2   24.20    3.90
  -2  -7  -2   30.90    4.20
   2  -7   2   32.30    3.80
   2  -7   2   26.80    4.90
  -2  -7  -2   34.90    4.60
  -2   7  -3  107.99    8.40
   2   7   3  103.99    7.50
   2   7   3  104.29    7.70
   2  -7   3  110.89    5.60
   2  -7   3  117.19    9.50
  -2  -7  -3  113.19    7.70
   2   7   4   21.60    4.80
   2   7   4   15.90    4.20
   2   7   4   14.90    3.90
   2  -7   4   12.50    3.80
   2  -7   4   22.90    6.50
  -2  -7  -4    9.60    4.00
   2   7   5   16.90    4.80
   2   7   5   24.20    5.50
   2  -7   5   30.10    5.60
  -2  -7  -5   17.60    5.70
   2   7   6   97.79    9.50
   2   7   6  111.89   11.30
   2  -7   6  115.99   11.40
   2   7   7    5.30    8.90
   2   7   7    5.40    6.50
   2  -7   7   -5.40    7.30
   2   7   8   -6.80   11.00
   2   7   8   10.20    7.10
   2  -7   8    6.20    9.60
  -2   8   9   -2.80    8.00
  -2   8   8   14.10    8.10
  -2  -8   8   19.00    5.10
   2   8  -7   12.60    5.90
  -2   8   7    5.00    3.90
  -2   8   7   -2.10    6.00
  -2   8   7    0.10    3.40
  -2  -8   7    6.90    4.30
  -2  -8   7  -12.10    7.70
   2   8  -6   15.40    5.30
  -2   8   6   17.80    3.80
  -2   8   6   11.00    5.10
  -2  -8   6   22.30    3.90
  -2  -8   6   36.30    6.90
   2   8  -5    2.70    4.00
   2   8  -5    5.70    2.90
  -2   8   5    2.20    3.60
  -2   8   5    2.20    2.70
   2  -8  -5    3.30    4.30
  -2  -8   5    6.40    4.70
  -2  -8   5    6.60    2.90
   2  -8  -5    6.50    2.30
  -2   8   4    7.50    2.60
  -2   8   4   10.40    3.40
   2   8  -4    8.60    2.80
   2   8  -4    8.90    4.00
   2  -8  -4   10.60    2.30
  -2  -8   4   15.60    4.40
   2  -8  -4   18.70    4.20
  -2  -8   4    9.10    2.80
  -2   8   3    6.30    2.70
   2   8  -3    1.90    3.00
   2   8  -3    3.40    2.10
  -2   8   3   -1.60    2.50
  -2  -8   3    4.20    3.40
   2  -8  -3    3.50    3.50
   2  -8  -3    4.10    2.30
  -2  -8   3    4.10    1.90
  -2   8   2   20.20    3.90
   2   8  -2   30.90    4.20
   2   8  -2   28.70    4.40
  -2   8   2   30.60    3.80
  -2  -8   2   21.60    3.50
  -2  -8   2   22.90    4.10
   2  -8  -2   35.70    4.80
   2  -8  -2   32.70    3.90
   2   8  -1  958.20   33.00
  -2   8   1  936.51   32.30
  -2   8   1  941.21   33.10
   2   8  -1  934.01   32.90
   2  -8  -1  897.61   33.00
  -2  -8   1  978.30   33.20
   2  -8  -1  931.21   32.30
  -2  -8   1  979.20   32.80
   2   8   0   12.00    2.80
  -2   8   0   14.10    3.10
   2   8   0   13.30    2.90
  -2   8   0   10.90    2.60
   2  -8   0   13.80    3.70
   2  -8   0    9.70    2.50
  -2  -8   0    5.20    2.80
  -2  -8   0    5.60    2.70
  -2   8  -1  202.18    9.10
   2   8   1  197.68    9.90
   2   8   1  195.48   10.00
  -2   8  -1  204.38    9.90
   2  -8   1  197.98    9.20
  -2  -8  -1  202.58    9.80
  -2  -8  -1  196.28   10.30
   2  -8   1  192.08   10.50
  -2   8  -2   90.89    5.40
   2   8   2   96.69    7.10
  -2   8  -2   96.69    7.00
   2   8   2   90.89    6.80
   2  -8   2   89.19    6.00
  -2  -8  -2   84.59    6.80
   2  -8   2   82.89    8.30
   2   8   3  346.17   15.40
  -2   8  -3  345.97   15.60
   2   8   3  361.06   15.60
   2  -8   3  361.86   17.20
  -2  -8  -3  347.17   14.90
   2  -8   3  342.77   13.30
   2   8   4   54.39    7.10
   2   8   4   66.19    7.40
   2   8   4   86.29    8.00
  -2   8  -4   68.79    7.90
   2  -8   4   58.59    8.20
  -2  -8  -4   60.39    6.80
   2   8   5    6.30    4.90
   2   8   5    9.40    5.10
   2  -8   5    5.30    4.80
   2   8   6   42.30    8.00
   2   8   6   47.80    7.20
   2  -8   6   31.90    7.30
   2   8   7    5.90    7.60
   2   8   7    5.20    6.10
   2  -8   7   19.80    8.30
   2   8   8    2.20   11.90
   2   8   8   -1.70    7.00
   2  -8   8    8.40   10.00
  -2   9   9   14.20    8.50
  -2   9   8   22.90    8.30
  -2  -9   8    9.60    5.30
  -2  -9   8    8.60    5.90
   2   9  -7   56.79    8.00
  -2   9   7   48.10    5.80
  -2   9   7   50.69    6.30
  -2   9   7   48.60    8.70
  -2  -9   7   46.00    9.50
  -2  -9   7   56.99    6.30
  -2   9   6   23.40    4.80
  -2   9   6   24.00    5.50
   2   9  -6   34.40    6.50
   2  -9  -6   29.00    4.10
  -2  -9   6   38.30    7.20
  -2  -9   6   23.60    4.30
  -2   9   5   28.60    4.40
   2   9  -5   27.50    5.30
   2   9  -5   18.60    3.80
  -2   9   5   31.70    6.00
   2  -9  -5   24.80    3.30
  -2  -9   5   32.20    6.10
   2  -9  -5   23.70    5.60
  -2  -9   5   25.70    4.10
   2   9  -4   53.29    6.30
   2   9  -4   58.09    5.50
  -2   9   4   60.39    5.90
  -2   9   4   62.29    6.80
  -2  -9   4   71.49    7.00
   2  -9  -4   63.29    7.20
   2  -9  -4   61.79    5.00
  -2  -9   4   54.29    5.70
   2   9  -3   71.09    5.90
  -2   9   3   77.79    7.00
   2   9  -3   84.59    7.10
  -2  -9   3   72.19    5.90
   2  -9  -3   84.09    5.80
  -2  -9   3   76.09    7.00
   2  -9  -3   76.09    7.00
   2   9  -2   13.50    3.80
  -2   9   2    8.30    2.80
   2   9  -2    9.00    3.00
  -2   9   2    4.00    2.80
   2  -9  -2    2.70    3.00
  -2  -9   2    5.00    2.80
   2  -9  -2   12.30    5.60
  -2  -9   2    3.10    3.60
   2   9  -1  399.66   16.10
  -2   9   1  389.16   15.60
   2   9  -1  392.56   16.30
  -2   9   1  351.06   16.10
  -2  -9   1  366.86   16.10
  -2  -9   1  405.26   16.10
   2  -9  -1  406.96   15.90
   2  -9  -1  453.25   17.60
   2   9   0   10.40    3.20
  -2   9   0    7.70    3.20
   2   9   0    5.30    2.70
  -2   9   0   15.60    3.20
  -2  -9   0   10.90    3.80
  -2  -9   0   10.50    3.50
   2  -9   0    6.20    2.50
   2  -9   0   10.80    4.00
   2   9   1  326.67   13.90
  -2   9  -1  311.57   12.90
  -2   9  -1  313.27   13.80
   2   9   1  294.07   13.80
  -2  -9  -1  310.27   13.40
   2  -9   1  319.27   13.40
  -2  -9  -1  312.97   14.40
   2  -9   1  324.67   15.00
  -2   9  -2  208.28   10.90
  -2   9  -2  199.88    9.00
   2   9   2  205.18   10.80
   2   9   2  199.88   10.60
  -2  -9  -2  197.08   10.20
   2  -9   2  209.78   12.20
   2  -9   2  200.98    9.60
   2   9   3  115.19    8.40
   2   9   3  128.19    9.10
  -2   9  -3  134.49    9.30
   2  -9   3  132.39    6.70
  -2  -9  -3  117.09    8.10
   2  -9   3  132.59   10.20
  -2   9  -4   73.39    9.00
   2   9   4   91.09    8.90
   2   9   4   84.09    8.00
   2   9   4   65.09    8.10
  -2  -9  -4   70.59    8.40
   2   9   5    6.00    6.10
   2   9   5   -6.20    4.90
   2  -9   5    6.30    4.90
   2   9   6    5.30    5.80
   2   9   6    2.80    6.80
   2  -9   6    1.00    7.20
   2   9   7   -1.30    6.50
   2   9   7   -5.20    8.90
   2  -9   7   -7.60    7.60
  -2  10   9   -5.90    8.10
  -2  10   8   -4.80    8.50
  -2 -10   8   -3.00    6.00
  -2 -10   8    4.30    5.60
  -2  10   7    4.10    7.00
   2  10  -7   11.80    6.40
  -2 -10   7   22.00    9.60
  -2 -10   7    0.40    4.40
   2  10  -6   51.59    8.20
  -2  10   6   33.90    6.90
   2  10  -6   44.00    5.20
  -2  10   6   44.50    5.60
  -2 -10   6   36.50    8.00
  -2  10   5   75.79    8.40
  -2  10   5   77.19    6.60
   2  10  -5   73.79    8.70
  -2 -10   5   65.59    6.60
   2 -10  -5   59.49    9.10
  -2 -10   5   62.49    7.60
  -2  10   4   56.99    7.40
  -2  10   4   55.19    5.70
   2  10  -4   61.29    5.90
   2  10  -4   65.69    7.40
  -2 -10   4   63.49    7.10
  -2 -10   4   69.89    6.10
   2 -10  -4   62.09    7.10
   2 -10  -4   53.79    6.00
  -2  10   3    6.30    2.70
   2  10  -3   10.90    2.90
   2  10  -3   13.00    4.30
  -2  10   3   11.40    3.40
   2 -10  -3    7.30    4.20
  -2 -10   3    8.70    2.80
   2 -10  -3   14.50    3.40
  -2 -10   3   14.10    4.30
  -2  10   2  767.32   27.80
  -2  10   2  810.82   29.70
   2  10  -2  778.12   28.30
   2  10  -2  778.02   29.00
   2 -10  -2  791.82   28.10
  -2 -10   2  822.02   29.00
  -2 -10   2  769.12   28.60
  -2  10   1    3.30    3.30
  -2  10   1    3.50    2.70
   2  10  -1   -2.90    3.20
   2  10  -1    5.50    3.20
  -2 -10   1   -0.40    3.70
   2 -10  -1    2.00    3.30
  -2 -10   1    0.40    3.00
   2 -10  -1   -1.30    4.30
   2  10   0   68.89    7.90
  -2  10   0   45.00    5.30
   2  10   0   56.89    5.80
  -2  10   0   50.39    5.10
  -2 -10   0   59.09    6.20
   2 -10   0   60.39    5.60
   2 -10   0   48.00    6.00
  -2  10  -1  322.07   14.20
   2  10   1  308.77   14.30
  -2  10  -1  317.87   13.20
   2  10   1  301.17   13.90
   2 -10   1  325.27   15.30
   2 -10   1  312.47   13.60
  -2 -10  -1  278.87   14.20
  -2 -10  -1  318.77   14.00
  -2  10  -2  131.39    7.10
   2  10   2  118.79    8.60
   2  10   2  124.79    8.50
  -2  10  -2  120.59    8.60
  -2 -10  -2  108.59    8.10
   2 -10   2  117.79    7.60
   2 -10   2  103.89   10.10
   2  10   3    4.10    3.60
  -2  10  -3    7.30    2.40
   2  10   3    4.90    4.30
   2  10   3    3.60    4.30
  -2  10  -3    6.20    4.10
  -2  10  -3    8.90    2.50
   2 -10   3    7.70    3.00
   2 -10   3    1.10    6.10
  -2 -10  -3    4.00    3.80
   2  10   4  138.79   10.40
   2  10   4  126.69   10.50
   2  10   4  123.69   10.00
  -2  10  -4  136.39   11.10
  -2 -10  -4  138.29   10.20
  -2  10  -5    3.40    6.10
   2  10   5    3.40    5.70
   2  10   5   21.20    6.40
   2 -10   5    6.50    5.20
   2  10   6   19.60    7.70
   2  10   6   16.20    6.50
   2  10   6   22.60    6.90
   2 -10   6   22.10    6.50
   2  10   7   -6.10    9.10
   2  10   7    5.20    7.30
   2 -10   7    0.80    8.60
   2  11  -8   -2.90    9.70
  -2  11   8   14.90    8.20
  -2 -11   8    2.80    6.30
  -2  11   7   30.30    5.60
   2  11  -7   30.80    7.80
  -2  11   7   16.10    7.30
  -2 -11   7   29.30    5.70
   2  11  -6   20.00    4.90
   2  11  -6    0.80    6.50
  -2  11   6   20.90    4.40
  -2  11   6    6.30    5.30
  -2 -11   6   15.90    4.40
   2 -11  -6   12.10    4.10
  -2 -11   6    6.00    8.00
  -2  11   5   22.00    5.90
   2  11  -5   17.50    5.80
  -2  11   5    9.90    3.80
  -2 -11   5   11.40    3.60
  -2 -11   5   21.80    6.40
   2 -11  -5   12.60    3.60
   2  11  -4   50.19    6.00
   2  11  -4   56.29    7.10
  -2  11   4   37.00    6.10
  -2  11   4   50.89    5.80
  -2 -11   4   64.39    7.60
   2 -11  -4   47.30    6.80
   2 -11  -4   55.19    5.90
  -2 -11   4   49.00    5.80
  -2  11   3   -1.30    3.00
   2  11  -3    1.50    2.90
  -2  11   3   -3.10    2.70
   2  11  -3    3.80    3.90
  -2 -11   3    0.00    4.20
   2 -11  -3   -6.50    3.70
  -2 -11   3    2.50    3.00
   2 -11  -3    6.60    3.40
  -2  11   2    8.70    8.20
   2  11  -2   -1.10    3.40
  -2  11   2    4.90    2.60
   2  11  -2    0.20    2.40
   2 -11  -2    4.10    3.90
  -2 -11   2   -2.00    4.00
   2 -11  -2    1.70    3.20
  -2 -11   2    1.30    2.60
   2  11  -1  143.79    9.20
  -2  11   1  139.69    8.40
  -2  11   1  147.39    9.50
   2 -11  -1  142.49    9.20
  -2 -11   1  148.39    9.40
  -2 -11   1  142.19    9.10
   2 -11  -1  143.69    9.30
   2  11   0  143.79    9.10
  -2  11   0  148.89    9.00
  -2  11   0  147.19    9.10
   2  11   0  153.98    9.50
   2 -11   0  160.48    9.30
  -2 -11   0  162.78    9.50
  -2 -11   0  191.38   11.50
   2 -11   0  152.98   10.10
   2  11   1  218.58   11.30
   2  11   1  234.08   11.90
  -2  11  -1  219.48   10.70
  -2  11  -1  212.18   11.40
  -2 -11  -1  208.78   12.10
  -2 -11  -1  220.08   11.30
   2 -11   1  211.28   12.60
   2 -11   1  213.68   10.90
   2  11   2    3.30    3.90
  -2  11  -2    0.20    3.10
  -2  11  -2    3.30    3.90
   2  11   2    4.40    3.90
  -2  11  -2    2.30    2.80
   2 -11   2    2.30    2.90
  -2 -11  -2    0.20    3.70
   2 -11   2    2.70    5.40
  -2  11  -3   -0.50    2.50
  -2  11  -3    6.70    2.90
   2  11   3   -3.90    3.90
   2  11   3    1.20    4.00
   2  11   3    3.80    3.70
  -2  11  -3    2.60    4.20
  -2 -11  -3    0.00    4.40
   2 -11   3    6.90    6.40
   2 -11   3    2.80    2.90
  -2  11  -4   18.10    5.80
   2  11   4    8.70    5.20
   2  11   4    9.90    5.20
   2  11   4    6.30    5.10
  -2 -11  -4    8.70    5.80
   2  11   5    1.50    5.80
  -2  11  -5   -4.70    5.70
   2  11   5    6.50    5.90
   2  11   6    7.60    6.20
   2  11   6    0.30    7.30
   2  11   6    3.60    7.90
   2 -11   6   -0.80    6.40
   2  11   7   -1.70    7.70
   2  11   7    3.80   10.30
   2 -11   7    5.10    8.30
   2  12  -8    5.70   10.30
  -2  12   8   13.20    8.80
  -2 -12   8    7.30    6.40
  -2  12   7    3.00    5.20
   2  12  -7   -4.60    7.70
  -2  12   7    6.70    7.10
  -2 -12   7    0.10    4.90
  -2  12   6    9.20    4.30
   2  12  -6    8.80    7.20
   2  12  -6    7.30    4.90
   2 -12  -6   -4.50    4.20
  -2 -12   6   -8.80    5.80
  -2 -12   6    6.50    8.30
   2  12  -5   14.70    6.00
  -2  12   5    7.00    3.60
  -2  12   5    7.80    4.60
  -2 -12   5   15.40    6.90
  -2 -12   5    9.00    3.50
   2 -12  -5    1.50    3.70
  -2  12   4   -0.10    4.40
   2  12  -4    4.40    3.20
  -2  12   4    0.50    3.20
   2  12  -4    2.40    4.80
  -2 -12   4    5.50    5.20
   2 -12  -4    3.20    3.50
   2 -12  -4    0.10    3.40
  -2 -12   4   -1.70    3.20
  -2  12   3  127.09   11.80
   2  12  -3   91.59    8.50
  -2  12   3   87.19    6.80
   2  12  -3   90.29    7.30
   2 -12  -3   94.49    7.70
  -2 -12   3   88.29    7.50
   2 -12  -3  109.09   11.90
  -2 -12   3   95.49    9.10
   2  12  -2  528.75   20.90
  -2  12   2  531.75   22.40
   2  12  -2  531.65   22.00
  -2  12   2  515.45   20.60
   2 -12  -2  506.55   20.90
   2 -12  -2  568.24   23.30
  -2 -12   2  531.85   21.60
  -2 -12   2  526.15   21.80
  -2  12   1  463.25   19.80
   2  12  -1  453.45   19.50
   2  12  -1  478.45   19.20
  -2  12   1  444.76   18.60
   2 -12  -1  471.05   19.40
  -2 -12   1  449.76   19.10
   2 -12  -1  472.45   19.80
  -2 -12   1  447.06   19.40
   2  12   0   91.59    7.60
  -2  12   0   97.59    7.60
  -2  12   0  104.49    7.40
  -2 -12   0  103.59    8.70
   2 -12   0   95.19    7.80
  -2 -12   0   99.59    8.60
   2 -12   0   89.99    8.90
   2  12   1  204.98   11.70
  -2  12  -1  199.08   11.10
  -2  12  -1  204.88   10.70
   2  12   1  193.88   11.50
  -2 -12  -1  226.48   11.80
  -2 -12  -1  211.58   13.00
   2 -12   1  203.68   12.50
   2 -12   1  221.18   11.20
  -2  12  -2    5.30    3.40
   2  12   2    2.70    3.60
   2  12   2   -5.40    3.30
  -2  12  -2    6.10    4.40
  -2  12  -2    0.40    3.20
   2 -12   2    8.00    3.60
  -2 -12  -2   12.60    4.10
   2 -12   2    8.90    6.10
  -2  12  -3   21.30    3.80
  -2  12  -3   23.60    3.60
   2  12   3   20.40    5.40
   2  12   3   26.80    6.00
   2  12   3   22.70    5.60
  -2  12  -3   21.40    5.20
  -2 -12  -3   14.40    5.30
   2 -12   3   24.70    4.40
   2  12   4    4.50    5.20
  -2  12  -4    5.50    5.50
   2  12   4   -7.20    5.20
  -2  12  -5   34.40    9.40
   2  12   5   29.20    7.20
   2  12   5   33.30    8.10
   2  12   6    5.70    8.40
   2  12   6    9.30    7.10
   2 -12   6    2.30    7.20
   2  12   7   -4.80    9.80
   2  12   7    1.20    8.10
   2 -12   7    0.20    9.10
   2  13  -8   -7.60   11.20
  -2  13   8    8.80    9.50
  -2 -13   8   -0.50    7.20
  -2  13   7   10.40    5.90
   2  13  -7    5.40    8.60
  -2  13   7    9.00    8.30
  -2 -13   7   12.90    5.80
   2  13  -6   42.10    9.00
   2  13  -6   48.90    6.70
  -2  13   6   27.30    8.20
  -2  13   6   41.80    5.90
   2 -13  -6   43.00    5.40
  -2  13   5   12.70    4.50
   2  13  -5   13.30    7.20
   2  13  -5   22.40    6.10
  -2  13   5   41.60    8.70
  -2 -13   5   17.70    7.60
   2 -13  -5   25.00    5.00
   2  13  -4    5.30    5.00
  -2  13   4    1.40    4.20
  -2  13   4    3.00    3.40
  -2 -13   4    1.00    4.10
   2 -13  -4    4.70    4.00
   2 -13  -4    1.50    4.00
  -2 -13   4   12.00    6.40
  -2  13   3  152.58   11.30
  -2  13   3  147.79    9.00
   2  13  -3  161.98   11.10
   2  13  -3  132.49    8.90
   2 -13  -3  149.19    9.50
  -2 -13   3  166.38   11.30
  -2 -13   3  145.99    9.80
  -2  13   2    3.50    3.10
   2  13  -2    0.90    4.30
   2  13  -2    6.30    4.10
  -2  13   2    7.20    4.50
   2 -13  -2    2.20    4.70
   2 -13  -2   -1.30    4.20
  -2 -13   2   -1.20    3.20
  -2 -13   2    5.60    5.10
   2  13  -1  530.25   21.50
  -2  13   1  496.75   21.70
  -2  13   1  465.25   20.30
   2  13  -1  526.35   21.00
  -2 -13   1  518.95   21.40
  -2 -13   1  522.25   21.40
   2 -13  -1  480.45   21.20
   2 -13  -1  520.95   21.30
   2  13   0    4.70    3.90
  -2  13   0    6.80    3.70
   2  13   0    6.60    3.80
  -2  13   0   11.20    4.40
  -2 -13   0   10.80    6.70
   2 -13   0   10.90    5.40
  -2 -13   0    0.50    4.20
   2 -13   0    1.60    3.30
   2  13   1   31.70    5.30
   2  13   1   36.50    6.50
  -2  13  -1   43.90    6.00
  -2  13  -1   47.20    6.20
   2 -13   1   38.10    6.20
  -2 -13  -1   37.50    5.90
   2 -13   1   33.10    5.20
  -2  13  -2    3.10    3.40
  -2  13  -2    4.80    3.60
   2  13   2    0.10    4.10
   2  13   2   -5.20    3.80
  -2  13  -2    2.20    4.20
   2  13   2   -2.40    5.10
   2 -13   2    3.10    6.30
   2 -13   2    2.00    3.90
  -2 -13  -2   -6.30    4.70
  -2  13  -3   46.90    5.80
   2  13   3   46.90    7.50
   2  13   3   58.29    7.80
  -2  13  -3   53.19    7.70
   2  13   3   42.00    6.60
  -2 -13  -3   50.19    7.20
   2 -13   3   58.29    6.60
   2  13   4   13.10    5.70
  -2  13  -4   29.90    7.10
   2  13   4    6.70    5.60
   2  13   4   18.30    5.80
   2  13   5   16.60    7.10
   2  13   5   13.60    6.90
  -2  13  -6    6.30    9.60
   2  13   6    9.80    7.60
   2  13   6   14.00   10.40
   2 -13   6   22.80    8.00
   2  13   7   19.90    9.30
   2  13   7    0.00   10.20
   2 -13   7    4.20   10.30
  -2  14   8    3.80   10.50
  -2  14   7    4.80    6.30
   2  14  -7   -5.10    8.60
  -2  14   7   -6.20    8.30
  -2 -14   7   11.70    6.50
   2  14  -6    0.30    7.80
  -2  14   6   10.40    5.40
   2  14  -6   15.90    6.10
   2 -14  -6   14.70    5.20
   2  14  -5    2.60    6.00
   2  14  -5  -11.20    6.60
  -2  14   5   -4.10    5.80
  -2  14   5   -2.40    4.30
   2 -14  -5    4.40    4.80
   2  14  -4   90.39   10.40
  -2  14   4   67.79    7.20
  -2  14   4   95.19   15.50
  -2 -14   4   58.19    6.70
   2 -14  -4   49.20    7.10
   2 -14  -4   62.59    6.70
  -2 -14   4   81.49    9.40
  -2  14   3   43.60    6.80
   2  14  -3   51.39    7.90
  -2  14   3   43.90    5.70
  -2 -14   3   58.89    7.60
   2 -14  -3   53.59    6.70
   2 -14  -3   40.30    7.70
  -2 -14   3   48.40    7.80
   2  14  -2  139.39    9.20
  -2  14   2  136.59   11.10
   2  14  -2  135.79   10.70
  -2  14   2  133.59    9.00
   2 -14  -2  137.49   10.70
  -2 -14   2  124.19   10.20
  -2 -14   2  138.79   10.10
   2 -14  -2  128.59    9.80
   2  14  -1  292.47   14.90
  -2  14   1  285.17   15.80
   2  14  -1  295.17   14.50
  -2  14   1  298.67   14.30
  -2 -14   1  302.47   14.80
  -2 -14   1  283.97   15.20
   2 -14  -1  293.07   15.20
   2  14   0  145.39   10.50
   2  14   0  147.09   10.50
  -2  14   0  147.59   10.10
  -2  14   0  160.88    9.80
  -2 -14   0  143.89   10.50
   2 -14   0  156.88   11.70
   2 -14   0  151.18   10.30
  -2  14  -1  205.68   11.60
   2  14   1  161.48   13.00
  -2  14  -1  205.88   11.40
   2  14   1  211.68   12.10
   2 -14   1  186.48   13.60
   2 -14   1  177.18   11.00
  -2 -14  -1  206.98   12.50
   2  14   2  382.46   18.70
  -2  14  -2  384.76   18.40
  -2  14  -2  357.66   16.10
   2  14   2  393.36   18.10
  -2  14  -2  393.86   16.60
   2  14   2  401.56   19.40
  -2 -14  -2  339.27   16.80
   2 -14   2  396.56   17.50
  -2  14  -3    8.30    3.90
   2  14   3    4.10    5.40
  -2  14  -3   20.90    6.10
   2  14   3   13.20    6.20
   2  14   3    8.10    4.70
   2 -14   3    3.30    3.80
   2  14   4    8.80    6.30
   2  14   4    3.00    5.30
   2  14   4   -0.30    5.10
  -2  14  -4   -4.80    6.20
  -2  14  -5   19.30   15.40
   2  14   5   27.50    7.50
   2  14   5    8.60    7.30
   2  14   5   19.50    7.20
  -2  14  -6    5.10    9.60
   2  14   6   -2.00    9.00
   2  14   6   -0.50    8.70
   2 -14   6   19.20    8.10
   2  14   7    3.10    9.10
   2  14   7    0.10   11.00
   2 -14   7    0.00   10.60
   2  15  -8    9.00   14.80
  -2  15   8   -1.00   10.10
   2  15  -7   33.80   10.70
  -2  15   7   15.70   10.10
  -2 -15   7   14.20    7.60
   2  15  -6    6.40    6.10
   2  15  -6   10.80    8.80
  -2  15   6   13.20    5.60
  -2 -15   6   15.60   10.00
   2  15  -5   11.80    6.70
  -2  15   5   -1.30    4.90
  -2  15   5   14.70    7.50
   2  15  -5   -7.90    7.00
   2 -15  -5   11.20    5.80
  -2  15   4    2.20    5.50
  -2  15   4    5.60    4.30
   2  15  -4    3.90    6.10
   2  15  -4   -2.50    5.70
   2 -15  -4   -1.70    5.20
  -2 -15   4    4.90    3.90
   2 -15  -4   -6.80    5.60
  -2  15   3   67.09   11.90
   2  15  -3   30.90    7.20
   2  15  -3   30.90    4.60
  -2  15   3   33.90    5.90
   2 -15  -3   44.90    6.40
   2 -15  -3   53.49    8.90
  -2 -15   3   38.00    7.30
  -2 -15   3   37.80    5.60
  -2  15   2   10.50    4.20
   2  15  -2   15.60    4.10
  -2  15   2    6.60    4.90
   2  15  -2   18.00    5.60
   2 -15  -2    3.80    4.50
   2 -15  -2   13.40    5.50
  -2 -15   2   16.40    6.60
  -2 -15   2   16.30    5.50
   2  15  -1  565.84   24.20
  -2  15   1  590.54   23.70
  -2  15   1  584.84   25.10
   2  15  -1  575.54   23.70
   2 -15  -1  566.54   24.00
  -2 -15   1  566.34   23.90
   2 -15  -1  570.04   24.60
  -2 -15   1  576.34   24.30
  -2  15   0   28.00    5.50
   2  15   0   23.60    5.10
  -2  15   0   19.70    5.00
   2  15   0   27.20    6.20
   2 -15   0   34.10    6.80
  -2 -15   0   26.10    6.40
   2 -15   0   30.20    6.20
  -2 -15   0   31.30    5.90
  -2  15  -1   76.29    8.90
   2  15   1   83.69    9.20
   2  15   1   78.79    8.70
  -2  15  -1   83.59    8.10
  -2  15  -1   67.99    8.80
   2  15   1   84.39    9.20
   2 -15   1   82.39    9.90
   2 -15   1   71.89    8.10
  -2 -15  -1   75.69    9.40
  -2  15  -2    2.30    3.90
  -2  15  -2    2.70    5.10
   2  15   2    2.80    5.80
   2  15   2   -6.10    5.10
   2  15   2    4.90    5.40
   2 -15   2   14.80    5.00
   2  15   3   39.70    7.60
   2  15   3   20.10    6.70
   2  15   3   37.90    7.70
  -2  15  -3   27.90    5.40
  -2  15  -3   26.30    7.90
   2  15   4   12.30    6.50
   2  15   4    6.70    6.60
   2  15   4    0.60    6.20
   2  15   5    4.10    7.90
  -2  15  -5    6.90    8.60
   2  15   5   16.60    7.30
   2  15   6   40.60   10.40
  -2  15  -6   28.80   11.20
   2  15   6   35.50   10.50
   2  15   7  -15.20   11.40
   2  15   7   19.10    9.90
   2 -15   7   -1.60   10.30
   2  16  -8    9.60   16.40
  -2  16   8    4.30   10.40
  -2  16   7   16.10   10.80
  -2 -16   7   10.30    7.90
   2  16  -6    5.60    9.20
  -2  16   6   13.00    6.60
   2  16  -6   15.20    9.60
  -2 -16   6    1.80    6.30
  -2  16   5   -0.80    5.70
   2  16  -5   -2.00    7.90
   2  16  -5    2.10    6.70
  -2  16   5    8.10    7.50
   2 -16  -5    3.90   12.90
   2  16  -4   -0.20    6.90
  -2  16   4   10.00    6.30
  -2  16   4    6.60    5.00
   2  16  -4   11.50    6.70
   2 -16  -4    0.80    7.80
  -2 -16   4   -8.10    4.30
   2 -16  -4    2.70    5.90
  -2  16   3   -1.00    4.50
   2  16  -3    0.20    6.20
   2  16  -3   -3.30    6.10
  -2  16   3    1.20    5.70
   2 -16  -3    3.90    5.60
   2 -16  -3   -2.30    6.10
  -2 -16   3    2.00    4.60
   2  16  -2   27.20    7.40
  -2  16   2   21.20    6.50
   2  16  -2   15.90    4.00
   2  16  -2   21.70    6.20
  -2  16   2   32.00    5.30
   2 -16  -2   11.50    5.10
  -2 -16   2   40.70    7.30
   2 -16  -2   23.00    6.90
   2  16  -1    2.30    4.60
  -2  16   1   20.30    5.30
   2  16  -1    9.90    5.70
   2  16  -1   13.20    7.30
  -2  16   1    6.60    5.90
  -2 -16   1   12.50    5.30
   2 -16  -1    0.50    5.50
  -2 -16   1   14.50    5.70
   2 -16  -1   11.00    6.30
  -2  16   0   -6.00    4.50
  -2  16   0    7.50    4.90
   2  16   0    0.30    8.80
   2  16   0   -1.50    5.20
   2  16   0    0.10    4.80
   2 -16   0   -1.40    7.00
   2 -16   0   -5.40    5.20
   2  16   1   54.09    7.90
   2  16   1   39.10    7.20
  -2  16  -1   36.70    5.90
  -2  16  -1   35.50    5.60
   2  16   1   45.90    7.30
  -2  16  -1   45.50    7.40
   2 -16   1   36.20    6.30
  -2  16  -2   14.70    5.70
  -2  16  -2   11.10    4.80
   2  16   2   14.00    6.00
   2  16   2   13.60    6.40
   2 -16   2   13.60    5.80
  -2  16  -3  129.49   10.40
   2  16   3  137.79   13.50
   2  16   3  138.29   11.90
  -2  16  -3  134.39   12.00
   2  16   3  135.29   13.80
   2  16   4   40.60    8.60
  -2  16  -4   55.19    5.90
   2  16   4   43.40    8.90
   2  16   5   21.90    8.80
  -2  16  -5   25.70    9.90
   2  16   5   24.00    9.00
  -2  16  -6   15.90   11.30
   2  16   6   -3.90   10.60
   2  16   6    8.40    9.00
   2  17  -7   -2.10   11.50
  -2  17   7    9.90   11.60
  -2  17   6   47.40    7.90
  -2  17   6   29.10   10.70
  -2 -17   6   45.50    9.10
   2  17  -5   49.00   10.20
  -2  17   5   43.60    7.40
   2  17  -5   52.29    8.70
  -2  17   5   45.00    8.70
   2 -17  -5   42.90    8.00
  -2 -17   5   47.90    8.50
   2  17  -4   12.80    8.10
  -2  17   4   -2.20    6.40
  -2  17   4   -3.40    5.30
   2  17  -4    5.20    7.10
   2 -17  -4   -1.80    6.30
   2 -17  -4   -2.10    8.60
  -2 -17   4    1.10    5.50
  -2  17   3   23.20    7.40
   2  17  -3   11.70    6.60
  -2  17   3   12.30    5.30
   2  17  -3   15.90    7.50
   2 -17  -3   21.10    7.30
  -2 -17   3   18.00    5.70
   2 -17  -3   17.60    8.00
  -2  17   2   25.90    7.00
   2  17  -2   25.40    7.20
   2  17  -2   17.30    4.70
  -2  17   2   26.80    6.20
   2  17  -2   20.40    6.00
   2 -17  -2   29.80    7.70
  -2 -17   2   28.00    7.10
   2 -17  -2   21.10    7.30
   2  17  -1   13.40    6.60
  -2  17   1   26.70    6.10
   2  17  -1   10.40    5.80
   2  17  -1    6.70    5.50
   2 -17  -1   14.80    7.30
  -2 -17   1   21.60    6.60
   2 -17  -1   20.10    6.90
  -2  17   0   59.29    7.70
   2  17   0  101.89   13.70
   2  17   0   57.69    8.70
   2  17   0   99.49   12.90
  -2  17   0   69.29    9.40
   2 -17   0   49.30    7.70
   2  17   1   94.89   10.90
  -2  17  -1   84.39    9.60
   2  17   1   86.89   10.50
  -2  17  -1   84.29    9.30
   2  17   1   78.59   10.80
   2 -17   1   88.39   10.00
  -2  17  -2   98.19   10.30
   2  17   2   70.89    9.70
   2  17   2  104.49   12.10
   2  17   2  122.59   16.60
   2 -17   2   88.29   10.80
   2  17   3   45.90   10.00
   2  17   3   36.50    8.40
  -2  17  -3   50.09    7.50
   2  17   3   49.80    9.20
   2  17   4   41.90    9.70
  -2  17  -4   29.90    8.90
   2  17   4   39.90    9.30
   2  17   4   44.70   13.80
  -2  17  -4   26.90    5.90
   2  17   5    2.40    9.30
   2  17   5    3.60    8.90
  -2  17  -5   16.20   10.40
   2  17   6   26.50   11.10
   2  17   6   49.60   12.10
  -2  17  -6    4.40   12.30
  -2  18   7   15.70   12.60
   2  18  -7    0.50   13.80
   2  18  -6   11.20   12.30
  -2  18   6   14.60    7.50
  -2  18   6  -13.20    9.50
  -2  18   5   41.70    7.30
  -2  18   5   49.60   11.30
   2 -18  -5   22.90    8.00
  -2 -18   5   53.09    9.60
   2  18  -4   22.40    8.50
  -2  18   4    9.00    5.70
  -2  18   4    7.30    7.70
   2  18  -4   -2.10    7.30
  -2 -18   4    2.60    8.60
   2 -18  -4   -0.90    8.00
  -2  18   3   54.09   10.10
   2  18  -3   73.39   10.60
   2  18  -3   56.69    8.70
  -2  18   3   67.29    8.00
  -2 -18   3   60.89    8.90
   2 -18  -3   54.79    9.00
   2 -18  -3   45.20    8.40
  -2  18   2   23.90    6.60
  -2  18   2   13.20    5.70
   2  18  -2   21.90    6.90
   2  18  -2   23.80    8.50
  -2 -18   2   35.50    7.60
   2 -18  -2   38.40    8.30
   2 -18  -2   32.70    8.40
  -2  18   1  210.88   16.00
   2  18  -1  216.28   15.20
   2  18  -1  177.58   13.40
  -2  18   1  245.68   14.20
   2  18  -1  190.98   19.80
  -2  18   0   10.60    7.10
  -2  18   0   12.60    5.60
   2  18   0    5.90    6.70
  -2  18   0    2.50    6.30
   2  18   0    1.60    6.30
   2  18   0   11.80    5.80
   2 -18   0   -0.30    6.40
   2  18   1   26.00    6.60
   2  18   1   22.80    7.90
  -2  18  -1   40.10    8.10
   2  18   1   50.09   10.30
  -2  18  -1   29.30    8.00
   2 -18   1   24.40    6.80
   2  18   2   10.00    6.80
   2  18   2   12.60    7.10
   2  18   2   16.30    6.60
  -2  18  -2   18.20    6.20
   2  18   3   24.00    9.40
   2  18   3   23.10    8.40
  -2  18  -3   14.10    7.00
   2  18   4   -1.10    8.20
  -2  18  -4    5.40    9.50
  -2  18  -4   -0.30    5.40
  -2  18  -5   -4.60   10.10
   2  18   5   22.70   10.30
   2  18   5    8.20    9.90
  -2  18  -6   14.10   13.70
   2  18   6   12.40   12.90
   2  18   6   31.80   12.20
  -2  19   7   18.90   14.10
   2  19  -7   22.40   16.10
   2  19  -6   21.90   12.40
  -2  19   6   16.80    8.40
  -2  19   6  -16.60   10.40
  -2  19   5    6.90    7.70
  -2  19   4   13.30    7.00
  -2  19   4    4.90   16.40
   2  19  -4   -4.60    8.00
  -2  19   3   25.20    9.90
   2  19  -3   20.50    8.40
  -2  19   3   31.20    6.90
   2  19  -3   15.60    8.50
  -2 -19   3   32.20    8.20
   2 -19  -3   17.50    8.50
  -2  19   2    6.30    7.30
   2  19  -2    2.50    6.30
   2  19  -2    8.30    7.40
  -2  19   2    5.30    5.30
   2 -19  -2   -4.80    6.30
   2  19  -1    4.90    6.00
  -2  19   1   15.90    5.90
  -2  19   1    7.20    6.70
   2  19  -1   -1.40    5.80
   2  19  -1    3.10    8.70
   2 -19  -1   10.10    7.70
   2  19   0    3.70    7.00
  -2  19   0    5.60    7.70
   2  19   0   -1.10    6.50
   2  19   0   -4.00    7.30
  -2  19   0   -2.90    6.30
   2 -19   0   -1.30    5.60
  -2  19  -1   18.40    6.70
   2  19   1   18.40    8.00
   2  19   1   18.20    8.80
   2  19   1   17.80    7.50
  -2  19  -1   16.10    6.60
   2 -19   1   14.00    7.10
  -2  19  -2   21.40    7.40
   2  19   2   31.80   10.00
   2  19   2   19.40    8.80
   2  19   2   38.10    8.70
  -2  19  -3   10.00    8.90
   2  19   3    9.30    8.60
  -2  19  -3   21.50    7.00
   2  19   3   20.90    9.60
   2  19   3    6.30    7.70
   2  19   4   20.30    9.70
  -2  19  -4   13.20   10.40
  -2  19  -5    5.90   11.00
   2  19   5    0.60   11.40
   2  19   5   -8.50   10.70
   2  19   6    6.40   13.50
  -2  19  -6   18.60   14.50
   2  19   6    2.20   12.00
  -2  20   7    7.10   14.70
   2  20  -7    1.40   15.90
   2  20  -6   -9.60   13.10
  -2  20   6   14.60    9.80
  -2  20   6    8.10   13.10
  -2  20   5   15.10    8.50
   2  20  -5    6.80   11.30
  -2  20   5    2.80   11.40
  -2  20   4   42.40    8.40
  -2  20   4   37.80    9.80
  -2  20   3  225.68   17.70
  -2  20   3  179.48   14.60
   2  20  -3  158.98   16.60
   2 -20  -3  165.68   18.10
  -2  20   2    5.90    6.20
   2  20  -2    8.80    8.40
  -2  20   2    9.90    7.70
   2  20  -2   -7.40    7.40
   2 -20  -2   12.60    8.20
  -2  20   1    4.50    7.60
  -2  20   1   13.70    6.90
   2  20  -1    3.20    8.50
  -2  20   1   10.30    7.50
   2 -20  -1   19.00   12.60
   2  20   0   36.60    7.90
   2  20   0   60.89   13.70
  -2  20   0   37.40    8.50
  -2  20   0   31.30    9.70
   2  20   0   30.00    8.20
   2 -20   0   41.40    8.70
   2  20   1  101.59   12.60
  -2  20  -1  120.39   18.50
   2  20   1   98.69   12.60
   2  20   1   90.69   13.50
  -2  20  -1   60.79    9.10
   2  20   2   13.50    7.90
   2  20   2    7.00    8.70
   2  20   2    2.40    7.60
  -2  20  -2    8.40    7.70
   2  20   3   21.40   10.60
  -2  20  -3    3.50    8.80
   2  20   3    9.50    8.10
   2  20   4    7.60   10.40
   2  20   4    7.90   10.90
  -2  20  -4   21.40   11.50
   2  20   5   13.80   12.50
  -2  20  -5   14.90   12.80
   2  20   5    8.10   13.00
   2  21  -6  -12.90   14.50
  -2  21   6   -8.50   11.30
  -2  21   6    1.60   12.50
   2  21  -5  -12.20   11.90
  -2  21   5    9.50    8.60
   2  21  -4    7.50   10.40
  -2  21   4    3.20    9.80
  -2  21   4    1.90    8.30
  -2  21   3    8.50    7.80
   2  21  -3   28.90   16.50
  -2  21   3    8.90    8.30
   2  21  -3    8.80   10.00
  -2  21   2   65.39   10.70
   2  21  -2   93.79   12.40
  -2  21   2   87.39   10.80
  -2  21   2   54.19   10.80
  -2  21   1   53.59   11.30
   2  21  -1   72.29   12.70
  -2  21   1   47.50    8.80
   2 -21  -1   91.19   13.00
   2  21   0   83.99   12.70
   2  21   0   83.09   12.00
  -2  21   0   74.69   10.30
  -2  21   0   62.09   15.20
  -2  21  -1   28.40    9.60
   2  21   1   11.30    9.80
  -2  21  -1    5.10    8.00
   2  21   1   23.80    8.90
   2  21   1   13.00    9.20
   2  21   2   40.20    8.70
   2  21   2   64.29   10.70
   2  21   2   55.89   18.80
   2  21   3   47.70   12.50
  -2  21  -3   21.10   11.00
   2  21   3   31.90    9.90
   2  21   4  -18.50   11.00
   2  21   4   -9.70   10.20
  -2  21  -4  -14.00   10.30
  -2  21  -5   22.80   13.30
   2  21   5   -5.30   13.90
   2  21   5   31.10   14.40
  -2  22   6   15.80   13.30
   2  22  -6   15.50   16.30
  -2  22   6   13.00   15.50
   2  22  -5  -21.20   12.80
  -2  22   5    6.30    9.20
  -2  22   4   -4.30    8.70
   2  22  -4   10.00   11.60
  -2  22   4   14.90   11.90
  -2  22   3   -8.20   10.60
  -2  22   3   15.30    8.20
   2  22  -3   -5.00    9.80
  -2  22   3   -0.40    9.50
  -2  22   2  176.18   16.30
   2  22  -2  184.68   17.60
   2  22  -2  209.18   19.20
  -2  22   2  173.18   19.30
   2  22  -1  266.37   21.20
  -2  22   1  263.27   20.20
   2  22   0   -1.20    8.90
  -2  22   0   10.60    9.80
  -2  22   0   -1.70    8.00
   2  22   1   37.70   10.60
  -2  22  -1   40.50   10.00
  -2  22  -1    4.00   10.50
   2  22   1   94.09   24.30
   2  22   1   34.10   10.80
   2  22   2   28.80   10.20
   2  22   2   16.30   10.80
   2  22   2   17.90    9.80
  -2  22  -2   20.40   10.50
   2  22   3    9.50   10.40
   2  22   3    3.60   10.80
  -2  22  -3   32.90   11.50
  -2  22  -4    6.30   12.60
   2  22   4    8.50   12.30
   2  22   4   15.10   12.40
  -2  22  -5    0.70   13.70
   2  22   5  -33.50   14.60
   2  22   5    3.60   14.00
   2  23  -6   21.20   17.40
  -2  23   6  -16.60   17.80
  -2  23   5   -1.60   15.10
   2  23  -5  -25.90   14.60
  -2  23   5   23.20   10.80
  -2  23   4  -13.80   11.10
  -2  23   4   11.50   12.20
   2  23  -4  -16.10   12.50
  -2  23   3   16.80   22.70
  -2  23   3   -4.50    9.30
   2  23  -3   -5.20   10.50
  -2  23   2   -1.00    8.80
   2  23  -2   -0.30    9.60
  -2  23   2   13.00    9.90
  -2  23   1   32.90   10.80
   2  23  -1   29.60   10.70
  -2  23   1   33.00   10.00
  -2  23   0    9.10    8.20
   2  23   0   13.80   12.50
  -2  23   0   13.90    9.70
   2  23   0    0.10   10.10
   2  23   1    6.00   10.90
   2  23   1    5.00   16.60
   2  23   1    7.30    9.80
  -2  23  -1   -6.50    8.80
  -2  23  -2   22.90   10.50
   2  23   2   -8.60   10.20
   2  23   2  -19.00   13.70
  -2  23  -3   -6.20   11.80
   2  23   3  -16.40   10.70
   2  23   4   -1.50   13.30
  -2  23  -4    8.90   11.80
   2  23   4   -0.40   12.80
   2  24  -5  -31.80   15.10
  -2  24   5    8.80   18.70
  -2  24   5  -17.40   11.90
  -2  24   4   31.60   15.90
   2  24  -4   10.80   15.10
  -2  24   4   15.70   11.20
   2  24  -3   -9.00   11.90
  -2  24   3    4.90   10.30
  -2  24   3   11.00   14.60
   2  24  -2    0.80   10.80
  -2  24   2    5.40    9.80
  -2  24   2   10.30   12.60
   2  24  -1   -7.90   10.30
   2  24  -1    1.90   13.20
  -2  24   1   -8.40   12.50
  -2  24   1  -24.30    9.40
  -2  24   0   33.00   11.10
   2  24   0   35.80   11.90
   2  24   0   31.30   10.90
   2  24   1   -3.20   11.50
   2  24   1   11.20   10.30
  -2  24  -1  -14.70   10.20
  -2  24  -2   10.20   11.30
   2  24   2   -7.00   13.20
   2  24   2  -10.20   11.50
   2  24   3   -0.20   13.40
  -2  24  -3   -7.80   13.00
   2  24   4   17.10   14.60
   2  24   4  -24.80   17.20
  -2  24  -4   -2.90   14.40
  -2  25   5   -5.60   12.90
  -2  25   5   -0.80   19.90
   2  25  -5  -13.50   14.90
  -2  25   4   18.50   24.90
   2  25  -4   16.80   15.70
  -2  25   4    7.20   12.50
   2  25  -3    6.80   13.60
  -2  25   3   15.70   11.40
  -2  25   3  -19.30   13.90
   2  25  -2  -16.80   11.90
  -2  25   2   -6.40   18.40
  -2  25   2    3.50   10.60
   2  25  -1   13.30   12.00
  -2  25   1    3.00   11.40
   2  25   0   12.80   14.70
   2  25   0   13.10   11.20
  -2  25   0   12.30   10.60
  -2  25  -1    5.90   10.80
   2  25   1   24.20   13.70
   2  25   1    1.90   11.70
  -2  25  -2   21.30   11.90
   2  25   2   23.60   15.20
   2  25   2   36.30   14.20
   2  25   3   12.40   15.10
   2  25   3   12.90   19.20
  -2  25  -3  -20.50   13.10
   2  26  -4  -21.50   16.10
  -2  26   4   15.30   13.30
  -2  26   3  -11.80   12.70
   2  26  -3   26.40   14.60
  -2  26   2    5.40   12.40
   2  26  -2   29.30   14.30
  -2  26   1    6.50   11.50
   2  26  -1   10.40   13.40
  -2  26   0  -21.20   11.00
   2  26   0   -6.10   12.50
  -2  26  -1    0.30   13.20
   2  26   1    5.70   17.90
   2  26   1    1.00   13.20
  -2  26  -2   -6.80   14.00
   2  26   2   -6.30   16.50
   2  26   2   -2.50   13.90
   2  26   3   13.40   15.70
   2  26   3   -2.70   22.40
  -2  26  -3  -11.60   14.40
   2  27  -3   20.30   15.10
  -2  27   3   12.10   14.40
  -2  27   2    7.70   13.10
   2  27  -2   -5.30   14.40
   2  27  -1   11.20   13.80
  -2  27   1    6.00   13.20
   2  27   0   21.80   14.20
  -2  27   0    3.70   12.60
  -2  27  -1   10.60   13.20
   2  27   1  -10.00   13.40
   2  27   2   33.80   15.10
  -2  27  -2   -1.80   14.20
   2  28  -2  -14.90   15.30
  -2  28   2    3.20   14.20
  -2  28   1    1.30   14.90
   2  28  -1   -1.10   16.00
   2  28   0   14.00   15.30
  -2  28   0  -17.70   13.70
   2  28   1   31.10   16.80
  -2  28  -1    1.90   15.80
  -3   0   9   -5.40    6.20
  -3   0   8   34.20    6.70
  -3   0   6    3.20    3.80
   3   0  -5   -2.10    3.40
  -3   0   5   -3.90    2.90
  -3   0   4  200.78   10.00
   3   0  -4  202.68   10.20
  -3   0   3   -0.40    1.00
  -3   0   3    0.00    2.30
   3   0  -3   -0.80    1.40
   3   0  -3   -2.40    2.20
  -3   0   2  766.32   27.20
  -3   0   2  769.82   24.70
   3   0  -2  750.92   26.80
   3   0  -2  732.53   24.80
  -3   0   1   -3.90    3.10
   3   0  -1    0.90    1.60
  -3   0   1    1.40    1.50
   3   0  -1    1.00    3.40
  -3   0   0   77.69    5.30
   3   0   0   69.09    4.50
  -3   0   0   80.69    5.00
   3   0   0   83.29    5.30
  -3   0  -1    1.00    1.90
   3   0   1    0.00    1.60
   3   0   1   -0.80    1.80
  -3   0  -1   -1.60    2.10
  -3   0  -2  106.99    7.00
   3   0   2  103.29    6.10
  -3   0  -2  113.39    6.30
   3   0   2   98.99    6.30
   3   0   3    1.60    2.10
   3   0   3   -1.00    4.20
  -3   0  -3   -0.30    2.50
   3   0   3   -4.90    2.50
   3   0   4   47.50    6.10
   3   0   4   43.20    4.40
   3   0   4   42.70    6.90
   3   0   5   -1.00    2.70
   3   0   5   -0.80    4.70
   3   0   7    1.90    8.30
  -3   1   9    7.30    6.30
  -3  -1   9   -5.40    5.70
  -3   1   8   46.00    7.30
  -3  -1   8   39.90    6.60
  -3   1   6    2.40    3.80
  -3  -1   6    6.10    3.50
   3   1  -5    8.60    3.50
  -3   1   5    6.10    3.30
  -3  -1   5    6.60    3.50
   3  -1  -5    2.70    3.70
   3   1  -4   53.09    5.70
   3   1  -4   58.59    3.30
  -3   1   4   59.79    5.80
  -3  -1   4   62.59    2.80
   3  -1  -4   60.29    6.10
  -3  -1   4   61.29    5.30
   3   1  -3  381.56   13.50
  -3   1   3  398.96   15.90
   3   1  -3  383.96   15.60
   3  -1  -3  400.06   12.90
   3  -1  -3  383.56   15.80
  -3  -1   3  383.96   15.60
  -3  -1   3  383.66   13.10
   3  -1  -3  385.16   12.80
   3   1  -2   25.90    2.90
  -3   1   2   26.00    2.40
   3   1  -2   30.80    4.10
  -3  -1   2   34.30    4.30
  -3  -1   2   21.50    2.40
   3  -1  -2   32.10    4.00
   3  -1  -2   28.80    2.60
  -3   1   1  109.79    5.30
   3   1  -1   93.09    5.60
  -3   1   1  103.69    6.40
   3   1  -1  100.99    6.20
  -3  -1   1  115.19    7.00
   3  -1  -1   99.09    5.20
   3  -1  -1   98.69    6.10
  -3  -1   1  106.79    5.30
  -3   1   0   51.59    4.10
   3   1   0   45.30    4.00
   3   1   0   48.50    4.30
  -3  -1   0   47.00    4.30
   3  -1   0   54.69    3.90
   3  -1   0   48.30    4.10
  -3  -1   0   48.80    4.20
  -3   1  -1  699.13   23.90
   3   1   1  679.23   24.10
   3   1   1  646.14   24.10
   3  -1   1  685.93   24.20
  -3  -1  -1  695.03   24.30
  -3  -1  -1  690.63   24.20
   3  -1   1  692.23   24.00
  -3   1  -2   68.19    4.90
   3   1   2   65.39    5.10
   3   1   2   77.49    5.60
   3  -1   2   64.59    5.10
  -3  -1  -2   68.69    5.30
   3  -1   2   73.79    6.70
   3  -1   2   76.59    5.50
  -3  -1  -2   66.89    6.10
   3   1   3  118.69    7.60
  -3   1  -3  122.69    6.20
   3   1   3  111.49    7.60
   3  -1   3  115.69    9.20
   3  -1   3   97.79    7.50
  -3  -1  -3  122.29    6.80
   3  -1   3  112.29    6.50
  -3  -1  -3  118.19    8.30
   3   1   4   54.79    6.90
   3   1   4   44.20    4.60
   3   1   4   41.30    5.70
   3  -1   4   44.80    5.80
   3  -1   4   43.00    6.80
   3  -1   4   39.10    4.10
   3   1   5  205.18   12.30
   3   1   5  201.58    9.50
   3  -1   5  210.68   12.60
   3   1   6    1.00    3.10
   3   1   7    1.70    8.20
   3  -1   7   -8.10    8.10
  -3   2   9    1.90    6.80
  -3  -2   9   11.70    6.40
  -3   2   8   -4.20    5.10
  -3  -2   8   -2.30    4.60
  -3  -2   7    3.00    2.70
  -3  -2   7    8.00    2.30
  -3   2   6   -1.10    3.90
  -3  -2   6   -0.10    2.20
  -3  -2   6   -2.90    3.20
  -3  -2   6    0.00    1.50
  -3   2   5   61.19    6.50
   3   2  -5   62.79    3.90
   3   2  -5   60.39    6.30
  -3  -2   5   70.69    6.10
   3  -2  -5   60.79    6.70
  -3  -2   5   63.59    3.80
   3   2  -4   76.39    4.50
   3   2  -4   74.69    6.30
  -3   2   4   69.99    6.40
   3  -2  -4   70.39    6.70
  -3  -2   4   70.59    3.80
  -3  -2   4   71.99    5.70
   3   2  -3  361.46   12.80
   3   2  -3  345.57   14.40
  -3   2   3  331.07   14.60
  -3  -2   3  355.36   14.50
   3  -2  -3  359.86   11.60
   3  -2  -3  349.07   11.50
   3  -2  -3  361.16   14.90
  -3  -2   3  345.87   12.30
   3   2  -2   46.90    4.10
   3  -2  -2   65.29    7.20
   3  -2  -2   37.70    3.00
   3  -2  -2   36.50    2.80
  -3  -2   2   35.10    3.10
  -3  -2   2   42.70    4.60
  -3   2   1  479.95   18.30
   3   2  -1  497.15   18.40
   3  -2  -1  501.05   18.50
   3  -2  -1  492.75   17.30
  -3  -2   1  476.85   17.30
  -3  -2   1  477.25   18.40
   3  -2  -1  494.05   17.10
   3   2   0  879.41   29.80
   3   2   0  834.82   29.20
   3  -2   0  878.91   29.40
  -3  -2   0  858.71   29.10
   3  -2   0  833.22   29.00
  -3  -2   0  857.21   29.70
   3  -2   0  862.61   29.60
  -3   2  -1   25.10    3.30
   3   2   1   17.80    3.30
   3   2   1   19.30    3.20
   3  -2   1   35.00    4.50
  -3  -2  -1   26.30    3.70
   3  -2   1   23.30    3.10
  -3  -2  -1   19.50    3.00
   3  -2   1   20.50    3.10
   3   2   2   34.90    4.00
  -3   2  -2   28.20    3.80
   3   2   2   36.10    4.10
  -3  -2  -2   37.90    4.50
  -3  -2  -2   38.00    4.80
   3  -2   2   35.80    4.20
   3  -2   2   36.60    5.10
   3  -2   2   38.30    4.30
   3   2   3   11.30    3.00
   3   2   3    4.60    3.00
   3  -2   3    6.80    2.90
   3  -2   3    3.30    2.20
  -3  -2  -3    5.90    3.40
   3  -2   3   -4.00    4.00
  -3  -2  -3    3.40    3.80
   3   2   4   94.19    6.40
   3   2   4   79.09    9.20
   3   2   4  100.49    8.30
   3  -2   4   95.59    5.60
   3  -2   4  113.89    8.20
  -3  -2  -4   96.89    8.80
   3  -2   4   93.99   11.70
   3   2   5   27.80    3.90
   3   2   5   17.50    5.30
   3  -2   5   17.90    5.50
   3   2   6   -2.80    3.40
   3   2   6   -2.70    3.70
   3  -2   6    1.30    6.30
   3   2   7    1.00    7.90
   3  -2   7   21.20    8.50
  -3   3   9   -0.60    6.40
  -3  -3   9    2.30    6.00
  -3   3   8   25.90    6.90
  -3  -3   8   24.90    5.80
  -3  -3   7   80.89    6.80
  -3  -3   7   74.69    5.40
  -3   3   6   67.99    7.40
  -3  -3   6   59.39    4.30
  -3  -3   6   56.09    5.40
  -3  -3   6   59.79    6.60
   3   3  -5    2.90    2.40
  -3   3   5    6.80    3.20
   3   3  -5    0.80    3.40
  -3  -3   5   -3.50    2.60
   3  -3  -5   -1.80    3.70
  -3  -3   5    2.60    2.30
   3   3  -4   82.09    6.50
  -3   3   4   84.19    6.90
   3   3  -4   86.49    5.60
   3  -3  -4   91.69    7.30
  -3  -3   4   91.69    4.80
  -3  -3   4   82.29    6.00
   3   3  -3    9.50    2.40
  -3   3   3    5.90    2.60
   3   3  -3    4.50    2.50
   3  -3  -3    8.70    3.20
   3  -3  -3    6.30    1.10
  -3  -3   3    4.70    2.10
   3  -3  -3    4.30    1.30
  -3  -3   3    8.90    2.00
   3   3  -2   17.80    3.20
   3   3  -2   20.00    4.00
   3  -3  -2   16.30    3.00
  -3  -3   2   19.70    2.50
  -3  -3   2   17.90    3.30
   3  -3  -2   20.40    2.40
   3  -3  -2   20.10    2.40
   3   3  -1   57.99    4.80
  -3   3   1   44.30    4.80
   3   3  -1   46.00    4.10
  -3  -3   1   49.50    4.00
   3  -3  -1   51.09    4.50
   3  -3  -1   46.80    4.10
  -3  -3   1   41.50    4.80
   3  -3  -1   46.60    3.80
   3   3   0    2.40    2.00
  -3   3   0   -1.30    1.50
   3   3   0    1.40    1.90
   3  -3   0    5.10    2.50
   3  -3   0    3.60    1.80
   3  -3   0    7.10    2.10
  -3  -3   0    2.70    2.10
  -3  -3   0    4.60    2.20
   3   3   1  161.68    8.10
  -3   3  -1  158.08    7.50
   3   3   1  161.78    8.20
  -3  -3  -1  149.88    8.10
   3  -3   1  159.58    7.90
   3  -3   1  157.58    7.60
  -3  -3  -1  134.09    7.90
   3  -3   1  163.58    8.70
   3   3   2  172.78    8.80
  -3   3  -2  172.88    7.80
   3   3   2  177.88    9.10
   3  -3   2  153.78    9.50
  -3  -3  -2  180.28    9.60
  -3  -3  -2  182.08    9.00
   3  -3   2  169.18    8.90
   3  -3   2  170.28    8.20
   3   3   3    8.40    3.30
   3   3   3    6.70    3.30
   3  -3   3    5.10    2.00
   3  -3   3    3.30    3.00
   3  -3   3    7.80    4.10
  -3  -3  -3    5.20    3.30
  -3  -3  -3    5.40    4.20
   3   3   4   17.50    4.50
   3   3   4   19.30    3.50
   3  -3   4   20.30    4.30
  -3  -3  -4    4.80    5.00
   3  -3   4   14.50    2.50
   3   3   5   62.29    6.30
   3   3   5   67.89    8.00
   3  -3   5   56.99    7.30
   3   3   6    2.70    4.00
   3   3   6    2.20    4.00
   3  -3   6    8.80    6.80
   3   3   7   13.00    8.40
   3  -3   7   12.90    8.60
  -3   4   9    0.00    7.00
  -3  -4   9    4.70    6.00
  -3   4   8    2.00    5.70
  -3  -4   8   -5.60    4.60
  -3  -4   7   31.60    5.60
   3   4  -6    4.50    3.70
  -3   4   6    1.20    4.00
  -3  -4   6   -3.90    3.20
  -3  -4   6    3.70    3.80
   3   4  -5    5.80    3.40
   3   4  -5    7.70    3.50
  -3   4   5    6.80    3.60
  -3  -4   5    7.90    3.00
  -3  -4   5    3.40    2.70
   3  -4  -5    4.30    3.50
  -3   4   4   43.40    5.70
   3   4  -4   46.10    5.30
   3   4  -4   39.80    4.40
  -3  -4   4   49.20    4.30
  -3  -4   4   44.00    4.90
   3  -4  -4   45.30    6.00
   3   4  -3  906.11   30.20
   3   4  -3  879.11   31.10
  -3   4   3  865.21   31.70
   3  -4  -3  911.91   31.90
   3  -4  -3  886.81   28.50
  -3  -4   3  879.61   29.50
   3  -4  -3  869.71   28.10
  -3  -4   3  902.01   31.40
   3   4  -2   60.09    8.80
  -3  -4   2   30.60    3.50
  -3  -4   2   32.40    4.50
   3  -4  -2   36.40    3.00
   3  -4  -2   32.90    3.50
   3  -4  -2   39.80    4.70
  -3   4   1   11.30    3.00
   3   4  -1   16.20    3.40
   3   4  -1   11.10    2.70
  -3  -4   1   14.80    3.40
   3  -4  -1   19.00    3.50
   3  -4  -1    9.60    2.70
  -3  -4   1   11.30    2.60
   3   4   0   55.39    4.70
  -3  -4   0   60.09    4.90
   3  -4   0   54.69    4.70
  -3  -4   0   57.19    5.20
   3  -4   0   58.49    5.20
   3  -4   0   51.89    4.20
   3   4   1   98.59    6.50
  -3   4  -1  109.99    6.00
   3   4   1  104.19    6.20
  -3  -4  -1   97.09    6.50
   3  -4   1  110.19    6.40
   3  -4   1   99.59    6.90
   3  -4   1  110.49    6.20
  -3   4  -2   18.50    2.90
   3   4   2   14.20    3.20
   3   4   2   22.00    3.40
  -3  -4  -2   19.80    3.70
   3  -4   2   25.10    3.70
  -3  -4  -2   18.80    3.60
   3  -4   2   13.70    3.00
   3  -4   2   17.90    4.50
   3   4   3  166.48    9.50
   3   4   3  176.78   10.10
  -3  -4  -3  185.58   10.50
   3  -4   3  174.28   11.50
  -3  -4  -3  191.68    9.80
   3  -4   3  183.48    8.10
   3  -4   3  183.28   10.10
   3   4   4   24.60    5.00
   3   4   4   21.80    3.90
   3  -4   4   24.60    3.00
  -3  -4  -4   19.70    6.20
   3  -4   4   22.40    4.80
   3   4   5    8.40    5.10
   3   4   5    1.80    4.00
   3   4   5   -4.10    3.20
   3  -4   5    6.00    4.70
   3   4   6    4.40    4.50
   3   4   6    5.00    4.30
   3  -4   6   -0.30    6.50
   3   4   7    3.60    8.90
   3   4   7   -6.40    5.00
   3   4   7   -2.50    5.10
   3  -4   7    3.20    8.80
  -3   5   9    2.30    7.60
  -3  -5   9   -1.90    5.80
  -3   5   8   15.90    7.00
  -3  -5   8   20.80    4.30
  -3  -5   8   18.00    5.70
  -3  -5   7   11.40    3.20
  -3  -5   7   16.90    5.40
  -3   5   6   23.30    5.30
   3   5  -6   29.00    4.50
  -3  -5   6   40.20    5.30
  -3  -5   6   29.10    4.80
   3   5  -5   79.49    7.10
   3   5  -5   85.39    7.70
  -3   5   5  100.99    8.60
   3  -5  -5   98.39    8.70
  -3  -5   5  102.49    7.20
   3   5  -4   14.90    3.50
  -3   5   4   11.40    4.20
  -3  -5   4   12.10    3.10
   3  -5  -4    6.90    3.30
  -3  -5   4    6.70    2.80
   3   5  -3    5.40    3.70
  -3   5   3    7.20    3.20
   3   5  -3   10.70    2.90
   3  -5  -3    5.80    1.40
  -3  -5   3    7.60    2.80
   3  -5  -3    8.10    3.10
  -3  -5   3    3.60    2.30
   3  -5  -3   10.00    1.90
  -3   5   2    6.90    2.00
   3   5  -2   10.70    3.30
   3   5  -2   11.20    3.10
  -3  -5   2   14.90    2.50
   3  -5  -2   14.90    5.40
   3  -5  -2    6.00    2.30
  -3  -5   2   12.70    4.60
  -3   5   1  680.73   23.10
  -3   5   1  666.43   24.30
   3   5  -1  657.13   23.70
   3  -5  -1  640.44   23.50
  -3  -5   1  682.63   24.70
  -3  -5   1  666.13   23.30
   3   5   0   -0.30    2.10
  -3   5   0    0.00    2.00
   3   5   0    1.50    2.20
  -3   5   0   -2.80    2.10
  -3  -5   0    2.00    2.40
   3  -5   0   -1.50    1.80
  -3  -5   0    0.10    3.90
   3  -5   0    1.40    2.60
  -3   5  -1 1286.87   42.40
   3   5   1 1300.97   43.50
   3   5   1 1234.28   43.10
   3  -5   1 1296.37   42.80
   3  -5   1 1309.27   43.90
  -3  -5  -1 1289.67   43.10
   3  -5   1 1254.07   43.00
  -3   5  -2   87.69    5.20
   3   5   2   69.19    6.10
   3   5   2   81.09    6.20
  -3  -5  -2   78.29    6.80
   3  -5   2   76.59    5.90
  -3  -5  -2   76.89    6.80
   3  -5   2   64.99    5.50
   3  -5   2   73.29    7.80
   3   5   3    1.60    3.00
   3   5   3    0.50    2.80
   3  -5   3    1.70    1.90
  -3  -5  -3    5.00    4.00
   3  -5   3    0.50    3.00
   3  -5   3   -2.50    4.60
  -3  -5  -3    4.80    3.60
   3   5   4    9.70    3.80
   3   5   4    2.20    3.80
   3  -5   4    1.80    2.10
   3  -5   4   -0.30    3.60
   3   5   5   54.59    7.40
   3   5   5   43.00    6.30
   3   5   5   42.40    5.60
   3  -5   5   36.60    6.50
   3   5   6    3.00    4.80
   3   5   6    4.10    4.60
   3   5   6   -6.20    8.40
   3  -5   6   -1.20    6.00
   3   5   7    3.50    5.90
   3   5   7   20.00    9.20
   3   5   7    9.30    5.80
   3  -5   7   11.30    8.80
  -3   6   9    7.40    8.00
  -3  -6   9   -3.80    6.50
  -3   6   8    3.00    7.10
  -3  -6   8    0.10    4.10
  -3  -6   8   -5.80    5.00
   3   6  -7    7.30    4.70
  -3  -6   7   21.00    5.70
   3   6  -6    7.00    4.00
  -3   6   6    8.00    5.00
  -3  -6   6    6.30    3.40
  -3  -6   6    8.60    4.80
   3   6  -5   16.90    4.30
   3   6  -5   15.00    3.90
  -3   6   5   21.90    5.50
  -3  -6   5   23.70    4.30
   3  -6  -5   14.80    5.10
  -3  -6   5   20.90    3.90
  -3   6   4   96.39    8.00
   3   6  -4   97.59    7.40
   3   6  -4   97.29    7.00
  -3  -6   4   95.79    6.80
   3  -6  -4  100.89    8.10
  -3  -6   4  108.19    7.00
  -3   6   3  266.27    9.70
   3   6  -3  277.47   12.10
   3   6  -3  269.67   12.20
  -3   6   3  269.87   12.90
   3  -6  -3  242.78   12.50
  -3  -6   3  260.97   12.10
  -3  -6   3  267.97   11.20
   3  -6  -3  258.37   10.10
  -3   6   2  282.97   11.40
   3   6  -2  276.77   12.80
   3   6  -2  286.47   12.70
   3  -6  -2  347.07   14.90
  -3  -6   2  348.87   14.80
  -3  -6   2  277.67   12.10
   3  -6  -2  278.17   11.80
   3   6  -1   12.60    3.00
  -3   6   1   13.00    2.60
  -3   6   1   13.90    3.50
   3   6  -1   17.30    5.20
   3  -6  -1   14.20    3.00
   3  -6  -1   13.30    3.30
  -3  -6   1   11.80    2.90
  -3  -6   1    7.30    3.60
   3   6   0  334.47   14.40
  -3   6   0  320.27   13.70
   3   6   0  317.87   14.00
   3  -6   0  350.66   14.50
  -3  -6   0  331.97   13.70
   3  -6   0  330.27   14.00
  -3  -6   0  402.46   16.20
   3   6   1  201.78   10.10
  -3   6  -1  206.28    9.50
   3   6   1  207.48   10.30
  -3   6  -1  199.78    9.80
  -3  -6  -1  200.38   10.40
   3  -6   1  202.98    9.60
  -3  -6  -1  208.48   10.00
   3  -6   1  192.68   10.60
  -3   6  -2   21.90    3.10
   3   6   2   22.10    3.80
   3   6   2   10.70    3.40
   3  -6   2   20.60    3.60
   3  -6   2   16.40    4.50
  -3  -6  -2   12.80    3.80
  -3  -6  -2   15.90    3.80
   3  -6   2   18.10    3.70
   3   6   3   16.80    3.90
   3   6   3   16.40    4.10
  -3  -6  -3   11.00    4.40
  -3  -6  -3    6.20    4.00
   3  -6   3   20.30    5.60
   3  -6   3   12.50    2.40
   3  -6   3   10.60    3.50
   3   6   4  189.48   14.00
   3   6   4  218.58   12.40
   3  -6   4  223.18   12.50
   3  -6   4  215.88    8.90
   3   6   5    4.70    4.70
   3   6   5   -0.40    4.00
   3  -6   5   -0.50    5.10
   3   6   6   13.60    7.40
   3   6   6    1.10    4.90
   3   6   6    1.30    5.20
   3  -6   6    9.70    7.10
   3   6   7   11.90    9.50
   3   6   7   -9.60    6.70
   3   6   7   -1.50    6.30
   3  -6   7  -11.30    8.50
  -3   7   9    2.30    7.90
  -3  -7   9    5.00    6.40
  -3   7   8    4.30    7.40
  -3  -7   8   -0.60    5.40
  -3  -7   8    1.70    4.60
   3   7  -7   81.29    8.00
  -3  -7   7   87.39   10.70
  -3   7   6    2.10    5.00
   3   7  -6    0.90    4.40
  -3  -7   6   -6.60    5.20
  -3  -7   6    0.50    4.80
   3   7  -5   19.40    4.30
   3   7  -5   20.50    4.20
  -3   7   5   29.40    5.60
  -3  -7   5   25.80    4.50
  -3  -7   5   21.20    4.80
   3  -7  -5   20.70    5.30
  -3   7   4    1.30    1.40
   3   7  -4   -0.10    2.80
  -3   7   4    1.30    3.50
   3   7  -4    5.70    3.10
   3  -7  -4    2.10    1.70
   3  -7  -4   -2.50    3.60
  -3  -7   4    1.70    3.50
  -3  -7   4    4.30    3.10
  -3   7   3   15.50    2.50
   3   7  -3   15.90    4.00
   3   7  -3   16.80    3.70
  -3   7   3   15.70    4.00
   3  -7  -3   10.50    3.20
  -3  -7   3   18.90    3.50
  -3  -7   3   17.10    3.70
   3  -7  -3   13.80    3.00
   3   7  -2    7.90    6.50
   3   7  -2   -1.20    2.70
  -3   7   2    2.60    3.00
  -3  -7   2    3.80    2.80
  -3  -7   2    3.20    3.30
   3  -7  -2   -0.20    3.10
   3  -7  -2    2.70    2.70
   3   7  -1    1.70    2.80
   3   7  -1    1.10    2.70
  -3   7   1   -0.20    2.10
  -3   7   1    3.30    2.90
  -3  -7   1    4.90    3.20
   3  -7  -1    1.90    2.80
   3  -7  -1    2.10    2.80
  -3  -7   1    2.20    2.80
  -3   7   0  267.27   11.70
   3   7   0  266.47   12.30
   3   7   0  261.77   12.00
   3  -7   0  282.47   12.60
  -3  -7   0  256.27   12.60
   3  -7   0  262.37   12.00
  -3  -7   0  251.17   11.70
   3   7   1   40.10    4.70
   3   7   1   29.40    4.00
  -3   7  -1   37.40    4.70
  -3   7  -1   27.70    4.20
   3  -7   1   29.60    3.90
   3  -7   1   32.60    5.30
  -3  -7  -1   32.00    4.80
  -3  -7  -1   26.00    4.20
  -3   7  -2   -0.30    2.30
   3   7   2   -3.60    2.70
   3   7   2    2.10    2.90
  -3   7  -2   -6.30    2.70
  -3  -7  -2   -0.60    3.50
  -3  -7  -2   -2.20    3.10
   3  -7   2    1.50    3.00
   3  -7   2   10.80    4.70
   3   7   3  141.09    9.30
   3   7   3  156.88    9.70
   3  -7   3  131.99   10.40
  -3  -7  -3  129.49    9.10
   3  -7   3  148.39    7.50
   3  -7   3  144.89    9.40
   3   7   4    5.30    4.40
   3   7   4    6.50    5.20
   3  -7   4    4.70    2.10
   3  -7   4    3.50    4.20
   3   7   5   35.70    7.00
   3   7   5   47.30    6.30
   3  -7   5   39.30    7.30
   3   7   6    6.40    5.40
   3   7   6    4.20    5.70
   3   7   6    2.70    7.50
   3  -7   6   -0.60    7.00
   3   7   7   -1.40   10.20
   3   7   7   -4.60    6.50
   3  -7   7   -8.70    9.20
  -3   8   9   -5.90    8.90
  -3  -8   9   -4.60    6.80
  -3   8   8   -7.00    7.60
  -3  -8   8    2.20    5.80
  -3  -8   8   -2.40    4.90
   3   8  -7    5.60    5.80
  -3  -8   7   10.00    7.10
   3   8  -6   -0.60    4.90
  -3   8   6    3.50    5.10
  -3  -8   6   -6.90    5.20
   3   8  -5   37.60    5.60
  -3   8   5   31.80    5.60
  -3  -8   5   40.90    5.90
  -3  -8   5   30.70    5.20
   3  -8  -5   33.30    5.90
  -3   8   4   39.20    3.70
   3   8  -4   43.20    5.80
  -3   8   4   37.00    5.70
   3   8  -4   39.90    5.20
  -3  -8   4   54.39    6.00
  -3  -8   4   54.49    5.90
   3  -8  -4   48.40    4.00
   3  -8  -4   48.50    7.30
   3   8  -3   78.49    7.00
  -3   8   3   90.29    8.50
  -3   8   3   70.69    5.40
   3   8  -3   89.79    6.70
  -3  -8   3   74.89    6.70
  -3  -8   3   65.19    6.50
   3  -8  -3   77.49    5.90
   3  -8  -3   73.59    7.40
   3   8  -2  129.69    8.20
   3   8  -2  130.79    8.20
  -3   8   2  128.29    9.00
  -3   8   2  116.39    6.60
  -3  -8   2  125.99    7.60
   3  -8  -2  126.59    8.50
   3  -8  -2  126.79    7.40
  -3   8   1    1.50    2.40
  -3   8   1    2.30    3.20
   3   8  -1    0.70    3.00
  -3  -8   1    0.70    2.70
   3  -8  -1    1.40    2.50
  -3  -8   1   -2.10    2.70
   3  -8  -1    0.20    3.30
   3   8   0  581.04   22.50
  -3   8   0  566.34   21.90
   3   8   0  677.53   23.70
   3  -8   0  573.54   22.70
   3  -8   0  578.04   22.30
  -3  -8   0  558.24   22.90
  -3  -8   0  585.04   22.00
  -3   8  -1  161.38    8.50
   3   8   1  156.68    9.30
  -3   8  -1  150.68    8.80
   3   8   1  159.98    9.50
   3  -8   1  154.98    8.60
  -3  -8  -1  151.68    9.80
   3  -8   1  157.98   10.50
  -3  -8  -1  162.28    9.50
  -3   8  -2  119.69    9.00
  -3   8  -2  142.79    7.30
   3   8   2  126.49    8.70
   3   8   2  131.69    8.90
   3  -8   2  128.69    8.00
  -3  -8  -2  129.29    8.90
   3  -8   2  117.09   10.20
   3   8   3   10.20    4.10
   3   8   3    9.10    4.30
  -3   8  -3    1.20    4.30
   3  -8   3   -0.60    6.30
  -3  -8  -3    2.30    4.70
   3  -8   3    8.50    3.60
   3  -8   3    4.40    2.40
   3   8   4    9.80    5.00
   3   8   4    8.20    5.50
   3  -8   4    8.50    2.70
   3  -8   4    6.20    4.00
   3   8   5   -3.40    4.60
   3   8   5    7.30    6.00
   3  -8   5   13.00    9.80
   3   8   6    6.80    6.30
   3   8   6   20.00    8.00
   3   8   6    3.20    6.30
   3  -8   6   21.60    7.40
   3   8   7  -11.40   10.50
   3   8   7    2.30    7.30
   3  -8   7  -12.10    9.40
  -3   9   9   -0.30    9.40
  -3  -9   9    7.90    7.10
   3   9  -8    3.70    7.60
  -3   9   8   10.40    7.90
  -3  -9   8    0.90    5.80
   3   9  -7  130.49   11.70
  -3   9   7  110.39   13.30
  -3  -9   7  124.09   13.00
   3   9  -6   74.39    8.20
  -3   9   6   81.59   10.10
  -3  -9   6   78.89    8.30
   3   9  -5    6.00    4.30
  -3   9   5    4.50    5.00
  -3   9   5    2.30    2.10
  -3  -9   5   -1.60    4.60
  -3  -9   5   -1.80    3.30
   3  -9  -5    5.50    4.70
   3  -9  -5    2.10    2.00
  -3   9   4    1.70    4.10
   3   9  -4    0.40    3.70
  -3   9   4   -0.80    2.60
   3   9  -4   -1.60    3.00
  -3  -9   4    5.70    4.40
   3  -9  -4    0.80    2.70
  -3  -9   4   -0.60    3.00
   3  -9  -4    1.60    4.00
  -3   9   3  246.58   13.30
   3   9  -3  288.47   13.20
   3   9  -3  265.87   12.60
   3  -9  -3  262.77   13.80
  -3  -9   3  270.07   12.50
   3  -9  -3  240.18   12.60
  -3  -9   3  265.67   12.70
  -3   9   2  219.28   12.00
  -3   9   2  208.08    9.70
   3   9  -2  210.38   11.00
   3   9  -2  217.18   11.30
   3  -9  -2  215.58   10.70
  -3  -9   2  219.88   11.60
  -3  -9   2  221.18   10.90
   3   9  -1   66.49    6.40
   3   9  -1   62.59    6.40
  -3   9   1   65.19    5.60
  -3   9   1   76.99    6.90
  -3  -9   1   70.19    6.70
  -3  -9   1   64.69    6.80
   3  -9  -1   71.19    6.70
   3  -9  -1   71.89    6.60
   3   9   0    1.60    2.90
   3   9   0    5.10    6.10
  -3   9   0   -0.80    2.50
  -3   9   0   -2.60    2.40
  -3  -9   0    3.20    4.30
  -3  -9   0    8.30    3.50
   3  -9   0    4.30    2.80
   3  -9   0    6.40    4.20
   3   9   1  156.98    9.30
   3   9   1  157.98    9.70
  -3   9  -1  166.68    8.90
  -3   9  -1  156.88    9.50
   3  -9   1  153.28    8.80
  -3  -9  -1  156.68    9.40
   3  -9   1  167.88   10.80
  -3  -9  -1  164.08   10.50
  -3   9  -2   18.00    3.70
  -3   9  -2   11.20    4.50
   3   9   2   21.20    4.10
   3   9   2   14.30    3.90
   3  -9   2   15.00    5.70
  -3  -9  -2   21.60    4.70
   3  -9   2   17.50    4.10
  -3   9  -3   39.60    4.00
   3   9   3   35.20    5.40
   3   9   3   35.60    6.70
  -3   9  -3   41.30    6.60
  -3  -9  -3   33.40    5.80
   3  -9   3   44.40    4.90
   3   9   4    0.60    5.00
   3   9   4   14.60    5.70
   3  -9   4   10.80    2.90
   3  -9   4   12.00    5.10
   3   9   5   52.79    8.40
   3   9   5   81.59    9.60
   3  -9   5   79.69    9.80
   3   9   6   17.90    6.80
   3   9   6   20.70    7.40
   3   9   6   16.30    8.70
   3  -9   6   22.90    7.80
   3   9   7    1.00    7.60
   3   9   7    0.00   10.90
   3  -9   7   19.40   10.80
  -3  10   9   -7.50    9.50
  -3 -10   9    8.40    7.10
   3  10  -8   -7.30    8.30
  -3 -10   8    3.10    6.60
   3  10  -7    3.30    6.60
  -3  10   7    2.40    6.90
  -3 -10   7   -1.00    8.20
  -3 -10   7   14.30    5.40
   3  10  -6   16.10    6.50
  -3  10   6   13.10    5.60
  -3 -10   6   17.10    6.90
   3 -10  -6   13.70    2.30
  -3  10   5    7.20    2.80
  -3  10   5    4.30    6.00
   3  10  -5    7.00    5.20
  -3 -10   5    1.50    5.10
   3 -10  -5    2.60    2.60
   3 -10  -5   -0.50    5.40
  -3 -10   5    8.20    4.10
  -3  10   4   42.60    5.80
   3  10  -4   49.99    6.10
  -3  10   4   47.30    7.10
   3  10  -4   35.40    5.80
  -3 -10   4   55.49    6.90
   3 -10  -4   44.30    6.80
  -3 -10   4   46.90    6.20
   3 -10  -4   50.89    4.90
   3  10  -3  182.58   11.20
  -3  10   3  192.78    9.30
  -3  10   3  191.98   11.50
   3  10  -3  176.88   10.40
  -3 -10   3  197.68   11.00
   3 -10  -3  196.58   12.00
  -3 -10   3  190.78   10.90
   3 -10  -3  182.48    9.90
  -3  10   2    7.70    2.40
  -3  10   2    2.90    4.00
   3  10  -2    1.10    3.50
   3  10  -2    3.20    3.20
  -3 -10   2    7.00    4.10
  -3 -10   2    3.30    3.30
   3 -10  -2    2.40    3.80
   3 -10  -2    2.40    4.00
  -3  10   1  110.99    8.60
   3  10  -1  102.59    7.90
   3  10  -1  119.39    8.20
  -3  10   1  106.69    7.10
  -3 -10   1  122.99    8.20
   3 -10  -1  128.39    8.70
   3 -10  -1  110.19    8.30
  -3 -10   1  124.19    8.90
   3  10   0   29.10    4.60
   3  10   0   11.90    3.20
  -3  10   0   29.30    4.10
   3 -10   0   14.20    3.60
   3 -10   0   30.70    5.20
  -3 -10   0   20.10    7.20
  -3 -10   0   22.10    4.60
   3  10   1   -2.60    4.00
  -3  10  -1    4.90    3.50
   3  10   1    0.80    3.20
  -3  10  -1    0.90    3.00
   3 -10   1    4.00    2.90
   3 -10   1   -6.40    4.20
  -3 -10  -1   -3.90    3.50
  -3 -10  -1    3.20    4.40
  -3  10  -2   21.10    4.00
   3  10   2   11.80    4.40
  -3  10  -2   17.90    4.70
   3  10   2   18.70    5.00
   3 -10   2   17.70    6.20
   3 -10   2   19.20    4.40
  -3 -10  -2   19.70    5.10
  -3 -10  -2   14.40    4.90
  -3  10  -3    0.20    3.00
  -3  10  -3    0.70    2.40
   3  10   3    1.50    4.70
   3  10   3    2.70    3.60
  -3  10  -3    1.50    4.70
   3 -10   3   -1.20    2.80
   3  10   4   53.29    8.00
  -3  10  -4   46.30    7.70
   3  10   4   47.60    7.20
   3  10   4   44.40    7.00
   3 -10   4   47.60    7.00
   3 -10   4   62.69    5.80
   3  10   5   -2.70    7.90
   3  10   5   -2.90    7.10
   3  10   5   -2.90    5.70
   3 -10   5    7.90    6.20
   3  10   6   16.20    7.80
   3  10   6  -10.10    8.60
   3 -10   6   13.10    8.50
   3  10   7    1.20    8.20
   3  10   7  -10.70   11.70
   3 -10   7  -11.50   10.30
  -3  11   8    7.30    9.50
   3  11  -8  -13.60    9.20
  -3 -11   8    3.30    6.30
   3  11  -7   26.50    7.90
  -3  11   7   18.70    8.30
  -3 -11   7   37.00    6.80
  -3 -11   7    2.60    9.10
   3  11  -6   54.19    8.60
  -3  11   6   47.60    8.60
  -3  11   6   49.00    5.30
   3 -11  -6   47.90    4.80
  -3 -11   6   68.39    8.90
  -3  11   5    1.90    4.60
   3  11  -5   11.50    5.70
  -3  11   5   10.00    4.10
  -3 -11   5    9.60    4.50
   3 -11  -5    5.60    3.50
  -3 -11   5   24.30    6.30
   3  11  -4    7.40    4.00
   3  11  -4   13.00    5.10
  -3  11   4    9.70    3.30
  -3  11   4    2.20    4.10
   3 -11  -4   13.40    5.20
  -3 -11   4   19.90    5.40
  -3 -11   4   13.90    4.40
   3 -11  -4    9.80    3.80
   3  11  -3   28.40    4.40
   3  11  -3   35.20    6.30
  -3  11   3   34.50    4.30
  -3  11   3   20.30    4.30
   3 -11  -3   35.10    5.00
  -3 -11   3   35.70    5.80
   3 -11  -3   30.20    6.00
  -3 -11   3   35.90    5.70
   3  11  -2   45.80    6.30
  -3  11   2   49.80    5.60
  -3  11   2   49.60    6.70
   3  11  -2   46.90    6.70
   3 -11  -2   49.00    5.70
  -3 -11   2   48.20    6.20
  -3 -11   2   58.29    7.30
  -3  11   1    2.90    2.90
  -3  11   1    4.00    3.80
   3  11  -1    1.00    2.80
   3  11  -1   -2.00    3.10
  -3 -11   1    8.20    4.50
  -3 -11   1    2.50    3.80
   3 -11  -1    9.90    4.30
   3 -11  -1    4.70    3.80
  -3  11   0  126.39    8.50
  -3  11   0  102.69    8.60
   3  11   0  149.79   11.90
   3  11   0  137.59    9.40
   3 -11   0  138.89    9.20
  -3 -11   0  139.79   10.60
   3 -11   0  153.88   10.00
  -3 -11   0  140.19    9.40
  -3  11  -1   14.30    3.90
  -3  11  -1   14.70    4.40
   3  11   1   13.80    4.40
   3  11   1   18.80    6.80
  -3 -11  -1   13.20    4.40
   3 -11   1   12.30    3.90
   3 -11   1   24.80    6.00
  -3 -11  -1   11.30    5.20
   3  11   2   -0.70    3.90
  -3  11  -2    1.50    3.40
  -3  11  -2    1.00    4.50
   3  11   2   -1.70    4.20
  -3 -11  -2    1.00    4.70
   3 -11   2   -5.40    6.10
   3 -11   2   -3.10    3.60
  -3 -11  -2    2.70    4.40
   3  11   3   14.80    4.80
  -3  11  -3   17.20    5.90
   3  11   3   13.10    5.90
  -3  11  -3   22.90    3.40
   3 -11   3   12.30    3.70
  -3  11  -4    7.30    6.70
   3  11   4   11.70    6.00
   3  11   4   -0.60    5.30
   3  11   4   -9.30    6.40
   3 -11   4    3.10    3.30
   3  11   5   35.70    8.30
   3  11   5   49.50    8.00
   3 -11   5   46.80    8.70
   3  11   6   26.40    9.90
   3  11   6    4.60    7.70
   3 -11   6   -8.00    7.10
   3  11   7  -19.90   11.70
   3  11   7    3.70    8.10
   3 -11   7    0.90   10.60
  -3  12   8   12.20    9.70
   3  12  -8   -3.00    9.50
  -3 -12   8    7.60    6.90
  -3  12   7   25.00    8.70
   3  12  -7   34.40    9.40
  -3 -12   7   13.40    6.00
  -3 -12   7   17.10   10.80
   3  12  -6    3.60    7.50
  -3  12   6    7.40    4.30
  -3  12   6    2.90    6.60
  -3 -12   6    5.20    8.10
   3 -12  -6    2.40    3.50
  -3  12   5   26.60    4.70
   3  12  -5   21.20    6.60
  -3  12   5   28.20    7.30
  -3 -12   5   28.80    7.00
   3 -12  -5   21.30    4.40
  -3 -12   5   25.90    5.50
   3  12  -4    6.80    4.60
  -3  12   4    3.40    3.20
   3  12  -4    1.30    5.10
  -3  12   4   -4.50    4.10
  -3 -12   4   -2.20    5.40
   3 -12  -4   -0.60    5.00
  -3 -12   4    5.00    4.10
   3 -12  -4    0.70    3.80
  -3  12   3   38.00    4.80
  -3  12   3   51.99    7.30
   3  12  -3   34.50    5.60
   3  12  -3   55.79    7.60
   3 -12  -3   47.60    6.00
   3 -12  -3   28.70    5.90
  -3 -12   3   29.60    5.20
  -3 -12   3   41.80    6.20
  -3  12   2   90.89    7.10
   3  12  -2   99.59    8.20
   3  12  -2   95.39    9.00
  -3  12   2  103.69    9.40
  -3 -12   2   86.19    7.90
   3 -12  -2  104.69    9.30
   3 -12  -2   85.49    8.50
  -3 -12   2   94.79    8.60
  -3  12   1    8.30    3.30
  -3  12   1    8.10    6.40
   3  12  -1    2.00    3.90
   3  12  -1    2.10    3.80
   3 -12  -1    6.50    4.70
  -3 -12   1    5.20    4.40
   3 -12  -1    2.50    3.60
  -3 -12   1    6.80    4.80
  -3  12   0   -6.80    2.80
   3  12   0   -3.00    4.00
   3  12   0   -2.30    4.10
  -3  12   0   -2.90    3.80
  -3 -12   0   -3.10    4.30
  -3 -12   0   -2.80    4.10
   3 -12   0   -6.60    4.80
   3 -12   0   -1.50    3.40
  -3  12  -1   30.50    4.90
   3  12   1   30.00    6.00
  -3  12  -1   34.40    5.00
   3  12   1   19.70    4.60
   3 -12   1   26.30    6.20
   3 -12   1   22.60    4.70
  -3 -12  -1   14.50    5.60
  -3 -12  -1   27.90    5.60
  -3  12  -2   -0.50    4.60
  -3  12  -2    4.60    3.70
   3  12   2    4.10    4.30
   3  12   2   -4.00    4.70
  -3 -12  -2   -0.60    5.50
   3 -12   2    0.60    3.90
   3  12   3   27.90    6.20
   3  12   3   24.80    6.00
  -3  12  -3   21.90    6.60
  -3  12  -3   28.30    4.40
   3 -12   3   20.20    4.30
   3  12   4   44.20    7.90
  -3  12  -4   45.00    9.30
   3  12   4   31.90    8.20
   3  12   4   29.50    7.30
   3 -12   4   48.50    6.60
   3  12   5   25.50    8.50
   3  12   5   12.10    6.40
   3  12   5   20.80    7.70
   3 -12   5   21.60    7.40
   3  12   6    6.30    8.10
   3  12   6    6.40    9.70
   3 -12   6    0.20    7.90
   3  12   7    6.80   12.70
   3  12   7    6.60    8.90
   3 -12   7   -6.70   10.90
   3  13  -8   12.60   11.60
  -3  13   8   10.70   11.10
  -3 -13   8    2.60    7.40
   3  13  -7   -2.80    8.90
  -3  13   7    1.00    8.10
  -3 -13   7    1.10    6.00
   3  13  -6    8.40    8.00
  -3  13   6    0.60    4.20
  -3  13   6    6.60    8.80
   3 -13  -6   -0.60    4.00
  -3 -13   6    5.10    9.80
  -3  13   5   26.90    7.70
  -3  13   5   24.00    4.50
   3  13  -5   29.10    7.20
  -3 -13   5   36.40    5.80
   3 -13  -5   21.40    4.70
  -3 -13   5   17.70    7.30
  -3  13   4   92.59   10.40
   3  13  -4   77.09    9.30
  -3  13   4   75.79    7.30
  -3 -13   4   93.09    9.80
  -3 -13   4   89.39    9.00
   3 -13  -4   88.19    8.50
   3 -13  -4   96.39   10.80
   3  13  -3   -6.50    4.10
  -3  13   3    5.90    3.40
   3  13  -3    0.10    5.60
  -3  13   3   -1.30    4.30
   3 -13  -3    9.30    5.60
  -3 -13   3    9.00    4.30
   3 -13  -3    6.00    4.80
  -3 -13   3    3.20    5.40
   3  13  -2    6.90    4.00
  -3  13   2    0.80    4.70
   3  13  -2   -4.10    4.50
  -3  13   2   -0.90    3.30
  -3 -13   2   -2.20    4.70
  -3 -13   2    5.20    4.40
   3 -13  -2    1.50    4.30
   3 -13  -2    5.00    5.00
   3  13  -1   76.79    8.10
  -3  13   1   74.99    9.10
  -3  13   1   77.19    7.60
   3  13  -1   82.49    8.60
  -3 -13   1   77.89    8.90
   3 -13  -1   87.29    8.90
  -3 -13   1   89.39    8.70
   3 -13  -1   85.09    8.50
   3  13   0  100.69    8.90
  -3  13   0   89.89    8.80
  -3  13   0   99.59    8.50
   3  13   0  118.99    9.60
  -3 -13   0  100.69    9.80
   3 -13   0   82.29    8.40
  -3 -13   0  107.69    9.60
   3 -13   0   96.09    9.90
  -3  13  -1   98.99    8.90
   3  13   1   96.69    9.40
   3  13   1  119.79   10.00
  -3  13  -1   97.59    9.00
  -3 -13  -1   99.79    9.10
  -3 -13  -1  162.18   17.90
   3 -13   1   94.99    8.60
   3 -13   1   95.09   10.30
  -3  13  -2   62.79    7.80
  -3  13  -2   63.49    6.80
   3  13   2   62.49    8.10
   3  13   2   40.30    6.30
   3 -13   2   57.49    7.70
   3  13   3    3.10    5.90
  -3  13  -3    4.40    5.30
  -3  13  -3    5.90    4.10
   3  13   3   -2.70    5.20
   3 -13   3    1.40    3.50
   3  13   4  -11.30    6.30
   3  13   4   15.20    6.90
   3 -13   4    6.40    4.60
   3  13   5    5.10    6.80
   3  13   5    8.00    8.70
  -3  13  -5   14.60    8.50
   3 -13   5   10.10    6.50
   3  13   6   11.40    8.80
   3  13   6   -9.40   10.00
   3 -13   6    2.70    8.80
   3  14  -8   -0.70   11.70
  -3  14   8    9.00   11.30
  -3 -14   8   13.40    8.10
  -3  14   7    3.80    9.10
   3  14  -7   11.30    9.90
  -3 -14   7    5.30    6.80
   3  14  -6   -1.40    7.30
  -3  14   6    7.90    8.60
  -3  14   6    0.30    4.30
  -3 -14   6  -11.60    7.90
  -3  14   5    8.60    4.40
  -3  14   5   20.00    7.70
   3  14  -5    7.50    7.30
   3 -14  -5   10.20    5.20
   3  14  -4    8.90    6.30
  -3  14   4   22.50   10.10
  -3  14   4   11.20    4.10
  -3 -14   4   17.40    5.00
  -3 -14   4   16.30    6.50
   3 -14  -4    6.80    3.20
   3 -14  -4   15.70    5.30
   3  14  -3   79.79   10.00
   3  14  -3   82.69    8.40
  -3  14   3   93.19    9.90
  -3  14   3   85.99    7.50
   3 -14  -3  131.49   15.90
  -3 -14   3   82.49    9.00
  -3 -14   3   70.59    9.10
   3 -14  -3   69.59    7.90
   3  14  -2   36.60    6.00
   3  14  -2   35.50    7.30
  -3  14   2   40.40    8.00
  -3  14   2   34.60    5.70
  -3 -14   2   36.20    6.50
   3 -14  -2   34.80    6.60
   3 -14  -2   21.20    5.70
  -3 -14   2   27.60    6.50
  -3  14   1   13.50    4.30
  -3  14   1    6.70    4.40
   3  14  -1   11.20    4.90
   3  14  -1    8.50    3.60
   3 -14  -1    8.00    5.80
   3 -14  -1   20.00    5.70
  -3 -14   1    5.40    5.70
  -3 -14   1   18.40    9.30
  -3  14   0    9.20    4.90
  -3  14   0    2.60    4.20
   3  14   0   24.20    6.60
   3  14   0   10.90    5.20
   3 -14   0    5.00    6.30
   3 -14   0   14.10    4.80
  -3 -14   0   10.90    5.60
  -3 -14   0    9.80    5.10
   3  14   1   24.80    6.40
  -3  14  -1   17.60    5.60
  -3  14  -1   22.50    5.30
  -3 -14  -1   22.90    6.80
   3 -14   1   19.80    4.80
  -3  14  -2   23.30    6.40
   3  14   2   12.70    6.20
  -3  14  -2   18.60    5.60
   3  14   2   13.90    5.50
   3 -14   2   24.80    5.30
   3  14   3   -6.80    5.80
   3  14   3    1.50    5.70
   3  14   3    0.10    7.10
  -3  14  -3   13.10    5.10
   3 -14   3    7.60    4.40
   3  14   4  103.09   15.50
   3  14   4   79.29   10.60
   3 -14   4  115.89    9.30
  -3  14  -5  -16.10    8.60
   3  14   5   -0.30    7.20
   3  14   5    6.30    8.50
   3 -14   5   18.30    7.60
   3  14   6    4.80    9.10
   3  14   6  -16.90   11.20
   3 -14   6   -7.00    9.60
  -3  15   8   -9.40   10.40
  -3 -15   8    2.00    8.90
  -3  15   7   23.50   10.00
   3  15  -7   22.40   11.00
  -3 -15   7    8.00    7.70
  -3  15   6    1.00    5.00
   3  15  -6    6.90    8.50
  -3 -15   6    6.90    6.20
   3  15  -5   15.30    8.50
  -3  15   5   15.10    7.50
  -3  15   5   25.40    5.20
   3 -15  -5   32.00    6.50
  -3  15   4    8.30    5.70
   3  15  -4   -6.70    6.70
  -3  15   4    9.30    4.40
  -3 -15   4    3.00    4.90
   3 -15  -4   -5.80    8.70
   3 -15  -4    6.60    5.90
  -3  15   3   16.30    4.50
   3  15  -3   17.30    6.50
   3  15  -3   12.20    5.20
  -3  15   3   12.90    5.40
  -3 -15   3   17.60    5.80
   3 -15  -3   -2.00    5.70
   3 -15  -3   10.90    5.40
  -3  15   2    5.60    4.40
   3  15  -2   14.90    4.20
  -3  15   2   23.00    5.00
   3  15  -2   14.00    6.20
  -3 -15   2    5.10    6.50
  -3 -15   2   38.70    8.10
   3 -15  -2   23.50   10.20
   3 -15  -2   25.80    6.80
  -3  15   1  267.27   14.20
   3  15  -1  286.67   16.00
   3  15  -1  278.67   16.00
  -3  15   1  267.27   15.90
  -3 -15   1  259.27   15.70
   3 -15  -1  273.77   15.90
   3 -15  -1  266.27   15.50
   3  15   0   48.50    8.00
  -3  15   0   22.40    6.00
   3  15   0   25.80    6.40
  -3  15   0   36.30    6.80
  -3 -15   0   20.90    6.40
   3 -15   0   37.40    6.40
   3 -15   0   35.60    7.60
  -3  15  -1  158.48   11.90
  -3  15  -1  129.69   10.90
   3  15   1  159.18   12.40
   3  15   1  159.88   11.70
  -3 -15  -1  171.68   13.70
   3 -15   1  150.58   11.00
   3  15   2   64.39    9.80
  -3  15  -2   35.80    7.40
   3  15   2   37.70    7.60
  -3  15  -2   43.10    6.90
   3 -15   2   36.70    6.80
  -3  15  -3    8.50    5.30
   3  15   3   -2.90    6.10
   3  15   3    1.10    6.90
   3  15   3    6.80    6.50
   3 -15   3    6.30    4.90
   3  15   4   15.90    7.90
  -3  15  -4    2.70    7.70
   3  15   4    6.60    6.90
   3  15   5   27.70   10.00
  -3  15  -5   21.80   10.50
   3  15   5   37.30   10.30
   3  15   6    8.20   10.30
   3  15   6   16.40   12.20
   3  16  -8  -17.20   18.20
  -3  16   8   23.70   12.70
  -3 -16   8    0.30    8.50
  -3  16   7    3.40   10.90
  -3 -16   7   11.90    8.00
  -3  16   6   -1.50    5.70
   3  16  -6   13.50    9.40
  -3 -16   6   -4.30    6.40
  -3  16   5   12.20    5.10
  -3  16   5    0.90    7.60
   3  16  -5   -2.10    8.20
   3 -16  -5  -12.40    6.40
  -3  16   4   53.49    6.90
  -3  16   4   31.60    7.30
   3  16  -4   39.40    9.00
  -3 -16   4   31.90    6.90
   3 -16  -4   46.80    9.60
   3 -16  -4   41.70    7.60
  -3  16   3   49.99    6.50
   3  16  -3   53.29    8.90
  -3  16   3   55.09    9.40
   3 -16  -3   46.90    7.60
   3 -16  -3   34.90    6.70
  -3 -16   3   46.20    7.50
  -3  16   2   -3.90    4.30
  -3  16   2   -1.80   12.30
   3  16  -2   -3.20    5.80
   3  16  -2    0.90    4.90
   3 -16  -2   -0.80    5.30
  -3 -16   2    5.20    5.20
   3 -16  -2    8.30    7.20
   3  16  -1   18.50    6.20
   3  16  -1   20.10    6.30
  -3  16   1   14.60    4.90
  -3  16   1    9.30    5.60
   3 -16  -1   18.50    8.00
  -3 -16   1   17.70    5.90
   3 -16  -1   16.40    6.60
  -3  16   0    6.70    5.00
   3  16   0   -0.30    5.80
  -3  16   0    9.00    5.20
   3  16   0    6.50    5.70
  -3 -16   0   10.80    6.20
   3 -16   0   -0.40    4.70
  -3  16  -1   -0.80    5.40
  -3  16  -1    0.30    5.50
   3  16   1    3.50    6.00
   3  16   1    5.10    5.10
   3 -16   1   -5.30    5.30
  -3 -16  -1    3.10    7.20
   3  16   2   -5.20    5.60
  -3  16  -2   13.50    6.70
   3  16   2    3.60    6.30
   3  16   2    5.30    6.40
   3 -16   2    9.10    5.70
  -3  16  -3   15.40    6.00
   3  16   3   10.70    8.10
   3  16   3   16.40    8.40
   3  16   3    5.20    6.70
   3 -16   3    7.10    5.30
  -3  16  -4  113.89   13.00
   3  16   4   91.99   11.80
   3  16   4  123.79   15.60
  -3  16  -5   18.10   11.00
   3  16   5   16.00    8.70
   3  16   5    8.60   10.50
   3  16   6   -0.20   10.80
   3  16   6   -3.20   12.30
   3 -16   6   13.60   10.90
  -3  17   7   19.00   12.90
  -3 -17   7   22.10    9.00
   3  17  -6    2.90   12.10
  -3  17   6   20.00    6.80
  -3 -17   6   11.10    7.50
  -3  17   5   53.69   17.70
   3  17  -5   59.99   10.90
  -3  17   5   44.70    7.40
  -3 -17   5   52.89    8.20
   3 -17  -5   30.60    7.70
  -3  17   4    6.30    5.60
  -3  17   4   11.00    8.10
   3  17  -4   -1.70    7.80
   3 -17  -4   10.10    7.20
   3 -17  -4   15.40    7.20
  -3 -17   4    5.30   10.30
   3  17  -3   16.80    7.30
  -3  17   3    2.20    6.20
  -3  17   3   -0.10    5.40
   3 -17  -3    6.30    6.90
  -3 -17   3   10.70    6.50
   3 -17  -3    7.80    6.60
   3  17  -2   29.60    5.90
  -3  17   2   52.69    7.30
   3  17  -2   53.89    9.10
  -3  17   2   30.90    6.90
  -3 -17   2   59.59    8.90
   3 -17  -2   77.79    9.70
   3  17  -1    5.40    5.80
  -3  17   1    3.80    5.10
  -3  17   1   -2.50    5.70
   3  17  -1   -9.30    5.50
   3 -17  -1   -9.80    5.70
  -3 -17   1   -6.50    6.00
   3  17   0   26.90    6.60
   3  17   0   28.80    6.70
  -3  17   0   44.10    6.90
  -3  17   0   37.40    7.80
   3 -17   0   34.20    8.10
  -3 -17   0   30.00    7.90
   3  17   1   -8.50    6.70
   3  17   1   -4.40    5.30
  -3  17  -1    3.10    6.20
  -3  17  -1   -0.10    6.40
   3 -17   1   -5.40    4.80
  -3  17  -2    4.60    7.00
   3  17   2  -15.10    6.70
   3  17   2   -6.20    6.50
   3  17   2    5.10    7.10
   3 -17   2    5.40    6.00
   3  17   3   24.10    8.20
   3  17   3   28.10    9.50
   3  17   3   40.00    9.20
  -3  17  -3   30.80    7.00
   3 -17   3   25.20    6.50
  -3  17  -4    4.00    9.80
   3  17   4    8.80    8.80
   3  17   4    0.50    7.70
   3  17   5    4.10   11.00
  -3  17  -5    4.00   10.50
   3  17   5    2.50    9.60
   3  17   6  -17.70   10.80
   3  17   6   -2.90   14.80
   3 -17   6   17.70   11.20
  -3  18   7   36.40   14.80
   3  18  -7   19.00   15.70
  -3 -18   7   31.70   10.80
  -3  18   6   -2.80   10.60
  -3  18   6   -4.20    7.50
  -3 -18   6    3.40    7.50
  -3  18   5   -0.80    9.00
  -3  18   5    5.10    6.20
   3 -18  -5   10.60    8.10
  -3 -18   5   -6.70    7.40
   3  18  -4   54.59   10.80
  -3  18   4   53.49   11.30
  -3  18   4   67.89    8.20
   3 -18  -4   55.19    9.50
   3  18  -3   25.40    8.60
  -3  18   3   26.30    6.30
  -3  18   3   17.00    8.10
   3 -18  -3   19.50    8.10
  -3 -18   3   33.30    7.90
   3 -18  -3   31.70   10.20
  -3  18   2  191.58   13.40
   3  18  -2  203.58   15.60
  -3  18   2  209.38   16.40
  -3 -18   2  221.28   16.90
   3 -18  -2  196.48   15.50
  -3  18   1   32.40    9.80
   3  18  -1   16.50    5.90
   3  18  -1   31.40    7.70
  -3  18   1   42.80    7.10
  -3 -18   1   17.80    6.80
   3 -18  -1   14.10    6.30
  -3  18   0  102.39   12.70
   3  18   0  126.89   12.10
  -3  18   0  123.19   11.40
  -3 -18   0  113.39   15.20
   3 -18   0  140.39   12.90
  -3  18  -1   13.70    7.20
   3  18   1   -9.60    9.90
   3  18   1    4.20    6.70
   3  18   1   -4.00    9.00
  -3  18  -1   -2.00    6.60
   3 -18   1    8.40    6.10
   3  18   2  125.09   14.30
   3  18   2   98.79   13.70
   3  18   2  133.39   15.70
  -3  18  -2  121.79   13.80
   3 -18   2  119.89   12.50
  -3  18  -3    5.10    7.00
   3  18   3   10.00    8.30
  -3  18  -3   -4.30   12.40
   3 -18   3    8.20    6.60
  -3  18  -4   42.30   10.80
   3  18   4   14.90    9.90
   3  18   4   24.60    9.40
   3  18   5    3.30   12.10
   3  18   5    9.40   11.30
  -3  18  -5   15.80   12.40
  -3  19   7    8.60   13.40
   3  19  -7   -7.20   16.10
  -3 -19   7    2.90    9.90
   3  19  -6    9.10   12.20
  -3  19   6   18.30    8.80
  -3  19   6    9.00   12.20
  -3 -19   6    0.30    9.50
  -3  19   5   28.60    7.80
  -3  19   5   36.00   11.00
  -3 -19   5   41.10    9.40
  -3  19   4   12.10    7.20
   3  19  -4   33.40   12.20
  -3  19   4   14.50    8.50
   3 -19  -4   17.00    9.00
  -3  19   3   27.00    8.40
   3  19  -3   40.70    9.70
  -3  19   3   45.40    8.00
  -3 -19   3   67.69   10.90
   3 -19  -3   39.50    9.60
  -3  19   2   52.99    8.20
   3  19  -2   64.29   10.50
  -3  19   2   47.70    8.00
  -3 -19   2   78.89   11.50
  -3  19   1   49.20    9.70
   3  19  -1   52.99    9.60
  -3  19   1   54.29    8.20
   3  19  -1   43.50    8.60
  -3 -19   1   65.19   11.10
   3  19   0   25.50    7.50
  -3  19   0   34.10    9.00
   3  19   0   41.10    9.00
  -3  19   0   52.19    8.90
   3 -19   0   29.70    7.70
  -3  19  -1   12.80    7.90
   3  19   1    3.40    8.50
   3  19   1   26.80   10.30
   3  19   1    4.80    8.20
   3 -19   1    9.60    7.60
   3  19   2   22.70    8.70
   3  19   2   12.20    9.20
  -3  19  -2    5.80    7.40
   3  19   2   -7.40    7.50
   3 -19   2   -1.50    7.00
  -3  19  -3  -12.50    8.40
   3  19   3  -16.40    8.50
   3  19   3    4.70   10.00
   3  19   4   -3.30    9.00
  -3  19  -4    2.70   10.80
   3  19   4    2.40   10.50
   3  19   5   19.20   12.50
   3  19   5   -2.80   11.00
  -3  19  -5  -13.30   12.20
   3  20  -7  -10.50   17.70
  -3  20   7    6.10   15.10
   3  20  -6    2.70   13.90
  -3  20   6  -10.30   11.90
  -3  20   6    4.40   11.10
  -3 -20   6    0.50   10.80
   3  20  -5   13.70   10.90
  -3  20   5   18.40    7.80
  -3 -20   5   20.60    8.90
  -3  20   4   23.90    9.90
   3  20  -4   54.49   18.70
  -3  20   4   30.30    8.10
  -3 -20   4   43.00   10.30
  -3  20   3    0.40    7.50
  -3  20   3   -5.30    9.40
   3  20  -3    1.80    9.60
   3 -20  -3   -4.80    8.80
  -3  20   2   14.20    7.40
  -3  20   2   37.60   10.20
   3  20  -2   26.10    9.50
  -3 -20   2   55.29   10.40
   3 -20  -2   24.30    9.30
  -3  20   1   10.50    6.70
   3  20  -1    5.50   10.20
   3 -20  -1   -3.70    7.50
  -3 -20   1   -2.40    9.40
  -3  20   0   14.20    8.50
   3  20   0   14.50    9.80
  -3  20   0    1.30    7.60
   3  20   0   -1.20    8.70
   3 -20   0    5.80    8.40
  -3  20  -1    0.10    8.60
   3  20   1  -10.80    9.90
   3  20   1   -1.50    8.60
   3  20   1   -7.30   10.80
  -3  20  -1    0.40    7.70
   3 -20   1    7.60    7.60
   3  20   2  -20.10   18.40
   3  20   2    2.50    8.70
   3  20   2   -7.20    6.80
  -3  20  -2   17.30    8.60
   3 -20   2   16.40    7.20
  -3  20  -3  -10.70    9.60
   3  20   3   -0.80    9.80
   3  20   4    5.30   11.00
  -3  20  -4   34.80   13.10
   3  20   4   -1.50   10.60
   3  20   5   10.70   13.30
   3  20   5   21.90   15.10
  -3  20  -5   -1.10   13.80
   3  21  -6   31.10   15.10
  -3  21   6   25.20   15.30
  -3 -21   6   32.60   12.90
  -3  21   5   13.20   13.00
   3  21  -5    0.00   12.30
  -3  21   5   14.80    8.90
  -3 -21   5  -15.70    9.90
  -3  21   4   17.90    8.30
   3  21  -4   12.60   10.70
  -3  21   4    8.00   11.70
  -3 -21   4    7.40    9.70
  -3  21   3  108.09   16.20
  -3  21   3  128.59   14.20
   3  21  -3   96.39   18.00
   3  21  -3  146.49   17.40
   3 -21  -3   92.99   13.80
   3  21  -2   65.69   15.60
  -3  21   2   59.29    9.70
   3  21  -2   62.89   11.60
  -3  21   2   77.19   15.90
   3 -21  -2   73.29   17.50
  -3 -21   2   82.69   12.10
   3  21  -1   12.20   10.10
  -3  21   1   28.70    9.50
  -3  21   1    7.80   15.40
   3 -21  -1   13.10   14.50
  -3  21   0   50.49   10.10
   3  21   0   36.40   10.50
   3  21   0   49.60   15.80
  -3  21   0   34.20    8.70
   3 -21   0   48.50    9.30
   3  21   1  -19.70   13.10
  -3  21  -1   -4.40    8.30
   3  21   1  -13.30    9.00
   3  21   1   18.00    9.10
   3 -21   1   -4.00    7.50
   3  21   2   44.00   13.10
  -3  21  -2   39.00   11.30
   3  21   2   35.80   10.30
   3  21   3   14.60   11.00
  -3  21  -3    2.80    9.80
   3  21   4   -6.90   12.10
   3  21   4   11.30   12.30
  -3  21  -4   23.00   12.90
  -3  22   6   -0.30   17.70
   3  22  -6   16.00   16.20
   3  22  -5   14.90   14.00
  -3  22   5    0.90    9.10
  -3 -22   5   -3.10   11.00
  -3  22   4    8.50   12.50
   3  22  -4  -15.40   12.60
  -3  22   4  -12.70    8.60
  -3 -22   4    6.10   10.80
  -3  22   3   19.10   13.70
   3  22  -3   27.30   11.90
  -3  22   3    3.00    8.70
   3 -22  -3    6.60   12.90
  -3 -22   3   -3.30   11.80
   3  22  -2    7.00   10.30
  -3  22   2   -3.40   10.40
   3 -22  -2   18.00   11.50
  -3  22   1   -5.80    9.70
   3  22  -1   -0.80    9.20
   3  22  -1    4.20    9.20
  -3  22   1  -13.10    8.00
   3 -22  -1   20.50   15.90
   3  22   0  -11.20   10.90
  -3  22   0    4.50    8.70
   3  22   0  -22.80   15.10
   3  22   1   13.90   10.90
   3  22   1   -4.60    9.70
   3  22   1   -2.80   10.50
  -3  22  -1    7.80    8.40
   3  22   2   -1.50   10.50
   3  22   2   14.10   10.70
  -3  22  -2    8.60    9.70
   3  22   3   18.80   12.00
   3  22   3    4.70   11.50
  -3  22  -3   31.50   13.00
  -3  22  -4   30.70   12.90
   3  22   4   14.50   13.40
   3  22   4    6.40   14.50
   3  23  -5   13.80   15.40
  -3  23   5   30.40   11.20
   3  23  -4   -1.50   12.50
  -3  23   4   -7.80   13.40
   3  23  -3   -7.60   11.50
  -3  23   3  -12.00    8.90
  -3  23   3   -6.20   12.70
   3  23  -2   20.40   12.00
  -3  23   2    4.30    9.60
  -3  23   2   14.20   10.10
   3  23  -1   27.40   11.60
  -3  23   1   15.70    9.70
   3  23  -1   39.20   10.70
  -3  23   1   30.40   23.50
   3  23   0   -7.30    9.70
  -3  23   0    4.60    9.90
   3  23   0   -5.60   12.70
  -3  23  -1   -3.20   10.00
   3  23   1   15.10   12.60
   3  23   1    2.80   11.50
   3  23   2   43.10   13.20
   3  23   2    1.40   16.60
  -3  23  -2    6.80   11.50
   3  23   3    3.80   13.30
   3  23   3   -1.60   16.30
  -3  23  -3   28.20   13.50
   3  23   4   12.70   15.20
  -3  23  -4   -6.70   12.80
   3  23   4    4.20   14.60
  -3  24   5   11.00   12.60
   3  24  -5   23.60   16.30
  -3  24   5   10.20   20.30
  -3  24   4   -8.00   14.30
  -3  24   4   -5.20   11.10
   3  24  -4   12.00   14.50
  -3  24   3   12.30   28.70
  -3  24   3    2.00   10.50
   3  24  -3  -15.70   11.30
   3  24  -2   20.40   12.80
  -3  24   2   -1.20   10.10
   3  24  -1   21.10   11.20
  -3  24   1   11.90    9.90
   3  24   0   14.00   12.80
   3  24   0    1.50   11.50
  -3  24   0  -10.60   10.20
  -3  24  -1  -22.00   10.80
   3  24   1    6.20   12.20
   3  24   1    2.60   16.70
  -3  24  -2  -11.50   12.10
   3  24   2   21.40   13.90
   3  24   2    4.10   13.30
   3  24   3   10.50   13.10
   3  24   3   32.20   19.50
  -3  24  -3    1.10   13.40
  -3  25   4   -1.60   23.60
   3  25  -4   22.70   15.90
  -3  25   4    1.30   11.10
   3  25  -3  -22.40   13.70
  -3  25   3    0.40   11.20
  -3  25   2    2.60   10.90
   3  25  -2   -7.70   13.60
  -3  25   1   11.00   11.80
   3  25  -1    3.10   12.40
  -3  25   0    2.70   10.60
   3  25   0   -2.80   18.30
   3  25   0  -34.00   12.20
   3  25   1    1.70   13.60
  -3  25  -1   -0.50   12.30
   3  25   1    1.20   14.60
   3  25   2    2.20   14.00
  -3  25  -2    8.90   13.00
  -3  25  -3  -19.40   13.40
   3  25   3   -2.00   16.10
   3  25   3  -20.20   15.00
   3  26  -4   37.20   16.00
  -3  26   4    3.10   12.10
  -3  26   3   21.10   13.30
   3  26  -3  -19.90   15.30
  -3  26   2    7.40   11.90
   3  26  -2   -6.40   14.40
   3  26  -1    6.50   13.10
  -3  26   1   -8.80   12.00
   3  26   0    6.80   14.20
  -3  26   0   -9.30   12.30
   3  26   1  -27.50   14.00
  -3  26  -1    3.60   12.80
  -3  26  -2    7.30   14.30
   3  26   2   18.70   14.40
   3  27  -3  -19.20   15.70
  -3  27   3  -12.50   15.00
  -3  27   2   32.30   14.90
   3  27  -2   43.30   15.90
  -3  27   1  -16.80   12.80
   3  27  -1   21.30   14.60
  -3  27   0   13.90   14.10
   3  27   0  -23.80   14.70
   3  27   1   14.40   15.90
  -3  27  -1   22.50   15.90
   3  28  -2   38.70   15.90
  -3  28   2   23.80   16.10
   3  28  -1  -31.30   15.20
  -3  28   1   -5.60   15.00
  -3  28   0   11.10   15.80
   3  28   0  -16.90   15.90
  -4   0   9    2.70    7.00
  -4   0   8   -0.40    6.00
  -4   0   6    1.20    4.20
   4   0  -5   -0.50    4.00
  -4   0   5    1.50    3.40
  -4   0   4  126.09    8.80
   4   0  -4  119.99    8.70
   4   0  -4  125.69    5.70
   4   0  -3   -2.20    2.80
   4   0  -3   -3.90    2.10
  -4   0   3    2.00    1.60
  -4   0   3    0.90    2.90
  -4   0   2 1240.88   42.60
   4   0  -2 1288.97   42.90
  -4   0   2 1163.18   41.10
   4   0  -2 1239.68   40.50
   4   0  -1    1.50    2.40
  -4   0   1    1.90    3.00
  -4   0   1   -1.50    2.10
   4   0  -1    5.50    2.90
   4   0   0 3050.39   96.89
  -4   0   0 2965.50   96.59
   4   0   0 3038.80   97.49
  -4   0   0 3042.90   97.39
   4   0   1   -1.90    2.10
  -4   0  -1    0.20    2.90
  -4   0  -1    4.30    3.50
   4   0   1    2.00    2.70
   4   0   2    4.80    2.90
   4   0   2    5.20    3.10
   4   0   2   -2.30    4.10
  -4   0  -2   -1.80    3.90
  -4   0  -2    5.00    3.40
   4   0   3    1.90    3.60
  -4   0  -3    1.20    3.40
   4   0   3    0.30    3.30
   4   0   4    9.00    3.40
   4   0   4   13.60    4.90
   4   0   5    1.50    3.80
   4   0   5   -3.60    5.80
   4   0   6   22.20    8.20
   4   0   6   15.10    4.30
   4   0   6   21.00    4.60
   4   0   7   -6.50   10.40
  -4   1   9   -6.40    6.70
  -4  -1   9   -3.50    7.00
  -4   1   8    0.70    6.50
  -4  -1   8    5.90    5.40
  -4   1   6    8.20    4.40
  -4  -1   6    5.20    4.50
  -4   1   5    6.70    4.30
   4   1  -5    8.90    4.20
  -4  -1   5    7.70    4.00
   4  -1  -5    8.30    4.60
   4   1  -4    4.20    2.30
   4   1  -4    2.80    3.30
  -4   1   4    3.80    3.70
   4  -1  -4    3.70    1.60
   4  -1  -4    2.60    1.50
  -4  -1   4    4.60    1.50
  -4  -1   4    3.10    3.50
   4  -1  -4    6.00    3.80
   4   1  -3    8.60    2.80
   4   1  -3    6.40    3.00
  -4   1   3    5.30    3.30
  -4  -1   3    3.80    2.70
   4  -1  -3    9.00    2.20
   4  -1  -3   10.80    5.70
  -4  -1   3    7.20    1.90
   4  -1  -3    7.00    2.30
   4   1  -2   19.30    4.00
  -4   1   2   29.80    4.80
   4   1  -2   34.50    3.80
   4  -1  -2   28.90    4.20
   4  -1  -2   31.70    3.80
  -4  -1   2   20.60    3.80
  -4  -1   2   29.30    3.50
   4   1  -1   37.40    4.40
   4   1  -1   57.89    8.00
  -4   1   1   32.40    3.90
  -4   1   1   63.19    9.20
   4  -1  -1   31.20    3.80
  -4  -1   1   36.70    4.20
  -4  -1   1   38.00    5.30
   4  -1  -1   33.90    4.80
  -4   1   0    6.50    3.10
   4   1   0    3.30    2.90
  -4   1   0    5.20    3.10
   4   1   0    3.20    2.30
   4  -1   0    5.90    2.70
  -4  -1   0    1.80    2.40
   4  -1   0    3.10    2.30
  -4  -1   0    5.30    2.90
  -4   1  -1    8.20    3.60
   4   1   1   15.70    3.00
   4   1   1    7.60    2.90
  -4   1  -1    9.30    3.20
   4  -1   1   11.40    2.90
   4  -1   1    9.90    3.00
  -4  -1  -1   11.10    3.10
   4  -1   1   14.60    4.20
  -4  -1  -1   13.20    3.90
   4   1   2   56.39    5.90
   4   1   2   56.29    6.10
  -4   1  -2   60.99    6.00
  -4  -1  -2   59.89    7.10
   4  -1   2   60.59    6.20
   4  -1   2   65.89    7.50
   4  -1   2   57.39    6.00
  -4  -1  -2   54.19    6.40
   4   1   3  247.48   12.70
  -4   1  -3  227.08   10.60
   4   1   3  231.58   12.40
   4  -1   3  217.58   12.40
   4  -1   3  227.28   10.90
  -4  -1  -3  225.08   11.40
   4   1   4   22.50    4.00
   4   1   4   25.60    5.60
   4  -1   4   28.00    5.90
   4  -1   4   25.80    3.80
   4   1   5    7.70    4.10
   4   1   5   10.20    6.50
   4  -1   5    7.90    3.50
   4  -1   5   19.70    7.10
   4   1   6   -3.00    7.70
   4   1   6   -1.10    4.40
   4   1   6    4.90    4.20
   4  -1   6    5.20    7.70
   4   1   7   -8.50   10.90
   4  -1   7   -4.00   11.20
  -4   2   9   -0.40    7.40
  -4  -2   9   -5.30    7.10
  -4   2   8   16.30    6.30
  -4  -2   8   16.40    6.00
  -4   2   6    2.60    4.30
  -4  -2   6   -1.50    3.80
   4   2  -5    7.60    4.10
  -4   2   5   12.20    4.20
   4   2  -5   12.20    2.30
  -4  -2   5    6.60    1.60
  -4  -2   5    7.20    3.90
   4  -2  -5    7.10    4.70
  -4   2   4  297.97   14.60
   4   2  -4  296.27   11.80
   4   2  -4  300.17   14.20
  -4  -2   4  311.17   11.00
   4  -2  -4  312.67   14.60
  -4  -2   4  290.97   14.20
  -4   2   3   27.00    4.50
   4   2  -3   20.90    4.00
   4   2  -3   35.10    4.20
   4  -2  -3   33.90    5.30
   4  -2  -3   29.10    3.00
  -4  -2   3   34.20    5.20
  -4  -2   3   31.30    3.40
   4  -2  -3   29.10    3.50
  -4   2   2    1.90    3.10
   4   2  -2    4.30    2.60
   4  -2  -2    1.90    2.10
   4  -2  -2    2.60    2.70
   4  -2  -2    4.30    3.40
  -4  -2   2    2.20    2.10
  -4  -2   2    2.90    3.10
   4   2  -1   68.09    5.90
   4   2  -1   69.09    5.20
  -4   2   1   56.29    6.30
   4  -2  -1   61.89    5.30
  -4  -2   1   98.69   10.70
   4  -2  -1   57.39    4.70
  -4  -2   1   69.59    5.10
   4   2   0  114.89    7.50
   4   2   0  101.39    6.60
   4  -2   0  110.89    6.60
  -4  -2   0  114.19    7.70
   4  -2   0  116.79    7.50
   4  -2   0  106.79    7.40
  -4  -2   0  115.59    7.20
   4   2   1    7.40    3.10
  -4   2  -1    3.70    2.50
   4   2   1    1.60    2.80
   4  -2   1    6.20    2.40
   4  -2   1    2.20    2.70
  -4  -2  -1    7.90    3.70
   4  -2   1    9.20    4.40
  -4  -2  -1    4.60    2.90
   4   2   2    9.60    3.50
  -4   2  -2   10.50    3.50
   4   2   2    4.80    3.40
   4  -2   2   18.40    3.90
  -4  -2  -2    6.30    3.50
   4  -2   2    9.60    3.40
  -4  -2  -2   14.60    4.60
   4  -2   2   10.70    5.10
   4   2   3   10.70    4.30
  -4   2  -3   15.60    3.70
   4   2   3   14.00    4.60
   4  -2   3   15.30    3.30
  -4  -2  -3   23.40    4.90
   4  -2   3   11.90    4.10
   4   2   4    8.40    5.00
   4   2   4   -3.30    3.10
   4  -2   4   -2.80    2.80
   4  -2   4    1.40    4.70
   4   2   5   11.90    7.10
   4   2   5   12.10    4.20
   4  -2   5   18.70    3.90
   4  -2   5   13.40    6.70
   4   2   6    4.10    4.90
   4   2   6    0.80    4.70
   4   2   6  -13.10    8.30
   4  -2   6    6.50    7.80
   4   2   7   24.10   11.90
   4  -2   7    7.70   11.10
  -4   3   9    8.50    7.30
  -4  -3   9    9.70    7.00
  -4   3   8   -0.50    6.20
  -4  -3   8    1.80    5.80
   4   3  -6   10.70    2.20
  -4   3   6    7.90    5.10
  -4  -3   6    9.60    3.90
  -4  -3   6   10.00    2.10
  -4   3   5    4.10    4.30
   4   3  -5    4.70    4.20
   4   3  -5    8.30    2.90
   4  -3  -5    7.10    4.70
  -4  -3   5    6.60    3.90
  -4  -3   5    6.30    2.10
  -4   3   4   20.10    4.30
   4   3  -4   29.20    5.10
   4   3  -4   25.50    4.00
  -4  -3   4   33.00    5.10
   4  -3  -4   22.20    4.80
  -4  -3   4   25.90    2.90
   4   3  -3    5.10    3.00
   4   3  -3    6.10    3.10
  -4   3   3    8.30    3.70
   4  -3  -3   10.20    3.70
   4  -3  -3    7.90    2.40
  -4  -3   3    4.90    3.10
   4  -3  -3    8.10    2.20
   4   3  -2   48.40    5.80
  -4   3   2   37.20    6.30
   4   3  -2   38.80    4.80
  -4  -3   2   35.00    5.10
   4  -3  -2   40.30    4.50
   4  -3  -2   41.40    4.00
  -4  -3   2   41.80    4.20
   4  -3  -2   47.10    5.80
  -4   3   1  436.56   18.20
   4   3  -1  442.86   18.10
   4   3  -1  441.96   17.10
   4  -3  -1  459.45   17.20
   4  -3  -1  436.66   18.10
  -4  -3   1  456.65   16.90
   4  -3  -1  436.86   16.50
   4   3   0  104.59    6.80
   4  -3   0  101.09    7.20
   4  -3   0  119.89    7.70
  -4  -3   0  121.89    7.30
   4  -3   0  108.49    6.70
  -4  -3   0   96.39    7.60
   4   3   1  116.59    7.80
   4   3   1  115.89    7.70
  -4   3  -1  117.39    7.40
   4  -3   1  122.39    7.60
   4  -3   1  126.09    8.90
  -4  -3  -1  130.89    8.20
   4  -3   1  126.29    7.50
  -4  -3  -1  133.09    8.30
   4   3   2   25.50    4.30
  -4   3  -2   28.30    4.20
   4   3   2   28.20    4.90
  -4  -3  -2   25.70    4.90
   4  -3   2   27.00    4.20
   4  -3   2   30.10    6.20
   4  -3   2   28.50    4.50
  -4  -3  -2   28.30    5.40
   4   3   3   12.00    4.30
  -4   3  -3   12.60    3.30
   4   3   3    8.90    4.30
   4  -3   3    5.20    3.80
   4  -3   3    7.10    2.90
  -4  -3  -3    2.90    4.70
   4   3   4   13.90    3.90
   4   3   4    5.40    5.10
   4  -3   4    5.20    3.00
   4  -3   4    5.60    4.70
   4   3   5   12.80    4.20
   4   3   5   16.50    6.30
   4  -3   5   16.20    5.70
   4   3   6   12.20    5.70
   4   3   6    8.50    5.10
   4   3   6    6.20    8.50
   4  -3   6   23.00    8.40
   4   3   7   13.00   11.30
   4  -3   7    5.30   10.90
  -4   4   9    2.90    7.10
  -4  -4   9    8.70    7.20
  -4   4   8    9.30    7.30
  -4  -4   8    5.30    5.70
  -4  -4   7   -1.50    2.40
  -4  -4   7    3.60    2.10
  -4   4   6   15.60    5.70
   4   4  -6   11.20    3.40
  -4  -4   6   12.60    4.00
  -4  -4   6    7.40    2.70
   4   4  -5   36.40    4.60
   4   4  -5   29.00    4.90
  -4   4   5   41.50    6.50
  -4  -4   5   25.40    5.00
  -4  -4   5   33.50    3.60
   4  -4  -5   29.70    6.10
   4   4  -4    5.00    3.60
  -4   4   4    3.50    3.90
  -4  -4   4    2.80    2.30
   4  -4  -4    0.60    4.00
  -4  -4   4    5.40    3.50
   4   4  -3   89.29    6.80
   4   4  -3   94.39    7.30
  -4   4   3   93.99    8.30
   4  -4  -3   99.59    5.20
   4  -4  -3  103.19    5.90
  -4  -4   3  107.99    8.10
  -4  -4   3  109.79    6.10
   4  -4  -3  109.79    8.40
   4   4  -2   22.50    3.90
  -4   4   2   28.20    6.50
   4   4  -2   25.40    4.70
   4  -4  -2   17.30    2.90
  -4  -4   2   22.40    4.50
  -4  -4   2   16.90    3.00
   4  -4  -2   20.80    3.40
   4  -4  -2   25.60    5.20
   4   4  -1  986.30   34.50
   4   4  -1  990.90   35.50
  -4   4   1 1012.10   35.50
   4  -4  -1  997.60   34.40
  -4  -4   1 1023.20   34.20
   4  -4  -1  983.80   35.50
   4  -4  -1  991.30   33.90
  -4  -4   1 1017.90   35.80
   4   4   0    2.80    3.30
  -4   4   0   -2.60    2.50
   4   4   0    1.70    2.40
   4  -4   0    3.40    2.30
  -4  -4   0    0.90    2.70
   4  -4   0   -1.30    3.50
   4  -4   0    2.60    2.90
  -4  -4   0    3.40    3.40
   4   4   1  107.79    7.40
  -4   4  -1   97.39    6.70
   4   4   1   90.69    7.10
   4  -4   1  101.39    7.00
  -4  -4  -1   95.49    7.00
   4  -4   1   82.99    8.10
   4  -4   1   89.39    6.70
   4   4   2   11.10    3.70
  -4   4  -2    9.50    3.30
   4   4   2   10.30    3.60
   4  -4   2    9.40    3.80
  -4  -4  -2   16.30    4.60
   4  -4   2   15.40    3.90
  -4  -4  -2    6.90    4.10
   4  -4   2   -0.70    4.90
  -4   4  -3   36.30    4.10
   4   4   3   30.90    5.30
   4   4   3   35.20    6.00
  -4  -4  -3   29.70    5.80
   4  -4   3   32.20    4.20
   4  -4   3   23.70    5.40
   4   4   4   10.50    5.40
   4   4   4    6.00    3.90
   4  -4   4   -0.10    2.90
   4  -4   4    1.80    5.10
   4   4   5   56.19    6.30
   4   4   5   53.09    9.30
   4  -4   5   43.70    7.80
   4   4   6    4.50    6.00
   4   4   6    3.20    8.20
   4   4   6   16.40    5.80
   4  -4   6    5.60    8.20
   4   4   7   -2.50    6.20
   4   4   7    4.60    9.20
   4   4   7   -1.60   11.90
   4  -4   7   -2.20   10.20
  -4   5   9   -5.90    7.60
  -4  -5   9    3.00    6.80
  -4   5   8    8.40    7.10
  -4  -5   8    1.40    6.00
  -4  -5   7    8.10    3.60
   4   5  -6   46.60    6.50
  -4   5   6   40.80    7.00
  -4  -5   6   39.20    6.10
  -4  -5   6   48.60    5.80
  -4   5   5   22.80    5.40
   4   5  -5   27.10    4.90
   4   5  -5   22.20    4.70
   4  -5  -5   27.30    5.70
  -4  -5   5   34.20    5.20
   4   5  -4    5.30    3.60
  -4   5   4    3.20    3.60
   4   5  -4   -4.30    3.20
  -4  -5   4    2.30    2.50
   4  -5  -4    4.50    1.70
   4  -5  -4    3.50    4.60
  -4  -5   4    2.80    3.40
   4  -5  -4    4.00    1.20
   4   5  -3   51.39    6.30
  -4   5   3   53.99    7.20
   4   5  -3   71.49    6.40
  -4  -5   3   63.29    5.10
  -4  -5   3   64.59    7.00
   4  -5  -3   64.99    4.30
   4  -5  -3   63.79    5.10
   4  -5  -3   54.09    6.90
   4   5  -2   16.60    3.50
   4   5  -2   18.20    4.40
   4  -5  -2   21.30    3.90
   4  -5  -2   20.30    4.70
  -4  -5   2   25.50    7.30
   4  -5  -2   17.60    2.90
  -4  -5   2   19.90    3.40
  -4   5   1    5.60    3.70
   4   5  -1    0.50    2.80
   4   5  -1    4.50    2.70
  -4  -5   1    6.90    4.00
   4  -5  -1    2.40    2.40
  -4  -5   1    5.90    3.00
   4  -5  -1    6.80    3.30
   4  -5  -1    1.50    3.00
   4   5   0   74.79    6.20
   4   5   0   77.59    6.80
  -4  -5   0   72.79    6.20
  -4  -5   0   62.99    7.00
   4  -5   0   74.19    6.30
   4  -5   0   66.59    5.80
   4  -5   0   85.79    7.40
  -4   5  -1   81.59    6.70
   4   5   1   98.49    7.10
   4   5   1   97.29    7.40
   4  -5   1   88.29    6.70
   4  -5   1   86.49    6.60
   4  -5   1   76.69    8.00
  -4  -5  -1   90.99    7.70
   4   5   2    9.00    3.50
   4   5   2    3.90    3.30
  -4   5  -2    5.80    3.00
  -4  -5  -2    6.20    4.10
   4  -5   2   -1.00    2.90
   4  -5   2    3.40    5.20
   4  -5   2    7.40    3.50
  -4  -5  -2    7.40    4.00
   4   5   3  106.29    8.40
  -4   5  -3   87.59    6.50
   4   5   3   95.89    8.40
   4  -5   3   82.79    7.80
   4  -5   3  102.49    6.70
  -4  -5  -3   98.59    9.50
   4   5   4  133.19   11.30
   4   5   4  142.59   10.10
   4  -5   4  139.79    7.90
   4  -5   4  146.59   11.00
   4   5   5   -4.40    4.60
   4   5   5  -10.50    6.10
   4  -5   5    3.90    6.40
   4   5   6   -0.90    6.30
   4   5   6   -0.50    6.10
   4   5   6    8.50    8.70
   4  -5   6  -13.00    8.00
   4   5   7  -13.30    6.60
   4   5   7    1.50   12.30
   4  -5   7   -6.30   11.10
  -4   6   9    2.10    8.40
  -4  -6   9    6.90    7.40
  -4   6   8   11.10    8.10
  -4  -6   8    6.40    6.50
   4   6  -7   10.70    4.80
  -4  -6   7   13.00    5.00
  -4   6   6    0.50    5.10
   4   6  -6   -0.40    4.20
  -4  -6   6    5.50    4.00
  -4  -6   6    5.40    4.40
  -4   6   5    2.80    4.50
   4   6  -5   -0.40    3.80
   4   6  -5   -0.50    4.80
  -4  -6   5    2.80    3.50
  -4  -6   5   -4.70    3.30
   4  -6  -5   -2.00    4.70
   4   6  -4   88.69    7.60
  -4   6   4  107.69    9.30
   4   6  -4   96.99    7.90
   4  -6  -4   94.49    4.40
   4  -6  -4  101.79    5.10
  -4  -6   4   97.59    6.60
  -4  -6   4  107.29    8.50
   4   6  -3  138.09    8.60
   4   6  -3  137.19    9.10
  -4   6   3  131.39    9.80
   4  -6  -3  140.39    6.70
  -4  -6   3  145.69    7.80
   4  -6  -3  134.29    9.60
  -4  -6   3  131.29    9.40
   4  -6  -3  145.89    7.50
   4   6  -2   -2.30    2.90
   4   6  -2   -3.50    3.10
  -4  -6   2   -4.50    6.30
  -4  -6   2    1.10    2.90
   4  -6  -2   -1.90    2.10
   4  -6  -2    0.80    3.60
   4  -6  -2    1.30    3.00
   4   6  -1   24.90    4.90
   4   6  -1   26.10    4.10
  -4   6   1   26.20    5.30
  -4  -6   1   28.30    4.00
   4  -6  -1   21.60    3.50
   4  -6  -1   25.30    4.70
   4  -6  -1   19.30    3.90
   4   6   0    3.60    3.00
   4   6   0    2.80    2.90
  -4   6   0    0.40    2.90
  -4  -6   0    4.10    3.50
   4  -6   0    9.60    3.20
   4  -6   0    7.90    2.70
  -4  -6   0    2.10    3.70
   4  -6   0    6.90    3.80
   4   6   1   27.40    4.80
   4   6   1   16.90    3.90
  -4   6  -1   20.00    3.80
   4  -6   1   20.00    4.60
   4  -6   1   22.50    3.90
   4  -6   1   22.40    3.90
  -4  -6  -1   37.20    6.00
  -4  -6  -1   18.90    4.20
  -4   6  -2   82.69    6.50
   4   6   2   94.39    7.90
   4   6   2   86.29    7.60
   4  -6   2   76.79    9.30
   4  -6   2   90.19    7.50
  -4  -6  -2   75.09    7.30
   4  -6   2   83.09    7.60
  -4  -6  -2   83.29    8.40
   4   6   3   21.00    5.70
  -4   6  -3   22.40    3.70
   4   6   3   19.00    5.10
  -4  -6  -3   16.10    5.80
   4  -6   3   17.60    3.80
   4  -6   3   17.00    5.00
   4   6   4    5.30    5.10
   4   6   4   21.00    6.00
   4  -6   4    7.60    5.00
   4  -6   4   10.50    3.40
   4   6   5    1.40    5.00
   4   6   5    1.60    6.30
   4  -6   5    1.70    6.40
   4   6   6   12.20    6.80
   4   6   6  -10.50    8.40
   4   6   6    8.10    6.90
   4  -6   6  -10.30    7.70
   4   6   7    7.30   12.60
   4   6   7   -0.90    7.10
   4  -6   7   24.40   11.80
  -4   7   9    6.70    9.10
  -4  -7   9   10.50    7.60
  -4   7   8   34.10    9.60
  -4  -7   8   30.60    7.80
   4   7  -7   15.40    5.30
  -4  -7   7   12.90    5.10
  -4   7   6    1.70    5.60
   4   7  -6   -2.80    4.70
  -4  -7   6   -2.80    4.30
  -4  -7   6    5.50    4.20
   4   7  -5    5.90    4.50
  -4   7   5    1.10    4.90
   4  -7  -5   18.10    5.30
  -4  -7   5   13.90    4.20
  -4  -7   5   13.30    4.40
   4   7  -4   48.00    5.80
  -4   7   4   38.20    5.60
   4   7  -4   52.09    6.90
   4  -7  -4   49.99    4.50
   4  -7  -4   44.50    3.40
  -4  -7   4   53.89    6.70
  -4  -7   4   48.30    5.40
   4  -7  -4   50.89    7.10
   4   7  -3    4.40    3.70
   4   7  -3    5.30    3.50
  -4   7   3    8.30    4.00
   4  -7  -3    8.90    3.30
  -4  -7   3   16.50    7.30
   4  -7  -3    9.80    3.10
  -4  -7   3    3.60    3.20
   4  -7  -3    8.00    4.50
  -4   7   2   95.99    6.10
  -4   7   2  107.39   11.10
   4   7  -2  112.99    7.90
   4  -7  -2  107.19    6.10
   4  -7  -2  100.29    7.30
  -4  -7   2   99.39    8.50
   4  -7  -2   98.69    8.50
  -4  -7   2   95.99    7.20
   4   7  -1   -0.80    3.30
  -4   7   1    7.90    3.90
  -4   7   1    6.20    2.60
   4   7  -1    3.00    3.50
   4  -7  -1    5.60    3.50
   4  -7  -1   -0.40    2.20
  -4  -7   1    5.60    3.50
   4  -7  -1   -0.90    3.00
  -4  -7   1    2.60    4.00
   4   7   0  267.67   13.30
   4   7   0  291.67   13.80
  -4  -7   0  280.67   13.20
   4  -7   0  279.77   12.70
   4  -7   0  292.57   13.50
   4  -7   0  275.27   13.90
   4   7   1    4.10    3.70
  -4   7  -1    6.30    3.10
   4   7   1    4.80    3.60
   4  -7   1    9.20    4.50
  -4  -7  -1   -1.40    3.20
   4  -7   1    3.50    2.80
   4  -7   1    2.70    3.00
  -4  -7  -1    9.40    4.60
   4   7   2   33.30    5.10
   4   7   2   40.90    6.00
  -4   7  -2   37.80    6.20
   4  -7   2   44.90    5.80
   4  -7   2   41.80    8.20
  -4  -7  -2   49.90    6.60
   4  -7   2   36.20    5.20
  -4  -7  -2   41.20    6.40
  -4   7  -3  178.08    8.80
   4   7   3  192.28   11.60
   4   7   3  187.38   11.60
   4  -7   3  174.28   11.80
  -4  -7  -3  169.68   12.20
   4  -7   3  173.58    9.40
   4   7   4  110.09   11.30
   4   7   4  112.89   11.60
   4  -7   4  110.19    7.40
   4  -7   4  114.39   12.10
   4   7   5   32.90    8.40
   4   7   5   24.30    6.40
   4  -7   5   21.20    6.70
   4   7   6  -11.10    8.90
   4   7   6   11.50    7.60
   4  -7   6    7.80    8.20
  -4   8   9    2.00    8.90
  -4  -8   9    4.90    7.50
  -4   8   8   28.40   12.00
  -4  -8   8    9.50    7.10
  -4   8   7    2.40   11.00
   4   8  -7    5.40    9.00
  -4  -8   7    1.40    5.40
  -4  -8   7    0.60    5.70
   4   8  -6   36.40    6.20
  -4   8   6   44.80    8.50
  -4  -8   6   66.79    8.00
  -4   8   5   12.30    5.00
   4   8  -5    7.40    4.50
  -4  -8   5    2.10    4.20
   4  -8  -5    9.10    5.60
  -4  -8   5    6.30    4.60
  -4   8   4   93.49    9.50
   4   8  -4  101.29    8.50
   4   8  -4  115.39    8.80
  -4  -8   4  105.09    8.80
   4  -8  -4  107.59    6.40
  -4  -8   4  104.39    7.90
   4  -8  -4  106.19    5.40
   4  -8  -4  107.89    9.60
   4   8  -3   61.89    7.10
  -4   8   3   60.79    7.40
   4   8  -3   62.69    7.20
  -4   8   3   50.59    4.80
   4  -8  -3   55.59    6.00
  -4  -8   3   54.39    7.00
  -4  -8   3   51.69    6.30
   4  -8  -3   58.59    8.10
  -4   8   2  261.97   11.10
   4   8  -2  266.27   13.20
  -4   8   2  242.48   13.70
   4   8  -2  254.37   13.00
  -4  -8   2  238.58   11.70
  -4  -8   2  241.68   13.30
   4  -8  -2  252.67   13.50
   4  -8  -2  262.77   12.20
   4   8  -1   47.30    6.00
  -4   8   1   42.80    5.10
  -4   8   1   60.69    7.10
   4   8  -1   32.50    4.90
  -4  -8   1   39.70    5.20
  -4  -8   1   49.99    7.00
   4  -8  -1   38.90    5.40
   4  -8  -1   42.60    5.70
  -4   8   0  402.66   16.80
   4   8   0  376.96   17.10
   4   8   0  407.56   17.80
   4  -8   0  396.36   17.90
  -4  -8   0  400.56   17.10
  -4  -8   0  420.66   18.60
   4  -8   0  407.36   17.50
   4   8   1    4.10    3.70
  -4   8  -1    3.00    3.80
   4   8   1    6.30    4.00
  -4   8  -1    5.00    3.60
  -4  -8  -1    4.40    4.40
   4  -8   1    1.70    3.30
  -4  -8  -1    2.70    4.60
   4  -8   1    4.00    3.30
   4  -8   1    8.10    5.10
   4   8   2   40.20    6.40
   4   8   2   33.00    5.70
   4  -8   2   37.10    5.30
   4  -8   2   44.40    5.90
  -4  -8  -2   36.10    6.20
  -4   8  -3    6.30    3.40
   4   8   3   14.90    5.40
   4   8   3    9.80    4.90
   4  -8   3    0.50    4.90
   4  -8   3   10.70    3.60
  -4  -8  -3    6.50    5.90
   4   8   4   -2.40    6.20
   4   8   4    7.00    5.80
   4  -8   4    9.80    6.30
   4  -8   4    9.60    3.60
   4   8   5   39.40    7.10
   4   8   5   24.30    8.10
   4  -8   5   44.40    8.80
   4   8   6   -0.70    7.20
   4   8   6    6.20    9.70
   4  -8   6   -2.80    9.00
  -4   9   9  -13.80    9.50
  -4  -9   9    6.80    7.80
  -4   9   8   13.80    9.00
  -4  -9   8   13.00    7.50
   4   9  -7  -11.40    6.50
  -4   9   7   14.70    8.90
  -4  -9   7    1.50    5.50
  -4  -9   7    0.60    8.20
   4   9  -6   15.10    6.30
  -4   9   6   14.30    7.20
  -4  -9   6   23.90    6.10
  -4  -9   6   14.30    5.70
   4   9  -5   11.50    5.20
  -4   9   5   22.90    6.90
  -4  -9   5   -2.80    4.50
  -4  -9   5    3.70    4.60
   4  -9  -5   -2.20    5.50
  -4   9   4   98.49    9.90
  -4   9   4   92.99    6.00
   4   9  -4  100.89    8.80
   4   9  -4   82.29    8.40
  -4  -9   4   93.59    8.90
  -4  -9   4   84.89    8.10
   4  -9  -4   83.19    9.40
   4  -9  -4   89.29    6.70
  -4   9   3  102.89   10.30
   4   9  -3   72.29    8.00
  -4   9   3   76.49    5.70
   4   9  -3   73.19    7.60
  -4  -9   3   71.39    8.40
  -4  -9   3   77.89    7.40
   4  -9  -3   87.89    8.50
   4  -9  -3   79.79    7.00
  -4   9   2  125.19    7.50
   4   9  -2  139.39    9.80
  -4   9   2  169.28   11.70
   4   9  -2  127.69    9.60
  -4  -9   2  140.69    9.90
   4  -9  -2  124.19   10.00
  -4  -9   2  144.39    9.00
   4  -9  -2  139.69    9.10
  -4   9   1  104.69    6.90
  -4   9   1  114.69    9.10
   4   9  -1   86.19    8.20
   4  -9  -1   92.49    8.50
  -4  -9   1  105.69    7.90
   4  -9  -1   92.89    8.10
  -4  -9   1  100.99    9.00
   4   9   0   37.70    6.00
   4   9   0   55.19    9.20
  -4   9   0   30.00    5.00
   4  -9   0   45.40    6.10
  -4  -9   0   26.10    6.60
  -4  -9   0   25.90    5.20
   4  -9   0   34.80    5.70
   4   9   1   -3.00    3.60
   4   9   1   -7.20    3.50
  -4   9  -1    0.10    3.40
  -4   9  -1    6.40    3.50
   4  -9   1    2.30    3.20
  -4  -9  -1   -2.90    4.30
   4  -9   1   -7.10    5.30
  -4  -9  -1    1.80    4.80
   4   9   2   11.70    4.60
   4   9   2   22.60    5.50
   4  -9   2   25.20    5.50
   4  -9   2   14.90    4.30
  -4  -9  -2   -1.60    4.40
  -4   9  -3   26.70    4.10
   4   9   3   27.30    6.30
   4   9   3   19.50    5.80
   4  -9   3   20.00    5.00
   4  -9   3   22.10    4.20
  -4  -9  -3   23.80    7.40
   4   9   4   14.70    6.10
   4  -9   4    8.50    6.00
   4  -9   4   14.40    4.00
   4   9   5   11.50    8.00
   4   9   5    6.60    7.20
   4   9   5    5.60    7.20
   4  -9   5   16.30    8.20
   4   9   6   -6.60    7.40
   4   9   6    0.20   10.00
   4  -9   6   -1.50    9.10
  -4  10   9  -21.80   10.20
  -4  10   8   17.40    9.70
  -4 -10   8   10.40    7.70
   4  10  -7    3.10    7.40
  -4  10   7    5.00    8.00
  -4 -10   7   -5.10    6.00
   4  10  -6    1.90    6.30
  -4  10   6   11.80    7.40
  -4 -10   6    7.50    6.20
  -4  10   5   59.29    8.70
   4  10  -5   66.29    8.10
  -4 -10   5   45.70    6.80
   4 -10  -5   37.30    7.50
  -4 -10   5   57.19    7.80
   4 -10  -5   59.89    4.60
  -4  10   4  127.29   10.90
   4  10  -4  113.19    9.20
   4  10  -4  117.79   10.10
  -4  10   4  119.29    7.60
  -4 -10   4  118.09    9.80
  -4 -10   4  118.89    9.40
   4 -10  -4  109.99   10.50
   4  10  -3    0.60    4.60
  -4  10   3    7.30    4.60
   4  10  -3    2.00    3.40
  -4  10   3    2.40    2.60
   4 -10  -3    0.70    8.80
   4 -10  -3    1.60    4.00
  -4 -10   3    4.30    3.80
  -4 -10   3    5.00    4.40
   4  10  -2   64.99    7.90
  -4  10   2   66.49    6.00
  -4  10   2   70.89    9.30
   4  10  -2   82.69    8.20
  -4 -10   2   67.59    8.20
  -4 -10   2   65.59    7.30
   4 -10  -2   67.49    7.60
  -4  10   1    8.80    3.20
   4  10  -1    6.20    3.80
   4  10  -1   -4.90    6.10
  -4  10   1    4.30    4.30
   4 -10  -1    9.00    3.50
  -4 -10   1    6.20    3.60
   4 -10  -1   -4.90    4.30
  -4 -10   1   -1.20    4.20
   4  10   0  309.87   15.40
  -4  10   0  297.87   14.00
   4  10   0  322.27   15.20
   4 -10   0  287.47   14.50
   4 -10   0  300.87   15.50
  -4 -10   0  271.57   13.90
  -4  10  -1   27.00    5.20
   4  10   1   30.60    5.90
   4  10   1   29.50    5.60
  -4  10  -1   20.80    5.00
  -4 -10  -1   14.70    5.00
   4 -10   1   27.70    6.90
  -4 -10  -1   27.10    6.40
   4 -10   1   25.30    4.80
  -4  10  -2   -4.60    5.10
  -4  10  -2    5.10    4.70
   4  10   2   -6.90    4.90
   4  10   2    7.20    4.80
   4 -10   2    2.90    4.70
  -4 -10  -2   -5.60    5.20
   4 -10   2    3.80    4.00
  -4  10  -3   16.90    3.80
   4  10   3    2.50    5.80
   4  10   3   16.90    6.50
  -4 -10  -3   23.40    8.10
   4 -10   3   15.60    4.00
   4 -10   3   22.00    5.60
   4  10   4    7.70    6.70
   4  10   4    0.10    6.20
   4 -10   4    0.50    3.70
   4 -10   4   -5.50    6.00
   4  10   5   20.50    9.40
   4  10   5   21.30    8.10
   4 -10   5    2.50    7.90
   4  10   6   -4.10    8.30
   4  10   6    9.80   10.50
   4 -10   6   -0.30    9.20
  -4  11   8   -7.40   10.20
  -4 -11   8    2.60    7.90
   4  11  -7    8.00    8.50
  -4  11   7    8.70    8.20
  -4 -11   7   12.60    6.30
  -4  11   6   -6.60    6.70
   4  11  -6   -1.20    6.80
  -4 -11   6   -0.10    7.30
  -4  11   5  139.59   13.90
   4  11  -5  161.18   12.30
  -4  11   5  157.68    7.70
  -4 -11   5  152.98   11.40
   4 -11  -5  148.69    8.30
  -4 -11   5  169.58   11.70
  -4  11   4    1.90    2.90
   4  11  -4   -2.00    4.60
  -4  11   4    2.60    5.50
   4  11  -4   -1.10    4.90
   4 -11  -4    3.50    4.20
  -4 -11   4    4.50    5.00
   4 -11  -4   -1.20    5.20
  -4 -11   4    2.40    4.20
  -4  11   3    2.20    2.80
   4  11  -3    6.00    4.90
  -4  11   3    3.20    4.60
   4  11  -3    4.60    4.20
   4 -11  -3    5.10    4.30
  -4 -11   3   -4.50    4.60
  -4 -11   3   16.50    4.90
   4 -11  -3   -7.90    4.60
   4  11  -2   34.20    5.60
  -4  11   2   49.70    5.40
   4  11  -2   43.00    6.70
  -4  11   2   59.19    8.20
  -4 -11   2   50.09    6.30
  -4 -11   2   87.79   11.50
   4 -11  -2   51.29    6.50
   4  11  -1   17.20    4.50
  -4  11   1   19.20    4.40
   4  11  -1   17.90    5.50
  -4  11   1   19.80    5.30
  -4 -11   1   14.10    4.70
  -4 -11   1   20.20    5.50
   4 -11  -1   18.30    5.30
   4 -11  -1   12.60    4.50
   4  11   0    2.80    4.70
  -4  11   0    4.10    3.60
  -4  11   0    1.50    3.90
   4 -11   0    2.50    3.40
   4 -11   0   -4.30    5.70
  -4 -11   0    8.60    9.50
  -4 -11   0    8.60    5.00
  -4  11  -1   60.69    7.40
   4  11   1   68.89    8.30
   4  11   1   61.49    7.90
  -4  11  -1   58.09    7.80
  -4 -11  -1   70.49    9.40
   4 -11   1   68.19    7.40
  -4  11  -2    8.20    5.30
   4  11   2    5.90    5.40
   4  11   2   -4.00    4.80
  -4  11  -2    2.80    4.50
   4 -11   2   10.50    4.80
  -4 -11  -2    6.30    6.10
   4  11   3   12.10    5.70
   4  11   3    1.50    6.10
  -4  11  -3    7.60    3.90
   4 -11   3    5.90    4.30
   4  11   4    1.90    6.50
   4  11   4    3.40    6.10
   4 -11   4    6.60    4.40
   4 -11   4  -11.10    6.20
   4  11   5    3.40    8.60
   4  11   5    2.70    8.40
   4 -11   5   11.80    7.80
   4  11   6   12.00    9.30
   4  11   6  -10.60   12.30
   4 -11   6   -0.30    9.90
  -4  12   8   22.50   10.20
  -4 -12   8   12.10    8.40
  -4  12   7   14.90   10.70
   4  12  -7   -0.20    8.60
  -4 -12   7    6.10    7.10
   4  12  -6    5.90    7.10
  -4  12   6   -3.90    7.20
  -4 -12   6    2.80    8.30
   4  12  -5  124.49   12.10
  -4  12   5  105.79   13.20
  -4 -12   5  102.89   11.00
  -4 -12   5  108.79   11.50
  -4  12   4    6.10    5.50
   4  12  -4    3.40    5.60
  -4  12   4    7.50    3.30
  -4 -12   4    4.10    5.50
   4 -12  -4    6.20    6.10
  -4 -12   4   -2.10    5.00
   4 -12  -4    1.00    4.90
   4  12  -3   14.70    3.90
   4  12  -3   16.00    6.00
  -4  12   3   23.50    6.70
  -4  12   3   18.70    3.80
   4 -12  -3   18.00    5.30
  -4 -12   3    8.20    5.20
   4 -12  -3   22.60    6.80
  -4 -12   3   19.10    5.70
  -4  12   2    9.40    3.80
  -4  12   2    9.80    5.50
   4  12  -2    2.30    5.20
   4  12  -2    6.00    3.80
   4 -12  -2   11.50    5.30
  -4 -12   2   11.30    5.30
  -4 -12   2   17.60    5.40
   4 -12  -2    6.90    5.30
  -4  12   1  311.07   14.20
  -4  12   1  281.27   15.60
   4  12  -1  283.47   15.10
  -4 -12   1  273.77   14.70
  -4 -12   1  291.07   15.90
   4 -12  -1  278.57   15.10
   4 -12  -1  301.77   15.60
  -4  12   0   28.00    5.20
   4  12   0   29.70    6.00
   4  12   0   23.60    5.50
  -4 -12   0   36.80    6.60
  -4 -12   0   23.30    6.70
   4 -12   0   10.80    6.90
   4 -12   0   30.70    5.60
  -4  12  -1  103.69    9.10
   4  12   1   91.39    9.70
  -4  12  -1   89.89    9.20
  -4 -12  -1   92.39   11.70
   4 -12   1   84.19    8.60
   4  12   2    6.00    5.70
  -4  12  -2   -4.80    4.80
   4  12   2    3.60    5.20
  -4  12  -2    0.40    5.20
   4 -12   2   -3.10    5.20
  -4 -12  -2    3.00    5.80
   4  12   3   22.30    7.30
  -4  12  -3   19.10    4.60
   4  12   3   20.00    6.40
   4 -12   3   14.10    4.80
   4  12   4    6.50    6.40
   4  12   4    9.40    8.10
   4 -12   4   11.00    6.60
   4 -12   4    2.00    4.20
   4  12   5    6.30    9.00
   4  12   5   15.70   10.30
   4 -12   5    6.20    8.00
   4  12   6    5.80    9.00
   4  12   6   17.80   12.70
   4 -12   6   13.50   10.50
  -4  13   8    8.40   11.20
  -4 -13   8   18.00    8.60
   4  13  -7   24.70   10.10
  -4  13   7   36.90   11.30
  -4 -13   7   24.10    8.30
   4  13  -6   -1.30    7.70
  -4  13   6   -0.40    2.90
  -4 -13   6   14.90    9.10
  -4 -13   6   -1.90    5.80
  -4  13   5    9.60    3.70
  -4  13   5    3.70    7.30
   4  13  -5   11.20    7.30
  -4 -13   5   11.60    8.20
   4 -13  -5    7.30    5.30
  -4 -13   5    6.40    7.60
  -4  13   4   50.89    8.50
  -4  13   4   64.09    6.60
   4  13  -4   73.99    9.20
   4 -13  -4   73.29    9.00
   4 -13  -4   70.89   10.50
  -4 -13   4   71.99    9.70
  -4 -13   4   62.49    8.00
   4  13  -3    8.70    4.50
   4  13  -3   12.90    6.70
  -4  13   3    5.40    3.70
  -4  13   3    0.30    5.20
   4 -13  -3   -2.60    5.40
  -4 -13   3   -6.10    5.50
  -4 -13   3    8.00    5.50
   4 -13  -3   28.50   10.80
  -4  13   2   26.90    6.90
  -4  13   2   27.10    5.00
   4  13  -2   30.10    5.80
   4  13  -2   29.10    6.00
  -4 -13   2   30.60    6.40
  -4 -13   2   38.00    6.70
   4 -13  -2   31.40    6.90
   4 -13  -2   34.20    6.40
  -4  13   1   96.09    8.50
   4  13  -1   98.29    9.20
  -4  13   1  109.99   10.60
   4  13  -1  108.39   10.80
  -4 -13   1  104.99    9.30
   4 -13  -1   98.69   10.20
  -4 -13   1  104.59   10.70
   4 -13  -1   90.69    9.60
  -4  13   0   10.70    4.40
   4  13   0    4.70    4.80
  -4  13   0   -3.60    4.30
   4  13   0    5.90    4.80
   4 -13   0   14.60    4.90
   4 -13   0    3.30    6.30
  -4 -13   0    5.40    8.80
  -4  13  -1   70.59    8.10
   4  13   1   61.19    8.20
  -4  13  -1   67.89    8.00
  -4 -13  -1   56.09    9.60
   4 -13   1   69.69    8.80
   4  13   2   24.40    7.60
  -4  13  -2   11.40    5.70
  -4  13  -2    8.70    6.00
   4  13   2   20.20    6.30
  -4 -13  -2    3.30    6.70
   4 -13   2    7.70    6.00
  -4  13  -3  160.48   10.30
   4  13   3  157.98   14.20
   4 -13   3  179.08   11.30
   4  13   4   14.50    8.00
   4  13   4   11.00    8.20
   4 -13   4   18.20    5.00
   4 -13   4   21.50    7.90
   4  13   5   14.20    9.50
   4  13   5   12.10   10.30
   4 -13   5    3.00    8.70
   4  13   6  -10.20    8.40
   4  13   6  -14.70   12.70
   4 -13   6  -13.10   11.00
  -4  14   8   18.40   12.30
  -4 -14   8   17.60    8.80
  -4  14   7    3.90   10.60
   4  14  -7    2.70   10.70
  -4 -14   7    1.50    7.50
  -4  14   6    2.60    9.10
   4  14  -6   -3.80    8.30
  -4 -14   6   -4.90    6.60
  -4  14   5   57.09   10.20
  -4  14   5   38.00    4.90
   4  14  -5   39.90    9.50
   4 -14  -5   33.50    6.40
  -4 -14   5   35.10    8.40
  -4  14   4   48.80    8.70
   4  14  -4   54.79    9.20
  -4  14   4   56.29    6.20
  -4 -14   4   64.69    9.10
   4 -14  -4   58.89    9.40
   4 -14  -4   46.80    7.50
  -4  14   3    6.40    4.10
   4  14  -3   11.80    6.50
  -4  14   3    0.10    6.00
   4  14  -3   10.10    5.40
   4 -14  -3    0.00    6.20
  -4 -14   3   10.50   10.70
   4 -14  -3   11.50    6.30
  -4 -14   3    6.90    6.30
  -4  14   2    2.90    3.80
  -4  14   2   10.10    5.60
   4  14  -2    5.20    4.20
   4  14  -2    9.70    6.50
   4 -14  -2    9.00    6.10
   4 -14  -2   -0.40    5.40
  -4 -14   2   -2.80    7.20
   4  14  -1   68.99    8.50
  -4  14   1   60.59    8.00
  -4  14   1   63.59    7.60
   4 -14  -1   79.49    9.60
  -4 -14   1   82.39   10.40
   4 -14  -1   65.19    8.90
  -4  14   0   -5.50    4.80
   4  14   0    1.40    5.60
   4  14   0   20.40   10.00
  -4  14   0   11.70    5.10
   4 -14   0    9.80    5.60
  -4 -14   0    5.50    5.60
  -4  14  -1   30.40    6.90
  -4  14  -1   24.80    6.10
   4  14   1   22.50    7.10
   4 -14   1   10.80    5.90
   4  14   2   -2.00    5.80
   4  14   2    9.00    6.00
  -4  14  -2    8.90    6.10
  -4  14  -2    4.90    6.30
   4 -14   2   10.50    6.30
  -4 -14  -2   16.60    9.10
   4  14   3    8.70    7.10
  -4  14  -3    1.10    4.90
   4  14   3   15.60    7.70
   4 -14   3   14.50    5.10
  -4  14  -4    3.20    7.90
   4  14   4   25.30    9.50
   4  14   4    9.00    7.10
   4 -14   4   10.80    5.40
   4 -14   4   22.00    7.60
   4  14   5    4.50   10.50
   4  14   5    5.50   10.70
   4 -14   5   15.90    9.90
   4  14   6  -17.70    9.60
   4  14   6   12.10   13.50
   4 -14   6   14.40   11.50
  -4  15   8    5.20   12.40
  -4 -15   8    9.80    8.20
  -4  15   7   19.50   11.40
   4  15  -7   11.50   12.00
  -4 -15   7   10.40    8.60
   4  15  -6   -5.00    9.20
  -4  15   6    3.10    4.60
  -4 -15   6   -3.20    7.00
  -4  15   5   -7.30    7.20
  -4  15   5    7.60    4.30
   4  15  -5    1.60    8.10
   4 -15  -5    3.40    6.10
  -4  15   4   -2.50    7.80
  -4  15   4    7.20    4.40
   4  15  -4   -5.50    6.70
   4 -15  -4    3.90    6.60
   4 -15  -4   -2.00    7.20
  -4 -15   4   -5.40    6.40
  -4  15   3    8.90    4.40
  -4  15   3    1.40    7.50
   4  15  -3   11.50    7.30
  -4 -15   3    0.00    5.90
   4 -15  -3   14.00    6.90
   4 -15  -3   -0.70    6.70
  -4  15   2   -6.00    6.00
   4  15  -2   -4.40    6.00
   4  15  -2    2.80    4.80
  -4  15   2    3.60    4.40
   4 -15  -2    3.80    6.70
  -4 -15   2    0.90    6.40
   4 -15  -2   -2.40    6.40
   4  15  -1   -2.10    5.20
  -4  15   1   -7.50    4.30
   4  15  -1    8.10    6.10
  -4  15   1    4.90    5.60
   4 -15  -1    7.00    7.60
   4 -15  -1    0.40    6.30
  -4 -15   1    2.60    6.80
   4  15   0   52.59    8.30
  -4  15   0   54.39    7.80
   4  15   0   55.09    8.30
  -4 -15   0   40.30    7.90
   4 -15   0   42.60    7.90
   4  15   1    7.30    6.60
   4  15   1    9.30    7.10
  -4  15  -1   11.70    5.80
  -4  15  -1    9.00    5.70
   4 -15   1    6.60    5.50
  -4 -15  -1    8.60    8.70
  -4  15  -2    1.60    6.00
   4  15   2    1.80    7.10
  -4 -15  -2    2.30    9.60
   4 -15   2   -2.30    6.30
   4  15   3   20.50    9.10
  -4  15  -3   31.90    6.50
   4  15   3   22.20    8.20
   4 -15   3   24.30    6.30
   4  15   4   33.70   11.50
  -4  15  -4   47.40   10.70
   4  15   4   36.40   10.80
   4 -15   4   38.30    7.00
   4 -15   4   45.70    8.90
   4  15   5   14.30   12.00
   4  15   5   21.00   12.50
   4 -15   5    9.60   10.30
  -4  16   7   -1.00   12.70
   4  16  -7   -0.10   12.80
  -4 -16   7    6.60    8.60
   4  16  -6   -3.90    9.80
  -4  16   6    2.00    5.20
  -4 -16   6    3.50    7.40
   4  16  -5   22.30    9.40
  -4  16   5   24.00    9.60
  -4  16   5   20.40    5.70
   4 -16  -5    5.50    6.80
   4  16  -4   92.79   12.30
  -4  16   4   74.59   11.20
  -4  16   4   88.79    9.20
   4 -16  -4   69.59    9.80
  -4 -16   4  100.89   11.40
   4 -16  -4   88.49   11.70
  -4  16   3   32.70    8.20
  -4  16   3   28.80    6.00
   4  16  -3   33.60    8.30
   4 -16  -3   54.69    9.30
  -4 -16   3   43.90    8.70
   4 -16  -3   18.50    8.00
  -4  16   2    0.90    6.80
   4  16  -2   -1.80    5.90
  -4  16   2    0.60    5.40
   4  16  -2    2.70    6.50
   4 -16  -2    8.90    7.30
   4 -16  -2    3.90    7.70
  -4 -16   2   -5.80    6.30
   4  16  -1   -3.40    6.50
  -4  16   1   -2.00    6.40
   4  16  -1    6.30    4.90
  -4  16   1   10.40    5.50
   4 -16  -1   10.20    6.90
  -4 -16   1    6.90    7.20
  -4  16   0   -3.10    6.00
  -4  16   0   19.40    6.30
   4  16   0   22.60   10.90
   4  16   0   13.40   12.00
   4 -16   0   20.20    6.80
  -4 -16   0   12.60    7.50
   4  16   1   19.70    7.50
  -4  16  -1   30.70    7.10
  -4  16  -1   38.00    8.60
   4 -16   1   27.00    7.50
  -4 -16  -1   57.19   11.40
  -4  16  -2   80.89    9.40
   4  16   2   80.99   11.40
   4  16   2   84.89   11.50
   4 -16   2   85.09   11.30
   4  16   3   16.20    9.10
  -4  16  -3   11.60    6.50
   4 -16   3    9.50    5.90
   4  16   4    1.90    9.10
   4  16   4  -16.00    8.80
  -4  16  -4   12.60    9.00
   4 -16   4   -3.20    6.30
   4  16   5    3.90   12.40
   4  16   5    8.10   12.30
   4 -16   5    4.00   10.60
  -4  17   7    1.80   12.90
  -4 -17   7  -19.80    8.80
   4  17  -6    8.40   12.30
  -4  17   6   17.30    8.10
  -4 -17   6    3.80    8.30
  -4  17   5    8.70    9.20
   4  17  -5   17.80    9.50
  -4  17   5   -6.20    5.20
  -4 -17   5   -2.10    8.00
  -4  17   4   -9.40    7.10
  -4  17   4    6.60    5.50
   4  17  -4   16.00    8.90
   4 -17  -4    1.90    8.30
  -4 -17   4   -1.40   10.10
   4 -17  -4   -1.40   12.80
  -4  17   3   11.80    6.00
   4  17  -3   -2.40    7.70
  -4  17   3   -1.90    7.30
   4 -17  -3    4.50   14.20
  -4 -17   3    2.40    7.30
   4 -17  -3   -2.70    8.40
   4  17  -2   66.89   14.40
  -4  17   2   51.79    9.80
   4  17  -2   50.39    9.10
  -4  17   2   56.39    7.80
   4 -17  -2   68.19   10.80
  -4 -17   2   55.39    9.30
  -4  17   1   24.90    8.50
   4  17  -1   11.40    7.10
   4  17  -1    4.20    4.80
  -4  17   1   19.60    6.30
   4 -17  -1   11.20    7.60
  -4 -17   1   20.00    9.80
  -4  17   0   95.79   11.80
  -4  17   0  154.18   12.50
   4  17   0  129.59   13.00
  -4 -17   0  120.69   15.70
   4 -17   0  125.39   13.20
  -4  17  -1   -4.30    6.30
   4  17   1  -18.10    7.40
   4 -17   1    4.90    6.30
  -4 -17  -1   -6.50    9.50
   4  17   2   51.69    9.70
  -4  17  -2   70.79   11.30
   4  17   2   68.89   10.80
  -4  17  -2   91.99   12.10
   4 -17   2   85.39   10.40
  -4  17  -3    7.50    8.90
   4  17   3   38.10   10.40
   4 -17   3   28.50    7.60
   4  17   4   37.00   12.00
  -4  17  -4   28.30   11.00
   4  17   4   24.00   10.70
   4 -17   4   47.50    8.80
   4  17   5   -9.30   13.80
   4  17   5    0.00   12.50
   4 -17   5    5.90   10.10
  -4  18   7   -6.60   13.30
   4  18  -7  -23.70   15.80
  -4 -18   7   -7.40    9.40
  -4  18   6   24.30   12.50
  -4 -18   6   19.30    9.90
  -4  18   5   90.39    9.10
  -4  18   5  102.29   15.10
  -4 -18   5   78.79   11.90
  -4  18   4  -10.10    8.10
   4  18  -4   -0.60    8.80
  -4  18   4    0.80    6.00
   4 -18  -4   -5.50    9.10
   4 -18  -4    8.70    9.90
  -4  18   3   -0.40    8.10
  -4  18   3    1.80    6.00
   4  18  -3   -1.90    9.20
  -4 -18   3  -11.20    7.90
   4 -18  -3    9.30    8.80
   4  18  -2   43.70    9.50
  -4  18   2   46.80    7.60
  -4  18   2   25.30    9.00
  -4 -18   2   36.40    9.00
   4 -18  -2   36.50    9.30
   4  18  -1    2.20   12.00
   4  18  -1   -1.70    5.70
  -4  18   1   -3.30    8.40
  -4  18   1    0.10    5.50
   4 -18  -1   13.00    7.50
  -4 -18   1   -2.40    8.10
   4  18   0   52.89    9.40
  -4  18   0   37.10    8.00
  -4  18   0   33.00    9.00
  -4 -18   0   36.80    8.70
   4 -18   0   43.40    9.40
  -4  18  -1   -0.90    7.70
  -4  18  -1   20.90    8.20
   4  18   1   45.10   16.60
  -4 -18  -1   -1.10   10.60
   4 -18   1    9.00    6.70
  -4  18  -2    0.10    7.80
   4  18   2   -2.90    7.60
   4 -18   2   -7.00    7.30
   4  18   3    5.70   10.40
  -4  18  -3   34.30   10.30
   4  18   3   27.40   11.00
   4 -18   3    3.60    7.80
   4  18   4    4.60   13.40
  -4  18  -4    2.70   12.00
   4  18   4  -22.50   10.70
   4  18   5  -26.70   11.40
   4  18   5   -9.80   14.00
   4 -18   5   21.20   11.70
   4  19  -7   -4.60   17.10
  -4  19   7   -3.00   15.60
  -4 -19   7   12.00    9.80
  -4  19   6    6.80   13.20
   4  19  -6   19.20   13.10
  -4 -19   6   -7.60    9.60
  -4  19   5   -5.40   10.50
  -4  19   5   11.60    7.00
   4  19  -5   24.70   12.80
  -4 -19   5    7.10    9.20
  -4  19   4   42.50    7.90
  -4  19   4   27.20   11.00
  -4  19   3   -0.50    8.20
  -4  19   3   -4.60    6.20
  -4 -19   3   -5.60    8.20
   4 -19  -3   -0.90    6.30
  -4  19   2  -10.70    8.70
  -4  19   2    2.30    7.00
   4 -19  -2    3.70   11.40
  -4 -19   2   16.10    8.80
   4  19  -1   34.90   14.30
  -4  19   1   11.70    6.60
  -4  19   1   19.30    9.60
   4 -19  -1   16.50    7.40
  -4 -19   1   21.80   10.00
   4  19   0   15.90    8.00
  -4  19   0   27.00    9.30
  -4  19   0   35.90   10.20
  -4 -19   0   33.90    9.80
   4 -19   0    7.60    8.00
   4  19   1   -1.40   10.60
  -4  19  -1    1.40    7.50
   4  19   1   12.20    9.50
   4 -19   1    3.60    7.40
   4  19   2   29.90   17.00
  -4  19  -2   18.10    9.10
   4  19   2   41.60   10.80
   4  19   3    8.50   10.10
   4  19   3    2.20   12.10
  -4  19  -3    1.40   10.40
  -4  19  -4   -6.80   12.70
   4  19   4   -7.70   11.70
   4  19   4    0.90   11.90
  -4  20   6   13.40   15.20
   4  20  -6  -13.20   13.60
  -4 -20   6   -6.90   10.50
  -4  20   5    6.10    7.70
  -4  20   5   -3.40   12.60
   4  20  -5   12.10   12.30
  -4 -20   5    6.30    9.90
  -4  20   4    6.40   11.60
  -4  20   4   24.30    7.40
   4  20  -4    7.80    9.80
  -4 -20   4    0.50    9.50
  -4  20   3    8.70   11.20
   4  20  -3   11.50    9.80
  -4  20   3    9.40    7.60
  -4 -20   3   23.80    9.30
   4 -20  -3    1.40   12.30
  -4  20   2   24.00    8.40
  -4  20   2   25.40   10.50
   4  20  -2   23.20   10.30
   4 -20  -2   15.20    6.10
  -4 -20   2   26.50   10.40
   4  20  -1  -24.00    8.40
  -4  20   1  -13.50   10.10
  -4  20   1   10.10   13.20
  -4 -20   1   -4.40    9.30
  -4  20   0   54.49   13.40
  -4  20   0   35.30    9.50
   4  20   0   28.60    9.70
  -4 -20   0   38.90   12.10
   4 -20   0   48.90   10.60
   4  20   1  -25.70   22.10
  -4  20  -1   17.90    8.50
   4  20   1   25.10   10.40
   4  20   1  -18.60    9.50
   4  20   2   -5.90   10.20
   4  20   2   28.70   26.70
  -4  20  -2    5.10    9.80
   4  20   3   12.30   11.40
  -4  20  -3    8.70   10.90
   4  20   3   30.00   11.90
   4  20   4   14.20   13.60
  -4  20  -4    3.40   12.60
   4  20   4   13.60   12.00
   4  21  -6    7.10   15.40
  -4  21   6   17.20   17.30
  -4 -21   6   26.20   11.70
  -4  21   5    7.70    9.20
   4  21  -5   28.10   13.70
  -4 -21   5   24.60   11.60
  -4  21   4   10.10   12.40
   4  21  -4   34.20   12.50
  -4  21   4   33.40    8.80
  -4 -21   4   15.40   10.80
   4  21  -3   -2.70   10.20
  -4  21   3    1.20   10.00
  -4  21   3    2.40    8.10
   4  21  -2    1.20   10.10
  -4  21   2   -1.90    8.60
  -4  21   2    2.00    8.90
  -4 -21   2   13.00   10.20
  -4  21   1  -10.10    8.00
  -4  21   1    5.60   11.00
   4  21  -1    0.60   10.10
  -4 -21   1   15.00    9.20
   4  21   0  -22.90   10.90
  -4  21   0    4.60    9.10
   4  21   0  -13.60   11.20
  -4 -21   0   -8.10   11.50
   4  21   1  -15.60    9.60
   4  21   1   -3.10    9.10
  -4  21  -1   -4.20    8.90
  -4  21  -2    8.50   10.50
   4  21   2   20.10   10.90
   4  21   3   10.90   15.60
   4  21   3  -12.90   12.70
  -4  21  -3   -2.20   11.50
   4  21   4   22.40   15.20
  -4  21  -4    7.60   13.60
   4  21   4   -7.10   15.60
  -4  22   6  -15.90   17.80
   4  22  -6   45.20   17.40
  -4 -22   6   16.50   12.20
   4  22  -5   27.90   15.90
  -4  22   5   22.90   10.60
  -4 -22   5   13.80   13.50
  -4  22   4   33.60    9.20
  -4  22   4   13.10   13.10
   4  22  -4    2.80   12.50
  -4 -22   4  -13.30   11.40
  -4  22   3   -7.20   12.00
   4  22  -3   15.90   11.80
  -4 -22   3  -13.80   12.20
   4  22  -2    6.70   11.00
  -4  22   2   12.90    8.90
  -4  22   2   -3.40   11.00
  -4 -22   2   13.10   17.20
   4  22  -1   36.40   18.00
   4  22  -1   25.20   11.90
  -4  22   1    8.60    9.30
  -4 -22   1   28.60   14.40
   4  22   0    5.80   11.20
   4  22   0   -6.80   12.40
  -4  22   0   13.90   10.20
   4  22   1    9.30   12.60
   4  22   1   10.80   11.20
  -4  22  -1    1.60    9.80
   4  22   2   19.50   13.30
  -4  22  -2   18.00   12.70
  -4  22  -3  -10.70   12.90
   4  22   3    7.30   12.60
   4  22   3   30.50   13.60
  -4  23   5   15.70   12.10
   4  23  -5   21.70   17.40
  -4 -23   5   -4.20   12.90
  -4  23   4   -2.10   10.60
   4  23  -4  -10.70   13.40
  -4  23   4    1.60   14.60
  -4 -23   4   -3.80   14.00
   4  23  -3    5.00   13.60
  -4  23   3   -7.70   18.00
  -4  23   3    8.70    9.50
  -4 -23   3    1.80   12.00
  -4  23   2   25.50   10.60
   4  23  -2    7.90   11.70
  -4  23   1   16.10   10.30
   4  23  -1   37.20   12.90
   4  23  -1   23.40   12.80
   4  23   0  -14.70   12.50
  -4  23   0   -7.60    9.70
   4  23   0   12.90   12.90
  -4  23  -1   11.80   11.50
   4  23   1    9.90   12.40
   4  23   1   15.80   12.70
   4  23   2   -6.60   16.50
  -4  23  -2   -0.70   11.90
   4  23   2   17.90   12.80
   4  23   3    6.30   15.40
   4  23   3   -5.30   19.50
  -4  23  -3    3.90   14.30
   4  24  -5   22.40   18.70
  -4  24   5   -6.40   25.70
   4  24  -4   -6.20   15.20
  -4  24   4   -5.30   10.80
  -4 -24   4   -5.70   15.40
   4  24  -3  -11.20   14.00
  -4  24   3  -14.50   10.30
  -4 -24   3   22.70   15.20
   4  24  -2   16.60   13.20
  -4  24   2   -4.40   10.80
  -4 -24   2  -19.60   22.70
   4  24  -1   17.20   13.90
  -4  24   1    2.10   11.20
   4  24   0  -11.50   12.80
  -4  24   0   -3.80   11.50
   4  24   0   18.20   14.10
  -4  24  -1   -0.20   12.20
   4  24   1   -7.40   16.10
   4  24   1  -17.50   13.10
  -4  24  -2  -13.50   12.90
   4  24   2   15.00   20.50
   4  24   2   -8.20   14.10
  -4  25   4   13.90   12.10
   4  25  -4  -14.50   15.80
  -4  25   3   41.40   12.90
   4  25  -3   -6.30   15.30
   4  25  -2   31.60   15.00
  -4  25   2   14.50   12.10
  -4  25   1   17.30   11.90
   4  25  -1    3.60   13.30
  -4  25   0   39.00   13.60
   4  25   0   23.20   14.50
   4  25   1   32.20   15.30
  -4  25  -1   43.90   14.50
   4  25   1   33.10   31.10
  -4  25  -2    4.60   14.40
   4  25   2   26.10   22.90
   4  25   2   27.10   16.10
   4  26  -3  -11.30   16.10
  -4  26   3  -12.10   12.60
   4  26  -2    0.60   14.10
  -4  26   2    7.90   13.50
   4  26  -1    5.60   15.10
  -4  26   1   12.80   13.70
   4  26   0    4.30   15.50
  -4  26   0   28.70   14.00
   4  26   1   18.60   15.20
  -4  26  -1   -8.60   14.20
   4  27  -2   11.70   15.40
  -4  27   2   26.60   15.40
  -4  27   1   43.20   15.50
   4  27  -1   18.60   16.00
  -5   0   9    7.90    7.50
  -5   0   8    9.30    7.90
  -5   0   6    0.10    4.90
   5   0  -5    6.20    5.10
  -5   0   5    7.80    4.70
  -5   0   4   33.20    3.70
   5   0  -4   30.20    4.30
  -5   0   4   39.60    6.70
   5   0  -4   31.60    6.40
   5   0  -3   -4.80    4.50
  -5   0   3    3.20    2.30
   5   0  -3    0.20    2.80
  -5   0   3   -2.50    3.60
   5   0  -2   40.20    4.50
  -5   0   2   45.40    6.20
   5   0  -2   29.60    5.20
  -5   0   2   43.30    4.90
  -5   0   1   -1.70    3.20
  -5   0   1    3.40    3.00
   5   0  -1   -0.30    2.90
   5   0  -1   -3.50    3.30
   5   0   0   88.79    7.80
   5   0   0   94.09    7.00
  -5   0   0   87.39    7.30
  -5   0   0   96.09    8.20
   5   0   1    2.40    3.10
  -5   0  -1    4.90    4.40
   5   0   1    2.00    3.50
  -5   0  -1    2.80    4.30
  -5   0  -2  120.69    9.10
   5   0   2   93.99    8.30
   5   0   2   98.59    8.60
  -5   0  -3   -3.70    4.90
   5   0   3    2.80    4.10
   5   0   3    5.90    5.10
   5   0   4    5.80    4.70
   5   0   4   -0.40    5.60
  -5   0  -4    1.50    5.60
   5   0   5    2.70    7.70
   5   0   5    1.40    4.80
   5   0   6    9.50    9.90
  -5   1   9   18.90    8.00
  -5  -1   9    6.00    8.20
  -5   1   8   -7.60    7.30
  -5  -1   8   -2.10    7.30
  -5   1   6  103.59   11.00
  -5  -1   6   94.29   10.50
   5   1  -5  130.59    6.50
  -5   1   5  144.79   11.50
   5   1  -5  112.69   10.20
   5  -1  -5  147.39   11.00
  -5  -1   5  163.68   11.60
   5   1  -4  105.29    7.70
   5   1  -4   98.79    9.10
  -5  -1   4  116.29    6.10
   5  -1  -4  119.69    6.10
   5  -1  -4  103.19    9.50
  -5  -1   4  123.39    9.60
   5  -1  -4  103.39    6.60
   5   1  -3  163.88    8.80
   5   1  -3  181.58   11.40
  -5   1   3  172.28   10.70
   5  -1  -3  165.68    8.30
   5  -1  -3  165.68   10.80
   5  -1  -3  166.68    8.40
  -5  -1   3  161.58    8.00
   5   1  -2  210.88   10.30
  -5   1   2  208.48    9.90
  -5   1   2  206.58   12.20
  -5  -1   2  231.78   12.50
  -5  -1   2  215.48   10.00
   5  -1  -2  216.78   10.10
   5   1  -1  101.59    8.10
   5   1  -1   91.79    7.00
  -5   1   1   96.89    6.90
  -5   1   1  100.79    8.50
  -5  -1   1   94.59    7.10
   5  -1  -1   94.69    6.90
   5  -1  -1   83.59    7.70
  -5   1   0   -0.70    3.30
  -5   1   0    7.10    3.50
   5   1   0    0.50    3.40
   5   1   0   10.60    3.90
   5  -1   0    5.70    4.20
   5  -1   0    5.00    3.40
   5  -1   0    7.00    3.50
  -5  -1   0    1.90    3.60
  -5  -1   0   -0.50    3.60
   5   1   1  172.08    9.90
  -5   1  -1  157.48   10.40
   5   1   1  143.19    9.80
   5  -1   1  153.78   10.70
  -5  -1  -1  164.48   10.30
   5  -1   1  180.58   10.30
   5  -1   1  157.48    9.90
  -5  -1  -1  162.08   10.60
  -5   1  -2    3.20    4.60
   5   1   2    6.90    4.00
   5   1   2    3.00    4.00
   5  -1   2    3.70    4.00
   5  -1   2    5.00    4.00
  -5  -1  -2    1.60    4.70
   5   1   3  264.47   14.70
  -5   1  -3  268.77   13.90
   5   1   3  294.27   14.70
   5  -1   3  266.77   13.40
  -5  -1  -3  278.67   14.80
   5  -1   3  280.87   15.30
   5   1   4   41.10    8.40
   5   1   4   53.39    6.40
  -5   1  -4   42.00    6.30
   5  -1   4   50.89    6.10
   5  -1   4   48.90    8.50
   5   1   5  -18.20    8.10
   5   1   5    1.30    5.30
   5  -1   5    3.20    5.00
   5  -1   5   -2.60    7.50
   5   1   6   14.50    7.00
   5   1   6  -13.30   10.30
   5  -1   6    1.90   10.50
  -5   2   9   -2.30    8.30
  -5  -2   9    9.50    8.90
  -5   2   8   12.60    8.10
  -5  -2   8   13.90    7.00
  -5  -2   7    1.80    8.60
  -5   2   6    4.40    5.60
  -5  -2   6    3.50    4.70
  -5   2   5    7.20    5.20
   5   2  -5    9.10    5.00
   5   2  -5    4.30    3.10
  -5  -2   5    4.30    4.30
  -5  -2   5    6.50    2.20
   5  -2  -5   -2.90    5.30
   5   2  -4   -0.70    4.00
  -5   2   4   10.40    5.10
   5   2  -4    1.60    3.30
   5  -2  -4    1.20    2.60
  -5  -2   4   -2.10    3.70
   5  -2  -4    2.10    2.70
   5  -2  -4    1.10    4.60
   5   2  -3   37.00    4.80
  -5   2   3   73.39   10.60
   5   2  -3   47.90    6.60
   5  -2  -3   40.30    4.90
   5  -2  -3   47.90    7.00
  -5  -2   3   71.89   10.50
   5  -2  -3   41.50    5.10
  -5  -2   3   43.00    4.60
   5   2  -2   12.80    3.60
   5   2  -2    4.80    3.60
  -5   2   2   15.00    4.10
  -5  -2   2   25.40    9.30
   5  -2  -2    6.80    3.30
  -5  -2   2    7.70    2.90
   5  -2  -2    8.50    3.00
   5   2  -1   25.70    4.50
  -5   2   1   34.10    5.70
   5   2  -1   26.70    4.70
  -5  -2   1   37.20    4.50
   5  -2  -1   32.70    4.40
   5  -2  -1   32.80    5.60
   5  -2  -1   33.00    5.00
  -5  -2   1   18.20    4.50
  -5   2   0   97.79    8.10
   5   2   0  114.69    8.20
   5   2   0  118.89    8.90
   5  -2   0  113.59    8.20
   5  -2   0  111.19    8.80
  -5  -2   0  119.79    9.20
   5  -2   0  119.19    7.90
  -5  -2   0  111.39    8.00
   5   2   1   38.20    5.70
   5   2   1   40.70    5.50
  -5   2  -1   37.50    6.00
  -5  -2  -1   43.90    5.80
   5  -2   1   39.90    5.40
   5  -2   1   49.10    6.00
   5  -2   1   37.90    6.00
  -5  -2  -1   49.00    6.30
   5   2   2    8.70    5.30
   5   2   2    4.70    4.10
  -5   2  -2    8.90    4.50
   5  -2   2    4.40    4.10
  -5  -2  -2   16.80    5.20
   5  -2   2    9.00    4.30
   5   2   3   19.30    7.40
   5   2   3   14.00    5.10
  -5   2  -3   19.20    5.30
  -5  -2  -3   21.20    6.50
   5  -2   3   19.80    5.70
   5  -2   3   14.00    4.30
   5   2   4   -4.10    6.30
   5   2   4    4.30    4.70
   5  -2   4    2.10    3.80
   5  -2   4   -0.10    6.30
   5   2   5   36.50    9.60
   5   2   5   32.80    6.30
   5  -2   5   47.30    5.80
   5  -2   5   28.60    8.60
   5   2   6    6.80   11.20
   5   2   6   12.00    6.60
   5   2   6    1.50    7.30
   5  -2   6   -6.90    9.40
  -5   3   9    8.20    9.60
  -5  -3   9   11.40    8.10
  -5   3   8   17.50    7.90
  -5  -3   8   13.40    7.70
  -5  -3   7    7.90    5.60
  -5   3   6  123.39   11.80
  -5  -3   6  113.49   10.50
  -5   3   5   -1.90    4.70
   5   3  -5    8.30    5.10
   5   3  -5    6.10    4.10
   5  -3  -5   -5.10    5.30
  -5  -3   5   -2.80    4.20
  -5  -3   5    2.50    2.60
  -5   3   4   21.20    5.00
   5   3  -4   30.10    4.70
   5   3  -4   22.80    5.10
   5  -3  -4   27.10    3.60
  -5  -3   4   27.60    5.40
   5  -3  -4   23.70    5.90
  -5  -3   4   30.00    3.60
   5  -3  -4   26.40    3.20
  -5   3   3   10.00    4.80
   5   3  -3   14.90    3.70
   5   3  -3   26.40    7.50
   5  -3  -3   15.20    3.80
  -5  -3   3   16.90    5.40
   5  -3  -3    5.60    2.70
   5  -3  -3    9.00    4.70
   5   3  -2   74.99    6.90
  -5   3   2   81.49    8.70
   5   3  -2   85.69    8.00
   5  -3  -2   69.89    6.50
   5  -3  -2   83.29    9.30
  -5  -3   2   70.79    8.10
   5  -3  -2   83.59    5.90
  -5  -3   2   80.99    6.30
  -5   3   1   31.30    5.40
   5   3  -1   31.50    5.90
   5   3  -1   29.50    4.60
  -5  -3   1   26.40    4.20
  -5  -3   1   23.80    5.40
   5  -3  -1   40.50    6.10
   5  -3  -1   25.30    4.20
   5  -3  -1   28.90    5.10
   5   3   0   51.99    6.20
   5   3   0   52.39    7.00
   5  -3   0   56.59    6.70
  -5  -3   0   54.09    6.60
  -5  -3   0   55.59    6.80
   5  -3   0   60.99    7.10
   5  -3   0   45.60    5.60
   5   3   1   -1.20    3.50
   5   3   1    1.40    4.00
  -5   3  -1   -3.00    3.50
   5  -3   1    0.30    4.60
  -5  -3  -1    0.90    4.80
   5  -3   1   -1.60    3.20
  -5  -3  -1    5.70    4.30
   5  -3   1   -5.90    3.30
   5   3   2    4.40    4.40
  -5   3  -2    1.60    4.50
   5   3   2   -2.30    4.40
   5  -3   2   -1.20    4.00
   5  -3   2   -0.50    4.10
  -5  -3  -2    2.80    4.40
  -5   3  -3   34.20    5.70
   5   3   3   31.50    6.50
   5   3   3   22.60    6.20
  -5  -3  -3   26.20    7.10
   5  -3   3   15.20    5.30
   5  -3   3   24.00    4.70
   5   3   4   64.59    7.40
   5   3   4   65.29    9.20
   5  -3   4   58.69    7.30
   5  -3   4   61.69    9.50
   5   3   5   22.40    9.20
   5   3   5    3.60    6.10
   5  -3   5   11.30    4.60
   5  -3   5    9.20    7.70
   5   3   6    6.10    7.10
   5   3   6    3.80   10.90
   5  -3   6  -10.40   10.00
  -5   4   9    3.50    9.40
  -5  -4   9    8.50    7.60
  -5   4   8   -7.90    8.10
  -5  -4   8    1.90    6.90
  -5  -4   7  -14.00    5.30
   5   4  -6   -0.50    3.70
  -5   4   6    6.90    5.90
  -5  -4   6    1.90    4.70
  -5  -4   6   -0.20    2.50
  -5   4   5   31.80    6.70
   5   4  -5   39.70    5.80
   5  -4  -5   45.90    6.90
  -5  -4   5   39.50    6.90
  -5   4   4   -2.80    4.30
   5   4  -4   -0.10    4.20
   5   4  -4   -1.20    3.50
   5  -4  -4    1.40    4.60
   5  -4  -4    0.30    2.30
  -5  -4   4   -2.20    2.60
   5  -4  -4    2.30    2.80
  -5  -4   4   -1.70    3.80
  -5   4   3    5.00    4.10
   5   4  -3   15.40    4.80
   5   4  -3    4.80    3.50
   5  -4  -3   12.30    3.10
   5  -4  -3   15.20    3.50
  -5  -4   3   13.70    4.70
   5  -4  -3   17.20    5.10
  -5  -4   3   14.10    3.00
  -5   4   2  130.09   10.30
   5   4  -2  134.39   10.00
   5   4  -2  150.98    9.40
   5  -4  -2  151.48    7.90
  -5  -4   2  137.99    8.20
   5  -4  -2  137.19    8.40
  -5  -4   2  138.59   10.20
  -5   4   1  254.87   13.90
   5   4  -1  266.77   13.80
   5   4  -1  263.27   12.70
   5  -4  -1  257.57   12.80
  -5  -4   1  260.97   12.20
   5  -4  -1  266.67   13.70
   5  -4  -1  262.17   12.00
  -5  -4   1  264.37   14.80
   5   4   0   47.90    7.10
   5   4   0   37.00    5.20
   5  -4   0   35.80    5.40
   5  -4   0   37.60    4.80
   5  -4   0   25.80    5.00
  -5  -4   0   34.60    5.40
  -5  -4   0   40.60    6.70
   5   4   1    6.40    3.90
   5   4   1    4.70    3.80
  -5   4  -1   -0.80    3.00
   5  -4   1    1.60    3.60
   5  -4   1   -0.20    3.60
  -5  -4  -1    6.00    4.90
   5  -4   1    2.80    4.80
  -5  -4  -1    4.80    5.00
  -5   4  -2  115.99    9.30
   5   4   2  108.19    9.30
   5   4   2  127.89    9.60
  -5  -4  -2  124.09   10.30
   5  -4   2  133.09    9.80
   5  -4   2  125.09    9.80
   5   4   3   14.20    5.70
  -5   4  -3   20.50    5.20
   5   4   3   10.50    5.70
   5  -4   3   12.20    4.30
   5  -4   3   18.50    5.70
   5   4   4   44.30    6.40
   5   4   4   38.30    8.60
   5  -4   4   41.50    5.40
   5  -4   4   43.60    8.00
   5   4   5   13.80    8.10
   5   4   5   -3.10    6.10
   5  -4   5  -10.50    4.40
   5  -4   5   -2.30    7.60
   5   4   6   23.10    7.90
   5   4   6   10.10   10.90
   5  -4   6   -3.00    9.70
  -5   5   9   -3.20    8.80
  -5  -5   9   -5.20    8.20
  -5   5   8   -6.50    8.10
  -5  -5   8    4.20    7.30
   5   5  -7   -1.40    3.20
  -5  -5   7   -7.70    6.20
  -5   5   6  115.29   12.60
  -5  -5   6  115.39    7.10
  -5  -5   6  128.49   11.40
  -5   5   5  125.59   11.70
   5   5  -5  129.99    9.20
   5  -5  -5  111.49   11.30
  -5  -5   5  137.49   11.30
  -5  -5   5  132.09    7.70
  -5   5   4    5.20    4.50
   5   5  -4    2.50    3.90
  -5  -5   4   -1.70    4.20
  -5  -5   4    4.10    3.10
   5  -5  -4    0.10    2.30
   5  -5  -4    5.90    3.10
   5  -5  -4    8.50    5.40
   5   5  -3   -1.10    3.20
  -5   5   3    4.30    7.70
   5   5  -3   -3.10    4.20
   5  -5  -3    2.90    2.60
   5  -5  -3    4.30    3.60
  -5  -5   3    3.00    4.10
   5  -5  -3    5.20    5.10
  -5  -5   3    2.20    3.20
   5   5  -2   18.60    5.00
  -5   5   2   15.60    5.90
   5   5  -2   10.60    4.30
   5  -5  -2   15.10    3.20
  -5  -5   2   13.50    3.70
  -5  -5   2    9.60    4.20
   5  -5  -2    9.30    4.90
   5  -5  -2   14.50    4.20
   5   5  -1    1.30    3.90
  -5   5   1    5.70    5.10
   5   5  -1    0.30    4.20
   5  -5  -1    0.30    4.20
   5  -5  -1    3.10    2.90
  -5  -5   1   -2.00    3.50
   5  -5  -1    5.90    7.20
   5   5   0    2.20    4.20
   5   5   0   -0.80    3.70
  -5   5   0   -0.90    3.30
  -5  -5   0    2.50    4.10
   5  -5   0    4.10    4.50
  -5  -5   0   -1.00    4.20
   5  -5   0    2.30    4.00
   5  -5   0    2.90    3.40
  -5   5  -1   20.20    4.20
   5   5   1   27.30    5.60
   5   5   1   33.10    5.40
   5  -5   1   29.70    4.80
   5  -5   1   30.60    7.50
   5  -5   1   27.90    5.30
   5   5   2   23.40    5.10
   5   5   2   18.70    5.00
   5  -5   2   22.40    5.00
   5  -5   2   25.50    5.50
  -5  -5  -2   24.00    6.50
  -5   5  -3   11.30    5.20
   5   5   3    3.00    5.00
   5   5   3   17.30    5.60
  -5  -5  -3    3.50    7.10
   5  -5   3    3.30    4.10
   5   5   4   20.60    7.60
   5   5   4   14.20    5.60
   5  -5   4   -3.10    5.80
   5  -5   4    7.80    4.40
   5   5   5    0.30    6.40
   5   5   5    6.70    7.90
   5  -5   5    2.00    8.10
   5  -5   5    1.60    4.60
   5   5   6    3.20   10.70
   5   5   6   -1.60    7.70
   5  -5   6   -1.00    9.70
  -5   6   9   -6.20    9.50
  -5  -6   9   -4.70    8.70
  -5   6   8   14.50    9.90
  -5  -6   8    7.30    7.40
   5   6  -7   -6.80    6.50
  -5  -6   7   10.40    6.90
   5   6  -6    1.20    5.00
  -5   6   6   -5.00    6.70
  -5  -6   6    8.20    8.30
  -5  -6   6    5.80    3.60
  -5   6   5   11.10    6.40
   5   6  -5   -4.10    4.20
   5  -6  -5    5.90    5.90
  -5  -6   5    3.80    3.60
  -5  -6   5    0.80    4.70
   5   6  -4    1.10    4.20
  -5   6   4   -3.40    4.20
   5   6  -4    9.90    4.30
  -5  -6   4    7.10    3.40
   5  -6  -4   12.10    5.60
   5  -6  -4    1.50    2.50
   5  -6  -4   -1.90    3.30
  -5  -6   4    3.90    4.50
   5   6  -3   25.20    4.70
   5   6  -3   47.30   10.30
  -5   6   3   39.50    7.20
   5  -6  -3   22.10    5.40
   5  -6  -3   23.10    3.50
  -5  -6   3   26.20    5.80
   5  -6  -3   28.10    4.60
  -5  -6   3   26.20    4.10
   5   6  -2   64.49    7.70
   5   6  -2   69.29    7.20
  -5   6   2   68.29    8.60
   5  -6  -2   62.19    5.30
  -5  -6   2   48.80    6.50
   5  -6  -2   59.89    6.50
  -5  -6   2   57.29    6.10
   5  -6  -2   54.99    7.60
   5   6  -1   46.20    6.40
   5   6  -1   34.10    6.10
  -5   6   1   34.10    5.80
  -5  -6   1   49.00    5.90
   5  -6  -1   54.49    5.90
   5  -6  -1   56.89    6.70
  -5  -6   1   73.79    9.80
   5  -6  -1   70.29    8.00
   5   6   0    6.50    3.90
  -5   6   0   -0.30    3.50
   5   6   0    9.90    4.30
   5  -6   0   13.60    4.60
  -5  -6   0    2.20    4.70
  -5  -6   0   -0.40    3.90
   5  -6   0   13.40    3.80
   5  -6   0   14.60    5.40
   5   6   1    4.30    4.10
   5   6   1    7.10    4.60
  -5   6  -1    2.40    3.40
  -5  -6  -1    4.90    4.80
   5  -6   1    1.10    3.20
   5  -6   1    4.20    4.20
  -5   6  -2   70.19    8.30
   5   6   2   82.89    9.20
   5   6   2   72.79    8.90
  -5  -6  -2   79.39   10.50
   5  -6   2   84.89    9.30
   5  -6   2   69.19    7.70
  -5   6  -3   17.20    4.90
   5   6   3   16.50    6.30
   5   6   3   14.50    6.00
  -5  -6  -3   20.00    7.70
   5  -6   3    2.50    4.10
   5   6   4   27.30    8.20
   5   6   4   18.00    6.60
   5  -6   4   21.90    4.50
   5  -6   4   12.80    7.40
   5   6   5    5.00    8.50
   5  -6   5    3.10    4.60
   5  -6   5   -3.30    8.10
   5   6   6  -24.30   10.30
   5   6   6   -7.50    7.50
   5  -6   6    0.40   10.40
  -5   7   9    4.40   10.50
  -5  -7   9   -5.90    8.40
  -5   7   8   -2.50    9.20
  -5  -7   8    4.80    7.80
  -5   7   7    9.30    8.90
   5   7  -7   11.60    5.50
  -5  -7   7    8.90    6.70
  -5   7   6   41.30    8.40
   5   7  -6   58.49    7.40
  -5  -7   6   35.90    9.70
  -5  -7   6   52.99    5.60
  -5   7   5  109.79   11.80
   5   7  -5   83.09    9.00
   5  -7  -5   75.49   10.10
  -5  -7   5   88.49    7.50
  -5  -7   5   85.09   10.20
   5   7  -4   15.10    4.80
   5   7  -4   25.30    5.80
  -5   7   4   14.80    5.20
  -5  -7   4   11.70    4.90
   5  -7  -4   23.60    3.50
  -5  -7   4   26.50    4.30
   5  -7  -4   30.30    7.20
   5  -7  -4   18.00    4.10
   5   7  -3   71.89    7.80
  -5   7   3   66.59    8.30
   5   7  -3   64.89    8.60
  -5  -7   3   64.89    8.60
  -5  -7   3   61.49    7.00
   5  -7  -3   66.99    7.10
   5  -7  -3  107.89   13.50
   5  -7  -3   71.49    5.40
   5   7  -2  107.89    8.60
   5   7  -2   87.39    8.80
  -5   7   2   96.39   10.00
   5  -7  -2   99.69    8.50
  -5  -7   2  101.69    9.70
   5  -7  -2   93.29    8.90
   5  -7  -2   88.89    6.50
  -5  -7   2  102.59    7.70
   5   7  -1   16.10    8.70
  -5   7   1    8.00    5.20
   5   7  -1    4.90    4.40
   5  -7  -1    8.30    4.60
  -5  -7   1   18.60    9.50
   5  -7  -1    9.20    4.70
   5  -7  -1    5.80    3.40
  -5  -7   1   11.10    3.90
  -5   7   0    1.90    3.60
   5   7   0   18.30    4.50
   5   7   0   12.00    4.40
  -5  -7   0   19.50    5.80
  -5  -7   0    8.00    4.70
   5  -7   0   12.00    5.20
   5  -7   0   10.80    3.90
   5  -7   0   17.00    5.00
  -5   7  -1   19.40    5.10
   5   7   1   20.60    5.70
   5   7   1   19.50    5.20
   5  -7   1   24.00    5.30
   5  -7   1   25.60    5.20
  -5  -7  -1   14.90    5.50
  -5   7  -2   18.80    4.80
   5   7   2   11.00    5.30
   5   7   2   12.80    5.70
  -5  -7  -2    5.10    6.00
   5  -7   2   17.90    6.20
   5  -7   2   17.00    4.90
   5   7   3    0.10    9.70
  -5   7  -3    7.90    4.90
   5   7   3   -4.80    5.20
   5  -7   3    8.80    4.30
  -5  -7  -3    1.40    8.00
   5   7   4    2.30    6.80
   5   7   4   15.00    6.40
   5  -7   4    9.10    6.60
   5  -7   4    9.70    4.60
   5   7   5    5.80    9.30
   5  -7   5   12.60    8.80
   5  -7   5   18.00    4.80
   5   7   6   12.90   11.50
   5   7   6   -8.40    7.80
   5  -7   6   -0.70   10.70
  -5   8   9    5.10   10.10
  -5  -8   9    1.10    8.00
  -5   8   8   -8.40   10.50
  -5  -8   8    7.70    8.60
  -5   8   7    4.30    8.10
   5   8  -7   -3.00    5.70
  -5  -8   7    1.00    6.40
   5   8  -6   45.40    7.10
  -5   8   6   49.20   10.00
  -5  -8   6   60.89   13.20
  -5  -8   6   45.20    5.90
   5   8  -5   -2.90    5.20
  -5   8   5   -1.40    4.90
  -5  -8   5    1.90    4.70
  -5  -8   5   -0.20    4.10
   5  -8  -5    9.90    6.30
   5   8  -4   94.09    9.60
  -5   8   4   99.69   10.30
   5   8  -4   85.19    9.60
  -5  -8   4   79.99    7.70
  -5  -8   4   90.59   10.10
   5  -8  -4   88.29   10.40
   5   8  -3   32.40    6.00
   5   8  -3   17.90    5.00
  -5   8   3   38.60    6.90
   5  -8  -3   29.30    4.00
  -5  -8   3   34.40    4.90
   5  -8  -3   33.20    5.20
   5  -8  -3   30.20    5.70
  -5  -8   3   22.00    5.30
   5   8  -2  170.68   11.30
  -5   8   2  185.38   13.00
   5   8  -2  183.08   11.90
   5  -8  -2  145.49   13.50
   5  -8  -2  169.98   11.00
   5  -8  -2  170.68    9.20
  -5  -8   2  179.08   10.20
  -5  -8   2  164.78   11.80
   5   8  -1  157.88   11.00
  -5   8   1  150.88   11.30
   5   8  -1  150.28   10.80
   5  -8  -1  158.78   11.20
  -5  -8   1  151.78   11.70
   5  -8  -1  145.79   10.80
   5  -8  -1  164.68    9.50
  -5  -8   1  156.68   10.30
   5   8   0    0.60    3.50
  -5   8   0   -0.70    4.40
   5   8   0    0.60    4.50
   5  -8   0    4.00    4.00
   5  -8   0   10.00    5.60
  -5  -8   0    3.30    5.50
   5  -8   0    5.00    3.90
  -5  -8   0    8.60    4.40
   5   8   1  121.69    9.70
   5   8   1  129.19   10.70
  -5   8  -1  102.79    9.00
   5  -8   1  105.39    9.10
  -5  -8  -1  108.89   10.80
   5  -8   1  118.69    9.40
   5   8   2   47.10    7.00
  -5   8  -2   51.19    6.50
   5   8   2   62.99    8.70
   5  -8   2   65.49    7.90
   5  -8   2   51.69    7.00
  -5  -8  -2   52.49    8.40
  -5   8  -3   11.80    5.30
   5   8   3    2.40    5.60
   5   8   3   18.90    7.60
  -5  -8  -3    6.50    8.40
   5  -8   3   11.20    4.50
   5   8   4   32.80    7.90
   5   8   4   11.90    8.20
   5  -8   4   22.60    7.70
   5  -8   4   18.30    5.00
   5   8   5    0.80    9.50
   5  -8   5   -1.40    8.80
   5  -8   5   -6.30    4.60
   5   8   6   33.90   13.00
   5   8   6   16.50    8.90
   5  -8   6    5.50   10.50
  -5   9   8   13.60   11.20
  -5  -9   8    9.90    8.50
   5   9  -7   11.60    7.10
  -5   9   7    8.00    7.90
  -5  -9   7   -1.80    6.60
  -5   9   6   35.50    8.70
   5   9  -6   24.50    7.10
  -5  -9   6   14.20    5.70
  -5   9   5    4.00    6.30
   5   9  -5    7.50    6.10
  -5  -9   5   14.90    5.10
   5  -9  -5   14.40    2.30
   5  -9  -5   10.80    3.10
   5  -9  -5   14.60    9.20
  -5  -9   5   17.10    6.40
   5   9  -4   25.30    5.70
  -5   9   4    8.20    5.50
   5   9  -4   18.70    5.80
  -5  -9   4   14.90    5.30
   5  -9  -4   17.60    3.40
  -5  -9   4   17.00    4.80
   5  -9  -4   -2.60    7.50
   5  -9  -4   25.10    4.90
   5   9  -3   94.39    9.40
  -5   9   3   82.29   10.00
   5   9  -3   89.89    9.10
  -5  -9   3   91.09   10.00
   5  -9  -3   77.49    8.60
  -5  -9   3  107.19    8.20
   5  -9  -3   99.19    6.70
   5   9  -2   52.79    7.20
  -5   9   2   48.60    8.30
   5   9  -2   41.50    5.70
  -5  -9   2   49.40    7.50
  -5  -9   2   49.90    6.30
   5  -9  -2   36.10    6.20
   5  -9  -2   46.40    5.30
   5   9  -1   14.30    7.50
   5   9  -1   12.00    5.20
  -5   9   1   10.50    5.40
   5  -9  -1   11.20    5.60
   5  -9  -1   11.40    4.90
   5  -9  -1    8.50    4.10
  -5  -9   1    9.70    4.90
  -5  -9   1   11.20    5.10
   5   9   0   38.70    7.00
   5   9   0   41.70    7.10
  -5   9   0   20.60    5.50
   5  -9   0   51.69    7.30
   5  -9   0   29.10    5.10
  -5  -9   0   46.80    8.40
   5  -9   0   31.80    6.90
  -5   9  -1   79.19    8.90
   5   9   1   90.49    9.90
   5   9   1   66.99    8.40
   5  -9   1   78.89    8.70
  -5  -9  -1   87.49   11.00
   5  -9   1   83.69    9.00
  -5   9  -2   37.60    6.10
   5   9   2   30.50    6.50
   5   9   2   27.70    7.00
   5  -9   2   47.70    8.10
  -5  -9  -2   51.99    8.80
   5   9   3  238.68   15.30
   5   9   3  226.48   16.10
  -5   9  -3  263.67   14.70
   5  -9   3  249.97   13.20
  -5  -9  -3  237.98   18.40
   5   9   4   12.30    8.30
   5  -9   4   -9.00    6.60
   5  -9   4    5.00    4.50
   5   9   5    5.10   10.30
   5  -9   5    5.70    8.60
   5  -9   5    1.90    5.30
  -5  10   8   -1.50   11.10
  -5 -10   8   -4.30    8.20
  -5  10   7   10.90   10.10
   5  10  -7   10.80    8.30
  -5 -10   7    2.50    7.80
   5  10  -6    8.50    6.90
  -5  10   6    5.30    7.80
  -5 -10   6    4.80    6.10
  -5  10   5   -2.50    6.00
   5  10  -5    1.90    6.50
   5 -10  -5    1.50    3.80
  -5 -10   5   -1.20    5.20
  -5 -10   5   13.70    6.00
   5 -10  -5    2.20    2.60
   5  10  -4   23.60    6.90
  -5  10   4   28.80    7.20
  -5 -10   4   38.80    5.90
   5 -10  -4   31.40    4.20
   5 -10  -4   28.00    5.50
  -5 -10   4   28.50    6.90
   5  10  -3    5.50    5.70
  -5  10   3   20.00    6.40
   5  10  -3    6.80    5.90
   5 -10  -3   15.30    5.50
   5 -10  -3   13.90    3.40
   5 -10  -3   24.60    8.50
  -5 -10   3    4.90    4.80
  -5 -10   3    9.70    4.90
  -5  10   2   52.49    6.00
  -5  10   2   39.60    6.50
   5  10  -2   55.79    8.30
   5  10  -2   52.49    7.30
   5 -10  -2   41.50    5.20
   5 -10  -2   41.70    6.90
  -5 -10   2   58.69    8.30
  -5 -10   2   51.59    6.90
   5  10  -1    6.10    4.60
  -5  10   1   10.30    5.40
   5  10  -1    2.00    4.80
  -5  10   1    4.00    3.60
  -5 -10   1    3.30    5.10
   5 -10  -1    4.20    3.60
   5 -10  -1   -1.40    5.90
   5 -10  -1   11.00    5.20
  -5 -10   1    0.80    5.10
  -5  10   0   50.19    7.70
   5  10   0   75.39    9.00
   5  10   0  100.59   14.70
   5 -10   0   82.69    9.10
   5 -10   0   80.69   15.00
   5 -10   0   77.59    7.80
   5  10   1   22.70    6.10
   5  10   1   24.10    6.70
  -5  10  -1   32.70    6.50
   5 -10   1   26.40    5.50
  -5 -10  -1   19.40    7.00
   5 -10   1   29.80    6.20
  -5  10  -2   29.10    6.00
   5  10   2   25.30    6.70
   5  10   2   37.30    7.30
   5 -10   2   44.20    7.80
   5 -10   2   32.20    8.40
   5  10   3    8.60    6.50
  -5  10  -3    5.80    5.20
   5  10   3    8.10    7.40
  -5 -10  -3   -1.40    8.30
   5 -10   3   11.70    4.70
   5  10   4   -3.80    8.10
   5 -10   4    4.60    5.00
   5 -10   4    8.40    7.30
   5  10   5   -0.30   10.90
   5 -10   5   -1.60    8.60
  -5  11   8    4.80    9.90
  -5 -11   8    8.80    9.20
  -5  11   7   -9.20    9.10
   5  11  -7   16.50    9.00
  -5 -11   7    6.30    6.80
  -5  11   6   12.20    8.00
   5  11  -6   22.90    8.70
  -5 -11   6   16.80    7.10
  -5 -11   6    9.40    7.90
   5  11  -5   -0.40    6.80
  -5  11   5  -15.30   13.50
  -5 -11   5   -1.80    5.90
   5 -11  -5   -0.70    3.20
   5 -11  -5   -5.90    4.60
  -5 -11   5    6.60    6.00
  -5  11   4    9.00    6.00
   5  11  -4   22.40    7.00
   5 -11  -4   22.30   12.30
   5 -11  -4    7.70    3.40
   5 -11  -4    6.30    5.90
  -5 -11   4   15.50    6.80
  -5 -11   4    4.30    5.80
   5  11  -3   30.20    6.80
  -5  11   3   34.00    4.60
  -5  11   3   47.90    8.20
   5  11  -3   35.10    7.10
   5 -11  -3   21.40    6.30
  -5 -11   3   33.00    6.90
   5 -11  -3   36.90    6.50
  -5 -11   3   34.20    6.10
   5  11  -2   -9.30    5.40
   5  11  -2    5.70    6.00
  -5  11   2    2.40    5.60
  -5  11   2   -2.90    3.60
  -5 -11   2    5.50    5.60
  -5 -11   2   -4.10    4.80
   5 -11  -2    8.80    5.70
   5 -11  -2    4.90    6.10
  -5  11   1  220.18   14.20
   5  11  -1  218.98   13.60
  -5  11   1  214.88   12.00
   5  11  -1  211.48   14.10
   5 -11  -1  206.78   14.50
  -5 -11   1  215.58   14.60
   5 -11  -1  201.98   13.50
  -5  11   0   52.19    6.90
  -5  11   0   40.00    6.90
   5  11   0   53.09    8.00
   5  11   0   50.69    8.50
   5 -11   0   32.30    6.30
   5 -11   0   62.69    7.40
  -5 -11   0   44.60    8.80
  -5  11  -1   -0.10    5.90
   5  11   1    2.20    6.00
   5  11   1    4.30    5.80
   5 -11   1    6.40    4.90
   5 -11   1   10.80    5.30
  -5 -11  -1    3.80    7.20
   5  11   2   21.70    7.30
  -5  11  -2   14.10    5.90
   5 -11   2   17.40    7.80
  -5 -11  -2   15.20    8.40
   5  11   3   15.70    7.30
  -5  11  -3    8.40    5.10
   5  11   3   21.20    8.60
  -5 -11  -3    0.50   12.20
   5 -11   3   12.30    5.10
   5  11   4   62.39   11.60
   5 -11   4   47.80    7.00
   5 -11   4   48.60    9.30
   5  11   5    6.30    9.90
   5  11   5    3.60   10.60
   5 -11   5   -4.30   10.30
  -5  12   8   -3.60   12.70
  -5 -12   8   -2.30    8.30
  -5  12   7   -6.10   10.50
   5  12  -7   -3.70    9.60
  -5 -12   7   -1.10    7.80
   5  12  -6    5.00    8.00
  -5  12   6   13.80   10.20
  -5 -12   6    7.00    6.60
  -5 -12   6    7.90    8.00
   5  12  -5    2.70    6.90
  -5  12   5    9.50   11.50
  -5 -12   5    4.10    7.00
  -5 -12   5    3.80    7.30
   5 -12  -5    0.90    4.20
   5 -12  -5    0.10    7.60
   5  12  -4    3.70    6.20
  -5  12   4   -4.20    3.40
  -5  12   4  -10.00    6.80
  -5 -12   4   -5.80    5.90
   5 -12  -4   -3.40    6.20
   5 -12  -4   -3.70    6.40
  -5 -12   4    0.80    6.10
  -5  12   3   54.59    9.30
   5  12  -3   45.20    7.90
  -5  12   3   58.99    6.60
   5  12  -3   52.19    8.20
  -5 -12   3   34.70    6.40
   5 -12  -3   49.20    7.70
  -5 -12   3   35.40    7.40
   5 -12  -3   56.99    7.80
   5  12  -2   92.59   10.30
  -5  12   2   70.89    9.00
   5  12  -2   82.69   10.20
  -5  12   2   79.69    7.70
   5 -12  -2   77.49    9.20
   5 -12  -2   83.89   12.30
  -5 -12   2  113.79   12.80
   5  12  -1   99.49   10.60
  -5  12   1   96.89   10.90
   5  12  -1   94.19   10.40
  -5  12   1   91.69    8.50
  -5 -12   1  143.19   16.30
   5 -12  -1   80.99   10.20
   5 -12  -1   69.89    9.60
  -5  12   0   -0.30    4.80
  -5  12   0    2.70    5.80
   5  12   0    0.60    5.00
   5  12   0    3.70    5.80
  -5 -12   0   -7.70    7.10
   5 -12   0    3.90    4.40
   5  12   1    6.80    6.00
  -5  12  -1   14.60    5.60
  -5  12  -1    0.10    6.10
  -5 -12  -1    8.70    7.90
   5 -12   1    2.30    5.00
   5 -12   1   11.50    5.20
   5  12   2   -1.90    5.80
  -5  12  -2   16.30    6.00
  -5 -12  -2   -3.70    8.20
   5 -12   2   -5.40   10.00
  -5  12  -3   63.59    8.70
   5  12   3   89.79   12.00
   5 -12   3   63.09    8.00
   5  12   4   31.80   10.70
   5 -12   4   12.20    8.90
   5 -12   4   13.00    6.20
   5  12   5   -8.60    8.70
   5  12   5    7.90   11.60
   5 -12   5    5.00    6.20
   5 -12   5   19.60   10.70
  -5  13   8   -4.90   13.50
  -5 -13   8  -11.00    8.50
  -5  13   7    9.70   10.30
   5  13  -7   10.50   10.80
  -5 -13   7   27.90    9.60
   5  13  -6   27.00    9.90
  -5 -13   6   18.30    8.40
   5  13  -5   36.90    8.90
  -5  13   5   53.59   10.70
  -5 -13   5   50.89   10.30
   5 -13  -5   31.40    6.40
  -5  13   4   -3.10    3.80
  -5  13   4   -5.60   13.60
   5  13  -4    2.10    6.70
   5 -13  -4   -1.10    6.80
  -5 -13   4   -0.50    6.70
   5 -13  -4    2.50    8.10
  -5  13   3   -2.60    6.40
  -5  13   3    3.50    4.20
   5  13  -3   -5.50    6.10
   5  13  -3   12.70   13.40
   5 -13  -3   11.30   11.60
  -5 -13   3   -3.60    6.20
   5 -13  -3    2.80    6.70
  -5  13   2   16.50    4.80
   5  13  -2   17.80    7.00
   5  13  -2   12.70    5.80
  -5  13   2   15.60    6.90
  -5 -13   2    7.00    6.10
   5 -13  -2   18.10    7.10
   5 -13  -2   12.20    6.20
  -5  13   1   88.09    9.20
  -5  13   1   68.39   10.30
   5  13  -1   64.09    9.10
   5 -13  -1   74.49   10.10
  -5 -13   1   70.69   10.50
   5  13   0    7.50    6.00
  -5  13   0    6.70    5.90
   5  13   0   17.80    6.90
  -5  13   0   13.40    5.60
  -5 -13   0   15.80    8.30
   5 -13   0   19.70    6.70
  -5  13  -1    0.50    6.80
   5  13   1   -4.40    5.00
  -5  13  -1    9.90    6.40
   5 -13   1    5.90    5.70
  -5 -13  -1    7.30    8.80
   5  13   2   -0.60    6.70
  -5  13  -2   15.60    6.30
  -5 -13  -2    1.70    8.90
   5 -13   2   13.80   12.00
  -5  13  -3    2.70    5.90
   5  13   3   33.50    9.00
   5 -13   3   18.50    6.10
   5  13   4  -19.70    9.60
   5 -13   4   18.10    9.60
   5 -13   4    8.70    6.60
   5  13   5   -0.50    9.80
   5  13   5    0.10   12.10
   5 -13   5   -9.20    6.90
   5 -13   5   -0.10   10.60
  -5  14   8    1.20   14.90
  -5 -14   8    0.20    8.90
  -5  14   7   25.90   13.30
   5  14  -7   29.10   12.70
  -5  14   6    3.00   10.20
   5  14  -6  -10.30    9.30
  -5 -14   6   15.00    9.20
   5  14  -5   32.30    9.80
  -5  14   5   38.40    5.00
  -5  14   5   26.70   10.30
   5 -14  -5   21.20    6.80
   5  14  -4  -13.60    7.30
  -5  14   4    8.40    4.20
  -5  14   4   -3.10    6.60
  -5 -14   4    3.30    7.10
   5 -14  -4   23.50    9.50
   5 -14  -4    5.80    7.80
  -5  14   3  117.49   19.00
  -5  14   3   81.09    8.00
   5  14  -3   63.39    9.90
   5 -14  -3   81.19   10.90
   5 -14  -3   68.09    9.50
  -5 -14   3   84.49   11.60
  -5  14   2   11.90    7.20
   5  14  -2    9.50    7.00
   5  14  -2    8.50    5.20
  -5  14   2   18.00    5.50
  -5 -14   2   21.30    8.20
   5 -14  -2   22.60    7.10
   5 -14  -2    3.70    7.90
   5  14  -1   26.30    6.40
  -5  14   1   34.50    8.10
  -5  14   1   41.50    6.40
   5  14  -1   44.80    8.50
   5 -14  -1   45.00    8.20
  -5 -14   1   57.69   10.40
  -5  14   0   51.19    7.40
  -5  14   0   17.70    7.30
   5  14   0   29.50    7.50
   5  14   0   13.80    6.30
  -5 -14   0   16.60    9.00
   5 -14   0   33.00    7.30
  -5  14  -1   29.30   12.30
   5  14   1   21.40    7.30
  -5  14  -1   22.20    7.80
   5 -14   1   21.20    6.50
  -5 -14  -1   24.80   12.30
   5  14   2    1.20    7.40
  -5  14  -2    4.70    7.20
  -5  14  -2   12.70    7.40
   5  14   2    5.20    7.30
  -5 -14  -2   -6.10    9.00
   5 -14   2    9.60    6.30
   5  14   3    1.60    9.30
   5 -14   3   -0.60    6.30
   5 -14   3   -1.80    7.20
   5  14   4   18.10   10.50
   5 -14   4    2.00    9.10
   5 -14   4   23.10    7.70
   5  14   5   16.20   11.30
   5  14   5  -14.40   12.70
   5 -14   5    3.20    7.70
   5 -14   5    8.80   11.80
   5  15  -7   11.80   12.80
  -5  15   7    3.00   13.60
  -5 -15   7    2.10    8.80
   5  15  -6  -15.70   10.00
  -5 -15   6    3.10    8.90
  -5  15   5   92.09   13.50
   5  15  -5   99.89   12.10
  -5  15   5  111.39    8.80
  -5  15   4   47.30    6.50
   5  15  -4   54.29   10.30
  -5  15   4   73.99   11.50
  -5 -15   4   53.69    9.40
   5 -15  -4   62.89    9.90
   5 -15  -4   44.10   11.50
   5  15  -3   21.10    8.30
  -5  15   3   28.00    9.70
  -5  15   3   20.90    5.50
  -5 -15   3   21.10    8.10
   5 -15  -3   27.30    9.30
   5 -15  -3   30.00    9.70
  -5  15   2   -1.20    5.10
   5  15  -2    6.30    7.40
  -5  15   2    7.70    7.40
   5  15  -2   -6.00    5.80
  -5 -15   2    7.70   13.00
   5 -15  -2   -2.20    6.50
   5  15  -1    2.00    7.20
  -5  15   1    1.50    7.70
   5  15  -1   -1.20    6.00
  -5  15   1    1.70    5.60
   5 -15  -1    9.20    6.90
  -5 -15   1   11.80    8.30
  -5  15   0   -1.00    5.90
  -5  15   0    0.00    7.00
   5  15   0   -0.90    5.80
   5 -15   0    1.00    6.70
  -5 -15   0    0.00    7.80
   5  15   1   94.19   12.90
  -5  15  -1  105.49   14.10
  -5  15  -1  102.39   11.40
   5 -15   1  119.19   12.60
  -5 -15  -1  112.59   14.40
  -5  15  -2   27.30    7.90
   5  15   2   10.40    8.60
  -5 -15  -2   20.90   13.00
   5  15   3   -2.60    9.90
   5 -15   3   -2.20    7.90
   5 -15   3   -2.90    7.10
   5  15   4   19.10    9.30
   5  15   4   18.00   11.60
   5 -15   4   14.40    8.90
   5  15   5   -5.00   14.00
   5  16  -7    4.40   13.70
  -5  16   7  -13.10   11.20
  -5 -16   7    5.20    9.50
   5  16  -6    9.00   11.40
  -5 -16   6    2.10    9.70
   5  16  -5   29.20   10.70
  -5  16   5   31.40   10.70
  -5 -16   5    7.60    8.50
   5  16  -4   -1.60    9.00
  -5  16   4    5.60    5.30
  -5  16   4  -16.50   13.90
   5 -16  -4    7.70    9.80
   5 -16  -4   -5.80    8.50
  -5  16   3   -4.70    8.40
  -5  16   3    1.00    5.20
   5  16  -3   -6.20    7.90
  -5 -16   3    0.80    7.90
   5 -16  -3  -13.10    9.10
   5 -16  -3    1.60    9.10
   5  16  -2   25.10    6.90
  -5  16   2    3.00    5.70
  -5  16   2    3.30    8.20
   5  16  -2    3.30    7.20
   5 -16  -2   -6.60    7.90
  -5 -16   2   -3.60    8.30
   5  16  -1   64.59    9.60
  -5  16   1   89.59   10.20
  -5  16   1   80.09   12.30
   5 -16  -1   99.89   12.30
  -5 -16   1   86.39   12.90
  -5  16   0  100.59   11.30
   5  16   0   96.89   12.60
   5 -16   0   94.69   11.80
  -5 -16   0  102.69   14.30
  -5  16  -1    8.10    8.60
  -5  16  -1   27.50    8.40
   5  16   1   36.40    8.50
   5 -16   1    8.90    8.10
  -5 -16  -1   22.40   10.90
  -5  16  -2   27.90    9.10
   5  16   2   11.30    9.50
   5 -16   2   32.70   10.80
  -5  16  -3   -3.30    9.70
   5  16   3   11.30   10.80
   5 -16   3   -7.20    8.30
   5  16   4   15.90   11.90
   5  16   4   19.80   12.80
   5 -16   4   -5.90   10.30
  -5  17   7   -4.80   14.60
  -5 -17   7   -6.10   11.10
  -5 -17   6    3.70    9.90
  -5  17   5    4.70    5.60
  -5  17   5    8.80   10.60
  -5 -17   5   -4.70    9.30
  -5  17   4   -2.80    5.70
   5  17  -4   -6.60   10.70
  -5  17   4    0.90    9.40
   5 -17  -4    2.40   19.90
   5 -17  -4    6.10    9.00
   5  17  -3   41.60   12.70
  -5  17   3   25.20   10.40
  -5  17   3   47.10    7.40
   5 -17  -3   34.30   11.60
  -5 -17   3   39.60   11.00
  -5  17   2  133.29   14.70
  -5  17   2  105.09   11.30
  -5 -17   2   98.19   13.10
   5 -17  -2  121.89   14.20
   5  17  -1   15.60    7.80
  -5  17   1   19.80    9.80
  -5  17   1   11.00    6.70
   5 -17  -1   -0.30    8.20
  -5 -17   1   14.30    9.50
   5  17   0   -0.90    8.20
   5  17   0    0.10   12.30
  -5  17   0   -2.60    7.50
  -5  17   0   18.20    7.20
  -5 -17   0   11.40   10.20
   5 -17   0   -0.40    7.80
  -5  17  -1   -6.30    7.40
   5  17   1    4.70    8.30
   5 -17   1   21.50    7.90
  -5 -17  -1   -0.10    9.40
   5  17   2    2.50    9.60
  -5  17  -2   10.70    9.10
  -5  17  -3   15.30   10.50
   5  17   3    3.20   11.60
   5 -17   3    5.00    8.90
   5  17   4   -8.00   13.10
   5  17   4    2.50   11.00
   5 -17   4  -13.20   10.40
   5  18  -7    8.70   18.60
  -5  18   7   25.80   19.40
  -5 -18   7   -5.90   10.40
  -5  18   6   12.60   16.90
   5  18  -6   13.70   14.20
  -5 -18   6   12.40   11.60
  -5  18   5   27.00   12.70
  -5  18   5   12.50    6.40
  -5 -18   5    2.30    9.50
  -5  18   4   18.60    6.90
  -5  18   4   14.20   12.00
   5 -18  -4   19.80   12.10
  -5  18   3   -1.20    9.40
  -5  18   3   11.70    6.60
   5 -18  -3   43.20   11.70
  -5 -18   3   19.10   10.40
  -5  18   2  148.59   13.30
  -5  18   2  132.49   15.20
   5 -18  -2  190.68   17.80
  -5 -18   2  245.28   28.40
   5  18  -1   10.70    8.20
  -5  18   1   18.10    9.60
  -5  18   1   20.70    8.40
   5  18  -1   16.40    9.20
  -5 -18   1   24.20   10.80
   5 -18  -1   24.30    8.90
   5  18   0   28.90   13.20
  -5  18   0   16.40    8.30
   5  18   0    3.50    9.40
  -5 -18   0   11.60   11.90
  -5  18  -1   22.90    9.10
   5  18   1   16.00   10.40
  -5 -18  -1   -3.10   10.30
  -5  18  -2   -2.10   10.20
   5  18   2   -3.80   10.80
  -5  18  -3    1.80   11.50
   5  18   3  -18.10   13.70
   5  18   3   15.80   13.00
   5  18   4   20.10   13.80
   5  18   4   12.00   15.00
   5 -18   4    2.00   10.10
   5  19  -6   22.50   15.50
  -5  19   6    8.60   16.60
  -5 -19   6   30.10   12.10
   5  19  -5   -9.10   12.50
  -5  19   5   12.20   14.50
  -5  19   5    4.60    7.30
  -5 -19   5   11.80   11.50
  -5  19   4   10.40   12.70
   5  19  -4   25.30   11.50
  -5  19   4   15.40    7.30
  -5 -19   4    6.90   11.20
  -5  19   3    1.00    7.20
   5  19  -3    1.30    9.50
  -5  19   3   -0.50    9.60
  -5 -19   3   -7.10   14.70
   5  19  -2  -12.00   10.30
  -5  19   2    3.50    9.90
  -5  19   2   11.10    7.40
  -5 -19   2   15.20   10.80
  -5  19   1   21.30    8.00
   5  19  -1   11.00   10.50
  -5  19   1   35.80   13.30
  -5 -19   1   23.70   11.60
  -5  19   0   -7.60    7.90
   5  19   0  -10.90    9.20
   5  19   0    4.60    8.00
  -5 -19   0    8.80   12.20
  -5  19  -1   -3.70    8.40
   5  19   1    6.60   10.20
  -5 -19  -1    8.60   15.00
   5  19   2   15.40   11.00
  -5  19  -2   18.30   11.10
  -5  19  -3   12.40   12.00
   5  19   3   -6.80   13.30
   5  19   3    3.00   12.30
   5  20  -6   40.30   17.30
  -5  20   6  -13.40   16.90
  -5 -20   6   22.80   12.70
  -5  20   5   -0.20    8.50
  -5  20   5   -1.10   14.20
   5  20  -5  -15.70   12.80
  -5 -20   5   -4.70   12.80
   5  20  -4    2.40   11.90
  -5  20   4   11.60    7.80
  -5  20   4   -1.70   14.50
  -5 -20   4   -8.30   11.70
  -5  20   3   -9.20    8.00
   5  20  -3    3.20   11.80
  -5  20   3    1.50   11.40
  -5 -20   3   -5.30   18.70
  -5  20   2   21.20   12.40
   5  20  -2   39.30   12.70
  -5 -20   2   30.90   10.90
  -5  20   1   16.90    8.60
   5  20  -1   18.30   11.60
  -5 -20   1   13.50   13.80
  -5  20   0   -1.10    8.40
   5  20   0   17.50   11.50
  -5 -20   0   22.80   14.90
   5  20   1    8.60   11.10
  -5  20  -1   -1.00    9.90
  -5  20  -2   12.40   11.40
   5  20   2    2.70   12.30
   5  20   3   24.70   13.50
   5  20   3    2.10   14.10
  -5  20  -3    4.30   11.20
   5  21  -6   10.70   18.40
  -5  21   6   -6.30   19.60
   5  21  -5   28.30   15.30
  -5  21   5   -7.60   10.60
  -5 -21   5  -22.90   13.30
  -5  21   4   10.60   14.40
   5  21  -4   -7.20   12.50
  -5  21   4   16.50    8.40
  -5 -21   4    1.80   11.80
  -5  21   3   19.90   28.00
  -5  21   3   26.50   13.30
   5  21  -3   19.90   12.10
   5  21  -2    5.20   12.60
  -5  21   2   -5.00    8.80
  -5 -21   2    8.70   13.90
  -5  21   1   39.80   11.00
   5  21  -1   41.10   12.20
  -5 -21   1   39.60   13.60
  -5  21   0   11.10    9.50
   5  21   0   -6.50   10.60
  -5 -21   0    9.00   15.60
   5  21   1   -2.60   12.40
  -5  21  -1    7.50   11.00
   5  21   2    4.00   12.80
  -5  21  -2    6.60   11.20
   5  21   2   44.20   18.70
  -5  21  -3   -8.60   12.90
   5  21   3  -11.80   15.00
   5  21   3   26.30   18.70
   5  22  -5   17.60   15.90
  -5  22   5    3.40   29.90
  -5 -22   5    2.50   14.40
  -5  22   4  -20.60   10.70
   5  22  -4   -4.10   14.40
  -5 -22   4   20.80   13.70
   5  22  -3   16.20   14.20
  -5  22   3   -1.00   10.00
  -5 -22   3   12.70   13.70
   5  22  -2    9.40   12.50
  -5  22   2    8.60    9.60
  -5 -22   2  -14.70   24.80
  -5  22   1    9.30   10.40
   5  22  -1  -17.60   11.70
  -5 -22   1    8.70   15.40
  -5  22   0   -6.00   10.10
   5  22   0   -9.40   12.60
  -5 -22   0    7.90   18.70
   5  22   1  -21.20   12.70
  -5  22  -1    7.30   11.30
  -5  22  -2   16.00   12.60
   5  22   2  -19.30   14.30
   5  22   2    8.80   19.30
   5  23  -5   36.50   19.00
   5  23  -4   27.90   16.30
  -5  23   4   28.90   11.30
  -5 -23   4   36.50   18.30
  -5  23   3   19.50   10.70
   5  23  -3    3.20   14.40
  -5 -23   3  -16.70   16.10
   5  23  -2   -1.50   14.20
  -5  23   2    1.50   10.80
  -5  23   1   -8.80   11.30
   5  23  -1   17.50   13.40
  -5 -23   1   -6.30   15.40
   5  23   0    0.80   13.50
  -5  23   0    5.80   11.60
   5  23   0   16.10   14.70
  -5  23  -1    3.90   12.50
   5  23   1   12.60   13.40
  -5  23  -2   10.60   14.20
   5  23   2  -16.80   13.90
   5  23   2    0.80   18.00
   5  24  -4   10.90   16.40
  -5  24   4    9.00   13.00
  -5 -24   4   -3.80   14.90
   5  24  -3   22.60   15.50
  -5  24   3   17.30   11.60
  -5 -24   3    8.80   18.40
   5  24  -2    7.50   16.30
  -5  24   2    8.40   11.80
  -5 -24   2   22.60   21.60
  -5  24   1    7.70   12.10
   5  24  -1   19.20   15.50
  -5  24   0   -6.60   11.70
   5  24   0   11.00   14.90
  -5  24  -1  -27.80   13.10
   5  24   1   26.30   23.80
   5  24   1   -7.90   16.20
  -5  25   3   -6.20   11.80
   5  25  -3  -11.30   16.50
  -5  25   2   -2.40   13.50
   5  25  -2  -34.20   14.00
  -5 -25   2    7.50   24.20
   5  25  -1  -38.10   15.20
  -5  25   1    1.10   13.10
  -5  25   0  -12.60   14.50
   5  25   0   -8.40   16.40
  -6   0   9   25.60    9.20
  -6   0   8   -6.20    9.30
  -6   0   7    4.30    7.60
  -6   0   6  150.28   14.10
   6   0  -5   -3.20    3.90
   6   0  -5    1.60    3.80
  -6   0   5    8.00    6.60
   6   0  -4    5.30    3.70
  -6   0   4   12.00    6.10
   6   0  -4    6.00    4.00
   6   0  -4   -2.00    5.20
  -6   0   3   -4.10    3.20
  -6   0   3    6.80    9.40
   6   0  -3   -2.70    3.50
   6   0  -3    3.30    6.00
  -6   0   2   42.60    5.30
  -6   0   2   33.80    5.50
   6   0  -2   75.49   12.30
   6   0  -2   56.19    6.20
  -6   0   1   -1.10    4.10
   6   0  -1    1.20    4.00
   6   0  -1    0.60    4.00
  -6   0   1    7.10    6.20
   6   0   0  309.57   14.90
   6   0   0  294.27   15.70
  -6   0   0  296.17   16.00
  -6   0  -1    9.20    6.60
   6   0   1   -3.90    4.50
   6   0   2   94.09   10.10
  -6   0  -2   93.59   10.30
   6   0   3    6.50    5.60
  -6   0  -3   -3.60    6.70
   6   0   4   12.20    6.60
   6   0   4    4.00    7.90
   6   0   5    5.40   11.10
  -6   1   9   -7.40    9.80
  -6  -1   9   -6.40    9.70
  -6   1   8    3.40    8.80
  -6  -1   8   -4.10    8.40
  -6   1   7   33.20    8.60
  -6  -1   7   22.20    8.30
  -6   1   6   -3.40    6.30
  -6  -1   6    4.70    6.80
  -6   1   5  -10.40    5.30
   6   1  -5   -3.80    3.80
   6   1  -5   -1.00    4.80
   6  -1  -5   -0.20    3.50
  -6  -1   5    5.70    5.90
   6  -1  -5   -1.60    3.60
   6   1  -4    1.10    3.70
   6   1  -4    2.90    5.30
  -6   1   4   -1.80    4.50
   6  -1  -4   -5.00    3.60
   6  -1  -4   10.90    5.80
   6  -1  -4    2.80    3.60
  -6  -1   4    1.80    5.10
  -6  -1   4    0.50    3.20
   6   1  -3   14.60    4.10
   6   1  -3   32.80    9.30
  -6   1   3   13.90    4.80
   6  -1  -3   13.40    6.00
  -6  -1   3   18.10   10.50
   6  -1  -3    2.80    3.90
  -6  -1   3    2.70    3.30
   6  -1  -3   10.20    3.80
  -6   1   2   27.70    5.80
   6   1  -2   52.29    7.80
   6   1  -2   49.80    6.10
  -6  -1   2   49.50    5.60
   6  -1  -2   62.89    7.40
   6  -1  -2   46.20    5.50
  -6  -1   2   36.00    5.80
   6  -1  -2   37.80    6.70
   6   1  -1   48.60    6.60
   6   1  -1   32.90    6.30
  -6   1   1   36.80    7.90
  -6  -1   1   36.60    5.80
   6  -1  -1   42.60    6.60
   6  -1  -1   31.30    5.10
   6  -1  -1   29.70    6.20
  -6  -1   1   31.30    7.80
  -6   1   0   14.80    6.60
   6   1   0   15.40    5.10
   6   1   0   21.20    6.10
   6  -1   0   23.40    5.40
   6  -1   0   16.70    5.30
  -6  -1   0    6.50    5.30
  -6   1  -1    2.10    5.50
   6   1   1    0.60    5.20
   6   1   1    7.60    4.70
   6  -1   1   -3.70    4.50
  -6  -1  -1    1.70    5.50
   6  -1   1    3.40    4.40
  -6   1  -2    9.90    6.90
   6   1   2    6.80    5.60
  -6  -1  -2   10.30    7.20
   6  -1   2    1.80    5.00
  -6   1  -3   40.50    7.70
   6   1   3   47.50    7.80
  -6  -1  -3   45.10    8.50
   6  -1   3   56.19    7.40
   6   1   4    4.90    8.10
   6   1   4    3.60    6.20
   6  -1   4   15.50    9.40
   6  -1   4   -0.70    6.20
   6   1   5   19.00   10.90
   6  -1   5   22.10   11.40
  -6   2   9   13.60    9.90
  -6  -2   9   -3.60    9.70
  -6   2   8    1.00    8.90
  -6  -2   8   -7.40    7.70
  -6   2   7    6.90    7.20
  -6  -2   7  -10.30    7.10
  -6   2   6   31.50    8.90
  -6  -2   6   55.39    9.70
  -6   2   5   -4.10    6.10
   6   2  -5    2.00    4.60
   6  -2  -5    0.40    3.50
  -6  -2   5   -3.20    4.60
  -6  -2   5   -7.20    5.10
   6  -2  -5   -1.20    3.10
  -6   2   4   11.10    9.10
   6   2  -4    1.60    4.30
   6   2  -4    3.80    6.30
   6  -2  -4    1.70    5.80
   6  -2  -4   -0.10    3.90
  -6  -2   4   -4.00    5.00
  -6  -2   4   -1.20    3.40
   6  -2  -4    0.10    3.20
   6   2  -3  185.18   12.80
  -6   2   3  184.28   13.10
   6   2  -3  190.88   10.90
  -6  -2   3  200.58   10.10
  -6  -2   3  189.68   13.10
   6  -2  -3  201.48   10.20
   6  -2  -3  206.68   10.70
  -6   2   2  136.09   11.70
   6   2  -2  129.99   11.00
   6   2  -2  136.69    9.00
   6  -2  -2  119.49    9.50
  -6  -2   2  142.19    8.70
  -6  -2   2  131.19   11.20
   6  -2  -2  119.29   10.90
   6  -2  -2  143.99    8.80
   6   2  -1   53.79   11.30
   6   2  -1   37.80    6.00
  -6   2   1   30.70    7.20
  -6  -2   1   31.50    6.00
   6  -2  -1   49.99    7.60
  -6  -2   1   30.20    7.60
   6  -2  -1   41.50    7.20
   6  -2  -1   32.70    5.10
   6   2   0   11.20    4.90
  -6   2   0   11.40    5.80
   6   2   0    7.90    5.10
   6  -2   0   22.10    5.20
   6  -2   0    6.40    5.10
  -6  -2   0   12.70    5.90
   6   2   1  137.79   11.30
   6   2   1  126.39   10.80
  -6   2  -1  131.69   11.60
  -6  -2  -1  146.69   12.10
   6  -2   1  126.89   10.60
   6  -2   1  148.59   10.70
   6   2   2   17.50    6.00
  -6   2  -2   30.80    8.40
   6  -2   2   20.40    5.90
  -6  -2  -2   17.20    7.80
  -6   2  -3    7.80    7.00
   6   2   3   12.10   10.50
  -6  -2  -3    7.40    8.30
   6  -2   3    7.30    5.40
   6   2   4   31.40    7.90
   6   2   4   28.90    8.90
   6  -2   4   18.70    8.80
   6  -2   4   33.40    7.20
   6   2   5   22.60   11.10
   6  -2   5    8.80   10.50
  -6   3   9   10.50   10.60
  -6  -3   9   -6.20    7.90
  -6   3   8    8.30    9.60
  -6  -3   8   -1.80    8.90
  -6   3   7   30.10    9.30
  -6  -3   7   43.00    9.40
  -6   3   6   38.60    8.40
   6   3  -6   32.40    4.90
  -6  -3   6   40.00    4.50
  -6  -3   6   40.70    9.20
   6   3  -5   13.10    5.00
  -6   3   5    6.70    6.60
  -6  -3   5   13.90    7.10
   6  -3  -5    9.90    3.20
  -6  -3   5    7.70    3.40
   6  -3  -5   12.80    3.60
   6   3  -4   36.80    6.60
   6   3  -4   61.09    7.40
   6  -3  -4   61.29    7.30
   6  -3  -4   47.80    5.10
  -6  -3   4   49.00    5.10
  -6  -3   4   45.30    7.40
   6  -3  -4   95.09   12.80
   6   3  -3   65.49    8.50
   6   3  -3   47.30    6.30
  -6   3   3   63.39    8.80
  -6  -3   3   60.09    6.40
   6  -3  -3   50.59    5.40
  -6  -3   3   40.60    6.70
   6  -3  -3   40.60    5.60
   6  -3  -3   50.69    8.00
   6   3  -2   58.89    6.70
   6   3  -2   41.20    7.10
  -6   3   2   43.60    7.50
  -6  -3   2   63.39    9.20
   6  -3  -2   68.89    7.80
  -6  -3   2   60.79    6.90
   6  -3  -2   75.89    6.90
   6   3  -1   32.20    5.60
   6   3  -1   29.80    6.90
  -6   3   1   36.70    7.60
  -6  -3   1   45.10    8.40
  -6  -3   1   31.00    5.70
   6  -3  -1   35.20    5.80
   6  -3  -1   34.70    6.20
   6  -3  -1   25.60    6.10
   6   3   0   68.69    9.10
   6   3   0   73.89    7.90
   6  -3   0   79.69    9.20
   6  -3   0   97.89    8.70
  -6  -3   0   96.39   10.50
   6   3   1   78.99    9.50
  -6   3  -1   75.49    9.10
   6   3   1   78.69    9.00
   6  -3   1   70.09    9.50
   6  -3   1   72.99    8.80
  -6  -3  -1   64.59    9.50
   6   3   2   75.99   10.10
   6  -3   2   88.19   10.40
  -6  -3  -2   82.79   10.80
  -6   3  -3   32.50    7.40
   6   3   3   43.20    8.40
   6   3   3   35.70    8.50
   6  -3   3   29.50    6.00
  -6  -3  -3   43.10   14.40
   6   3   4   10.70    8.90
   6  -3   4   -0.20    8.40
   6  -3   4   18.90    6.60
   6   3   5    3.00   10.20
   6  -3   5    8.40   10.10
  -6   4   9    5.20   11.30
  -6  -4   9    3.50    8.20
  -6   4   8    4.90    9.20
  -6  -4   8  -11.70    8.60
  -6   4   7   -0.30    8.20
  -6  -4   7   18.60    7.60
   6   4  -6   10.20    7.80
  -6   4   6   12.80    7.10
  -6  -4   6    9.10    3.30
   6   4  -5   -3.80    4.90
  -6   4   5    4.30    5.90
   6  -4  -5   -1.60    3.30
   6  -4  -5   -1.10    2.80
  -6  -4   5   -3.30    6.00
  -6  -4   5    0.60    3.40
  -6   4   4   11.10    6.10
   6   4  -4   11.30    5.20
   6   4  -4    4.40    5.50
   6  -4  -4    3.80    6.20
   6  -4  -4    4.50    3.50
   6  -4  -4   10.60    4.70
  -6  -4   4    6.20    3.60
  -6  -4   4    2.60    5.20
   6   4  -3  146.59    9.80
   6   4  -3  128.59   11.20
  -6   4   3  141.69   12.10
  -6  -4   3  137.39    8.60
   6  -4  -3  131.09   11.60
   6  -4  -3  131.59    8.20
   6  -4  -3  141.29    9.80
  -6  -4   3  134.99   12.00
  -6   4   2   18.00    6.40
   6   4  -2   22.90    5.60
   6   4  -2   28.30    5.20
   6  -4  -2   21.20    8.70
  -6  -4   2   20.20    4.60
  -6  -4   2   26.60    6.50
   6  -4  -2   13.50    4.20
   6  -4  -2   18.90    5.30
   6   4  -1   63.29   12.60
   6   4  -1   28.10    5.50
  -6   4   1   37.70    7.10
   6  -4  -1   39.90    5.60
   6  -4  -1   34.30    6.80
   6  -4  -1   30.50    6.10
  -6  -4   1   27.30    5.20
  -6  -4   1   37.60   12.00
   6   4   0   25.60    5.70
   6   4   0   35.40    7.60
   6  -4   0   25.10    5.80
  -6  -4   0   15.00    5.90
   6  -4   0   30.40    6.00
  -6   4  -1   14.60    6.50
   6   4   1   15.10    6.10
   6   4   1    2.20    5.40
  -6  -4  -1   11.90    6.30
   6  -4   1    6.40    5.00
   6  -4   1   11.90    5.40
  -6   4  -2   11.10    6.90
   6   4   2   12.20    6.20
  -6  -4  -2   -0.60    8.40
   6  -4   2    8.30    5.80
  -6   4  -3   -0.10    6.60
   6   4   3    0.10    7.00
   6   4   3    4.70    6.30
   6  -4   3   -6.60    4.70
   6   4   4    3.70    8.70
   6  -4   4    2.40    6.30
   6  -4   4   17.80    8.80
   6   4   5   16.10   10.70
   6  -4   5    1.30    9.90
   6  -4   5   -1.20    8.20
  -6   5   8    4.80   10.40
  -6  -5   8   -3.60    8.60
  -6   5   7    7.00    8.30
  -6  -5   7   -2.70    7.20
   6   5  -6   -2.00    5.50
  -6   5   6   10.20    7.40
  -6  -5   6    2.00    6.10
  -6  -5   6   -2.80    3.60
  -6   5   5    6.80    6.70
   6   5  -5    4.30    5.00
   6  -5  -5    3.00    3.50
  -6  -5   5    2.20    6.00
   6  -5  -5    0.40    2.80
  -6  -5   5   -1.20    3.60
   6   5  -4   13.50    6.20
  -6   5   4   16.20    6.50
   6   5  -4   15.30    5.40
  -6  -5   4    5.00    4.10
   6  -5  -4    5.10    4.70
   6  -5  -4    6.70    6.80
  -6  -5   4    9.40    6.10
   6  -5  -4    8.10    3.60
   6   5  -3   13.20    6.20
  -6   5   3    8.50    5.90
   6   5  -3   10.60    5.00
   6  -5  -3    9.80    6.10
  -6  -5   3   15.70    4.30
   6  -5  -3    9.20    3.60
   6  -5  -3    8.60    4.90
  -6  -5   3    5.30    6.10
   6   5  -2  512.95   21.00
  -6   5   2  474.05   22.50
   6   5  -2  497.35   22.40
  -6  -5   2  471.25   22.10
   6  -5  -2  482.05   22.90
  -6  -5   2  467.05   19.50
   6  -5  -2  458.05   20.40
   6  -5  -2  480.35   19.20
   6   5  -1   -0.70    4.60
  -6   5   1    4.20    4.30
   6  -5  -1    0.30    5.20
   6  -5  -1    4.30    5.60
  -6  -5   1    0.90    4.20
  -6  -5   1   -0.80    5.50
   6  -5  -1    6.00    4.10
   6   5   0   73.79    9.40
   6   5   0   78.29    8.90
   6  -5   0   56.59    7.80
  -6  -5   0   59.79    8.60
   6  -5   0   69.49    8.10
  -6   5  -1   43.70    7.80
   6   5   1   26.50    6.00
   6   5   1   41.50    7.00
   6  -5   1   33.80    6.20
   6  -5   1   39.50    7.30
   6   5   2  308.37   16.40
  -6   5  -2  281.97   15.80
   6  -5   2  261.07   15.90
  -6  -5  -2  280.97   18.30
   6   5   3   -1.20    6.40
  -6   5  -3   -5.60    6.40
   6   5   3   -1.80    7.70
   6  -5   3    9.10    5.40
   6   5   4   -3.90    8.80
   6  -5   4   -4.00    6.40
   6  -5   4    3.90    8.70
   6   5   5   -9.60   10.90
   6  -5   5   -0.80    9.60
   6  -5   5    4.60    8.80
  -6   6   8    6.80   10.40
  -6  -6   8    5.70    9.40
  -6   6   7   14.90    9.20
  -6  -6   7   15.00    7.90
  -6   6   6   27.50    8.00
   6   6  -6   22.00    6.10
  -6  -6   6   22.50    4.40
   6   6  -5    6.90    5.60
  -6   6   5   17.60    7.60
   6  -6  -5    1.40    2.80
  -6  -6   5   -0.90    4.30
  -6  -6   5   -1.40    5.80
   6  -6  -5    2.70    3.80
  -6   6   4    9.60    5.80
   6   6  -4    3.60    5.80
   6   6  -4    4.80    5.40
  -6  -6   4   -0.20    5.70
  -6  -6   4   -0.20    3.90
   6  -6  -4   -0.60    6.00
   6  -6  -4    0.00    4.80
   6  -6  -4    8.10    3.60
  -6   6   3   14.30    6.40
   6   6  -3    4.40    6.40
   6   6  -3    3.70    5.30
  -6  -6   3    6.10    5.50
  -6  -6   3   12.60    4.20
   6  -6  -3   13.10    3.70
   6  -6  -3    2.00    5.40
   6  -6  -3   18.30    5.70
   6   6  -2    4.20    5.10
   6   6  -2   12.90    5.90
  -6   6   2   16.40    9.80
   6  -6  -2   12.90    6.50
   6  -6  -2   10.00    5.50
   6  -6  -2    2.50    3.40
  -6  -6   2    6.80    6.00
  -6  -6   2    6.00    4.90
   6   6  -1    5.00    6.90
  -6   6   1    6.70    6.70
   6   6  -1    0.00    5.40
   6  -6  -1   12.40    4.30
   6  -6  -1   -1.40    6.20
   6  -6  -1   12.90    7.00
  -6  -6   1   12.80    6.40
   6   6   0   90.39   10.40
   6   6   0   90.29   10.00
   6  -6   0   97.19   10.20
   6  -6   0   91.79    8.50
  -6  -6   0  103.19   11.20
   6   6   1    1.50    5.20
   6   6   1   11.90    5.90
  -6   6  -1    0.70    5.00
  -6  -6  -1  -11.20    7.20
   6  -6   1    5.00    5.10
   6  -6   1    3.40    4.90
  -6   6  -2   -0.70    6.30
  -6  -6  -2    8.90    8.20
   6  -6   2   -0.10    6.10
   6   6   3    1.10    6.00
  -6   6  -3   10.80    6.80
   6   6   3    2.60    7.00
   6  -6   3   -4.30    5.20
   6   6   4    8.00    9.70
   6  -6   4   13.40    8.60
   6  -6   4   24.70    7.30
   6   6   5   -8.60   11.90
   6  -6   5   -7.30   12.20
   6  -6   5  -12.30    9.90
  -6   7   8   11.70   11.80
  -6  -7   8   21.40   10.00
  -6   7   7    2.20    9.50
  -6  -7   7   -1.40    7.70
   6   7  -6   10.40    7.10
  -6   7   6   -5.30    7.20
  -6  -7   6    7.10    4.80
   6   7  -5    4.30    6.00
  -6   7   5   -1.60    7.00
  -6  -7   5    7.80    4.90
   6  -7  -5    1.70    3.00
  -6  -7   5   13.80    6.60
   6  -7  -5    4.20    4.20
  -6   7   4    9.70    7.40
   6   7  -4   -0.20    6.40
   6   7  -4    3.90    5.90
   6  -7  -4    5.60    5.00
   6  -7  -4    5.50    6.60
  -6  -7   4    3.20    4.50
  -6  -7   4    3.30    6.40
   6  -7  -4    4.20    3.40
  -6   7   3   98.09   11.80
   6   7  -3   79.49   10.40
   6   7  -3   87.79    9.70
  -6  -7   3   92.59    8.40
   6  -7  -3   99.59   10.90
  -6  -7   3   89.69   11.10
   6  -7  -3   77.79    8.30
   6  -7  -3   89.79    7.40
   6   7  -2   26.90    5.80
  -6   7   2   17.90    7.10
   6   7  -2   21.00    6.00
   6  -7  -2   20.60    6.40
   6  -7  -2   24.20    4.70
  -6  -7   2   15.40    4.90
   6  -7  -2   27.20    7.30
  -6  -7   2   18.20    6.90
   6   7  -1   59.89    7.80
   6   7  -1   77.59   11.30
  -6   7   1   50.39    8.00
  -6  -7   1   58.79    8.90
   6  -7  -1   48.80    8.00
   6  -7  -1   53.29    7.90
   6  -7  -1   60.19    7.00
   6   7   0   23.50    6.30
   6   7   0   26.40    7.60
  -6   7   0   10.40    6.30
  -6  -7   0   21.80    7.70
   6  -7   0   31.60    6.70
   6  -7   0   36.50    6.00
  -6   7  -1   30.10    6.30
   6   7   1   27.70    7.20
   6   7   1   33.90    7.40
  -6  -7  -1   56.89    9.90
   6  -7   1   47.60    7.40
   6  -7   1   45.10    6.20
   6   7   2   -4.60    5.40
  -6   7  -2    2.80    6.70
  -6  -7  -2   -1.70    8.50
   6  -7   2   -0.40    6.30
  -6   7  -3    1.20   10.70
   6   7   3   12.30    7.90
   6  -7   3   -1.60    5.50
   6   7   4    3.00    9.70
   6  -7   4    4.10    6.90
   6  -7   4    2.00    8.30
   6   7   5    1.40   11.80
   6  -7   5  -26.50    9.60
  -6   8   8    3.20   12.30
  -6  -8   8   10.60    9.30
  -6   8   7   22.40   10.50
  -6  -8   7   16.60    8.40
   6   8  -6   63.69    9.00
  -6   8   6   85.59   13.00
  -6  -8   6   71.99    8.90
   6   8  -5   11.10    6.60
  -6   8   5   12.40    7.60
  -6  -8   5    2.20    6.40
   6  -8  -5    9.00    4.90
  -6  -8   5   15.40    5.30
   6  -8  -5    7.50    3.20
   6   8  -4    8.80    7.70
   6   8  -4   26.20    7.30
  -6   8   4   19.10    7.40
   6  -8  -4   18.90    4.00
   6  -8  -4   30.90    6.30
   6  -8  -4   22.60    7.90
  -6  -8   4   11.10    5.10
  -6  -8   4   20.20    7.80
  -6   8   3   27.10    6.80
   6   8  -3   19.30    6.30
   6   8  -3    5.70    5.90
   6  -8  -3   13.60    4.20
   6  -8  -3   20.50    6.00
   6  -8  -3   12.40    6.60
  -6  -8   3   19.10    6.90
  -6  -8   3    7.60    5.00
   6   8  -2   16.70    6.20
  -6   8   2   10.80   10.10
   6   8  -2   -1.10    5.50
   6  -8  -2   18.00    6.80
  -6  -8   2   16.30    5.50
   6  -8  -2   19.90    4.70
  -6  -8   2   16.80    7.30
   6  -8  -2   20.60    8.20
   6   8  -1  188.78   13.40
  -6   8   1  182.28   13.80
   6   8  -1  186.98   13.30
   6  -8  -1  185.58   11.40
  -6  -8   1  177.98   14.70
   6  -8  -1  193.28   14.10
   6  -8  -1  165.28   13.90
  -6   8   0    4.40    5.20
   6   8   0    6.60    5.90
   6   8   0    9.10    6.20
  -6  -8   0    5.10    7.60
   6  -8   0   12.20    5.20
   6  -8   0    2.00    5.60
   6   8   1   90.89   10.50
   6   8   1   85.39   12.80
  -6   8  -1   80.69   11.10
   6  -8   1   80.39   10.60
  -6  -8  -1   92.89   11.60
   6  -8   1   91.69    9.90
   6   8   2   17.10    7.70
  -6   8  -2    8.60    6.20
  -6  -8  -2    1.00    9.00
   6  -8   2    0.40    9.10
   6   8   3   29.20    8.80
   6  -8   3   46.40    9.50
   6  -8   3   52.99    7.90
   6   8   4   11.50   10.80
   6  -8   4   -1.90    8.20
   6  -8   4   10.60    7.70
   6   8   5   29.00   11.70
   6  -8   5  -12.40   11.40
  -6   9   8   24.70   14.00
  -6  -9   8   18.30    9.60
  -6   9   7   37.60   11.80
  -6  -9   7   34.80    9.90
   6   9  -6    2.70    7.70
  -6   9   6   -1.60    9.10
  -6  -9   6   -0.90    5.80
  -6  -9   6    6.90   12.20
   6   9  -5    9.20    7.00
  -6   9   5   25.00    8.60
   6  -9  -5   11.10    3.60
  -6  -9   5   16.00    6.70
   6  -9  -5    8.10    5.60
  -6  -9   5    5.00    5.90
   6   9  -4    0.40    6.20
  -6   9   4  -10.80    6.90
  -6  -9   4    5.30    5.50
   6  -9  -4   -0.90    3.30
   6  -9  -4   14.20    7.20
   6  -9  -4    0.50    5.80
  -6  -9   4   -0.90    6.30
  -6   9   3   90.29   11.70
   6   9  -3   90.19   10.40
   6   9  -3   78.19    9.70
  -6  -9   3   70.69    7.70
   6  -9  -3   74.19    8.80
  -6  -9   3   93.29   11.30
   6  -9  -3   78.69   10.70
   6  -9  -3   76.99    7.90
   6   9  -2    2.50    5.90
   6   9  -2    2.60    6.10
  -6   9   2   -4.90    6.20
   6  -9  -2    3.80    4.30
   6  -9  -2    6.10    6.90
   6  -9  -2    3.30    6.50
  -6  -9   2   -4.40    5.80
   6   9  -1   44.90    8.00
   6   9  -1   28.30    7.60
  -6   9   1   29.60    7.60
  -6  -9   1   40.40    9.90
   6  -9  -1   28.00    5.70
   6  -9  -1   25.50    7.00
   6   9   0   17.30    6.80
  -6   9   0    7.50    5.80
   6   9   0   10.30    7.80
  -6  -9   0   17.90    9.40
   6  -9   0   16.30    6.50
   6  -9   0   11.40    5.60
   6   9   1    0.50    6.40
  -6   9  -1    2.60    5.90
   6  -9   1    3.40    5.90
   6  -9   1    6.00    5.60
  -6  -9  -1    0.60    7.90
  -6   9  -2   19.70    6.60
   6   9   2    9.70    6.80
  -6  -9  -2   13.60   10.00
   6  -9   2   26.20    7.20
   6   9   3  -12.50    8.40
   6  -9   3   14.70    7.70
   6  -9   3   11.80    6.80
   6   9   4   20.20   11.30
   6  -9   4    7.40    7.40
   6  -9   4   22.00   10.40
   6   9   5  -19.00   13.50
   6  -9   5   17.70   11.80
  -6  10   8   -3.70   11.90
  -6 -10   8   11.10   10.00
   6  10  -7    6.20   14.70
  -6  10   7    6.60   11.20
  -6 -10   7   -3.40    8.70
   6  10  -6   80.39   10.80
  -6  10   6   99.29   14.90
  -6 -10   6   66.19   10.40
  -6  10   5    5.10    6.70
   6  10  -5   12.20    7.30
  -6 -10   5   17.80    6.60
  -6 -10   5    8.60    7.30
   6  10  -4    5.70    6.60
  -6  10   4   -5.00    7.00
   6 -10  -4   -0.80    3.70
  -6 -10   4    6.10    6.00
   6 -10  -4   -4.40    6.60
   6 -10  -4   -6.60    7.70
  -6 -10   4   -4.60    6.20
  -6  10   3   17.40    7.30
   6  10  -3   15.30    7.20
   6  10  -3   18.50    6.50
  -6 -10   3    7.00    6.40
   6 -10  -3   15.50    4.90
   6 -10  -3   22.50    7.20
   6 -10  -3   17.50    7.90
  -6  10   2  202.28   15.70
   6  10  -2  201.78   14.50
   6  10  -2  214.48   14.50
   6 -10  -2  202.28   11.80
   6 -10  -2  174.58   15.00
   6 -10  -2  190.58   15.20
  -6 -10   2  170.18   15.60
   6  10  -1   12.20    6.70
  -6  10   1   10.40    7.00
   6  10  -1    4.10    5.10
   6 -10  -1   20.40    7.50
  -6 -10   1   13.50    7.20
   6 -10  -1    4.20    4.80
   6  10   0   23.50    7.50
   6  10   0    0.20    7.20
  -6  10   0    8.80    7.30
   6 -10   0    3.40    6.20
   6 -10   0   16.70    5.80
  -6  10  -1   70.39    8.80
   6  10   1   82.19   11.40
  -6 -10  -1   60.19   11.00
   6 -10   1   54.59    8.80
  -6  10  -2   18.50    8.30
   6  10   2   11.30    7.90
   6 -10   2   15.10    8.50
   6 -10   2    0.40    6.30
   6  10   3   21.50    9.90
   6 -10   3  -10.40    6.10
   6 -10   3    2.00    7.50
   6  10   4    8.50   12.30
   6 -10   4   -4.00    9.70
  -6  11   8    0.10   14.00
  -6 -11   8   -6.20   10.00
  -6  11   7    1.30   10.20
   6  11  -7   25.80   13.20
  -6 -11   7   21.30    9.10
  -6  11   6  -12.70   13.30
   6  11  -6    7.30    9.00
  -6 -11   6    0.20    8.50
   6  11  -5   16.80    8.00
  -6  11   5   31.90    9.70
  -6 -11   5    6.20    6.70
   6 -11  -5   13.00    4.10
   6 -11  -5   20.50    6.20
  -6  11   4    1.20   15.30
   6  11  -4    2.60    7.90
   6 -11  -4    0.70    5.20
   6 -11  -4    3.80    7.30
   6 -11  -4   -3.10    4.10
  -6 -11   4   -3.90    7.00
   6  11  -3   -0.40    7.30
  -6  11   3    5.00    7.50
   6  11  -3    4.80    6.60
   6 -11  -3   -0.10    7.10
   6 -11  -3   10.40    7.20
   6 -11  -3    0.50    4.70
  -6 -11   3   -4.40    7.40
  -6  11   2    7.50    8.20
   6  11  -2   14.10    7.20
   6  11  -2   -1.70    6.70
   6 -11  -2    6.60    4.90
   6 -11  -2    9.50    7.60
   6 -11  -2   -4.60    6.20
  -6 -11   2   11.00    7.70
   6  11  -1   12.80    6.80
  -6  11   1    9.50    8.10
   6  11  -1   15.80    7.50
   6 -11  -1   16.00    5.40
   6 -11  -1   24.60    7.00
  -6 -11   1    3.60    7.00
   6  11   0   14.50    7.50
  -6  11   0   18.50    7.90
   6  11   0   23.40    7.20
   6 -11   0   34.20    6.80
   6 -11   0   25.40    7.60
  -6 -11   0   11.50    9.60
  -6  11  -1    9.30    6.70
   6  11   1   19.30    7.80
   6 -11   1    1.90    6.10
  -6 -11  -1    7.00    9.40
   6  11   2  -10.80   10.10
   6 -11   2   11.60    6.90
   6 -11   2    2.50    6.20
   6  11   3    3.90   10.40
   6 -11   3   -6.60    7.70
   6 -11   3   -1.00    7.00
   6  11   4   -3.00   11.90
   6 -11   4  -11.70    9.10
  -6  12   8   12.00   13.20
  -6 -12   8    3.60   10.60
  -6  12   7   -3.90   11.00
   6  12  -7   -0.30   13.50
  -6 -12   7   -9.40    9.00
   6  12  -6    7.40    9.60
  -6  12   6    5.90   17.00
  -6 -12   6    0.70    8.10
   6  12  -5   40.30    9.20
  -6  12   5   32.90    8.10
  -6 -12   5   63.89   16.10
   6 -12  -5   35.50    4.90
   6  12  -4    1.80    7.80
  -6  12   4   -7.50    8.70
  -6 -12   4   -0.20    8.20
   6 -12  -4   -2.30    7.60
   6 -12  -4   -8.10    6.20
   6 -12  -4    3.60    4.40
  -6  12   3   35.10    9.50
   6  12  -3   23.00    8.50
   6  12  -3   25.10    8.70
   6 -12  -3   20.90    6.50
   6 -12  -3   17.50    8.00
   6 -12  -3   20.80    5.70
  -6 -12   3   11.30    8.30
  -6  12   2   69.09   11.10
   6  12  -2   42.40    9.20
   6  12  -2   64.89   10.20
   6 -12  -2   53.59   11.30
   6 -12  -2   55.39    7.50
  -6 -12   2   72.39   11.60
   6 -12  -2   56.09    8.60
  -6  12   1   33.10    9.40
   6  12  -1   29.00    7.00
   6  12  -1   36.20    7.60
   6 -12  -1   30.20    6.80
  -6 -12   1   46.30   14.90
   6 -12  -1   15.70    6.60
   6  12   0    5.40    7.00
  -6  12   0   27.60    9.00
  -6 -12   0   41.80   10.60
   6 -12   0   18.80    6.10
   6 -12   0   16.90    6.70
   6  12   1    3.70    7.60
  -6  12  -1    1.20    7.40
   6 -12   1    0.00    5.50
  -6 -12  -1  -10.00    9.50
   6  12   2   22.50    9.50
   6 -12   2    7.00    7.40
   6 -12   2   29.50    8.60
   6  12   3    6.50   10.40
   6 -12   3    5.10    9.10
   6  12   4   -1.30   12.50
   6 -12   4    1.40    9.60
   6  13  -7    4.90   15.20
  -6  13   7   13.20   12.20
  -6 -13   7   19.90   11.40
   6  13  -6    3.90   10.70
  -6  13   6   -1.00   15.00
  -6 -13   6  -10.90    8.80
  -6  13   5   19.30   10.10
   6  13  -5   22.20    9.80
   6 -13  -5   21.40    4.70
   6  13  -4    5.80    8.50
  -6  13   4    7.70    7.90
  -6 -13   4    2.00    7.00
   6 -13  -4   -6.10    7.90
   6 -13  -4    9.50    8.60
   6 -13  -4    1.20    4.70
  -6  13   3  205.68   17.20
   6  13  -3  212.48   17.70
  -6 -13   3  216.88   19.10
   6 -13  -3  195.18   16.40
   6 -13  -3  224.98   12.90
  -6  13   2   19.20    8.30
   6  13  -2   10.90    7.10
   6  13  -2   16.90    9.00
   6 -13  -2   18.40    5.90
   6 -13  -2    7.20    8.80
  -6 -13   2   10.10    8.40
   6  13  -1   37.00   10.30
  -6  13   1   31.60    9.50
   6  13  -1   48.50   10.50
  -6 -13   1   30.10   15.20
   6 -13  -1   20.70    6.60
   6 -13  -1   40.20    7.10
  -6  13   0   10.10    8.40
   6  13   0   17.40    7.60
   6 -13   0    7.00    6.60
  -6 -13   0    0.30    9.30
   6 -13   0   -8.20    7.00
   6  13   1   15.90    9.00
   6 -13   1    3.60    7.20
   6 -13   1    0.50    6.90
  -6 -13  -1   14.00   10.70
   6  13   2   33.40   10.10
   6 -13   2   31.80    8.70
   6  13   3  -18.20   10.90
   6 -13   3    7.70    9.60
   6  13   4    3.80   12.80
   6 -13   4   19.30   10.70
   6  14  -7  -12.50   14.90
  -6  14   7    3.30   12.70
  -6 -14   7    8.70   11.30
   6  14  -6   19.20   12.00
  -6 -14   6   32.40   10.90
   6  14  -5   24.70   10.10
  -6  14   5   34.30   12.30
   6 -14  -5   19.80    5.30
   6  14  -4    9.30    9.00
  -6  14   4   10.70    8.40
   6 -14  -4   -1.60    9.10
  -6 -14   4   34.00   10.40
   6 -14  -4   -2.60    8.80
   6 -14  -4   10.20    5.50
  -6  14   3   16.20    7.60
   6  14  -3   22.50    9.10
   6 -14  -3   19.10    5.80
  -6 -14   3   13.80    9.00
   6 -14  -3   35.60   10.00
   6 -14  -3   26.60    8.30
   6  14  -2   11.70    8.70
  -6  14   2    3.50    8.70
  -6  14   2   -3.00    5.50
   6  14  -2    5.10    6.30
  -6 -14   2    0.90    8.20
   6 -14  -2    1.80    5.70
   6 -14  -2   14.50    8.20
   6  14  -1   -4.10   13.70
  -6  14   1   -3.70    6.30
  -6  14   1    4.30    8.80
   6 -14  -1  -11.50    5.70
   6 -14  -1    6.50    6.70
  -6 -14   1  -12.40    8.30
   6  14   0   46.60    9.10
  -6  14   0   75.89   11.70
   6  14   0   91.99   12.40
   6 -14   0   54.69    9.60
  -6 -14   0   69.69   12.70
   6  14   1    4.10    9.10
   6 -14   1   -3.50    7.30
  -6 -14  -1   29.00   15.00
   6  14   2   15.90   10.50
   6 -14   2    7.00    8.60
   6  14   3   -5.80   11.80
   6 -14   3   -8.00    9.20
   6  14   4   11.50   13.30
   6 -14   4    4.10   11.00
   6  15  -7    7.70   21.60
  -6  15   7  -11.60   11.00
  -6 -15   7  -14.90   10.60
   6  15  -6   13.70   12.70
  -6 -15   6   -0.10   10.60
   6  15  -5   -5.10    9.90
  -6  15   5   12.70    9.90
   6 -15  -5    6.30    5.50
  -6 -15   5    4.60   10.00
   6  15  -4   -5.20    9.90
  -6  15   4  -12.00    9.10
   6 -15  -4    6.60    5.70
   6 -15  -4    0.70   11.20
   6 -15  -4    1.70   12.20
  -6 -15   4   29.40   12.40
  -6  15   3   46.60    7.40
  -6  15   3   23.40    8.30
   6  15  -3   48.50   12.10
  -6 -15   3   67.39   11.10
   6 -15  -3   15.60    9.20
  -6  15   2   45.60   12.30
   6  15  -2   10.30    7.60
  -6  15   2   37.30    7.20
   6 -15  -2   18.70    7.90
  -6 -15   2   32.20   10.20
  -6  15   1   13.60    8.60
  -6  15   1   11.70    6.70
   6  15  -1   17.10    9.10
   6  15  -1   14.20   13.90
  -6 -15   1   14.80   10.40
   6 -15  -1    6.50    7.70
   6  15   0   -8.10    7.30
   6  15   0   14.80    8.60
  -6  15   0    8.30    7.90
  -6 -15   0    6.30   10.20
   6  15   1  -16.50    9.10
   6 -15   1   -0.60    7.00
   6  15   2   29.80   11.80
   6 -15   2   27.00   10.30
   6  15   3    8.90   12.30
   6 -15   3   11.50    9.90
  -6  16   7    2.90   19.90
  -6 -16   7    6.20   10.70
  -6 -16   6   20.50   12.60
  -6  16   5    4.50   12.50
  -6 -16   5  -10.00   10.60
   6 -16  -5    1.50    6.00
  -6  16   4   47.10   15.30
  -6  16   4   32.20    7.00
  -6 -16   4   52.99   14.20
   6 -16  -4   21.90   12.80
  -6  16   3   13.60    9.70
  -6  16   3   -9.70    5.80
   6 -16  -3  -10.50   10.10
  -6 -16   3  -11.10    9.30
  -6  16   2   -0.90   11.40
  -6  16   2   -2.50    6.20
   6  16  -2  -23.20   12.70
   6 -16  -2    7.30   11.30
  -6 -16   2    2.40   10.40
  -6  16   1    0.10    9.80
   6  16  -1  -17.00    9.20
   6  16  -1  -15.90   15.00
  -6 -16   1    2.90   11.20
   6  16   0  -11.00    8.90
  -6  16   0  -11.40    7.50
   6 -16   0  -11.00    6.60
  -6 -16   0   -3.70   11.70
   6  16   1   23.20   10.70
   6 -16   1   15.80    8.30
   6  16   2  -16.90   11.40
   6 -16   2    9.20    9.70
   6  16   3    6.80   12.70
   6 -16   3   -0.90   10.90
  -6  17   6   13.80   18.90
   6  17  -6   -2.50   17.40
  -6 -17   6   -8.70   12.70
  -6  17   5    7.60   12.60
  -6 -17   5  -10.50   11.80
  -6  17   4    5.00    6.40
  -6  17   4   19.10   25.60
   6  17  -4    6.50   12.80
  -6  17   3    4.40   11.50
   6  17  -3   -5.90   10.70
  -6  17   3    9.70    7.10
  -6 -17   3   10.60   10.70
   6  17  -2   27.10   10.70
  -6  17   2   35.20    8.10
  -6  17   2    9.00   10.80
  -6 -17   2   55.29   14.50
   6  17  -1    2.00   10.40
   6  17  -1    9.70    9.80
  -6  17   1   -4.20    7.70
  -6 -17   1   15.80   19.20
   6  17   0    9.90   10.90
  -6  17   0    3.10    8.50
  -6 -17   0   -5.10   11.90
  -6  17  -1   -8.70    8.70
   6  17   1    7.80   11.40
   6 -17   1    3.50    8.00
   6  17   2   35.60   13.50
   6 -17   2    6.40   10.10
   6  17   3   12.20   13.60
   6 -17   3    5.70   11.50
   6  18  -6    6.10   17.70
  -6  18   6   39.30   21.30
  -6 -18   6  -11.10   13.40
  -6  18   5    9.40   16.90
   6  18  -5   -8.10   12.60
  -6 -18   5  -24.10   12.60
  -6  18   4   -5.30   12.40
   6  18  -4   -2.70   11.70
  -6  18   4   -2.80    7.00
  -6 -18   4   11.70   12.60
  -6  18   3   -2.60    7.50
  -6  18   3    8.10   11.90
   6  18  -3   -3.00   10.90
  -6 -18   3    4.10   11.30
   6  18  -2   11.50   10.70
  -6 -18   2   -1.30   12.00
  -6  18   1   11.90    8.60
   6  18  -1   26.30   11.50
  -6 -18   1    3.60   14.00
  -6  18   0    7.10    9.60
   6  18   0    2.00    9.60
  -6 -18   0   -9.80   11.20
  -6  18  -1   15.20   10.90
   6  18   1    7.40   12.10
   6 -18   1    4.50   10.20
   6  18   2    2.60   12.50
   6 -18   2    9.40    9.50
   6  18   3    6.80   14.70
   6 -18   3   -9.60   10.70
   6  19  -6  -18.30   18.90
  -6  19   6   -5.20   23.50
  -6 -19   6    6.30   13.70
  -6  19   5  -15.40   17.20
   6  19  -5   -5.30   13.70
  -6 -19   5  -16.30   12.90
  -6  19   4   -1.00    7.80
  -6  19   4   -5.50   21.80
   6  19  -4    8.30   13.50
  -6 -19   4   -6.80   13.00
   6  19  -3   19.10   11.70
  -6  19   3   20.70    8.40
  -6 -19   3   -1.60   12.10
  -6  19   2   14.30    8.60
   6  19  -2    9.40   12.60
  -6 -19   2    7.30   13.70
  -6  19   1    9.20    9.50
  -6 -19   1   -3.40   12.80
   6  19   0    0.00   12.50
  -6  19   0    6.10    9.20
  -6  19  -1    5.30   10.40
   6  19   1   10.60   13.40
   6  19   2   21.30   13.70
   6 -19   2    8.60   10.80
   6  20  -5    7.20   14.10
  -6  20   5  -10.30   26.00
  -6 -20   5   18.30   15.60
  -6  20   4  -11.60    8.70
   6  20  -4    3.00   14.90
  -6 -20   4    7.60   12.50
  -6  20   3    7.10    9.20
   6  20  -3   19.30   14.10
  -6  20   2   20.90    9.70
   6  20  -2   22.00   13.80
  -6 -20   2   21.10   16.80
   6  20  -1   37.20   14.00
  -6  20   1    9.60   10.20
  -6 -20   1   20.20   14.60
  -6  20   0  -14.50   10.40
   6  20   0   13.20   13.10
  -6  20  -1   16.70   11.90
   6  20   1   27.50   13.40
   6  20   2   24.30   14.90
  -6  20  -2   23.50   13.20
   6 -20   2   24.10   11.60
   6  21  -5  -15.80   15.90
  -6 -21   5    6.80   17.60
   6  21  -4    5.00   15.10
  -6  21   4  -13.90   10.80
  -6 -21   4   12.80   15.40
   6  21  -3   19.50   15.70
  -6  21   3   14.10   10.10
  -6 -21   3   38.80   18.10
   6  21  -2  -26.40   13.10
  -6  21   2  -11.20    9.60
  -6 -21   2  -14.20   17.70
  -6  21   1   -1.30   10.60
   6  21  -1   -9.90   13.40
  -6 -21   1  -10.80   18.60
  -6  21   0   -2.50   12.70
   6  21   0    8.20   15.70
  -6  21  -1   19.00   13.20
   6  21   1  -13.30   14.20
   6  22  -4    4.20   17.00
  -6  22   4  -26.50   11.30
  -6 -22   4    1.20   20.90
   6  22  -3   19.40   15.10
  -6  22   3   18.70   10.40
  -6 -22   3   -0.30   18.40
   6  22  -2  -12.80   14.40
  -6  22   2   15.80   11.40
  -6  22   1    4.90   12.30
   6  22  -1  -11.60   14.20
   6  22   0   -2.40   15.00
  -6  22   0  -13.80   13.80
  -6  22  -1    5.50   14.60
   6  22   1   -6.20   14.70
  -6  23   3   14.40   10.90
   6  23  -3   44.30   18.20
  -6 -23   3   31.40   19.80
   6  23  -2   17.70   15.10
  -6  23   2   -6.90   11.90
  -6  23   1    0.90   13.30
   6  23  -1   19.10   16.40
   6  23   0   -3.20   15.60
  -6  23   0   -3.80   14.00
  -7   0   8   10.60   12.10
  -7   0   7   -3.40    9.00
  -7   0   6    9.40   10.20
   7   0  -5   -3.30    5.10
  -7   0   5   -0.80    7.10
   7   0  -5   -6.30    5.20
   7   0  -4   17.10    6.40
   7   0  -4   25.40    7.90
  -7   0   4   28.60    8.60
   7   0  -4   22.30    5.80
  -7   0   3    5.70   15.20
   7   0  -3   -5.40    5.00
   7   0  -3    8.70   12.10
   7   0  -3   -1.20    5.60
  -7   0   2    4.10    5.00
   7   0  -2   -0.40    5.20
   7   0  -2   11.50    6.30
  -7   0   2    4.90    3.60
   7   0  -2   12.20    8.10
   7   0  -1    0.90    5.00
   7   0  -1   12.00    6.60
  -7   0   1    3.40    6.60
   7   0   0   31.50    7.90
  -7   0   0   31.50    8.80
   7   0   0   23.00    6.80
  -7   0  -1    4.40    8.50
   7   0   1    2.60    5.50
   7   0   2   12.00    7.70
   7   0   2    6.20    8.70
   7   0   3    3.10    8.80
   7   0   4   26.40   11.30
  -7   1   8    0.50   11.50
  -7  -1   8   -6.40   10.10
  -7   1   7   31.30   10.90
  -7  -1   7   16.30    9.80
   7   1  -6    5.20    5.50
  -7  -1   6   -0.80    8.50
   7   1  -5   54.59    6.80
   7   1  -5   57.19    7.00
  -7   1   5   51.39    9.60
  -7  -1   5   55.99   10.10
   7  -1  -5   52.09    6.80
   7  -1  -5   60.09    6.90
   7   1  -4   34.40    6.10
  -7   1   4   36.00    9.30
   7   1  -4   21.50    8.50
   7  -1  -4   32.40    6.00
   7  -1  -4   36.40    6.80
   7  -1  -4   27.80    8.20
  -7  -1   4   24.10    4.80
  -7  -1   4   23.00    7.10
  -7   1   3  140.39   13.80
   7   1  -3  156.08   11.50
   7   1  -3  173.08   14.20
   7  -1  -3  140.19   11.40
   7  -1  -3  133.29   10.70
   7  -1  -3  125.99   13.30
  -7  -1   3  139.89    9.90
  -7  -1   3  137.19   14.00
   7   1  -2  148.29   13.20
   7   1  -2  140.69   11.30
  -7   1   2  130.59   13.20
  -7  -1   2  144.29   10.60
   7  -1  -2  137.19   12.80
   7  -1  -2  134.59   11.60
  -7  -1   2  157.88   14.40
   7  -1  -2  154.98   11.10
   7   1  -1    1.40    6.30
  -7   1   1    7.70    7.40
   7   1  -1   -0.80    5.30
  -7  -1   1   -2.90    7.30
   7  -1  -1    4.40    5.50
   7  -1  -1    2.90    6.70
   7   1   0   90.39   11.10
   7   1   0   94.69   11.40
  -7   1   0   82.39   10.50
  -7  -1   0  112.09   14.40
   7  -1   0  113.49   11.20
   7  -1   0  117.39   12.40
   7   1   1   24.90    7.40
  -7   1  -1   22.70    9.20
  -7  -1  -1   27.50    9.50
   7  -1   1   27.80    7.20
   7   1   2   17.60    8.20
   7  -1   2   16.50    6.70
   7  -1   2   30.40    8.60
   7   1   3    6.10    9.70
   7  -1   3   10.60    9.70
   7   1   4   11.60   11.20
   7  -1   4    8.80   10.80
  -7   2   8    5.60   11.30
  -7  -2   8   -5.40   10.80
  -7   2   7    0.40    9.40
  -7  -2   7   -2.20    9.50
   7   2  -6   -4.90    6.10
  -7   2   6   -0.90   14.00
  -7  -2   6    1.30    8.10
  -7   2   5   19.10    8.10
   7   2  -5   15.30    5.90
   7  -2  -5   21.40    6.00
   7  -2  -5   18.20    5.60
  -7  -2   5   24.20    8.40
  -7  -2   5   21.20    4.80
  -7   2   4   99.59   12.50
   7   2  -4   82.79    8.40
   7   2  -4   66.69   11.00
  -7  -2   4   66.29    8.20
   7  -2  -4   75.19    8.70
   7  -2  -4   73.29   10.80
  -7  -2   4   66.19   11.80
   7  -2  -4   79.79    8.50
  -7   2   3   11.40    7.40
   7   2  -3   16.50    5.90
   7   2  -3   15.90   12.10
   7  -2  -3   21.50    6.30
   7  -2  -3    9.00    7.10
  -7  -2   3   11.00    5.20
   7  -2  -3   12.70    5.60
  -7  -2   3   19.60    7.80
   7   2  -2   25.70    6.70
  -7   2   2   19.70    8.80
   7   2  -2   16.80    6.60
  -7  -2   2   34.40   10.10
   7  -2  -2   34.30    7.60
   7  -2  -2   31.60    7.00
  -7  -2   2   28.70    7.80
   7  -2  -2   42.50    6.50
   7   2  -1   93.59   11.00
  -7   2   1   70.09   11.00
   7   2  -1   67.09    8.20
   7  -2  -1   67.09    9.70
  -7  -2   1  107.79   12.60
   7  -2  -1   86.79   10.10
   7   2   0    0.80    5.80
  -7   2   0   -3.10    7.10
   7   2   0    6.30    6.10
  -7  -2   0    1.30    7.70
   7  -2   0    0.00    6.90
   7  -2   0   -2.20    5.40
  -7   2  -1   26.00    8.40
   7   2   1   39.10    8.20
   7  -2   1   33.80    7.60
  -7  -2  -1   23.70    9.20
   7   2   2   13.80    8.20
   7  -2   2   20.80    7.50
   7  -2   2   17.30    8.50
   7   2   3    1.30    9.30
   7  -2   3    6.00    8.70
   7   2   4   -6.70   10.10
   7  -2   4   10.50   11.40
  -7   3   8   13.30   12.30
  -7  -3   8   15.50   11.30
  -7   3   7   18.20   10.90
  -7  -3   7    8.90   10.60
   7   3  -6   12.20    6.90
  -7   3   6   11.40   13.30
  -7  -3   6   23.20   11.80
   7   3  -5    0.80    6.00
  -7   3   5  -10.90   12.30
  -7  -3   5   10.20    7.30
   7  -3  -5    3.40    5.00
   7  -3  -5    8.70    5.60
  -7  -3   5   10.40    4.70
   7   3  -4    9.20    8.00
   7   3  -4   10.60    5.90
  -7   3   4   -0.40    8.00
   7  -3  -4    1.40    8.20
  -7  -3   4   12.10    4.70
  -7  -3   4    3.60    7.80
   7  -3  -4    5.80    4.60
   7  -3  -4    8.60    6.90
   7   3  -3   15.40    7.90
  -7   3   3    8.60    8.10
   7   3  -3    1.40    5.60
  -7  -3   3   -2.20    5.20
   7  -3  -3    5.10    5.20
   7  -3  -3   13.00    7.60
   7  -3  -3    9.30    6.20
  -7  -3   3    4.10    6.40
  -7   3   2  -10.20    6.60
   7   3  -2    1.20    6.60
   7   3  -2   -0.60    5.70
  -7  -3   2    1.20    6.20
   7  -3  -2    1.30    4.90
   7  -3  -2   -3.50    6.20
   7  -3  -2   -3.40    7.30
   7   3  -1   39.60    7.10
   7  -3  -1   51.29    8.70
   7  -3  -1   45.50    7.60
  -7  -3   1   25.00    9.40
   7   3   0   -2.40    5.80
   7   3   0   -3.90    5.80
  -7   3   0   -7.00    7.40
   7  -3   0    5.00    6.40
   7  -3   0    3.00    5.50
  -7  -3   0    5.00    8.00
  -7   3  -1   38.70    9.40
   7   3   1   10.20    6.40
   7  -3   1   26.40    7.30
  -7  -3  -1   14.00    9.50
   7   3   2   15.80    8.20
   7  -3   2    5.40    7.70
   7  -3   2    5.20    7.30
   7   3   3    7.90    9.70
   7  -3   3    2.80    9.50
   7   3   4   -2.90   10.80
   7  -3   4   19.60   11.50
  -7   4   8   17.40   12.20
  -7  -4   8    2.70    9.90
  -7   4   7   19.30   10.30
  -7  -4   7   25.10   10.40
  -7   4   6    2.60   11.10
   7   4  -6    5.40    6.20
  -7   4   5    1.90    8.20
   7   4  -5    7.60    6.80
  -7  -4   5    6.90    8.20
   7  -4  -5    0.20    4.70
   7  -4  -5   -7.10    5.30
  -7  -4   5   12.40    5.00
  -7   4   4   31.50    8.80
   7   4  -4   19.10    7.10
   7   4  -4   36.40    7.50
   7  -4  -4   30.90    9.10
  -7  -4   4   15.20    8.20
  -7  -4   4   48.20    6.00
   7  -4  -4   43.50    7.80
   7  -4  -4   27.10    5.50
   7   4  -3  210.88   13.80
  -7   4   3  245.38   16.60
  -7  -4   3  213.48   12.60
   7  -4  -3  234.88   12.80
   7  -4  -3  237.38   16.90
   7  -4  -3  204.58   14.10
  -7  -4   3  223.28   17.10
  -7   4   2   35.80    9.00
   7   4  -2   56.59    8.40
   7   4  -2   56.79    9.20
   7  -4  -2   64.79    8.60
  -7  -4   2   48.90    9.20
   7  -4  -2   56.89    7.20
   7  -4  -2   66.49   10.00
   7   4  -1   11.90    6.00
   7   4  -1    1.90    6.00
  -7   4   1   -0.90    5.40
   7  -4  -1   -3.10    6.40
  -7  -4   1    5.80    9.80
   7  -4  -1   15.90    5.60
   7   4   0    5.50    7.00
   7   4   0   -0.90    6.20
  -7   4   0    9.50    8.00
   7  -4   0    7.40    6.90
   7  -4   0    7.20    6.20
  -7  -4   0    4.10    8.10
   7   4   1   11.90    7.20
   7   4   1   18.10    8.90
  -7   4  -1   12.70    8.90
   7  -4   1   14.90    6.60
  -7  -4  -1    8.60    9.10
   7   4   2   13.90    8.50
   7  -4   2    5.10    7.30
   7   4   3    2.40    9.30
   7  -4   3    7.90    9.00
   7   4   4   28.60   11.30
   7  -4   4   -0.50   10.60
  -7   5   8    4.20   12.50
  -7  -5   8   30.10   12.00
  -7   5   7    1.30   11.10
  -7  -5   7   -8.70    9.80
  -7   5   6   22.30   14.70
   7   5  -6    9.60    6.70
  -7   5   5    1.10    7.40
   7   5  -5   13.60    7.10
  -7  -5   5   10.80    8.00
   7  -5  -5   17.60    5.10
  -7  -5   5   15.30    5.30
   7  -5  -5   11.80    6.00
   7   5  -4   40.70    9.90
  -7   5   4   49.99    9.10
   7   5  -4   63.79    8.70
   7  -5  -4   58.49    6.60
  -7  -5   4   58.99   10.50
   7  -5  -4   56.29    8.30
  -7  -5   4   43.40    6.10
   7  -5  -4   53.19   10.20
   7   5  -3    7.50    6.20
   7   5  -3    6.00    6.20
  -7   5   3   14.40    7.00
   7  -5  -3    6.40    8.10
  -7  -5   3    7.40    7.30
  -7  -5   3   -3.20    5.40
   7  -5  -3    9.70    5.00
   7  -5  -3    8.00    6.90
   7   5  -2    6.30    6.10
  -7   5   2    2.90    8.30
   7   5  -2    1.60    5.70
  -7  -5   2   -6.60    6.20
   7  -5  -2    2.30    4.70
   7  -5  -2    4.40    7.40
   7  -5  -2    9.40    7.50
   7   5  -1    1.00    6.60
  -7   5   1   13.10    6.60
   7   5  -1    1.00    6.60
   7  -5  -1    9.60    7.20
  -7  -5   1   13.20    8.90
   7  -5  -1    2.00    5.60
   7   5   0   19.00   10.10
  -7   5   0    1.50    6.80
   7   5   0    4.10    7.20
  -7  -5   0    6.00    8.40
   7  -5   0    1.40    6.20
   7  -5   0   -5.80    6.20
   7   5   1    1.40    7.70
   7   5   1   -0.70    7.10
  -7   5  -1   12.00   10.70
   7  -5   1    5.70    5.80
  -7  -5  -1    9.60    8.40
   7  -5   1   -2.20    7.70
   7   5   2   10.60    8.90
   7  -5   2   20.10    7.60
   7   5   3   18.50   10.30
   7  -5   3   13.40    8.30
   7   5   4   -9.00   11.40
   7  -5   4  -20.40   10.50
  -7   6   8  -15.80   12.90
  -7  -6   8    2.30   11.00
  -7   6   7    3.10   11.40
  -7  -6   7   -2.60    9.50
   7   6  -6   14.20    7.90
  -7   6   6    6.70   10.70
  -7   6   5   -2.30    8.20
   7   6  -5  -11.00    6.50
   7  -6  -5   11.10    4.60
  -7  -6   5   10.60    5.30
   7  -6  -5   -1.40    8.80
  -7  -6   5   12.40    8.10
   7   6  -4  144.99   13.00
  -7   6   4  133.19   14.90
  -7  -6   4  128.39   16.00
   7  -6  -4  111.09   14.50
   7  -6  -4  111.69   12.50
  -7  -6   4  157.18   10.80
   7  -6  -4  137.19    9.90
   7   6  -3   81.99   10.50
  -7   6   3   66.29   10.30
   7   6  -3   75.49    9.60
   7  -6  -3  102.09   11.60
  -7  -6   3   93.19   11.20
   7  -6  -3   73.39    9.60
  -7  -6   3   98.09   13.30
   7  -6  -3  106.29    9.50
  -7   6   2   40.20    9.80
   7   6  -2   24.60    7.40
   7   6  -2   38.00    7.90
   7  -6  -2   39.40    8.50
  -7  -6   2   41.60   13.80
   7  -6  -2   45.20    6.60
  -7   6   1   -1.50    7.00
   7   6  -1    7.40    6.90
   7   6  -1   18.60    8.00
  -7  -6   1   19.80    9.80
   7  -6  -1    2.80    7.20
   7  -6  -1   10.50    5.60
  -7   6   0   -3.60    7.00
   7   6   0   -6.30    6.90
   7  -6   0   -2.40    6.70
   7  -6   0   -5.90    6.20
  -7  -6   0   -9.70    8.40
   7   6   1    9.20    7.60
   7   6   1    8.60    8.00
   7  -6   1   12.30    7.20
  -7  -6  -1    2.90   10.20
   7  -6   1    4.70    7.40
   7   6   2   -4.50    7.80
   7  -6   2   -2.80    7.50
   7   6   3   14.60   10.30
   7  -6   3    7.40    8.60
   7   6   4    5.70   12.60
   7  -6   4    4.00   11.40
  -7   7   8    4.40   13.70
  -7  -7   8   10.20   10.80
  -7   7   7   41.70   13.20
  -7  -7   7   21.80   11.70
   7   7  -6   -3.00    7.80
  -7  -7   6   -2.30    8.60
  -7   7   5    1.50    8.50
   7   7  -5   -4.70    7.10
  -7  -7   5    0.50    7.80
   7  -7  -5   -2.70    4.30
  -7  -7   5    0.30    5.90
   7   7  -4   22.60    7.60
  -7   7   4   31.10    8.60
   7  -7  -4   15.10    7.70
   7  -7  -4   35.50   10.00
   7  -7  -4   25.10    5.60
  -7  -7   4   33.00    9.90
  -7  -7   4   18.50    6.60
   7   7  -3   -2.30    7.10
   7   7  -3    3.30    6.50
  -7   7   3    2.10    7.90
   7  -7  -3   -4.30   12.10
  -7  -7   3   20.70   14.90
   7  -7  -3   11.80    5.30
   7  -7  -3    6.50    8.00
   7   7  -2   16.30    7.30
   7   7  -2   -7.20    7.00
  -7   7   2    4.10    7.30
  -7  -7   2    5.30    8.30
   7  -7  -2   13.40    5.60
   7  -7  -2   -1.20    7.50
  -7   7   1   70.69   11.80
   7   7  -1   67.09   10.00
   7   7  -1   82.19   10.10
  -7  -7   1   65.99   11.10
   7  -7  -1   97.89   11.90
   7  -7  -1   80.99    9.90
   7   7   0   13.60    8.20
  -7   7   0   15.20    9.00
   7  -7   0   15.10    7.50
   7  -7   0    4.60    7.70
  -7  -7   0   27.80    9.90
   7   7   1    0.10    7.00
   7  -7   1  -10.60    6.80
   7  -7   1   12.20    6.70
   7   7   2    6.30    8.50
   7  -7   2    3.10    8.00
   7   7   3    9.60   10.50
   7  -7   3    1.50    9.10
   7   7   4   -2.60   11.90
   7  -7   4   -0.60   10.50
  -7   8   8    4.60   13.90
  -7  -8   8   -0.60   11.90
  -7   8   7   31.60   12.40
  -7  -8   7   20.70   11.30
   7   8  -6   -2.90    8.60
  -7  -8   6   13.90    9.90
  -7   8   5   33.30    9.60
   7   8  -5   24.80    8.50
  -7  -8   5   30.80   10.30
  -7  -8   5   32.90    6.90
   7  -8  -5   30.50    5.10
   7   8  -4   11.80    8.00
  -7   8   4   20.20    9.30
  -7  -8   4   13.30    8.30
   7  -8  -4    2.30    8.00
   7  -8  -4   20.90    9.40
   7  -8  -4   23.80    5.20
  -7  -8   4   19.60    6.50
   7   8  -3   37.60   16.00
  -7   8   3   43.40   10.00
   7   8  -3   46.50    8.90
   7  -8  -3   45.20    6.80
   7  -8  -3   61.59   10.40
   7  -8  -3   50.49    9.20
  -7  -8   3   40.00    9.20
  -7   8   2    0.20    8.90
   7   8  -2   21.90    9.00
   7   8  -2    7.30    7.30
  -7  -8   2   10.30   14.60
   7  -8  -2    1.60    5.30
   7  -8  -2    6.70    9.00
   7   8  -1   24.90    8.90
   7   8  -1   43.40   10.70
  -7   8   1   28.10    8.00
   7  -8  -1   50.19    9.70
   7  -8  -1   48.00    7.70
  -7  -8   1   21.10    9.50
   7   8   0   19.10    7.80
  -7   8   0   30.50    8.90
  -7  -8   0   27.20    9.50
   7  -8   0   40.20    8.90
   7   8   1    2.10    7.70
   7  -8   1    2.60    6.80
   7  -8   1    3.70    7.00
   7   8   2   -3.90    8.80
   7  -8   2    3.30    7.60
   7   8   3    3.10   10.60
   7  -8   3    0.50    9.20
   7   8   4   28.90   13.60
   7  -8   4    2.50   10.50
  -7   9   8   -2.50   13.70
  -7  -9   8    9.40   11.50
  -7   9   7   -1.10   11.60
  -7  -9   7   20.40   12.20
  -7   9   6   -3.30   18.60
   7   9  -6    0.60    9.20
  -7  -9   6    1.70    9.40
   7   9  -5   17.60    9.10
  -7   9   5   29.50   18.20
   7  -9  -5   14.90    4.90
  -7  -9   5   22.50    7.10
   7   9  -4   32.80    8.90
  -7   9   4   28.70   10.20
   7  -9  -4   32.20    8.30
  -7  -9   4   39.30   11.00
   7  -9  -4   58.19   19.60
   7  -9  -4   24.40    5.80
   7   9  -3  221.28   16.70
   7   9  -3  212.48   18.00
  -7   9   3  234.08   18.90
   7  -9  -3  232.78   17.30
   7  -9  -3  242.48   13.30
   7  -9  -3  230.98   18.50
  -7  -9   3  249.38   19.10
   7   9  -2    2.00    8.60
  -7   9   2   -1.50    8.90
   7   9  -2    1.00    7.40
  -7  -9   2    8.30    7.90
   7  -9  -2    8.70    5.30
   7  -9  -2    2.60    8.30
   7   9  -1    4.90    9.30
  -7   9   1    5.40    9.00
   7  -9  -1    6.80    5.70
   7  -9  -1    9.80    8.20
  -7  -9   1    6.40    9.50
  -7   9   0  -17.20    6.90
   7   9   0    0.10    6.80
   7   9   0    0.70    8.00
   7  -9   0   -6.20    7.10
  -7  -9   0    3.10    9.90
   7   9   1   52.09   10.50
   7  -9   1   71.89    9.90
   7   9   2  -12.70    9.50
   7  -9   2    6.40    8.10
   7   9   3   32.80   12.30
   7  -9   3    3.10   10.70
  -7  10   7   -7.10   13.80
  -7 -10   7    1.20   11.50
   7  10  -6    1.20    9.90
  -7  10   6   -5.80   12.20
  -7 -10   6    8.70   10.70
  -7  10   5   -0.40   10.20
   7  10  -5   -5.10    8.90
  -7 -10   5    5.00    9.60
   7 -10  -5    3.70    4.60
  -7  10   4   25.30   10.10
   7  10  -4   31.00    9.30
   7 -10  -4   28.00    8.60
  -7 -10   4   58.59   18.00
   7 -10  -4   31.70    6.30
   7 -10  -4   17.60   11.80
   7  10  -3   10.00    7.90
  -7  10   3   18.30   10.10
   7  10  -3   13.30    8.70
   7 -10  -3   17.00    9.10
   7 -10  -3   15.20    9.60
   7 -10  -3   15.40    5.40
  -7 -10   3    3.90    8.10
  -7  10   2   20.20    9.70
   7  10  -2    7.40    8.50
   7  10  -2    5.50    9.60
  -7 -10   2    8.30    9.00
   7 -10  -2    6.10    8.80
   7 -10  -2    8.60    5.80
  -7  10   1    9.70    8.70
   7  10  -1   21.30   10.00
   7 -10  -1    3.00    5.80
   7 -10  -1   11.10    8.80
  -7 -10   1   -5.00    9.00
   7  10   0   14.60    8.90
   7 -10   0   -0.20   10.10
   7  10   1    0.20    8.70
   7 -10   1   12.30    7.60
   7  10   2   22.40   11.70
   7 -10   2   22.00    9.70
   7  10   3    4.60   12.70
   7 -10   3   20.10    9.80
  -7  11   7   -8.60   12.90
  -7 -11   7   -2.80   11.50
  -7  11   6   16.30   12.50
   7  11  -6    4.00   11.00
  -7 -11   6    9.60   11.20
   7  11  -5   16.00   10.00
  -7  11   5   -6.90   10.80
   7 -11  -5    4.20    4.90
   7  11  -4   27.50    9.10
  -7  11   4   33.50   11.40
   7 -11  -4   28.70    6.10
   7 -11  -4   10.90   11.20
  -7 -11   4    9.20    8.80
   7 -11  -4   38.90   11.30
  -7  11   3   25.80   11.00
   7  11  -3   24.70    9.70
   7 -11  -3   30.90    6.40
  -7 -11   3   14.00    9.40
   7 -11  -3   26.00   10.50
   7 -11  -3   17.10   11.20
  -7  11   2   23.20   10.50
   7  11  -2   -4.40   12.70
   7  11  -2   -9.00    8.60
   7 -11  -2   -6.70    5.80
   7 -11  -2   -0.20    9.60
  -7 -11   2  -23.90   14.60
   7  11  -1   -2.80   16.80
  -7  11   1   13.70    9.40
   7 -11  -1   19.10    7.10
  -7 -11   1    6.70    9.50
   7 -11  -1    8.80    8.80
   7  11   0   17.80    9.60
  -7 -11   0   13.80   12.20
   7 -11   0   21.40    7.60
   7  11   1   36.30   10.90
   7 -11   1   41.70    9.00
   7  11   2    9.20   11.90
   7 -11   2   -2.90    8.60
   7  11   3   -4.30   12.50
   7 -11   3   -7.90    9.90
  -7  12   7    8.40   14.70
  -7 -12   7   -1.70   12.70
   7  12  -6   -4.00   11.90
  -7 -12   6   -5.60   10.90
  -7  12   5   20.50   13.50
   7  12  -5   16.50   10.30
   7 -12  -5   24.90    7.00
   7  12  -4   -1.20    9.00
  -7  12   4    6.20   10.40
   7 -12  -4    6.00    5.90
  -7 -12   4   -5.80    8.90
   7 -12  -4  -12.70   10.10
  -7  12   3    3.00    9.60
   7  12  -3   13.50    9.40
   7 -12  -3   15.50    6.40
   7 -12  -3    7.80    7.20
  -7 -12   3    0.50    9.80
   7  12  -2   20.90   10.70
  -7  12   2    9.00   10.30
  -7 -12   2   18.90   15.30
   7 -12  -2   13.10    6.80
   7 -12  -2  -13.60   11.10
   7  12  -1   41.00   11.10
  -7  12   1   41.20   15.10
   7  12  -1   23.80    9.70
  -7 -12   1   23.30   10.70
   7  12   0   -3.00    9.50
   7 -12   0   -4.30    7.10
  -7 -12   0    3.90   14.70
   7  12   1    0.80    9.90
   7 -12   1   18.10    8.80
   7  12   2   -6.20   12.20
   7 -12   2   -0.70    9.50
   7  12   3    0.00   11.60
   7 -12   3  -23.30    9.10
  -7  13   7   -6.50   16.00
  -7 -13   7    3.30   12.90
   7  13  -6    2.10   12.50
  -7 -13   6    3.40   12.40
  -7  13   5   13.00   13.30
   7  13  -5    5.30   11.20
  -7 -13   5   -9.10   10.60
   7  13  -4   14.30   10.40
  -7  13   4   -1.10   15.90
  -7 -13   4   17.80   11.60
   7 -13  -4    0.70    6.40
  -7  13   3    8.20   10.70
  -7 -13   3  -10.10    9.40
   7 -13  -3    3.00    6.30
   7  13  -2   22.80   16.80
  -7  13   2   15.50   12.00
   7  13  -2   -7.60    9.30
   7 -13  -2   10.70    6.60
  -7 -13   2    6.80   10.80
   7  13  -1   13.80    9.00
  -7 -13   1   24.20   12.10
   7  13   0   33.80   10.70
   7 -13   0   -5.30    8.00
   7  13   1    4.30   11.00
   7 -13   1   17.60    9.40
   7  13   2    9.50   11.80
   7 -13   2    7.50    9.30
   7  13   3    4.60   14.10
   7 -13   3   11.10   11.10
  -7  14   7   -1.00   16.50
  -7 -14   7    2.60   14.60
   7  14  -6   16.10   13.60
  -7 -14   6    2.90   12.60
   7  14  -5    5.50   14.20
  -7  14   5   22.70   15.00
  -7 -14   5   11.50   11.30
  -7  14   4   11.50   13.70
   7 -14  -4    2.20    6.70
  -7  14   3   43.30   12.20
  -7 -14   3   40.30   12.00
   7 -14  -3   55.19    8.70
   7  14  -2   15.30   10.20
   7  14  -2   31.00   11.20
   7 -14  -2   12.50    7.30
  -7 -14   2   10.70   11.40
   7  14  -1   -8.70   10.10
  -7 -14   1   -0.80   11.10
   7  14   0   -3.00   10.90
   7 -14   0   11.60    8.10
   7  14   1   12.20   11.00
   7 -14   1    7.60    9.80
   7  14   2   -6.80   11.10
   7 -14   2   10.60   10.80
  -7 -15   6   10.20   14.80
  -7  15   5   -2.10   15.90
  -7 -15   5   -7.70   12.30
   7  15  -4    5.00   12.60
  -7  15   4   19.00   13.70
   7 -15  -4   -3.00    7.00
   7  15  -3   11.80   11.90
  -7  15   3  -13.60   13.80
  -7 -15   3   -6.00   11.70
   7 -15  -3   -6.20    7.10
   7  15  -2  -17.50   10.40
  -7 -15   2  -18.00   12.80
   7  15  -1   39.60   12.70
   7 -15  -1   54.59    9.90
  -7 -15   1   69.99   23.90
   7  15   0   10.60   11.30
   7 -15   0    9.50    9.10
   7  15   1    6.10   12.60
   7 -15   1   11.80    9.70
   7  15   2   10.80   13.60
   7 -15   2    0.50   10.90
  -7  16   6   16.30   17.40
   7  16  -6    0.10   18.00
  -7 -16   6    2.90   15.70
  -7  16   5   11.30   12.80
   7  16  -5    0.50   13.70
  -7 -16   5    4.50   13.60
  -7  16   4   23.50   14.00
   7  16  -4   24.90   13.20
   7 -16  -4   14.50    8.20
   7  16  -3   42.80   13.60
   7 -16  -3   46.50    9.50
  -7 -16   3   15.10   14.40
   7  16  -2    2.50   11.30
  -7 -16   2    8.40   13.30
   7  16  -1   -8.50   11.30
   7 -16  -1    4.50    8.90
  -7 -16   1   10.80   14.00
   7  16   0   -7.70   10.70
   7 -16   0    4.70    9.50
   7  16   1   -3.10   13.40
   7 -16   1   -6.30   10.50
   7  16   2    5.30   15.00
   7 -16   2    0.90   11.00
   7  17  -6   21.70   20.00
  -7  17   6    3.30   20.90
  -7  17   5    1.10   22.20
   7  17  -5    6.90   15.80
  -7 -17   5    5.90   15.10
   7  17  -4  -10.70   13.00
   7 -17  -4   12.70    8.70
  -7 -17   4   14.60   16.60
   7  17  -3   26.60   13.90
   7 -17  -3   14.90    9.70
  -7 -17   3    8.80   19.30
   7  17  -2   22.20   13.50
  -7 -17   2   12.30   13.60
   7 -17  -2   27.10   10.10
   7  17  -1   23.70   13.50
   7 -17  -1   13.10    9.80
   7  17   0   22.70   13.80
   7 -17   0  -15.70   10.30
   7  17   1   23.00   12.70
   7 -17   1   25.90   11.50
   7  18  -5  -24.10   16.70
  -7 -18   5   14.70   17.30
   7  18  -4   33.00   16.00
  -7 -18   4    7.90   15.40
   7 -18  -4    2.10    9.60
   7  18  -3  -17.60   14.40
  -7 -18   3  -16.80   17.20
   7  18  -2    1.10   14.50
  -7 -18   2    7.70   17.60
   7 -18  -2   -5.40    9.20
   7  18  -1   -2.90   13.10
   7 -18  -1    6.90   10.30
   7  18   0   -1.50   13.60
   7 -18   0   -9.00   10.70
   7  18   1   35.80   15.60
   7 -18   1   -4.50   11.00
   7  19  -5   -4.50   18.90
   7  19  -4    0.50   16.40
  -7 -19   4   13.30   18.00
   7 -19  -4    2.80   12.50
   7  19  -3    6.80   16.00
   7 -19  -3    8.60   12.20
   7  19  -2   32.70   16.00
  -7 -19   2   -4.40   17.10
   7 -19  -2  -10.50   10.00
   7  19  -1   -6.90   15.00
   7 -19  -1   -5.90   10.80
   7  19   0   -0.40   15.60
   7 -19   0    8.60   12.10
   7  19   1  -14.40   13.60
   7  20  -4   -4.70   17.50
  -7 -20   4  -23.70   23.50
   7  20  -3    3.30   17.00
   7 -20  -3    6.50   13.00
  -7 -20   3  -12.70   22.40
  -7  20   2   21.20   11.60
   7  20  -2  -21.10   14.80
   7 -20  -2   11.00   12.00
   7  20  -1  -24.00   15.50
   7 -20  -1   26.80   12.80
   7  20   0   20.10   15.10
   7 -20   0   -6.80   12.40
  -7  21   3   -8.20   11.30
   7  21  -3  -12.30   16.90
   7 -21  -3   -0.40   14.10
   7  21  -2   10.90   16.50
  -7  21   2   20.30   12.70
   7 -21  -2   -0.70   13.70
   7  21  -1   11.80   15.30
  -7  21   1    4.20   13.30
   7 -21  -1   13.30   13.00
  -8   0   7    8.60   12.50
   8   0  -5   14.30    7.40
  -8   0   5   -0.10    9.90
   8   0  -4  322.37   17.10
   8   0  -4  302.27   17.50
  -8   0   4  321.27   24.00
   8   0  -4  263.37   21.20
   8   0  -3   -2.70   10.40
   8   0  -3   11.40    6.80
  -8   0   3   -3.30    8.00
  -8   0   2   20.80    9.80
   8   0  -2   34.00    7.90
   8   0  -2   34.70   10.20
  -8   0   1    7.10   10.20
   8   0   0   40.20    9.50
   8   0   1   -5.60    8.30
   8   0   2   17.00   10.50
   8   0   3    6.40   11.60
  -8   1   7   14.70   12.80
  -8  -1   7   12.60   12.70
  -8   1   5   13.30    9.50
   8   1  -5   15.80    7.50
   8  -1  -5   12.60    7.20
  -8  -1   5    3.80   10.90
  -8   1   4    5.40    8.10
   8   1  -4    4.90    7.50
   8   1  -4   -5.50    6.50
  -8  -1   4   -3.70    9.40
   8  -1  -4   14.10    6.90
   8  -1  -4    3.70   10.40
   8  -1  -4    0.20    7.80
   8   1  -3   14.70    6.50
   8   1  -3    0.60   10.10
  -8   1   3   -0.10    6.00
   8  -1  -3    7.40    6.60
   8  -1  -3   -1.40   10.00
  -8  -1   3    7.20   10.40
  -8   1   2    2.20    7.60
   8   1  -2   -2.30    6.50
   8   1  -2    3.40    9.20
  -8  -1   2   -1.50    8.80
   8  -1  -2   -5.60    8.90
   8  -1  -2    3.20    6.80
  -8   1   1   46.20   10.90
  -8  -1   1   23.80   11.20
   8   1   0    6.50    8.30
   8  -1   0  -13.20    8.00
   8   1   1   25.90    9.70
   8  -1   1   -5.20    8.00
   8   1   2  -12.40    9.40
   8  -1   2    5.30    9.90
   8   1   3   -4.30   11.40
   8  -1   3   11.30   11.70
  -8   2   7    2.40   11.70
  -8  -2   7   -0.90   12.80
  -8   2   5    6.70   10.70
   8   2  -5    8.70    8.10
   8  -2  -5   -2.10    6.30
  -8  -2   5    5.70   10.00
  -8   2   4   18.30    9.80
   8   2  -4   31.80    8.10
   8  -2  -4   20.70   11.70
   8  -2  -4   29.60    9.10
  -8  -2   4   19.10    6.80
   8  -2  -4   31.50    7.30
  -8  -2   4   19.60    9.30
  -8   2   3   26.80   11.20
   8   2  -3   23.80    7.80
   8   2  -3   27.70   17.70
  -8  -2   3   44.20   12.30
   8  -2  -3   29.00   10.10
   8  -2  -3   35.90    7.40
   8   2  -2   72.29   11.30
   8   2  -2   64.59    9.70
  -8  -2   2   86.19   18.40
   8  -2  -2   98.89   12.80
   8  -2  -2   73.39    9.70
  -8   2   1   20.80    9.50
  -8  -2   1   -4.80   11.30
   8   2   0   -6.60    7.80
   8  -2   0   23.30    8.80
   8   2   1    3.30    9.10
   8  -2   1   -2.80    9.10
   8   2   2   11.90   10.90
   8  -2   2   -3.50   10.60
   8   2   3    3.60   10.20
   8  -2   3    8.90   11.30
  -8   3   7   19.40   13.20
  -8  -3   7    2.50   12.60
   8   3  -5   17.10    8.30
  -8   3   5    8.20   10.30
   8  -3  -5   18.60    6.70
  -8  -3   5   16.10    9.70
  -8   3   4   11.30   10.20
   8   3  -4    0.90    7.70
   8  -3  -4   -8.70   11.90
  -8  -3   4   11.00    6.90
   8  -3  -4    0.10    9.30
   8  -3  -4   14.50    6.60
  -8  -3   4   14.90    9.40
   8   3  -3   -0.60    7.60
  -8   3   3   11.10    8.90
   8   3  -3    4.00    9.60
   8  -3  -3   -0.90   10.50
   8  -3  -3   11.20    6.50
  -8  -3   3   10.60   16.40
   8   3  -2    3.80    8.80
  -8   3   2    2.70    9.70
   8   3  -2    9.00    7.00
  -8  -3   2   16.30    9.50
   8  -3  -2   12.50    6.70
   8  -3  -2   10.30    8.90
  -8   3   1    0.80   11.30
   8   3   0   15.90    8.60
   8  -3   0    2.80    8.00
   8   3   1   -8.00    8.80
   8  -3   1   21.50    9.00
   8   3   2  -20.00    9.00
   8  -3   2   -8.00   10.10
   8   3   3   -7.00   11.50
   8  -3   3    2.70   11.50
  -8   4   7    8.60   12.20
  -8  -4   7   -3.90   13.00
  -8  -4   6   -7.00   11.20
  -8   4   5   13.70   11.60
   8   4  -5    6.90    8.30
  -8  -4   5   12.20   10.20
   8  -4  -5    3.80    6.30
  -8   4   4    3.50   10.10
   8   4  -4   10.50    7.80
   8  -4  -4   13.00   11.40
  -8  -4   4   10.90    9.10
   8  -4  -4   -5.40   16.30
   8  -4  -4    6.00    6.50
  -8   4   3    8.60   10.10
   8   4  -3   -3.10    7.90
   8   4  -3    1.40    7.80
   8  -4  -3   -2.50   10.40
  -8  -4   3   -0.10    9.10
   8  -4  -3   -1.40    6.10
  -8   4   2    1.60    7.00
   8   4  -2    6.50   17.40
   8   4  -2    1.20    7.40
   8  -4  -2   -4.70    6.40
  -8  -4   2  -14.40    8.80
   8  -4  -2  -19.40    9.30
  -8  -4   1   19.80   12.00
   8   4   0    8.10    9.10
   8  -4   0   -1.50    7.10
   8   4   1    4.90    9.80
   8  -4   1    9.50    9.10
   8   4   2   21.60   11.40
   8  -4   2  -14.80    9.80
   8   4   3   23.50   11.80
   8  -4   3  -16.70   11.00
  -8   5   7   -5.10   11.80
  -8  -5   7   -3.30   13.30
  -8  -5   6   21.60   12.50
   8   5  -5    8.10    8.90
  -8   5   5    4.50   11.30
   8  -5  -5    8.60    6.30
  -8  -5   5    2.70    9.50
   8   5  -4   16.10    8.80
  -8   5   4   15.00    9.10
   8  -5  -4   10.40    7.10
  -8  -5   4   38.40   20.40
   8  -5  -4   26.20   12.30
   8   5  -3   -3.70    8.10
   8   5  -3    6.70   11.20
  -8   5   3   14.20    7.60
   8  -5  -3   -2.90    6.10
   8  -5  -3   -6.10   10.50
  -8  -5   3   -4.30    9.70
  -8   5   2    5.30   10.80
   8   5  -2    8.60    8.70
   8   5  -2   11.40    8.20
  -8  -5   2   15.80    9.90
   8  -5  -2   17.10    7.60
   8   5  -1    4.30    9.10
  -8  -5   1   13.70   11.30
   8   5   0   13.70    9.30
   8  -5   0    9.10    8.30
   8   5   1   12.30   10.30
   8  -5   1   -3.80    8.70
   8   5   2   21.80   11.50
   8  -5   2    5.60   10.10
   8   5   3   15.70   11.80
   8  -5   3    3.20   11.10
  -8   6   7   10.50   13.30
  -8  -6   7    7.00   13.50
  -8  -6   6   12.80   12.20
   8   6  -5   -3.80    9.30
  -8   6   5   -5.20   13.20
   8  -6  -5    3.70    6.90
  -8  -6   5   20.10   13.80
  -8   6   4   33.00   11.50
   8   6  -4   29.70    8.90
   8  -6  -4   37.40    7.80
  -8  -6   4   30.60   12.00
   8  -6  -4   51.99   11.90
  -8   6   3   12.90    9.60
   8   6  -3  -18.90    9.50
   8   6  -3   17.10    8.70
  -8  -6   3    3.70   10.70
   8  -6  -3    7.20   11.70
   8  -6  -3    2.90    6.30
   8   6  -2   29.80   10.40
  -8   6   2   32.80   12.50
  -8  -6   2   27.60   11.80
   8  -6  -2   45.40    8.60
   8   6  -1    9.70    8.70
  -8  -6   1   -7.00   11.00
   8   6   0   20.70   10.00
   8  -6   0   16.50    8.10
   8   6   1   -3.60    9.90
   8  -6   1   -4.30    8.40
   8   6   2   14.20   12.10
   8  -6   2   11.10   10.10
  -8   7   7    6.30   15.40
  -8  -7   7   23.90   15.10
  -8  -7   6    3.20   12.00
   8   7  -5   12.20   10.50
  -8   7   5   28.60   13.40
  -8  -7   5  -13.70   10.90
  -8   7   4   21.40   10.90
   8   7  -4   13.20    8.80
   8  -7  -4   -8.10    6.90
  -8  -7   4   -3.80   10.60
   8  -7  -4   -5.40   12.80
  -8   7   3   16.00   10.60
   8   7  -3    7.30    8.80
   8   7  -3   20.40   10.30
   8  -7  -3   10.20    6.70
  -8  -7   3   12.20   11.50
  -8   7   2  -19.10    9.90
  -8  -7   2   12.40   11.30
   8  -7  -2   -3.80    7.00
   8   7  -1   10.20    9.50
  -8  -7   1    5.60   12.20
   8   7   0   -5.50    9.50
   8  -7   0   13.20    9.20
   8   7   1   15.20   10.30
   8  -7   1   14.30   10.00
   8   7   2    2.10   11.70
   8  -7   2  -20.80    9.80
  -8   8   7   19.20   17.30
  -8  -8   7   10.30   14.50
  -8  -8   6   10.60   12.70
   8   8  -5   34.30   11.90
  -8   8   5   40.00   14.40
  -8  -8   5   43.80   15.90
   8   8  -4   42.50   10.60
  -8   8   4   89.29   24.00
  -8  -8   4   59.89   14.60
   8  -8  -4   58.39    8.40
   8   8  -3   17.00    9.60
   8   8  -3   23.30   12.40
  -8   8   3   -1.70   10.00
  -8  -8   3   43.60   20.70
   8  -8  -3   10.80    6.90
  -8   8   2   16.60   19.00
   8  -8  -2   23.90    7.90
  -8  -8   2   37.60   13.10
   8   8  -1    6.10    9.70
   8  -8  -1    4.10   12.90
   8   8   0   19.70   10.80
   8  -8   0    4.70    8.50
   8   8   1    6.80   11.20
   8  -8   1   -0.70    9.30
   8   8   2    7.30   11.30
   8  -8   2   -8.00   10.50
  -8   9   7    8.30   18.50
  -8  -9   7  -32.10   13.90
  -8  -9   6   21.90   13.60
  -8   9   5   18.90   13.10
   8   9  -5   15.10   11.50
  -8   9   4  -13.20   11.80
   8   9  -4   -4.40    9.80
  -8  -9   4    7.30   12.70
   8  -9  -4   17.30    7.10
  -8   9   3   -5.60   10.40
  -8  -9   3    7.60   12.20
   8  -9  -3   -3.90    6.90
   8   9  -2   -4.50   10.30
   8  -9  -2   10.60    7.70
  -8  -9   2   15.80   11.60
   8   9  -1   -3.50   10.20
   8  -9  -1   22.30    8.60
   8   9   0    4.50   10.20
   8  -9   0   11.60    9.10
   8   9   1   -3.50   12.20
   8  -9   1  -24.50    8.50
   8   9   2   -2.10   13.00
   8  -9   2   20.20   10.80
  -8  10   7   14.60   20.00
  -8 -10   6    7.90   13.90
  -8  10   5   -8.20   13.00
   8  10  -5   -9.50   12.00
  -8  10   4   26.50   13.30
   8  10  -4   44.00   11.30
  -8 -10   4   34.90   13.80
   8 -10  -4   29.70    7.70
  -8  10   3   -8.80   12.20
   8 -10  -3    1.70    7.80
  -8 -10   3    9.90   12.80
   8  10  -2    1.10   10.70
  -8 -10   2    4.90   12.80
   8  10  -1   13.90   10.50
   8 -10  -1    8.20    8.10
   8  10   0   11.80   11.20
   8 -10   0   -6.30    8.70
   8  10   1   -2.20   12.10
   8 -10   1    0.70   10.50
   8  10   2   -0.90   13.70
   8 -10   2   -9.60   11.20
  -8 -11   6   46.20   15.60
  -8  11   5    4.00   13.90
   8  11  -5    7.50   13.10
  -8 -11   5   15.60   13.80
  -8  11   4   18.70   13.90
   8 -11  -4   12.40    7.90
  -8 -11   4   22.70   14.40
   8  11  -3    7.60   11.10
  -8 -11   3   23.70   13.40
   8 -11  -3    5.60    8.60
   8  11  -2    6.20   11.40
  -8 -11   2   14.60   12.90
   8  11  -1   -7.70   10.00
   8 -11  -1    8.40    8.70
   8  11   0    5.60   12.30
   8 -11   0    5.10    9.60
   8  11   1   14.00   11.70
   8 -11   1   -0.30   10.60
   8  11   2  -17.00   13.20
   8 -11   2   -8.50   10.70
  -8 -12   6   15.60   14.80
  -8  12   5   -2.50   15.20
  -8 -12   5  -13.90   14.90
   8 -12  -4    8.80    8.20
   8  12  -3    9.40   12.20
   8 -12  -3    7.40    8.30
  -8 -12   3   -7.70   12.40
   8  12  -2   12.00   11.00
  -8 -12   2   -4.90   14.50
   8  12  -1   -3.90   11.50
   8 -12  -1   10.80    9.00
   8  12   0   11.10   12.70
   8 -12   0   13.60   10.00
   8  12   1   11.90   13.90
   8 -12   1    7.80   10.60
  -8 -13   6   -9.80   15.10
  -8  13   5  -32.00   20.30
  -8 -13   5   -6.90   16.70
   8  13  -4   16.00   13.40
   8 -13  -4    6.10    8.30
  -8 -13   4   -6.30   15.50
   8  13  -3  -15.10   11.50
   8 -13  -3   -2.90    8.90
  -8 -13   3   46.60   27.60
   8  13  -2   -1.40   12.60
  -8 -13   2   25.00   29.60
   8 -13  -2   -1.60    8.60
   8  13  -1    8.90   12.90
   8 -13  -1   10.80    9.20
   8  13   0   25.80   13.00
   8 -13   0    3.80   10.40
   8  13   1  -11.20   13.60
   8 -13   1   17.50   10.70
   8  14  -5   11.00   16.80
  -8 -14   5    8.80   15.80
   8  14  -4    0.80   13.60
   8 -14  -4    3.20    8.40
   8  14  -3  -18.30   13.20
  -8 -14   3    4.80   15.40
   8  14  -2   11.50   13.60
   8 -14  -2  -13.20    9.00
   8  14  -1   -4.90   12.10
   8 -14  -1   -3.20    9.60
   8  14   0  -25.40   13.50
   8 -14   0   13.90   11.10
   8  14   1    7.60   14.10
   8 -14   1   20.00   11.70
   8  15  -5  -15.50   17.50
  -8 -15   5   -3.20   18.80
   8  15  -4   16.20   14.90
  -8 -15   4    2.60   22.90
   8 -15  -4   -0.10   12.40
   8  15  -3   -6.20   14.20
  -8 -15   3   10.50   16.30
   8  15  -2  -19.10   14.10
   8 -15  -2    7.20   10.50
   8  15  -1   36.50   14.80
   8 -15  -1   19.30   11.20
   8  15   0   21.00   14.60
   8 -15   0   -4.40   11.80
   8  16  -5   25.30   19.00
  -8 -16   4   17.10   21.40
   8  16  -3    2.00   15.70
   8 -16  -3    9.60   12.30
   8  16  -2    8.20   14.50
   8 -16  -2   -7.60   11.40
   8  16  -1   13.90   14.20
   8 -16  -1   -1.20   12.30
   8  16   0   10.60   15.10
   8 -16   0   26.30   13.60
   8  17  -4   13.30   17.20
   8  17  -3    8.10   17.50
   8 -17  -3  -15.60   13.50
   8  17  -2  -17.30   15.50
   8 -17  -2   14.50   13.00
   8  17  -1    5.80   14.70
   8 -17  -1   22.80   12.40
   8  18  -3   21.40   18.70
   8  18  -2   -4.50   16.40
   8 -18  -2   -5.30   13.90
  -9   0   6   32.90   20.00
  -9   0   5    2.00   12.40
  -9   0   4  -12.20   11.30
   9   0  -4  -10.90    9.80
   9   0  -3    1.70    9.80
   9   0  -2   21.40    9.90
   9   0  -1   15.30   10.10
   9   0   0   -1.60   11.20
   9   0   1   18.80   12.20
  -9   1   6   26.70   17.80
  -9  -1   6    4.30   18.00
  -9   1   5    6.00   13.40
  -9  -1   5   -4.10   15.20
   9   1  -4    2.80   10.20
  -9   1   4    4.60   12.00
  -9  -1   4   23.90   22.90
   9  -1  -4    7.40    9.90
   9  -1  -3    7.60    9.50
   9  -1  -2  -11.30    9.20
   9   1  -1  -16.60    9.80
   9  -1  -1  -14.20    9.60
   9   1   0    2.90   11.40
   9  -1   0   22.80   11.20
   9   1   1   17.70   11.70
   9  -1   1   11.80   11.50
  -9   2   6  -22.90   15.70
  -9  -2   6   -7.20   16.10
   9   2  -5   -8.00   14.70
  -9   2   5    6.00   14.10
  -9  -2   5   11.50   14.70
   9   2  -4    3.80   10.10
  -9   2   4    4.00   15.50
   9  -2  -4   -4.30    9.00
  -9  -2   4  -47.80   24.10
   9  -2  -3    4.30    9.60
   9   2  -2   12.50   10.30
   9  -2  -2  -14.90    9.30
   9   2  -1    3.90   10.30
   9  -2  -1    0.60    9.80
   9   2   0  -12.00   10.80
   9  -2   0    2.40   10.60
   9   2   1   -3.70   11.60
   9  -2   1   -0.50   12.70
  -9   3   6   -3.50   18.60
  -9  -3   6  -23.80   16.40
   9   3  -5   20.00   12.80
  -9   3   5  -25.30   14.90
  -9   3   4   -7.30   19.60
   9   3  -4   -7.10   10.50
  -9  -3   4   20.40   22.70
   9  -3  -4   14.50   10.00
   9  -3  -3   -0.80    9.70
  -9  -3   3   35.00   26.00
   9   3  -2    4.70   10.60
   9  -3  -2   -0.20    9.10
   9   3  -1    4.20   10.50
   9  -3  -1   11.60    9.60
   9   3   0   13.60   12.50
   9  -3   0  -17.60   10.80
   9   3   1   -2.20   12.30
   9  -3   1   -2.20   12.50
  -9   4   6   -0.10   18.90
  -9  -4   6   10.80   18.20
  -9   4   5    9.90   16.30
   9   4  -5   -8.50   11.90
  -9  -4   5   -1.60   14.20
  -9   4   4    7.90   16.30
   9   4  -4   16.10   12.10
   9  -4  -4    6.30    9.80
  -9  -4   4  -12.90   13.30
   9  -4  -3    4.10    9.30
   9   4  -2   21.20   11.80
   9  -4  -2    3.60    9.00
   9   4  -1   -2.80   10.60
   9  -4  -1   -7.50    9.60
   9   4   0   -9.40   11.40
   9  -4   0  -16.50   11.30
   9   4   1    1.70   12.00
   9  -4   1    3.70   12.10
  -9   5   6   -4.90   18.90
  -9  -5   6  -19.60   17.60
   9   5  -5   -4.50   11.20
  -9   5   5    9.10   15.80
   9   5  -4   15.50   12.40
  -9  -5   4  -22.90   13.30
   9  -5  -4  -17.40    8.90
   9   5  -3  -15.30   17.30
   9  -5  -3   10.20    9.70
   9   5  -2  -16.10   10.40
   9  -5  -2   29.20    9.70
   9   5  -1    8.00   11.90
   9  -5  -1   22.50   10.80
   9   5   0   -0.80   12.10
   9  -5   0  -14.50   11.10
   9   5   1   17.00   12.30
   9  -5   1   16.60   11.50
  -9   6   6  -14.20   20.60
  -9  -6   6   -8.80   18.30
  -9   6   5   12.80   16.40
   9   6  -5   16.00   12.70
  -9  -6   4   39.20   27.30
   9   6  -3    7.90   11.20
   9  -6  -3   -0.30   10.90
   9   6  -2   17.20   12.40
   9  -6  -2   21.90   10.20
   9   6  -1    6.40   12.60
   9  -6  -1   13.40   11.10
   9   6   0   19.20   12.10
   9  -6   0   13.50   11.80
   9   6   1   12.00   13.40
   9  -6   1   -1.80   12.00
  -9   7   6    6.20   20.10
  -9  -7   6   12.40   19.20
   9   7  -5   -4.60   12.80
   9  -7  -4    9.20    9.40
  -9  -7   4   -2.10   15.80
   9   7  -3  -10.20   11.30
   9   7  -2   19.20   13.10
   9  -7  -2    0.20   10.00
   9   7  -1    4.80   12.90
   9  -7  -1   17.10   11.00
   9   7   0    4.90   13.30
   9  -7   0   15.60   11.50
   9   8  -5    9.60   14.30
  -9  -8   5    0.60   19.20
   9  -8  -4  -11.30    9.50
  -9  -8   4   -5.00   14.90
   9   8  -3   14.00   13.10
   9   8  -2   -5.30   12.50
   9  -8  -2    6.80   10.20
   9   8  -1    1.00   13.60
   9  -8  -1   17.80   10.50
   9   8   0   17.60   13.60
   9  -8   0    6.00   11.70
  -9  -9   5    2.70   20.50
   9   9  -4    2.30   15.00
  -9  -9   4    1.80   17.80
   9  -9  -4  -21.30   10.40
   9   9  -3   -9.70   12.50
   9   9  -2   17.40   13.90
   9  -9  -2   15.00   11.10
   9   9  -1   19.30   13.70
   9  -9  -1  -16.70   10.60
   9   9   0   -9.60   13.30
   9  -9   0  -15.40   11.10
  -9 -10   5   36.10   22.30
   9  10  -4   -4.20   15.30
   9  10  -3   24.20   13.50
   9  10  -2   -4.80   14.30
   9 -10  -2   14.30   11.40
   9  10  -1   20.30   14.20
   9 -10  -1    3.10   11.60
   9  10   0    5.90   13.90
   9 -10   0   11.00   13.20
   9  11  -5   11.30   18.40
   9  11  -4    2.80   16.40
   9  11  -3  -13.40   13.50
   9 -11  -3  -16.70   11.60
   9  11  -2   -0.30   15.20
   9 -11  -2   -2.90   11.80
   9  11  -1   19.90   15.00
   9 -11  -1   -7.80   11.70
   9  12  -4    5.20   18.10
   9  12  -3   11.30   15.30
   9 -12  -3    7.10   13.50
   9  12  -2   16.90   16.10
   9 -12  -2   36.90   13.00
   9  12  -1  -35.70   14.70
   9 -12  -1   13.90   12.20
   9  13  -4   17.70   19.80
   9  13  -3  -32.90   15.20
   9 -13  -3   10.30   13.90
   9  13  -2   18.80   16.50
   9 -13  -2   -1.70   13.80
  10   0  -3   14.50   15.20
  10   0  -2   13.30   14.90
  10   1  -4   11.60   17.30
  10   1  -3   -6.20   15.90
  10  -1  -3  -15.90   14.20
  10   1  -2  -40.60   14.00
  10  -1  -2   16.30   14.70
  10   2  -4  -24.40   16.50
  10   2  -3    9.90   16.30
  10  -2  -3   -9.90   14.70
  10   2  -2  -20.30   13.90
  10  -2  -2    4.20   14.00
  10   3  -4  -11.90   16.60
  10   3  -3   -0.30   16.70
  10  -3  -3  -14.50   14.20
  10   3  -2   27.30   15.40
  10  -3  -2    6.50   14.60
  10   4  -4   -3.40   17.30
  10   4  -3   -3.50   16.30
  10  -4  -3    3.80   15.70
  10   4  -2   -5.70   14.60
  10   5  -3  -11.80   16.90
   0   0   0    0.00    0.00

_computing_structure_solution     'SHELXT 2014/5 (Sheldrick, 2014)'
;
_shelx_hkl_checksum              784
loop_
_space_group_symop_operation_xyz
'x, y, z'
'-x, y+1/2, -z+1/2'
'-x, -y, -z'
'x, -y-1/2, z-1/2'
loop_
_atom_site_label
_atom_site_type_symbol
_atom_site_fract_x
_atom_site_fract_y
_atom_site_fract_z
_atom_site_U_iso_or_equiv
_atom_site_adp_type
_atom_site_occupancy
_atom_site_site_symmetry_order
_atom_site_calc_flag
_atom_site_refinement_flags_posn
_atom_site_refinement_flags_adp
_atom_site_refinement_flags_occupancy
_atom_site_disorder_assembly
_atom_site_disorder_group
C1 C 0.3181(5) 0.28099(17) 0.0018(5) 0.0472(10) Uani 1 1 d . . . . .
C2 C 0.1389(5) 0.26734(16) -0.0417(5) 0.0475(10) Uani 1 1 d . . . . .
C3 C 0.0524(5) 0.32139(16) -0.0574(5) 0.0474(10) Uani 1 1 d . . . . .
C4 C 0.1694(5) 0.42499(15) -0.0034(5) 0.0421(9) Uani 1 1 d . . . . .
H4A H 0.053426 0.438577 -0.083744 0.050 Uiso 1 1 calc R U . . .
H4B H 0.262061 0.445120 -0.040826 0.050 Uiso 1 1 calc R U . . .
C5 C 0.1888(4) 0.43894(14) 0.1973(5) 0.0330(8) Uani 1 1 d . . . . .
C6 C 0.3052(4) 0.44738(14) 0.4892(5) 0.0340(8) Uani 1 1 d . . . . .
N1 N 0.1845(4) 0.36172(12) -0.0270(4) 0.0365(7) Uani 1 1 d . . . . .
N2 N 0.3497(4) 0.33731(15) 0.0125(4) 0.0485(8) Uani 1 1 d . . . . .
N3 N 0.0535(4) 0.45546(14) 0.2494(4) 0.0465(8) Uani 1 1 d . . . . .
N4 N 0.3471(3) 0.43320(11) 0.3392(3) 0.0296(6) Uani 1 1 d . . . . .
H4 H 0.450036 0.422698 0.331496 0.036 Uiso 1 1 calc R U . . .
N5 N 0.3890(4) 0.45224(13) 0.6765(4) 0.0436(8) Uani 1 1 d . . . . .
N6 N 0.5619(5) 0.43962(13) 0.7349(4) 0.0447(8) Uani 1 1 d . . . . .
N8 N 0.0538(8) 0.21277(18) -0.0617(7) 0.0716(12) Uani 1 1 d . . . . .
N9 N -0.1196(5) 0.33481(18) -0.0933(7) 0.0951(16) Uani 1 1 d . . . . .
H9A H -0.152235 0.370946 -0.098109 0.114 Uiso 1 1 calc R U . . .
H9B H -0.198597 0.307382 -0.111639 0.114 Uiso 1 1 calc R U . . .
O3A O 0.1204(12) 0.1712(3) -0.105(4) 0.097(6) Uani 0.59(4) 1 d . . P A 1
O4A O -0.097(2) 0.2086(6) -0.049(4) 0.099(5) Uani 0.59(4) 1 d . . P A 1
O3B O 0.155(3) 0.1722(5) 0.025(5) 0.098(7) Uani 0.41(4) 1 d . . P A 2
O4B O -0.115(4) 0.2154(10) -0.154(5) 0.122(7) Uani 0.41(4) 1 d . . P A 2
O5 O 0.1303(3) 0.46176(11) 0.4470(3) 0.0479(7) Uani 1 1 d . . . . .
O6 O 0.6518(3) 0.42583(12) 0.6317(4) 0.0522(7) Uani 1 1 d . . . . .
O7 O 0.6384(4) 0.44315(14) 0.9092(4) 0.0721(9) Uani 1 1 d . . . . .
O8 O 0.6885(4) 0.40339(14) 0.2797(4) 0.0725(9) Uani 1 1 d . . . . .
H8A H 0.709240 0.404844 0.174509 0.109 Uiso 1 1 d R U . . .
H8B H 0.775744 0.383821 0.350950 0.109 Uiso 1 1 d R U . . .
N7 N 0.4708(7) 0.2417(3) 0.0358(9) 0.0957(16) Uani 1 1 d . . . . .
O1A O 0.585(2) 0.2519(9) -0.013(3) 0.222(12) Uani 0.547(13) 1 d . . P B 1
O2A O 0.4674(11) 0.1991(4) 0.1462(16) 0.128(5) Uani 0.547(13) 1 d . . P B 1
O1B O 0.630(2) 0.2664(7) 0.1191(19) 0.137(7) Uani 0.453(13) 1 d . . P B 2
O2B O 0.4676(14) 0.2022(4) -0.0623(14) 0.091(4) Uani 0.453(13) 1 d . . P B 2
loop_
_atom_site_aniso_label
_atom_site_aniso_U_11
_atom_site_aniso_U_22
_atom_site_aniso_U_33
_atom_site_aniso_U_23
_atom_site_aniso_U_13
_atom_site_aniso_U_12
C1 0.055(3) 0.039(3) 0.047(2) -0.0021(18) 0.0142(18) 0.017(2)
C2 0.062(3) 0.030(2) 0.049(2) -0.0093(17) 0.0154(19) -0.0025(19)
C3 0.046(2) 0.036(2) 0.055(2) -0.0099(18) 0.0084(18) -0.0021(19)
C4 0.054(2) 0.027(2) 0.0399(19) 0.0029(15) 0.0063(16) 0.0030(17)
C5 0.036(2) 0.0202(18) 0.0438(19) 0.0015(15) 0.0132(16) 0.0022(15)
C6 0.036(2) 0.0232(18) 0.047(2) -0.0001(15) 0.0178(16) -0.0018(15)
N1 0.0378(17) 0.0295(17) 0.0360(15) -0.0030(12) 0.0026(12) 0.0030(14)
N2 0.0429(19) 0.045(2) 0.056(2) -0.0047(15) 0.0124(15) 0.0052(15)
N3 0.0357(17) 0.046(2) 0.056(2) -0.0047(15) 0.0108(15) 0.0061(14)
N4 0.0259(14) 0.0304(16) 0.0359(15) -0.0016(12) 0.0144(12) 0.0030(11)
N5 0.053(2) 0.046(2) 0.0373(17) -0.0038(13) 0.0213(15) -0.0059(15)
N6 0.056(2) 0.0374(19) 0.0381(18) 0.0012(14) 0.0111(16) -0.0101(16)
N8 0.098(3) 0.040(3) 0.084(3) -0.016(2) 0.040(3) -0.011(3)
N9 0.041(2) 0.059(3) 0.172(5) -0.029(3) 0.014(2) -0.0092(19)
O3A 0.114(6) 0.038(4) 0.129(14) -0.024(5) 0.025(6) 0.009(3)
O4A 0.089(7) 0.060(5) 0.160(13) -0.027(7) 0.056(8) -0.025(4)
O3B 0.169(12) 0.034(6) 0.106(17) -0.006(7) 0.064(12) -0.009(7)
O4B 0.164(17) 0.070(9) 0.127(16) -0.034(10) 0.039(13) -0.069(9)
O5 0.0408(15) 0.0537(17) 0.0561(17) -0.0073(12) 0.0253(13) 0.0051(12)
O6 0.0462(16) 0.0623(19) 0.0455(15) -0.0027(13) 0.0103(13) 0.0051(13)
O7 0.087(2) 0.089(2) 0.0307(15) -0.0005(14) 0.0038(14) -0.0267(18)
O8 0.0619(18) 0.092(2) 0.0652(19) 0.0093(16) 0.0215(15) 0.0126(17)
N7 0.077(4) 0.086(4) 0.112(4) -0.017(4) 0.010(3) 0.041(3)
O1A 0.113(12) 0.24(2) 0.37(3) 0.11(2) 0.159(17) 0.094(15)
O2A 0.122(7) 0.083(6) 0.176(11) 0.057(6) 0.041(6) 0.073(5)
O1B 0.109(10) 0.112(10) 0.141(10) -0.048(8) -0.033(7) 0.072(8)
O2B 0.116(8) 0.041(5) 0.128(9) -0.026(5) 0.054(6) 0.028(5)
loop_
_atom_type_symbol
_atom_type_description
_atom_type_scat_dispersion_real
_atom_type_scat_dispersion_imag
_atom_type_scat_source
C C 0.0033 0.0016 'International Tables Vol C Tables 4.2.6.8 and 6.1.1.4'
H H 0.0000 0.0000 'International Tables Vol C Tables 4.2.6.8 and 6.1.1.4'
N N 0.0061 0.0033 'International Tables Vol C Tables 4.2.6.8 and 6.1.1.4'
O O 0.0106 0.0060 'International Tables Vol C Tables 4.2.6.8 and 6.1.1.4'
loop_
_geom_angle_atom_site_label_1
_geom_angle_atom_site_label_2
_geom_angle_atom_site_label_3
_geom_angle
_geom_angle_site_symmetry_1
_geom_angle_site_symmetry_3
_geom_angle_publ_flag
N2 C1 C2 113.4(3) . . ?
N2 C1 N7 117.8(4) . . ?
C2 C1 N7 128.8(4) . . ?
C1 C2 C3 104.7(3) . . ?
C1 C2 N8 130.2(4) . . ?
C3 C2 N8 125.1(4) . . ?
N9 C3 N1 123.7(4) . . ?
N9 C3 C2 131.2(4) . . ?
N1 C3 C2 105.1(3) . . ?
N1 C4 C5 110.1(3) . . ?
N1 C4 H4A 109.6 . . ?
C5 C4 H4A 109.6 . . ?
N1 C4 H4B 109.6 . . ?
C5 C4 H4B 109.6 . . ?
H4A C4 H4B 108.1 . . ?
N3 C5 N4 115.2(3) . . ?
N3 C5 C4 121.8(3) . . ?
N4 C5 C4 123.0(3) . . ?
N4 C6 O5 111.7(3) . . ?
N4 C6 N5 137.6(3) . . ?
O5 C6 N5 110.7(3) . . ?
C3 N1 N2 112.8(3) . . ?
C3 N1 C4 127.3(3) . . ?
N2 N1 C4 119.2(3) . . ?
C1 N2 N1 103.9(3) . . ?
C5 N3 O5 102.7(3) . . ?
C6 N4 C5 103.5(3) . . ?
C6 N4 H4 128.3 . . ?
C5 N4 H4 128.3 . . ?
N6 N5 C6 116.2(3) . . ?
O6 N6 O7 118.8(3) . . ?
O6 N6 N5 125.1(3) . . ?
O7 N6 N5 116.0(3) . . ?
O3A N8 O4A 118.9(9) . . ?
O3B N8 O4B 133.4(18) . . ?
O3A N8 C2 120.6(7) . . ?
O4A N8 C2 120.2(7) . . ?
O3B N8 C2 113.2(12) . . ?
O4B N8 C2 113.1(11) . . ?
C3 N9 H9A 120.0 . . ?
C3 N9 H9B 120.0 . . ?
H9A N9 H9B 120.0 . . ?
C6 O5 N3 106.9(2) . . ?
H8A O8 H8B 104.5 . . ?
O1A N7 O2A 124.1(10) . . ?
O2B N7 O1B 117.2(9) . . ?
O1A N7 C1 121.8(11) . . ?
O2B N7 C1 121.0(7) . . ?
O2A N7 C1 113.6(6) . . ?
O1B N7 C1 114.9(7) . . ?
loop_
_geom_bond_atom_site_label_1
_geom_bond_atom_site_label_2
_geom_bond_distance
_geom_bond_site_symmetry_2
_geom_bond_publ_flag
C1 N2 1.305(5) . ?
C1 C2 1.374(5) . ?
C1 N7 1.452(6) . ?
C2 C3 1.393(5) . ?
C2 N8 1.397(6) . ?
C3 N9 1.325(5) . ?
C3 N1 1.350(5) . ?
C4 N1 1.462(4) . ?
C4 C5 1.491(5) . ?
C4 H4A 0.9700 . ?
C4 H4B 0.9700 . ?
C5 N3 1.293(4) . ?
C5 N4 1.363(4) . ?
C6 N4 1.301(4) . ?
C6 O5 1.347(4) . ?
C6 N5 1.351(4) . ?
N1 N2 1.354(4) . ?
N3 O5 1.415(4) . ?
N4 H4 0.8600 . ?
N5 N6 1.319(4) . ?
N6 O6 1.235(4) . ?
N6 O7 1.254(4) . ?
N8 O3A 1.174(12) . ?
N8 O4A 1.215(14) . ?
N8 O3B 1.26(2) . ?
N8 O4B 1.29(3) . ?
N9 H9A 0.8600 . ?
N9 H9B 0.8600 . ?
O8 H8A 0.8500 . ?
O8 H8B 0.8498 . ?
N7 O1A 1.086(13) . ?
N7 O2B 1.156(9) . ?
N7 O2A 1.279(10) . ?
N7 O1B 1.333(17) . ?
loop_
_geom_hbond_atom_site_label_D
_geom_hbond_atom_site_label_H
_geom_hbond_atom_site_label_A
_geom_hbond_distance_DH
_geom_hbond_distance_HA
_geom_hbond_distance_DA
_geom_hbond_angle_DHA
_geom_hbond_site_symmetry_A
_geom_hbond_publ_flag
C4 H4B N5 0.97 2.60 3.405(5) 140.5 1_554 yes
N4 H4 O8 0.86 2.07 2.923(4) 172.5 . yes
N9 H9A N6 0.86 2.70 3.403(5) 140.2 1_454 yes
N9 H9A O6 0.86 2.46 3.072(5) 128.5 1_454 yes
N9 H9A O7 0.86 2.34 3.117(5) 151.1 1_454 yes
N9 H9B O4A^a 0.86 2.39 2.895(14) 118.3 . yes
N9 H9B O4B^b 0.86 2.25 2.76(2) 118.3 . yes
N9 H9B O1A^a 0.86 2.41 3.188(18) 150.8 1_455 yes
N9 H9B O1B^b 0.86 2.66 3.27(2) 129.4 1_455 yes
N9 H9B O1B^b 0.86 2.64 3.340(14) 138.9 4_465 yes
O8 H8A O7 0.85 2.07 2.818(4) 145.7 1_554 yes
O8 H8B O4A^a 0.85 2.35 3.105(14) 148.0 4_666 yes
O8 H8B O4B^b 0.85 2.42 3.08(2) 134.4 4_666 yes
