#------------------------------------------------------------------------------
#$Date: 2022-02-04 21:40:31 +0200 (Fri, 04 Feb 2022) $
#$Revision: 272673 $
#$URL: file:///home/coder/svn-repositories/cod/cif/7/70/92/7709245.cif $
#------------------------------------------------------------------------------
#
# This file is available in the Crystallography Open Database (COD),
# http://www.crystallography.net/
#
# All data on this site have been placed in the public domain by the
# contributors.
#
data_7709245
loop_
_publ_author_name
'Zhang, Ji-Rui'
'Zhang, Hao-Yi'
'Guo, Jia-Hui'
'Liu, Zi-Han'
'Ma, Cheng-Yu'
'Yang, Xiao-Gang'
'Lu, Xiao-Yan'
'Qin, Jian-Hua'
'Ma, Lu-Fang'
_publ_section_title
;
 An anthracene based metal-organic framework showing efficient
 angle-dependent polarized emission, luminescence thermometry, and
 photoelectronic response.
;
_journal_issue                   5
_journal_name_full
'Dalton transactions (Cambridge, England : 2003)'
_journal_page_first              1769
_journal_page_last               1774
_journal_paper_doi               10.1039/d1dt04077d
_journal_volume                  51
_journal_year                    2022
_chemical_formula_moiety         '0.25(C112 H72 Cd4 O20)'
_chemical_formula_sum            'C28 H18 Cd O5'
_chemical_formula_weight         546.86
_space_group_crystal_system      monoclinic
_space_group_IT_number           15
_space_group_name_Hall           '-I 2ya'
_space_group_name_H-M_alt        'I 1 2/a 1'
_symmetry_Int_Tables_number      15
_atom_sites_solution_primary     direct
_audit_creation_date             2019-07-18
_audit_creation_method
;
Olex2 1.2
(compiled 2018.05.29 svn.r3508 for OlexSys, GUI svn.r5506)
;
_audit_update_record
;
2021-11-24 deposited with the CCDC.	2022-01-05 downloaded from the CCDC.
;
_cell_angle_alpha                90
_cell_angle_beta                 95.667(7)
_cell_angle_gamma                90
_cell_formula_units_Z            4
_cell_length_a                   7.6683(6)
_cell_length_b                   10.3179(13)
_cell_length_c                   33.709(2)
_cell_measurement_reflns_used    2817
_cell_measurement_temperature    293(2)
_cell_measurement_theta_max      27.9710
_cell_measurement_theta_min      3.6250
_cell_volume                     2654.0(4)
_computing_cell_refinement       'CrysAlisPro 1.171.39.46 (Rigaku OD, 2018)'
_computing_data_collection       'CrysAlisPro 1.171.39.46 (Rigaku OD, 2018)'
_computing_data_reduction        'CrysAlisPro 1.171.39.46 (Rigaku OD, 2018)'
_computing_molecular_graphics    'Olex2 (Dolomanov et al., 2009)'
_computing_publication_material  'Olex2 (Dolomanov et al., 2009)'
_computing_structure_refinement  'olex2.refine (Bourhis et al., 2015)'
_computing_structure_solution    'ShelXS (Sheldrick, 2008)'
_diffrn_ambient_temperature      293(2)
_diffrn_detector                 'CCD plate'
_diffrn_detector_area_resol_mean 8.0584
_diffrn_detector_type            EosS2
_diffrn_measured_fraction_theta_full 1.0052
_diffrn_measured_fraction_theta_max 0.8427
_diffrn_measurement_details
;
List of Runs (angles in degrees, time in seconds):

  # Type    Start    End  Width  t~exp~   \w     \q     \k     \f   Frames
#--------------------------------------------------------------------------
  1  \w    -13.00  14.00   1.00   34.94    --  -13.80 -99.00 -60.00   27
  2  \w    -81.00   2.00   1.00   34.94    --  -13.80 -57.00   0.00   83
  3  \w    -40.00   1.00   1.00   34.94    --  -13.80 -57.00 120.00   41
  4  \w    -46.00  28.00   1.00   34.94    --   14.74 -57.00-120.00   74
;
_diffrn_measurement_device       'four-circle diffractometer'
_diffrn_measurement_device_type
'SuperNova, Single source at offset/far, EosS2'
_diffrn_measurement_method       '\w scans'
_diffrn_orient_matrix_type
'CrysAlisPro convention (1999,Acta A55,543-557)'
_diffrn_orient_matrix_UB_11      0.0799384000
_diffrn_orient_matrix_UB_12      0.0005256000
_diffrn_orient_matrix_UB_13      0.0125157000
_diffrn_orient_matrix_UB_21      -0.0013399000
_diffrn_orient_matrix_UB_22      -0.0686883000
_diffrn_orient_matrix_UB_23      0.0007616000
_diffrn_orient_matrix_UB_31      0.0473465000
_diffrn_orient_matrix_UB_32      -0.0026451000
_diffrn_orient_matrix_UB_33      -0.0170363000
_diffrn_radiation_monochromator  mirror
_diffrn_radiation_probe          x-ray
_diffrn_radiation_type           'Mo K\a'
_diffrn_radiation_wavelength     0.71073
_diffrn_reflns_av_R_equivalents  0.0622
_diffrn_reflns_av_unetI/netI     0.1113
_diffrn_reflns_limit_h_max       7
_diffrn_reflns_limit_h_min       -10
_diffrn_reflns_limit_k_max       13
_diffrn_reflns_limit_k_min       -8
_diffrn_reflns_limit_l_max       42
_diffrn_reflns_limit_l_min       -40
_diffrn_reflns_number            5838
_diffrn_reflns_theta_full        28.0751
_diffrn_reflns_theta_max         28.08
_diffrn_reflns_theta_min         3.32
_diffrn_source                   'micro-focus sealed X-ray tube'
_diffrn_source_type              'SuperNova (Mo) X-ray Source'
_exptl_absorpt_coefficient_mu    0.855
_exptl_absorpt_correction_T_max  1.00000
_exptl_absorpt_correction_T_min  0.77111
_exptl_absorpt_correction_type   multi-scan
_exptl_absorpt_process_details
;
CrysAlisPro 1.171.39.46 (Rigaku Oxford Diffraction, 2018)
Empirical absorption correction using spherical harmonics,
 implemented in SCALE3 ABSPACK scaling algorithm.
;
_exptl_crystal_colour            yellow
_exptl_crystal_colour_primary    yellow
_exptl_crystal_density_diffrn    1.3685
_exptl_crystal_description       block
_exptl_crystal_F_000             1093.3024
_exptl_crystal_size_max          0.28
_exptl_crystal_size_mid          0.25
_exptl_crystal_size_min          0.23
_refine_diff_density_max         4.5183
_refine_diff_density_min         -1.7439
_refine_diff_density_rms         0.3216
_refine_ls_d_res_high            0.7551
_refine_ls_d_res_low             6.1352
_refine_ls_goodness_of_fit_ref   1.0525
_refine_ls_hydrogen_treatment    constr
_refine_ls_matrix_type           full
_refine_ls_number_constraints    19
_refine_ls_number_parameters     155
_refine_ls_number_reflns         2727
_refine_ls_number_restraints     0
_refine_ls_restrained_S_all      1.0525
_refine_ls_R_factor_all          0.1538
_refine_ls_R_factor_gt           0.1011
_refine_ls_shift/su_max          0.0000
_refine_ls_shift/su_mean         0.0000
_refine_ls_structure_factor_coef Fsqd
_refine_ls_weighting_details
'w=1/[\s^2^(Fo^2^)+(0.2P)^2^] where P=(Fo^2^+2Fc^2^)/3'
_refine_ls_weighting_scheme      calc
_refine_ls_wR_factor_gt          0.2764
_refine_ls_wR_factor_ref         0.3240
_reflns_Friedel_coverage         0.0
_reflns_limit_h_max              10
_reflns_limit_h_min              0
_reflns_limit_k_max              13
_reflns_limit_k_min              0
_reflns_limit_l_max              40
_reflns_limit_l_min              -42
_reflns_number_gt                1677
_reflns_number_total             2727
_reflns_threshold_expression     I>=2u(I)
_iucr_refine_instructions_details
;
TITL LXY-34 in I2/a #15
REM reset to I2/a #15
CELL 0.71073 7.668263 10.317875 33.70926 90 95.6667 90
ZERR 4 0.000621 0.001267 0.001983 0 0.007 0
LATT 2
SYMM 0.5-X,+Y,-Z
SFAC C H Cd O
UNIT 112 72 4 20

L.S. 4
PLAN  20
SIZE 0.28 0.25 0.23
TEMP 20(2)
BOND 
FMAP 2
ACTA 
WGHT 0.2 0
FVAR 2.188586
REM <olex2.extras>
REM <HklSrc "%.\\LXY-34.hkl">
REM </olex2.extras>

Cd1   3     0.25000  0.97466  0.50000  10.50000  0.06561  0.05611  0.03127 =
 0.00000  0.03905  0.00000 
O3    4     0.25000  1.19530  0.50000  10.50000  0.14781  0.05515  0.04185 =
 0.00000  0.02482  0.00000 
AFIX 7
H3a   2     0.25870  1.24573  0.52004  10.50000 -1.50000 
H3b   2     0.24130  1.24573  0.47996  10.50000 -1.50000 
AFIX 0
O1    4     0.32645  0.82569  0.45253  11.00000  0.05241  0.06993  0.03899 =
 -0.00072  0.03075 -0.00101 
O2    4     0.52154  0.99020  0.54399  11.00000  0.07192  0.07242  0.03414 =
 -0.02519  0.03513 -0.01814 
C8    1     0.85654  0.72372  0.28566  11.00000  0.05311  0.04362  0.03983 =
 -0.00965  0.03248 -0.00327 
C6    1     0.56171  0.71938  0.34914  11.00000  0.07130  0.05227  0.03871 =
 -0.02339  0.03164 -0.00409 
AFIX 43
H6    2     0.55651  0.63517  0.33926  11.00000 -1.20000 
AFIX 0
C5    1     0.63244  0.81573  0.32694  11.00000  0.04714  0.05999  0.04139 =
 -0.01859  0.02807 -0.01699 
C4    1     0.64352  0.94001  0.34259  11.00000  0.08046  0.06631  0.04656 =
 -0.02617  0.05233 -0.02916 
AFIX 43
H4    2     0.69382  1.00521  0.32845  11.00000 -1.20000 
AFIX 0
C1    1     0.43527  0.90310  0.43841  11.00000  0.04519  0.07274  0.02785 =
 -0.00244  0.02246  0.00288 
C10   1     0.58543  0.81137  0.25197  11.00000  0.05391  0.04646  0.03885 =
 -0.01777  0.02764 -0.00401 
C12   1     0.32202  0.90383  0.21849  11.00000  0.03969  0.06799  0.07078 =
 -0.00406  0.01277  0.00689 
AFIX 43
H12   2     0.21586  0.94673  0.21945  11.00000 -1.20000 
AFIX 0
C13   1     0.37729  0.86798  0.18095  11.00000  0.04612  0.06598  0.05426 =
 0.01041  0.00845 -0.00487 
AFIX 43
H13   2     0.30653  0.88631  0.15761  11.00000 -1.20000 
AFIX 0
C3    1     0.58141  0.96973  0.37886  11.00000  0.07462  0.05688  0.04113 =
 -0.02023  0.04041 -0.01670 
AFIX 43
H3    2     0.58631  1.05434  0.38842  11.00000 -1.20000 
AFIX 0
C14   1     0.52976  0.80840  0.17920  11.00000  0.06272  0.06651  0.03709 =
 -0.01270  0.02433 -0.00833 
AFIX 43
H14   2     0.56430  0.78663  0.15437  11.00000 -1.20000 
AFIX 0
C2    1     0.51136  0.87069  0.40085  11.00000  0.04126  0.07543  0.02998 =
 -0.00587  0.02797 -0.00822 
C9    1     0.69415  0.78309  0.28738  11.00000  0.05664  0.04464  0.03298 =
 -0.01584  0.02868 -0.01192 
C11   1     0.41947  0.87701  0.25198  11.00000  0.05461  0.04788  0.05862 =
 -0.00901  0.03569 -0.00176 
AFIX 43
H11   2     0.38012  0.90102  0.27616  11.00000 -1.20000 
AFIX 0
C7    1     0.49859  0.74391  0.38545  11.00000  0.06545  0.05046  0.04141 =
 -0.00800  0.03765 -0.00964 
AFIX 43
H7    2     0.44876  0.67800  0.39939  11.00000 -1.20000 
AFIX 0
HKLF 4

END
Q1 1 0.25 0.972222 0.5 11 0.05 4.52
Q2 1 0.02 1.305556 0.575 11 0.05 3.07

  REM The information below was added by Olex2.
  REM
  REM R1 = 0.1011 for 1677 Fo > 4sig(Fo) and 0.1538 for all 2727 data
  REM 155 parameters refined using 0 restraints
  REM Highest difference peak 4.5183, deepest hole -1.7439
  REM Mean Shift 0.0000, Max Shift 0.0000.

  REM +++ Tabular Listing of Refinement Information +++
  REM R1_all = 0.1538
  REM R1_gt = 0.1011
  REM wR_ref = 0.3240
  REM GOOF = 1.0525
  REM Shift_max = 0.0000
  REM Shift_mean = 0.0000
  REM Reflections_all = 2727
  REM Reflections_gt = 1677
  REM Parameters = 155
  REM Hole = -1.7439
  REM Peak = 4.5183
  REM Flack = n/a

  
;
_cod_data_source_file            d1dt04077d2.cif
_cod_data_source_block           LXY-34
_cod_depositor_comments          'Adding full bibliography for 7709245.cif.'
_cod_original_sg_symbol_Hall     '-C 2yc (x+z,y,-x)'
_cod_database_code               7709245
_chemical_oxdiff_formula         C1H1N1O1Cd1
_reflns_odcompleteness_completeness 99.61
_reflns_odcompleteness_iscentric 1
_reflns_odcompleteness_theta     25.30
_olex2_refinement_description
;
1. Fixed Uiso
 At 1.2 times of:
  All C(H) groups
 At 1.5 times of:
  All O(H,H) groups
2. Rigid bond restraints
 with sigma for 1-2 distances of 0.005 and sigma for 1-3 distances of 0.005
3. Uiso/Uaniso restraints and constraints
: within 2A with sigma of 0.005 and sigma for terminal atoms of 0.01
: with sigma of 0.005 and sigma for terminal atoms of 0.01
4. Others
 Fixed Sof: H3b(0.5) H3a(0.5) H3a(0.5) H3b(0.5)
5.a Rotating group:
 O3(H3a,H3b)
5.b Aromatic/amide H refined with riding coordinates:
 C7(H7), C6(H6), C4(H4), C3(H3), C12(H12), C13(H13), C14(H14), C11(H11)
;
_iucr_refine_fcf_details
;
data_LXY-34_CCDC1
_computing_structure_refinement   'olex2.refine (Bourhis et al., 2015)'
_shelx_refln_list_code            4
loop_
  _space_group_symop_id
  _space_group_symop_operation_xyz
  1  x,y,z
  2  -x+1/2,y,-z
  3  -x,-y,-z
  4  x-1/2,-y,z
  5  x+1/2,y+1/2,z+1/2
  6  -x+1,y+1/2,-z+1/2
  7  -x+1/2,-y+1/2,-z+1/2
  8  x,-y+1/2,z+1/2

_space_group_crystal_system       monoclinic
_space_group_IT_number            15
_space_group_name_H-M_alt         'I 1 2/a 1'
_space_group_name_Hall            '-C 2yc (x+z,y,-x)'
_symmetry_space_group_name_H-M    'I 1 2/a 1'
_symmetry_space_group_name_Hall   '-C 2yc (x+z,y,-x)'
_symmetry_Int_Tables_number       15
_cell_length_a                    7.6683(6)
_cell_length_b                    10.3179(13)
_cell_length_c                    33.709(2)
_cell_angle_alpha                 90
_cell_angle_beta                  95.667(7)
_cell_angle_gamma                 90
_cell_volume                      2654.0(4)
loop_
  _refln_index_h
  _refln_index_k
  _refln_index_l
  _refln_F_squared_calc
  _refln_F_squared_meas
  _refln_F_squared_sigma
  _refln_F_squared_weight
  _refln_observed_status
0 0 -40 2228.840 2160.310 649.891 7.602 o
0 0 -38 1332.350 1992.160 555.468 11.584 o
0 0 -36 627.789 572.560 288.960 47.695 o
0 0 -34 2382.790 2286.720 542.931 9.094 o
0 0 -32 6619.490 6376.080 362.337 2.548 o
0 0 -30 61.943 154.632 102.013 436.302 o
0 0 -28 14168.600 16691.200 971.397 0.471 o
0 0 -26 2899.380 2454.550 208.390 13.551 o
0 0 -24 19363.700 19423.100 1623.360 0.266 o
0 0 -22 10975.400 8226.220 377.268 1.120 o
0 0 -20 26073.800 23342.500 892.084 0.180 o
0 0 -18 52028.400 53579.300 1962.980 0.041 o
0 0 -16 16683.600 16450.900 993.130 0.390 o
0 0 -14 2967.330 3621.370 201.506 10.507 o
0 0 -12 15330.200 16838.500 594.408 0.452 o
0 0 -10 4562.050 3284.340 271.734 6.187 o
0 0 -8 17709.800 12516.100 422.238 0.451 o
0 0 -6 35564.900 38612.600 630.929 0.087 o
0 1 -39 1183.960 794.625 276.453 38.806 o
0 1 -37 1091.750 924.573 324.580 31.634 o
0 1 -35 1225.670 1073.520 209.189 47.392 o
0 1 -33 2329.260 2136.820 203.553 19.017 o
0 1 -31 4220.780 3638.320 226.348 6.703 o
0 1 -29 3677.780 3841.410 198.121 7.864 o
0 1 -27 3031.920 2964.530 168.157 12.011 o
0 1 -25 13355.700 15129.300 493.410 0.585 o
0 1 -23 9028.220 9621.990 273.752 1.348 o
0 1 -21 14726.600 17714.700 353.382 0.468 o
0 1 -19 24552.400 30294.300 465.040 0.166 o
0 1 -17 22726.700 26745.900 453.711 0.201 o
0 1 -15 10950.300 10573.900 228.041 0.990 o
0 1 -13 8362.130 8898.660 191.218 1.588 o
0 1 -11 6208.530 7698.340 229.523 2.534 o
0 1 -9 9127.370 14518.900 609.183 0.912 o
0 1 -7 30509.600 43964.200 1791.460 0.090 o
0 1 -5 6977.220 6138.230 291.345 2.496 o
0 2 -40 813.883 289.590 318.534 39.819 o
0 2 -38 765.547 491.488 330.466 36.823 o
0 2 -36 1273.130 838.175 230.662 45.055 o
0 2 -34 830.926 640.123 208.224 70.108 o
0 2 -32 2556.110 2908.070 263.171 13.208 o
0 2 -30 6510.460 6783.460 556.199 2.285 o
0 2 -28 447.515 587.598 234.050 72.671 o
0 2 -26 9133.930 9270.580 433.795 1.318 o
0 2 -24 5302.680 5510.830 222.998 3.896 o
0 2 -22 8580.350 10293.500 488.668 1.307 o
0 2 -20 6171.160 9467.670 368.496 2.085 o
0 2 -18 7516.190 11006.700 590.783 1.395 o
0 2 -16 11726.000 15086.600 672.099 0.665 o
0 2 -14 10895.300 12477.000 834.103 0.793 o
0 2 -12 7134.320 7192.590 405.733 2.121 o
0 2 -10 6563.380 6753.780 161.542 2.631 o
0 2 -8 16308.200 20040.900 219.308 0.379 o
0 2 -6 12479.200 16916.000 266.334 0.596 o
0 2 -4 13711.900 16900.900 246.598 0.533 o
0 2 -2 69923.100 76601.300 1011.580 0.022 o
0 2 0 331.327 415.009 74.175 439.898 o
0 3 -39 967.201 1268.980 496.686 16.048 o
0 3 -37 412.384 619.773 246.893 66.793 o
0 3 -35 971.229 824.794 320.532 34.296 o
0 3 -33 2269.050 2238.640 367.509 13.830 o
0 3 -31 1512.450 2134.440 363.062 18.754 o
0 3 -29 1009.310 958.096 296.316 36.882 o
0 3 -27 6720.960 9633.680 672.573 1.664 o
0 3 -25 5161.280 6654.720 516.301 3.031 o
0 3 -23 4745.210 5623.990 437.013 3.889 o
0 3 -21 3027.150 3073.540 178.701 11.662 o
0 3 -19 3358.360 2867.720 175.354 10.685 o
0 3 -17 6566.980 5623.590 213.519 2.915 o
0 3 -15 7590.490 8994.810 237.143 1.768 o
0 3 -13 5088.760 6237.020 185.716 3.808 o
0 3 -11 9250.600 10860.300 238.114 1.206 o
0 3 -9 6730.770 6125.920 192.107 2.693 o
0 3 -7 27469.200 24580.900 326.209 0.166 o
0 3 -5 18211.000 16352.300 307.090 0.376 o
0 3 -3 1075.270 1570.020 137.395 58.344 o
0 3 -1 21980.900 23873.100 524.748 0.226 o
0 4 -38 798.883 857.427 298.783 40.417 o
0 4 -36 480.242 739.736 281.739 50.863 o
0 4 -34 1323.260 1624.750 346.111 23.352 o
0 4 -32 693.174 1097.710 427.868 22.285 o
0 4 -30 593.098 532.377 273.567 53.326 o
0 4 -28 1721.390 1543.730 295.542 23.708 o
0 4 -26 7118.540 7889.210 634.618 1.819 o
0 4 -24 8261.100 7048.000 1027.280 1.331 o
0 4 -22 2135.570 2510.570 365.864 13.867 o
0 4 -20 3243.090 3746.170 415.717 7.351 o
0 4 -18 8269.310 8697.820 572.118 1.485 o
0 4 -16 2365.780 2745.690 261.112 14.813 o
0 4 -14 10960.100 13137.700 286.878 0.846 o
0 4 -12 79.961 98.447 51.373 1597.740 o
0 4 -10 9732.840 10169.600 252.149 1.182 o
0 4 -8 14916.900 15651.400 309.454 0.505 o
0 4 -6 20651.100 21532.300 505.381 0.263 o
0 4 -4 5483.110 5765.240 218.668 3.631 o
0 4 -2 17553.000 19595.200 432.292 0.348 o
0 4 0 15598.100 16390.100 661.568 0.447 o
0 5 -39 195.299 462.779 354.057 36.478 o
0 5 -37 723.605 1009.800 332.061 34.216 o
0 5 -35 283.363 785.139 304.997 46.377 o
0 5 -33 150.735 619.709 242.333 75.057 o
0 5 -31 452.885 1116.990 309.092 41.248 o
0 5 -29 1149.320 1167.140 434.900 19.342 o
0 5 -27 1140.000 1698.710 583.023 11.434 o
0 5 -25 5053.920 5608.360 629.020 3.141 o
0 5 -23 9844.480 9481.810 980.391 0.989 o
0 5 -21 2572.810 2965.760 548.029 7.914 o
0 5 -19 3336.440 3341.900 572.126 6.068 o
0 5 -17 5919.570 5034.340 657.998 2.762 o
0 5 -15 2341.360 1720.140 130.361 23.548 o
0 5 -13 1223.830 598.967 103.974 90.099 o
0 5 -11 1434.590 782.543 144.574 58.512 o
0 5 -9 5534.350 5630.720 249.965 3.603 o
0 5 -7 3876.760 4950.470 325.692 5.697 o
0 5 -5 17264.800 21124.600 572.038 0.333 o
0 5 -3 12148.800 12928.200 443.915 0.738 o
0 5 -1 12730.500 11838.400 358.860 0.743 o
0 6 -38 49.429 14.147 238.671 82.266 o
0 6 -36 123.024 596.139 376.627 32.351 o
0 6 -34 87.821 -199.024 206.523 109.628 o
0 6 -32 7.808 155.835 205.597 110.631 o
0 6 -30 595.109 832.655 377.204 29.232 o
0 6 -28 886.349 676.082 322.397 35.920 o
0 6 -26 353.795 233.303 241.094 75.584 o
0 6 -24 3335.190 3529.360 659.649 5.226 o
0 6 -22 5952.460 6454.450 856.079 2.103 o
0 6 -20 1819.400 2035.810 491.630 12.190 o
0 6 -18 605.782 702.918 281.012 49.244 o
0 6 -16 4412.560 4668.110 339.589 5.074 o
0 6 -14 309.769 471.816 107.001 280.170 o
0 6 -12 2995.930 3179.850 303.285 10.069 o
0 6 -10 228.046 111.624 79.496 605.117 o
0 6 -8 765.449 482.825 160.020 107.517 o
0 6 -6 4377.670 2843.370 303.607 6.797 o
0 6 -4 5298.020 4627.910 383.003 3.986 o
0 6 -2 7703.970 6308.920 427.163 2.059 o
0 6 0 5016.760 4281.250 497.863 4.049 o
0 7 -35 12.446 227.894 275.444 61.597 o
0 7 -33 49.231 245.161 296.920 52.893 o
0 7 -31 80.242 286.392 341.879 39.831 o
0 7 -29 95.574 294.893 344.274 39.230 o
0 7 -27 630.724 947.323 417.411 23.943 o
0 7 -25 227.537 704.216 401.981 27.995 o
0 7 -23 697.486 766.403 395.256 26.503 o
0 7 -21 1197.460 878.159 371.888 25.231 o
0 7 -19 634.523 496.575 290.701 47.690 o
0 7 -17 96.552 69.358 197.948 118.787 o
0 7 -15 189.843 549.837 117.822 264.691 o
0 7 -13 63.121 308.180 84.760 584.673 o
0 7 -11 30.759 125.420 80.524 706.514 o
0 7 -9 1064.860 915.275 286.230 38.095 o
0 7 -7 480.071 238.601 159.522 147.353 o
0 7 -5 319.643 181.582 122.110 261.977 o
0 7 -3 1009.950 1049.240 201.199 56.965 o
0 7 -1 2259.340 2835.840 315.993 13.787 o
0 8 -32 79.579 282.484 298.304 52.206 o
0 8 -30 108.170 377.458 341.190 39.760 o
0 8 -28 27.999 334.000 317.240 46.299 o
0 8 -26 207.034 150.233 295.991 52.691 o
0 8 -24 26.783 168.143 270.247 64.037 o
0 8 -22 61.294 531.804 332.470 41.719 o
0 8 -20 116.534 265.358 290.530 54.856 o
0 8 -18 47.658 9.283 274.362 62.276 o
0 8 -16 73.908 82.125 93.669 520.688 o
0 8 -14 21.414 44.120 64.392 1122.220 o
0 8 -12 45.294 156.895 87.318 594.029 o
0 8 -10 669.741 523.350 191.690 89.918 o
0 8 -8 489.529 457.045 246.888 66.898 o
0 8 -6 44.083 -67.431 141.315 234.490 o
0 8 -4 78.037 143.893 169.826 160.422 o
0 8 -2 394.719 557.315 178.964 117.011 o
0 8 0 238.955 76.576 182.002 136.001 o
0 9 -27 52.102 229.080 298.354 52.406 o
0 9 -25 15.365 340.439 302.373 50.964 o
0 9 -23 63.839 38.628 249.184 75.397 o
0 9 -21 59.838 103.126 244.447 78.213 o
0 9 -19 19.076 288.133 294.231 53.890 o
0 9 -17 34.402 248.548 282.955 58.263 o
0 9 -15 92.273 493.843 346.952 38.317 o
0 9 -13 1.285 46.713 78.135 766.999 o
0 9 -11 45.855 -45.107 92.007 551.688 o
0 9 -9 145.278 -90.697 138.407 240.165 o
0 9 -7 12.286 96.009 252.649 73.414 o
0 9 -5 0.080 -56.963 140.385 238.017 o
0 9 -3 675.303 648.313 197.591 82.584 o
0 9 -1 0.624 137.288 135.849 253.009 o
0 10 -22 76.837 359.915 351.408 37.629 o
0 10 -20 17.393 -39.621 229.073 89.384 o
0 10 -18 14.585 237.485 270.074 64.034 o
0 10 -16 4.214 303.782 309.939 48.612 o
0 10 -14 45.417 534.931 345.276 38.782 o
0 10 -12 1.189 171.195 246.902 76.780 o
0 10 -10 83.916 -17.791 98.109 481.090 o
0 10 -8 27.747 112.192 144.067 224.654 o
0 10 -6 1.567 105.388 149.063 210.614 o
0 10 -4 411.269 280.978 183.824 119.653 o
0 10 -2 36.711 268.423 170.323 158.854 o
0 10 0 316.207 228.718 215.472 94.338 o
0 11 -17 0.435 -233.249 313.244 47.806 o
0 11 -15 14.024 -82.483 218.326 98.403 o
0 11 -13 19.382 183.137 272.421 63.022 o
0 11 -11 71.852 239.278 286.054 56.874 o
0 11 -9 279.475 351.689 273.556 59.742 o
0 11 -7 5.730 -81.137 137.969 246.419 o
0 11 -5 0.376 183.627 230.014 88.410 o
0 11 -3 5.057 61.036 146.216 219.181 o
0 11 -1 28.135 -140.614 167.233 167.644 o
0 12 -12 148.335 13.011 245.042 77.571 o
0 12 -10 87.483 472.784 353.406 37.006 o
0 12 -8 120.009 219.378 276.139 60.770 o
0 12 -6 47.829 298.377 272.295 62.683 o
0 12 -4 78.713 43.501 142.556 228.804 o
0 12 -2 25.235 30.780 244.628 78.348 o
0 12 0 221.875 717.525 403.624 27.772 o
0 13 -5 33.638 108.876 250.372 74.666 o
0 13 -3 16.884 -367.562 329.246 43.270 o
0 13 -1 109.158 159.240 183.720 136.415 o
1 1 -40 385.480 334.295 161.299 149.168 o
1 1 -38 2.803 77.144 152.367 201.792 o
1 1 -36 14.464 -41.490 101.392 456.126 o
1 1 -34 12.293 7.515 80.578 721.963 o
1 1 -32 5.064 36.712 81.558 704.179 o
1 1 -30 165.424 145.406 67.323 846.662 o
1 1 -28 154.362 111.833 68.204 862.632 o
1 1 -26 98.910 50.769 65.129 1038.610 o
1 1 -24 494.662 381.092 75.754 333.028 o
1 1 -22 45.494 67.247 51.519 1696.190 o
1 1 -20 58.516 134.554 44.767 2052.530 o
1 1 -18 1739.050 4447.230 158.182 15.421 o
1 1 -16 6204.110 14735.000 272.431 1.401 o
1 1 -14 1705.420 1536.820 97.910 39.624 o
1 1 -12 65.005 108.915 43.975 2144.400 o
1 1 -10 4864.240 8419.870 197.059 3.122 o
1 1 -8 1065.120 1422.730 65.406 77.685 o
1 1 -6 1020.480 3790.580 287.999 20.039 o
1 1 -4 5492.110 2587.660 86.401 5.678 o
1 1 -2 297.698 195.915 43.643 1000.670 o
1 1 0 2156.820 7387.260 288.012 6.784 o
1 1 2 43970.700 21746.900 277.263 0.088 o
1 1 4 9581.850 864.057 97.108 2.617 o
1 1 6 12336.100 23383.000 348.425 0.452 o
1 1 8 283.183 574.228 75.799 406.929 o
1 1 10 22.712 67.275 41.082 2689.470 o
1 1 12 1630.200 1044.720 89.480 51.901 o
1 1 14 471.671 442.833 77.466 322.597 o
1 1 16 87.823 60.738 69.262 929.696 o
1 1 18 486.787 583.957 101.525 222.430 o
1 1 20 1440.560 2172.470 122.099 36.529 o
1 1 22 3820.700 5729.180 205.708 5.605 o
1 1 24 993.890 520.041 74.111 140.258 o
1 1 26 931.618 1525.720 119.075 71.920 o
1 1 28 261.385 209.793 65.373 704.469 o
1 1 30 24.544 17.654 91.233 562.237 o
1 1 32 17.408 88.460 129.915 276.821 o
1 1 34 4.729 62.249 115.763 349.438 o
1 1 36 128.746 47.656 138.632 238.932 o
1 1 38 3.574 -270.515 218.441 98.306 o
1 2 -41 18.765 -218.449 339.286 40.747 o
1 2 -39 347.867 -210.724 372.807 33.236 o
1 2 -37 181.272 -180.226 307.405 49.335 o
1 2 -35 124.660 217.926 147.451 206.534 o
1 2 -33 90.895 -162.629 197.126 120.261 o
1 2 -31 997.910 688.183 332.963 32.830 o
1 2 -29 62.898 151.098 494.745 19.137 o
1 2 -27 2484.180 3040.020 188.708 14.629 o
1 2 -25 18.821 84.158 90.683 565.893 o
1 2 -23 144.168 133.699 112.038 351.529 o
1 2 -21 2034.860 2179.210 126.545 24.745 o
1 2 -19 858.455 608.648 90.900 145.230 o
1 2 -17 1086.610 681.823 117.705 93.663 o
1 2 -15 12918.900 14588.600 461.526 0.627 o
1 2 -13 1925.930 2551.100 97.956 24.456 o
1 2 -11 1266.890 2122.760 110.431 43.208 o
1 2 -9 207.916 439.702 49.074 828.576 o
1 2 -7 283.852 248.791 51.221 839.673 o
1 2 -5 6623.120 10288.500 247.054 1.859 o
1 2 -3 26508.800 26519.900 622.562 0.165 o
1 2 -1 20904.400 18115.300 482.786 0.290 o
1 2 1 49707.700 85683.300 1113.590 0.031 o
1 2 3 13050.600 32554.900 478.335 0.302 o
1 2 5 1443.820 6414.190 187.841 11.173 o
1 2 7 610.590 1328.960 99.838 120.678 o
1 2 9 152.963 552.262 76.132 517.220 o
1 2 11 2078.910 4061.670 175.267 14.172 o
1 2 13 2535.670 1950.250 105.634 20.370 o
1 2 15 140.306 288.840 62.242 882.516 o
1 2 17 619.272 542.638 86.043 218.139 o
1 2 19 1386.160 1058.040 102.560 61.945 o
1 2 21 2668.370 2226.810 151.628 16.919 o
1 2 23 236.485 70.936 62.181 905.354 o
1 2 25 2086.410 1479.740 135.901 29.231 o
1 2 27 660.069 476.789 71.223 241.503 o
1 2 29 364.361 283.841 74.273 465.673 o
1 2 31 9.595 125.706 149.802 208.169 o
1 2 33 235.198 82.306 326.821 43.366 o
1 2 35 320.028 -11.104 296.357 52.325 o
1 2 37 57.658 -346.525 217.672 98.879 o
1 2 39 5.946 -206.492 286.723 57.059 o
1 3 -40 69.572 115.094 240.009 81.028 o
1 3 -38 442.917 366.244 192.275 106.762 o
1 3 -36 544.894 670.851 216.464 77.364 o
1 3 -34 181.814 55.548 143.696 218.898 o
1 3 -32 806.614 841.053 211.189 65.724 o
1 3 -30 1245.280 889.646 200.364 51.589 o
1 3 -28 8090.650 8912.200 636.231 1.464 o
1 3 -26 217.955 182.172 122.894 279.204 o
1 3 -24 1456.420 1633.780 274.505 28.051 o
1 3 -22 1531.990 1647.110 258.999 28.305 o
1 3 -20 1053.210 1024.070 215.831 52.041 o
1 3 -18 3875.000 4252.110 281.701 6.519 o
1 3 -16 1331.160 973.239 107.107 66.806 o
1 3 -14 7980.060 7821.840 272.663 1.813 o
1 3 -12 3315.910 2980.820 162.484 10.732 o
1 3 -10 14853.000 15837.800 392.162 0.500 o
1 3 -8 4712.790 4248.390 195.191 5.397 o
1 3 -6 1212.440 935.274 113.311 74.434 o
1 3 -4 15975.900 13512.800 509.047 0.497 o
1 3 -2 246.690 1401.870 171.106 103.684 o
1 3 0 35147.600 29934.400 693.577 0.104 o
1 3 2 194.724 744.457 133.315 199.719 o
1 3 4 27246.700 26773.900 484.963 0.159 o
1 3 6 4174.510 3691.990 189.302 6.896 o
1 3 8 1300.300 977.572 85.411 73.067 o
1 3 10 3802.750 5157.490 161.422 6.254 o
1 3 12 1120.840 1960.620 105.968 52.286 o
1 3 14 7162.980 10284.900 241.993 1.705 o
1 3 16 1848.170 2687.420 138.042 23.433 o
1 3 18 3786.890 4372.480 222.542 6.860 o
1 3 20 1160.560 1341.500 132.105 60.862 o
1 3 22 1390.470 1046.690 174.990 48.998 o
1 3 24 1913.380 1074.700 277.864 25.496 o
1 3 26 7.395 84.119 91.873 552.899 o
1 3 28 881.888 717.338 377.960 27.559 o
1 3 30 1.194 -149.234 164.256 173.863 o
1 3 32 1391.590 794.725 242.154 40.602 o
1 3 34 862.537 557.281 302.634 40.883 o
1 3 36 319.536 262.472 176.470 134.973 o
1 3 38 241.915 209.310 448.592 23.066 o
1 4 -39 116.193 392.861 180.529 136.646 o
1 4 -37 357.551 689.821 257.346 62.545 o
1 4 -35 868.051 932.629 260.985 47.018 o
1 4 -33 1010.300 929.895 258.395 44.480 o
1 4 -31 2193.770 2698.290 407.728 12.047 o
1 4 -29 7874.900 8673.520 686.968 1.502 o
1 4 -27 249.671 416.811 257.019 67.215 o
1 4 -25 5769.780 5659.160 520.297 2.959 o
1 4 -23 3601.610 3070.630 379.417 7.651 o
1 4 -21 443.130 504.942 298.259 48.081 o
1 4 -19 784.623 951.834 336.879 33.096 o
1 4 -17 6265.330 7440.040 719.818 2.048 o
1 4 -15 1047.320 1560.580 349.861 25.805 o
1 4 -13 13295.600 14820.300 494.031 0.596 o
1 4 -11 15626.800 15095.800 323.244 0.486 o
1 4 -9 7086.780 5671.340 203.660 2.618 o
1 4 -7 15136.300 14325.300 422.219 0.520 o
1 4 -5 17044.300 22265.000 725.789 0.320 o
1 4 -3 2434.230 3767.990 296.816 11.179 o
1 4 -1 7711.950 10450.200 471.700 1.467 o
1 4 1 447.202 508.841 96.799 258.853 o
1 4 3 17711.900 19136.600 496.375 0.348 o
1 4 5 2136.270 1862.210 135.935 25.254 o
1 4 7 2184.110 2478.090 136.845 20.660 o
1 4 9 10680.900 12670.700 341.974 0.891 o
1 4 11 14592.400 16069.700 372.779 0.508 o
1 4 13 1654.140 1398.550 218.572 32.077 o
1 4 15 10980.100 9414.650 314.164 1.049 o
1 4 17 4192.590 3492.190 206.337 7.006 o
1 4 19 1311.860 1284.590 133.965 54.650 o
1 4 21 2849.440 3512.210 369.220 9.137 o
1 4 23 1162.420 1216.170 207.784 47.429 o
1 4 25 65.143 274.710 215.417 99.523 o
1 4 27 1754.250 1796.550 332.695 19.896 o
1 4 29 957.543 815.861 259.446 46.694 o
1 4 31 590.991 722.756 273.531 51.580 o
1 4 33 904.939 1380.830 331.997 30.172 o
1 4 35 1154.610 1220.220 337.648 27.696 o
1 4 37 588.746 1257.540 362.404 29.747 o
1 4 39 263.443 884.800 425.482 24.703 o
1 5 -40 426.254 562.305 366.802 32.702 o
1 5 -38 152.089 906.594 538.212 15.837 o
1 5 -36 563.491 748.795 433.882 23.007 o
1 5 -34 876.046 1291.550 463.072 18.352 o
1 5 -32 1839.140 1929.680 369.181 16.992 o
1 5 -30 3786.780 4576.250 540.279 4.948 o
1 5 -28 847.180 1426.060 335.528 30.098 o
1 5 -26 1934.030 2353.800 496.056 11.219 o
1 5 -24 4742.200 5466.660 733.116 3.064 o
1 5 -22 4645.650 4946.480 678.462 3.446 o
1 5 -20 524.103 481.796 245.902 66.188 o
1 5 -18 472.654 587.164 246.873 65.713 o
1 5 -16 5385.330 4744.020 620.809 3.224 o
1 5 -14 4454.970 3714.210 587.162 4.454 o
1 5 -12 6963.970 5726.440 206.049 2.666 o
1 5 -10 7872.390 6082.680 296.502 2.127 o
1 5 -8 5066.480 3756.460 285.642 4.996 o
1 5 -6 11845.400 11382.600 430.147 0.830 o
1 5 -4 11785.600 11154.800 427.820 0.846 o
1 5 -2 3622.240 2697.150 214.880 9.663 o
1 5 0 190.299 68.278 64.587 925.778 o
1 5 2 11734.800 9817.910 394.754 0.923 o
1 5 4 1536.080 866.916 127.815 54.994 o
1 5 6 578.706 296.359 72.135 321.367 o
1 5 8 9295.590 8350.680 350.781 1.401 o
1 5 10 6827.890 6840.820 299.717 2.397 o
1 5 12 7301.720 7080.330 294.064 2.156 o
1 5 14 2643.830 1634.520 137.402 20.233 o
1 5 16 3918.980 3446.740 284.962 7.248 o
1 5 18 3154.400 2670.280 224.664 11.475 o
1 5 20 2320.080 1845.560 442.632 12.252 o
1 5 22 1144.440 1335.550 397.550 21.674 o
1 5 24 2.852 477.932 605.071 12.776 o
1 5 26 774.257 1908.470 538.364 13.678 o
1 5 28 1871.360 3355.610 488.318 10.145 o
1 5 30 1119.350 2194.470 647.244 9.265 o
1 5 32 119.207 813.046 297.429 50.235 o
1 5 34 739.619 1245.870 370.180 27.587 o
1 5 36 1138.600 1649.520 456.408 16.944 o
1 5 38 161.823 827.402 439.685 23.547 o
1 5 40 432.176 468.587 364.544 33.318 o
1 6 -39 505.243 678.930 408.991 26.066 o
1 6 -37 344.142 327.689 281.112 56.103 o
1 6 -35 676.343 1048.420 448.595 20.677 o
1 6 -33 812.972 1016.760 410.056 23.550 o
1 6 -31 1104.930 1245.680 448.167 18.473 o
1 6 -29 891.722 873.246 373.646 27.435 o
1 6 -27 2398.220 2558.780 583.965 8.067 o
1 6 -25 252.933 272.458 253.850 69.875 o
1 6 -23 5516.040 5336.050 760.157 2.652 o
1 6 -21 6067.830 5685.870 774.581 2.332 o
1 6 -19 423.327 253.855 233.549 78.275 o
1 6 -17 1891.840 1600.760 388.891 16.748 o
1 6 -15 3070.570 2517.520 447.827 8.788 o
1 6 -13 3164.470 4084.300 204.453 8.956 o
1 6 -11 2598.630 3979.310 472.942 7.845 o
1 6 -9 3533.620 4792.940 353.691 6.252 o
1 6 -7 1969.280 1796.480 301.031 19.809 o
1 6 -5 7162.870 6869.680 437.609 2.144 o
1 6 -3 7649.880 6264.150 427.661 2.085 o
1 6 -1 3344.540 2450.130 224.440 11.126 o
1 6 1 3927.660 4349.980 293.877 6.267 o
1 6 3 1583.700 2004.980 206.902 29.007 o
1 6 5 2373.230 2438.390 220.806 16.862 o
1 6 7 4311.600 3501.410 217.294 6.696 o
1 6 9 2300.450 1900.080 158.390 22.031 o
1 6 11 4321.850 3812.050 247.778 6.247 o
1 6 13 1475.880 1361.580 150.426 44.540 o
1 6 15 2500.040 3137.760 281.025 12.566 o
1 6 17 1563.270 1976.710 328.729 20.959 o
1 6 19 2816.110 3789.760 276.352 9.961 o
1 6 21 1134.830 955.566 200.240 54.338 o
1 6 23 151.833 394.076 303.448 49.773 o
1 6 25 863.978 1091.600 436.173 20.795 o
1 6 27 1621.290 2268.160 575.811 10.055 o
1 6 29 513.619 1058.030 456.952 20.562 o
1 6 31 317.521 536.363 361.637 34.270 o
1 6 33 346.262 541.747 370.514 32.564 o
1 6 35 358.480 1046.540 437.021 22.904 o
1 6 37 220.193 700.429 445.420 22.974 o
1 7 -36 440.127 395.064 371.554 32.288 o
1 7 -34 641.394 758.038 414.745 24.621 o
1 7 -32 317.516 445.996 328.535 41.465 o
1 7 -30 1203.800 1475.150 554.702 12.519 o
1 7 -28 705.022 975.129 398.244 25.510 o
1 7 -26 1495.390 1391.460 453.700 16.109 o
1 7 -24 1223.110 1063.100 385.803 23.042 o
1 7 -22 4812.360 5125.050 787.894 2.955 o
1 7 -20 4192.520 3952.250 685.921 4.090 o
1 7 -18 2169.860 1765.300 472.134 12.072 o
1 7 -16 974.072 507.341 152.636 93.639 o
1 7 -14 3298.950 1966.100 208.120 12.703 o
1 7 -12 1308.920 597.591 148.807 68.887 o
1 7 -10 2468.170 1671.130 249.467 18.304 o
1 7 -8 1872.930 1420.030 230.726 27.298 o
1 7 -6 2701.560 2577.390 296.409 12.647 o
1 7 -4 6046.500 6983.580 487.018 2.529 o
1 7 -2 8445.370 9783.760 581.719 1.340 o
1 7 0 1277.520 1335.880 233.655 38.487 o
1 7 2 6017.620 6315.230 475.824 2.722 o
1 7 4 1620.260 1624.760 198.986 32.395 o
1 7 6 3194.580 3639.560 246.003 9.243 o
1 7 8 2154.530 3092.530 223.971 15.975 o
1 7 10 3428.130 4154.660 246.969 7.820 o
1 7 12 594.122 907.279 142.704 117.621 o
1 7 14 3363.470 3423.180 328.133 8.294 o
1 7 16 1179.590 1023.250 180.205 56.298 o
1 7 18 1417.960 902.150 215.866 43.154 o
1 7 20 1709.470 1587.900 280.778 24.656 o
1 7 22 573.905 884.831 389.849 27.537 o
1 7 24 924.540 945.419 396.530 24.439 o
1 7 26 1418.040 2269.290 596.870 9.936 o
1 7 28 455.611 1010.230 448.718 21.542 o
1 7 30 520.233 1128.540 497.966 17.446 o
1 7 32 215.770 845.023 471.846 20.405 o
1 7 34 299.279 932.417 450.084 22.023 o
1 8 -31 655.531 799.727 438.612 22.108 o
1 8 -29 1249.780 1242.550 478.013 16.134 o
1 8 -27 474.288 471.704 330.702 39.642 o
1 8 -25 2316.200 2053.120 549.388 9.373 o
1 8 -23 2477.980 2755.020 636.753 7.004 o
1 8 -21 2271.710 2217.470 575.362 8.781 o
1 8 -19 2828.070 4623.330 773.451 4.393 o
1 8 -17 1442.880 2240.900 552.447 11.116 o
1 8 -15 2832.640 2476.090 251.603 13.107 o
1 8 -13 1367.220 1315.640 159.876 47.641 o
1 8 -11 2042.010 1788.470 274.155 20.535 o
1 8 -9 2325.120 2075.690 295.836 16.255 o
1 8 -7 2575.740 2731.340 336.440 12.047 o
1 8 -5 8601.080 9148.170 608.317 1.357 o
1 8 -3 2338.380 3041.330 360.344 11.888 o
1 8 -1 3061.480 2853.690 343.861 9.847 o
1 8 1 2703.420 2665.130 343.578 11.508 o
1 8 3 5367.810 5202.910 470.827 3.473 o
1 8 5 1213.460 1069.810 238.830 42.115 o
1 8 7 1218.530 1026.260 175.350 55.806 o
1 8 9 4351.850 4627.690 284.383 5.387 o
1 8 11 1436.470 1278.100 188.110 41.894 o
1 8 13 3728.710 3411.720 351.314 7.234 o
1 8 15 1169.910 1441.760 239.371 38.814 o
1 8 17 1233.320 1469.310 219.417 40.094 o
1 8 19 1417.770 1762.270 519.538 12.891 o
1 8 21 1091.270 2101.590 569.648 11.552 o
1 8 23 873.402 1793.410 581.400 11.914 o
1 8 25 430.988 1304.620 490.604 17.934 o
1 8 27 1016.480 1862.040 604.659 10.832 o
1 8 29 627.514 1001.830 489.218 17.906 o
1 8 31 302.691 807.224 461.568 21.138 o
1 9 -28 1356.670 1128.970 521.355 13.902 o
1 9 -26 621.379 686.299 384.788 28.498 o
1 9 -24 1803.910 1999.890 609.717 9.170 o
1 9 -22 1675.320 1699.260 521.027 12.190 o
1 9 -20 1144.370 572.894 340.969 30.728 o
1 9 -18 761.217 1107.070 472.020 18.502 o
1 9 -16 2374.870 2519.300 595.266 7.962 o
1 9 -14 1309.430 1405.520 263.293 33.197 o
1 9 -12 1983.800 2060.230 304.282 18.462 o
1 9 -10 1027.200 1313.530 261.709 39.450 o
1 9 -8 3731.220 4180.670 446.008 5.853 o
1 9 -6 5304.880 5078.160 493.071 3.509 o
1 9 -4 2773.710 2395.420 350.776 11.627 o
1 9 -2 745.071 446.961 190.516 88.551 o
1 9 0 2814.290 2425.480 352.255 11.375 o
1 9 2 1726.720 1833.460 308.700 21.368 o
1 9 4 1978.700 1872.200 323.637 18.339 o
1 9 6 1127.420 1225.840 199.182 50.159 o
1 9 8 1049.610 800.469 165.694 72.362 o
1 9 10 2169.630 1851.220 320.858 17.166 o
1 9 12 4809.250 3832.960 410.006 4.825 o
1 9 14 851.295 1061.140 220.046 56.950 o
1 9 16 1202.920 1764.260 550.695 12.326 o
1 9 18 916.806 848.133 425.954 21.982 o
1 9 20 1185.000 1796.810 557.796 12.080 o
1 9 22 422.236 983.998 467.464 20.099 o
1 9 24 331.557 721.175 471.521 20.320 o
1 9 26 360.220 896.232 491.573 18.522 o
1 10 -23 643.300 584.565 394.216 27.437 o
1 10 -21 837.704 870.342 447.378 20.488 o
1 10 -19 705.166 518.745 381.627 28.924 o
1 10 -17 388.437 475.519 338.637 38.561 o
1 10 -15 642.188 619.670 393.793 27.402 o
1 10 -13 1966.620 1234.540 434.073 15.274 o
1 10 -11 472.397 459.134 200.018 96.188 o
1 10 -9 1710.640 1131.770 256.899 29.664 o
1 10 -7 2935.100 2568.630 382.555 10.135 o
1 10 -5 1101.460 1308.010 281.550 34.992 o
1 10 -3 1288.440 1492.070 489.881 14.960 o
1 10 -1 823.843 956.152 254.543 49.416 o
1 10 1 999.066 899.716 255.268 45.772 o
1 10 3 449.976 503.311 192.064 102.778 o
1 10 5 1382.730 1198.060 464.725 16.414 o
1 10 7 539.551 706.060 172.490 106.813 o
1 10 9 658.085 972.785 195.118 76.452 o
1 10 11 2002.940 2211.340 270.814 19.136 o
1 10 13 1383.160 1757.210 561.673 11.542 o
1 10 15 639.047 752.075 392.555 27.206 o
1 10 17 668.988 371.924 357.859 33.255 o
1 10 19 669.518 862.083 458.712 20.224 o
1 10 21 232.058 340.760 336.986 40.286 o
1 11 -18 236.968 447.107 319.973 44.190 o
1 11 -16 307.446 436.203 329.981 41.221 o
1 11 -14 237.229 358.072 314.954 45.864 o
1 11 -12 1209.010 967.440 432.764 19.691 o
1 11 -10 309.519 407.425 318.085 44.311 o
1 11 -8 680.971 967.414 262.206 50.511 o
1 11 -6 785.695 752.991 263.529 50.191 o
1 11 -4 528.044 458.243 210.624 85.985 o
1 11 -2 623.521 765.261 255.158 56.446 o
1 11 0 350.019 489.662 213.877 90.150 o
1 11 2 436.729 296.749 190.474 110.721 o
1 11 4 465.932 534.692 248.235 65.901 o
1 11 6 357.822 471.814 164.932 140.153 o
1 11 8 372.075 593.281 171.818 125.185 o
1 11 10 489.395 655.451 431.804 23.652 o
1 11 12 424.133 693.853 406.607 26.668 o
1 11 14 425.237 201.024 331.720 40.807 o
1 11 16 498.775 425.580 376.615 31.098 o
1 11 18 229.441 672.863 454.094 22.138 o
1 12 -11 550.988 575.049 353.502 34.124 o
1 12 -9 49.265 63.055 253.775 72.706 o
1 12 -7 409.935 434.109 307.726 46.132 o
1 12 -5 284.091 429.343 207.334 98.943 o
1 12 -3 350.560 674.060 254.422 64.139 o
1 12 -1 98.875 222.236 196.234 119.385 o
1 12 1 550.895 495.498 233.128 71.411 o
1 12 3 347.738 622.075 260.913 61.892 o
1 12 5 164.745 404.488 306.794 48.601 o
1 12 7 165.899 203.131 272.216 62.235 o
1 12 9 236.945 269.583 327.269 42.815 o
1 12 11 112.166 197.697 371.919 33.719 o
1 13 -6 162.181 633.046 410.029 27.241 o
1 13 -4 173.338 177.346 358.623 36.130 o
1 13 -2 88.525 189.994 277.329 60.519 o
1 13 0 322.519 339.957 248.577 70.963 o
1 13 2 146.944 152.912 254.928 71.208 o
1 13 4 218.427 466.710 387.711 30.470 o
1 13 6 106.893 625.856 487.809 19.457 o
2 0 -42 5016.060 5922.810 963.090 2.278 o
2 0 -40 2297.570 1766.450 526.515 10.262 o
2 0 -38 5716.110 5487.000 509.611 3.062 o
2 0 -36 7898.440 8078.590 593.607 1.625 o
2 0 -34 6669.300 6648.190 530.581 2.280 o
2 0 -32 3784.170 4999.220 566.284 4.587 o
2 0 -30 6917.620 8299.020 1201.660 1.295 o
2 0 -28 7327.950 8677.470 368.398 1.836 o
2 0 -26 7059.120 8727.760 360.697 1.915 o
2 0 -24 9589.660 12074.400 537.323 1.013 o
2 0 -22 10790.300 15481.100 589.279 0.727 o
2 0 -20 13820.400 22295.700 696.041 0.406 o
2 0 -18 27921.200 41686.200 1321.390 0.107 o
2 0 -16 9194.070 11052.900 665.355 1.092 o
2 0 -14 117089.000 180727.000 2589.170 0.006 o
2 0 -12 27334.900 31350.100 1040.550 0.138 o
2 0 -10 33465.500 41518.800 873.295 0.088 o
2 0 -8 24913.100 32799.800 1204.930 0.148 o
2 0 -6 15945.500 19407.400 500.085 0.393 o
2 0 -4 11816.900 10206.200 361.567 0.899 o
2 0 -2 52871.500 43794.800 741.332 0.047 o
2 0 0 755.301 439.861 60.829 227.620 o
2 0 2 1576.870 3002.490 145.333 24.746 o
2 0 4 168970.000 197593.000 2142.420 0.004 o
2 0 6 74107.800 116753.000 1047.990 0.015 o
2 0 8 7630.550 15949.300 412.147 1.043 o
2 0 10 33761.000 44736.400 724.249 0.083 o
2 0 12 3672.150 3011.420 557.526 5.957 o
2 0 14 19755.000 20658.700 754.691 0.282 o
2 0 16 2950.010 2501.310 364.241 10.509 o
2 0 18 5576.630 6170.530 465.541 3.025 o
2 0 20 1914.490 1685.240 381.321 16.720 o
2 0 22 8430.510 8521.400 875.125 1.293 o
2 0 24 6871.290 6530.060 781.817 1.924 o
2 0 26 3139.070 2368.220 321.849 10.762 o
2 0 28 1481.230 1067.830 242.256 35.841 o
2 0 30 1979.100 1578.810 278.050 21.964 o
2 0 32 1508.260 1249.430 273.564 30.124 o
2 0 34 414.561 157.107 214.576 93.136 o
2 0 36 1017.640 1317.750 490.671 16.135 o
2 0 38 1460.240 1866.570 617.425 9.711 o
2 1 -41 2116.350 1795.980 388.320 15.019 o
2 1 -39 3987.650 4343.980 396.430 5.640 o
2 1 -37 4353.100 4714.220 326.944 5.170 o
2 1 -35 7188.870 7505.690 360.177 2.077 o
2 1 -33 6002.630 6226.170 343.967 2.940 o
2 1 -31 4131.800 5470.880 404.077 4.683 o
2 1 -29 5115.990 5697.980 377.913 3.692 o
2 1 -27 11234.400 12112.900 624.647 0.822 o
2 1 -25 8548.890 9699.610 435.998 1.387 o
2 1 -23 3743.460 4679.940 243.711 6.539 o
2 1 -21 11558.300 15284.600 482.550 0.691 o
2 1 -19 15496.100 19780.900 432.414 0.403 o
2 1 -17 14542.800 20758.600 456.479 0.417 o
2 1 -15 29600.700 40474.300 495.429 0.106 o
2 1 -13 43070.500 64248.500 1576.120 0.046 o
2 1 -11 47089.400 60568.000 879.873 0.044 o
2 1 -9 19619.400 20262.400 677.896 0.290 o
2 1 -7 29461.000 29313.100 359.852 0.135 o
2 1 -5 7255.410 7104.360 214.615 2.210 o
2 1 -3 20857.100 22613.900 447.930 0.252 o
2 1 -1 7922.560 9084.040 263.224 1.657 o
2 1 1 7610.600 5104.100 137.211 2.529 o
2 1 3 11676.600 6974.010 252.168 1.130 o
2 1 5 67278.400 51199.200 764.355 0.030 o
2 1 7 43000.800 34836.000 511.861 0.072 o
2 1 9 9424.280 7202.220 339.309 1.498 o
2 1 11 18278.000 19105.800 414.911 0.336 o
2 1 13 10119.700 12210.400 347.610 0.977 o
2 1 15 7415.660 9227.930 246.445 1.781 o
2 1 17 5976.690 8061.080 370.920 2.446 o
2 1 19 2568.910 2660.040 279.694 13.461 o
2 1 21 3192.090 3110.190 377.732 8.634 o
2 1 23 5659.890 6041.950 741.645 2.482 o
2 1 25 2750.220 2881.980 357.595 10.657 o
2 1 27 1780.970 1663.040 223.330 27.398 o
2 1 29 2151.000 2045.520 226.595 20.358 o
2 1 31 881.103 1000.940 168.173 75.397 o
2 1 33 1099.710 740.522 188.488 63.439 o
2 1 35 1000.410 1123.030 309.084 33.770 o
2 1 37 848.913 676.073 330.063 35.010 o
2 2 -42 498.210 130.577 259.669 64.194 o
2 2 -40 2604.010 2934.160 659.877 6.425 o
2 2 -38 2383.980 2021.060 310.679 15.565 o
2 2 -36 2981.510 3314.370 770.631 4.804 o
2 2 -34 6605.860 6914.630 443.077 2.349 o
2 2 -32 5523.970 5490.300 463.688 3.279 o
2 2 -30 2305.780 2582.660 374.496 12.668 o
2 2 -28 10200.300 11925.200 534.049 0.952 o
2 2 -26 10301.300 11821.000 515.223 0.950 o
2 2 -24 2415.360 2820.270 157.773 16.456 o
2 2 -22 2024.690 2323.370 137.320 23.530 o
2 2 -20 10143.700 10753.700 266.723 1.077 o
2 2 -18 7609.650 8338.350 226.664 1.863 o
2 2 -16 12451.600 16703.100 307.819 0.602 o
2 2 -14 6888.370 11423.100 244.659 1.628 o
2 2 -12 40946.500 59409.700 751.535 0.053 o
2 2 -10 33437.600 44437.200 400.019 0.085 o
2 2 -8 24175.200 30672.100 354.054 0.168 o
2 2 -6 21093.200 25178.600 408.500 0.231 o
2 2 -4 3037.350 4397.450 130.898 9.297 o
2 2 -2 6555.720 11410.700 217.670 1.725 o
2 2 0 11771.300 18501.100 258.664 0.592 o
2 2 2 538.719 1251.580 79.687 154.009 o
2 2 4 2377.350 1756.950 97.313 23.701 o
2 2 6 18258.500 14907.000 256.760 0.397 o
2 2 8 23920.400 19989.700 345.545 0.228 o
2 2 10 7151.000 5652.510 210.592 2.586 o
2 2 12 20779.600 22140.200 437.265 0.257 o
2 2 14 7075.800 6142.270 258.720 2.472 o
2 2 16 7197.210 6426.980 241.698 2.363 o
2 2 18 3512.010 2847.870 202.685 9.892 o
2 2 20 1566.450 979.200 136.148 50.068 o
2 2 22 2003.950 1843.840 256.743 21.507 o
2 2 24 482.060 433.942 161.567 134.830 o
2 2 26 1710.560 1687.940 281.368 24.034 o
2 2 28 914.430 1067.440 176.534 68.533 o
2 2 30 1353.760 931.702 482.112 16.104 o
2 2 32 1093.690 767.154 501.826 16.140 o
2 2 34 1013.800 695.709 317.776 35.021 o
2 2 36 1052.530 1249.680 268.971 38.335 o
2 2 38 339.240 269.389 234.019 79.834 o
2 3 -41 1269.660 1412.440 506.809 14.377 o
2 3 -39 1363.470 1376.970 439.215 17.519 o
2 3 -37 2542.980 2539.640 396.590 11.284 o
2 3 -35 3190.220 3604.490 460.072 7.164 o
2 3 -33 3354.490 4261.620 959.611 3.222 o
2 3 -31 6060.920 6163.370 559.647 2.607 o
2 3 -29 4803.770 5475.340 513.941 3.678 o
2 3 -27 7276.250 7783.850 594.960 1.824 o
2 3 -25 1512.920 1625.200 199.532 34.503 o
2 3 -23 2262.180 3208.600 271.315 13.822 o
2 3 -21 5876.510 7224.490 478.975 2.563 o
2 3 -19 4992.600 5205.570 365.443 4.047 o
2 3 -17 5065.080 4695.780 354.138 4.255 o
2 3 -15 6137.240 4745.260 223.611 3.507 o
2 3 -13 14438.200 10897.000 321.251 0.658 o
2 3 -11 20118.700 17326.700 298.532 0.317 o
2 3 -9 35750.700 38432.500 492.526 0.087 o
2 3 -7 13684.300 14332.900 297.388 0.600 o
2 3 -5 3772.030 3710.150 175.506 7.901 o
2 3 -3 24539.700 23756.800 441.880 0.197 o
2 3 -1 1767.470 971.656 83.297 48.259 o
2 3 1 679.916 426.821 64.295 256.036 o
2 3 3 2222.630 2112.540 131.009 22.520 o
2 3 5 4499.780 6177.170 219.521 4.376 o
2 3 7 5206.580 8102.410 280.363 2.928 o
2 3 9 10163.100 11699.200 510.624 0.973 o
2 3 11 14671.100 13842.400 452.510 0.552 o
2 3 13 15296.200 15170.700 468.715 0.492 o
2 3 15 7243.180 6941.800 325.046 2.185 o
2 3 17 2389.580 2510.990 215.172 16.605 o
2 3 19 2083.470 2790.460 206.768 18.189 o
2 3 21 1292.200 1428.510 144.881 50.678 o
2 3 23 102.232 152.085 98.584 456.136 o
2 3 25 1366.930 1332.430 296.710 29.041 o
2 3 27 3.288 -23.888 255.025 72.125 o
2 3 29 1642.880 1446.670 297.718 24.928 o
2 3 31 2391.770 2337.260 391.381 12.392 o
2 3 33 652.055 819.075 388.196 27.475 o
2 3 35 491.886 791.569 286.919 48.695 o
2 3 37 731.164 1196.520 329.597 33.493 o
2 4 -40 1161.880 1753.140 582.191 11.363 o
2 4 -38 2284.870 2920.800 455.396 10.270 o
2 4 -36 2585.790 2690.370 437.543 10.063 o
2 4 -34 2192.330 2440.360 407.069 12.585 o
2 4 -32 3912.780 4031.070 487.656 5.438 o
2 4 -30 4787.860 4916.200 518.631 3.901 o
2 4 -28 3175.110 3056.900 401.421 8.460 o
2 4 -26 1268.480 997.107 273.373 36.016 o
2 4 -24 688.630 664.669 312.855 40.296 o
2 4 -22 5447.800 5461.310 513.068 3.230 o
2 4 -20 8418.740 4423.420 1825.490 0.878 o
2 4 -18 4735.630 3191.860 732.394 3.755 o
2 4 -16 7031.180 7242.180 478.309 2.088 o
2 4 -14 9268.520 8783.790 511.367 1.311 o
2 4 -12 13633.200 14084.400 482.012 0.599 o
2 4 -10 18324.900 21105.300 378.831 0.313 o
2 4 -8 11083.900 12626.500 299.613 0.857 o
2 4 -6 1567.000 1642.600 124.609 40.116 o
2 4 -4 23886.200 23992.300 466.415 0.203 o
2 4 -2 4670.260 4621.400 207.908 5.157 o
2 4 0 4698.760 4397.190 280.627 5.074 o
2 4 2 3586.200 3364.700 237.501 8.531 o
2 4 4 4866.500 4619.930 345.163 4.533 o
2 4 6 6880.290 6897.480 325.037 2.343 o
2 4 8 3616.900 4346.890 259.365 7.072 o
2 4 10 8830.030 9777.190 365.812 1.348 o
2 4 12 15758.300 16313.300 463.027 0.452 o
2 4 14 6238.700 6564.390 292.516 2.764 o
2 4 16 2918.160 3569.130 275.005 10.006 o
2 4 18 1469.170 1899.460 226.787 30.176 o
2 4 20 1626.320 2440.930 202.423 25.349 o
2 4 22 476.721 571.526 157.275 133.753 o
2 4 24 1839.650 1983.050 352.241 17.597 o
2 4 26 166.643 256.109 171.197 152.041 o
2 4 28 1716.180 1564.140 322.274 21.837 o
2 4 30 2054.640 1962.350 386.627 14.971 o
2 4 32 936.219 1307.750 336.914 29.603 o
2 4 34 428.668 769.831 291.476 48.496 o
2 4 36 247.877 493.015 261.191 64.643 o
2 4 38 270.884 186.472 298.384 51.328 o
2 5 -39 1583.510 1893.630 644.267 8.869 o
2 5 -37 2342.170 2999.210 489.655 9.342 o
2 5 -35 1720.090 1709.020 761.007 6.730 o
2 5 -33 4210.080 3548.010 489.322 5.355 o
2 5 -31 457.342 422.284 259.208 62.434 o
2 5 -29 3501.950 3396.040 629.933 5.346 o
2 5 -27 80.866 135.897 193.610 123.839 o
2 5 -25 2202.790 2298.620 498.187 10.472 o
2 5 -23 737.450 664.988 259.807 53.395 o
2 5 -21 2703.870 1843.470 414.841 11.560 o
2 5 -19 13070.400 7555.130 2904.660 0.348 o
2 5 -17 8615.250 8280.540 836.941 1.306 o
2 5 -15 3569.600 3410.710 535.737 6.001 o
2 5 -13 11411.200 10085.300 866.061 0.843 o
2 5 -11 8146.570 7714.870 279.394 1.777 o
2 5 -9 3979.490 3094.860 189.861 8.100 o
2 5 -7 1721.650 1107.590 137.799 42.246 o
2 5 -5 11929.600 11967.100 474.883 0.791 o
2 5 -3 449.646 662.505 172.616 115.433 o
2 5 -1 31436.000 35003.800 1030.480 0.107 o
2 5 1 374.238 871.645 142.449 146.784 o
2 5 3 8842.990 8833.810 402.455 1.427 o
2 5 5 4168.930 4095.120 325.387 5.916 o
2 5 7 3924.570 3408.910 298.476 7.190 o
2 5 9 6827.700 7830.900 432.669 2.095 o
2 5 11 5609.830 6578.890 385.671 3.013 o
2 5 13 3112.150 3548.460 288.350 9.241 o
2 5 15 3402.660 3154.740 305.724 8.778 o
2 5 17 1397.030 1099.730 134.977 54.797 o
2 5 19 664.758 541.988 93.635 192.766 o
2 5 21 1109.050 699.040 116.581 91.240 o
2 5 23 1685.590 1965.590 538.612 11.258 o
2 5 25 185.123 409.859 335.876 40.607 o
2 5 27 3146.760 3378.030 562.694 6.405 o
2 5 29 441.007 1052.820 325.553 38.254 o
2 5 31 866.306 1284.750 489.938 16.723 o
2 5 33 425.967 847.043 292.013 47.817 o
2 5 35 261.253 876.908 344.280 36.868 o
2 5 37 75.001 520.407 367.792 34.173 o
2 5 39 138.949 365.049 362.349 35.234 o
2 6 -38 957.020 635.336 398.866 24.954 o
2 6 -36 2345.580 1638.820 545.499 9.862 o
2 6 -34 1291.200 1083.500 443.328 18.305 o
2 6 -32 666.294 642.035 344.980 34.405 o
2 6 -30 833.144 454.124 281.563 47.258 o
2 6 -28 9.153 -72.172 190.150 129.730 o
2 6 -26 993.922 486.623 260.049 49.461 o
2 6 -24 868.809 551.510 317.714 37.759 o
2 6 -22 116.782 44.817 219.188 96.943 o
2 6 -20 2475.780 2089.540 473.869 10.544 o
2 6 -18 7982.700 6235.400 1149.310 1.336 o
2 6 -16 4380.300 3992.740 380.216 5.408 o
2 6 -14 2553.370 2687.780 140.194 16.194 o
2 6 -12 4063.140 4222.770 296.915 6.124 o
2 6 -10 1445.840 1554.280 141.228 43.516 o
2 6 -8 1780.710 1892.830 190.752 27.822 o
2 6 -6 1152.090 1239.140 336.695 27.730 o
2 6 -4 316.711 330.378 194.515 111.781 o
2 6 -2 4375.540 3620.630 541.975 4.816 o
2 6 0 1172.300 1057.090 292.475 34.247 o
2 6 2 4584.960 4324.170 312.451 5.172 o
2 6 4 1453.590 988.919 134.775 54.781 o
2 6 6 2248.130 1914.460 236.355 19.667 o
2 6 8 3159.550 3042.430 261.204 10.248 o
2 6 10 2549.500 2050.540 215.873 17.133 o
2 6 12 842.539 846.764 203.964 66.925 o
2 6 14 1371.690 1237.430 164.474 48.120 o
2 6 16 1657.370 1570.460 177.834 34.068 o
2 6 18 183.825 204.203 151.161 193.016 o
2 6 20 538.342 732.713 159.996 116.835 o
2 6 22 388.902 375.200 109.045 263.540 o
2 6 24 8.316 168.983 249.274 75.306 o
2 6 26 1037.080 1599.020 514.492 14.448 o
2 6 28 439.550 989.775 412.995 25.208 o
2 6 30 263.872 509.663 340.288 38.903 o
2 6 32 185.172 343.082 371.166 33.500 o
2 6 34 260.843 428.589 387.534 30.421 o
2 6 36 84.072 359.706 372.383 33.528 o
2 7 -35 988.514 1159.120 483.053 16.931 o
2 7 -33 54.953 402.772 322.015 44.734 o
2 7 -31 818.752 743.653 391.344 26.301 o
2 7 -29 2.700 126.203 229.002 89.317 o
2 7 -27 380.246 498.035 336.923 38.910 o
2 7 -25 1.286 122.685 189.840 129.908 o
2 7 -23 841.202 843.425 352.007 30.807 o
2 7 -21 97.495 97.741 231.990 86.547 o
2 7 -19 129.780 -66.345 219.656 96.623 o
2 7 -17 1864.770 1185.230 182.524 33.346 o
2 7 -15 1795.750 1185.720 132.009 39.467 o
2 7 -13 643.012 633.139 118.207 154.596 o
2 7 -11 1022.830 1004.240 121.487 83.615 o
2 7 -9 885.565 1318.060 145.773 73.682 o
2 7 -7 111.133 422.684 161.359 168.219 o
2 7 -5 246.268 324.455 151.431 181.128 o
2 7 -3 3808.410 3258.900 363.869 7.128 o
2 7 -1 1047.210 1226.900 238.034 44.384 o
2 7 1 1032.370 739.184 197.980 63.272 o
2 7 3 202.274 196.624 108.439 350.971 o
2 7 5 838.686 776.200 216.109 63.857 o
2 7 7 684.737 666.246 258.554 55.013 o
2 7 9 395.237 332.847 109.563 266.339 o
2 7 11 445.637 166.234 101.505 307.122 o
2 7 13 1008.730 608.123 239.143 53.409 o
2 7 15 456.744 413.113 146.216 160.641 o
2 7 17 286.656 251.797 116.838 281.278 o
2 7 19 31.976 -138.328 111.369 377.647 o
2 7 21 46.444 155.859 160.619 179.909 o
2 7 23 2.332 194.412 264.124 67.072 o
2 7 25 379.833 262.569 298.206 50.131 o
2 7 27 9.305 -32.478 240.274 81.251 o
2 7 29 316.127 625.618 420.338 25.533 o
2 7 31 61.511 80.550 270.525 63.936 o
2 7 33 42.600 628.933 418.662 26.421 o
2 8 -30 38.712 382.371 337.259 40.903 o
2 8 -28 304.419 527.797 316.739 44.226 o
2 8 -26 3.650 -313.211 231.710 87.369 o
2 8 -24 112.840 206.967 263.999 66.511 o
2 8 -22 184.782 -148.469 245.587 77.000 o
2 8 -20 139.678 357.535 262.437 66.371 o
2 8 -18 2.380 78.629 199.103 118.239 o
2 8 -16 390.895 242.853 211.101 95.284 o
2 8 -14 79.389 90.608 108.400 390.028 o
2 8 -12 1289.190 552.257 156.304 68.993 o
2 8 -10 190.006 -86.051 85.628 588.271 o
2 8 -8 29.110 -36.503 156.888 190.462 o
2 8 -6 807.136 583.272 190.353 81.301 o
2 8 -4 671.095 406.316 178.793 102.972 o
2 8 -2 76.709 -217.585 177.059 149.131 o
2 8 0 132.217 -264.087 358.379 36.435 o
2 8 2 6.204 36.366 138.341 244.969 o
2 8 4 85.474 42.922 111.936 368.405 o
2 8 6 206.237 206.413 131.411 247.262 o
2 8 8 14.857 32.412 106.090 416.140 o
2 8 10 304.851 278.996 144.708 191.850 o
2 8 12 139.246 213.352 148.259 203.456 o
2 8 14 783.162 1374.570 290.338 38.219 o
2 8 16 153.336 243.988 126.883 268.864 o
2 8 18 14.721 -152.843 108.517 398.213 o
2 8 20 21.447 190.518 281.419 59.050 o
2 8 22 8.628 -240.583 285.728 57.456 o
2 8 24 22.197 63.508 291.283 55.253 o
2 8 26 0.468 99.443 283.127 58.485 o
2 8 28 23.355 75.954 275.630 61.690 o
2 9 -27 32.005 28.646 237.879 82.841 o
2 9 -25 213.949 409.851 368.316 33.802 o
2 9 -23 3.078 268.857 318.983 45.950 o
2 9 -21 163.508 483.316 345.499 38.359 o
2 9 -19 83.548 74.892 248.115 75.877 o
2 9 -17 89.602 -74.010 199.102 117.907 o
2 9 -15 471.351 956.864 404.501 26.110 o
2 9 -13 61.692 157.139 302.359 51.115 o
2 9 -11 1156.770 1313.170 256.551 37.745 o
2 9 -9 11.230 54.880 140.140 238.529 o
2 9 -7 261.047 291.127 197.651 111.673 o
2 9 -5 307.163 195.343 158.145 167.989 o
2 9 -3 42.036 -258.289 173.948 154.868 o
2 9 -1 195.339 -136.926 169.643 159.244 o
2 9 1 60.058 48.363 132.853 263.884 o
2 9 3 16.176 -105.065 144.846 223.532 o
2 9 5 14.848 -21.484 93.337 538.212 o
2 9 7 94.889 14.945 115.758 345.269 o
2 9 9 432.351 414.717 179.471 118.800 o
2 9 11 54.747 90.746 138.025 243.947 o
2 9 13 685.232 499.054 177.684 99.582 o
2 9 15 2.896 240.288 151.415 202.231 o
2 9 17 15.692 -292.985 293.987 54.272 o
2 9 19 12.716 323.704 329.522 42.985 o
2 9 21 6.285 93.928 277.377 60.929 o
2 9 23 21.622 -280.778 320.495 45.664 o
2 9 25 24.977 -149.636 260.143 69.304 o
2 10 -22 38.686 -134.952 261.268 68.692 o
2 10 -20 81.021 459.017 356.585 36.401 o
2 10 -18 104.886 340.574 327.841 43.104 o
2 10 -16 2.011 274.419 321.415 45.256 o
2 10 -14 94.616 522.630 347.520 38.130 o
2 10 -12 66.562 -100.343 242.679 79.544 o
2 10 -10 533.161 550.682 340.945 36.686 o
2 10 -8 9.170 229.393 170.031 160.738 o
2 10 -6 4.478 133.664 155.490 193.298 o
2 10 -4 66.319 -100.483 166.391 168.953 o
2 10 -2 31.825 104.872 136.795 248.994 o
2 10 0 0.071 -81.582 167.816 166.566 o
2 10 2 2.515 -184.220 126.551 292.897 o
2 10 4 0.372 10.364 114.607 357.115 o
2 10 6 9.425 -74.230 107.799 403.610 o
2 10 8 182.238 373.216 199.717 110.880 o
2 10 10 21.845 122.338 125.046 297.662 o
2 10 12 15.998 -33.005 152.003 202.984 o
2 10 14 0.038 44.347 228.856 89.547 o
2 10 16 26.968 -50.735 246.863 76.957 o
2 10 18 79.501 360.736 347.249 38.518 o
2 10 20 0.350 -163.194 263.669 67.474 o
2 11 -17 217.482 -312.839 362.266 35.516 o
2 11 -15 290.216 592.851 417.284 26.025 o
2 11 -13 232.516 533.802 357.629 35.447 o
2 11 -11 113.376 -75.545 225.251 92.038 o
2 11 -9 5.436 -392.037 317.179 46.627 o
2 11 -7 7.377 11.053 171.494 159.481 o
2 11 -5 155.885 255.235 218.661 95.262 o
2 11 -3 52.087 208.945 171.483 157.188 o
2 11 -1 19.038 -10.859 222.319 94.894 o
2 11 1 38.565 126.807 128.126 282.562 o
2 11 3 3.879 248.934 137.983 242.644 o
2 11 5 1.328 174.785 121.128 316.693 o
2 11 7 1.203 225.994 122.393 308.365 o
2 11 9 54.509 -0.718 241.092 80.629 o
2 11 11 242.683 370.168 312.783 46.404 o
2 11 13 374.644 883.288 510.958 17.187 o
2 11 15 17.120 624.465 426.459 25.522 o
2 12 -10 127.104 599.567 410.371 27.329 o
2 12 -8 57.428 653.580 403.933 28.295 o
2 12 -6 45.014 494.268 373.608 33.245 o
2 12 -4 66.288 121.552 228.034 89.714 o
2 12 -2 196.379 250.256 225.314 89.172 o
2 12 0 40.717 97.947 117.586 335.792 o
2 12 2 6.743 459.231 176.692 145.619 o
2 12 4 34.153 382.854 172.551 152.903 o
2 12 6 44.714 908.717 506.523 17.973 o
2 12 8 5.407 366.120 356.303 36.767 o
2 12 10 47.319 298.070 408.348 28.016 o
2 13 -3 157.207 205.636 343.856 39.274 o
2 13 -1 49.460 206.545 294.044 53.994 o
2 13 1 28.629 59.820 284.937 57.734 o
2 13 3 46.163 349.460 410.451 27.701 o
3 1 -42 35.499 -69.755 178.383 147.312 o
3 1 -40 420.530 410.604 124.182 209.561 o
3 1 -38 327.026 284.730 92.181 377.857 o
3 1 -36 96.881 45.742 93.506 521.306 o
3 1 -34 316.250 325.263 95.634 354.756 o
3 1 -32 133.479 230.249 180.044 139.964 o
3 1 -30 514.458 749.040 134.279 146.222 o
3 1 -28 215.275 141.668 91.285 479.237 o
3 1 -26 193.114 285.537 94.183 431.301 o
3 1 -24 36.906 79.802 93.819 526.658 o
3 1 -22 586.144 491.157 92.767 224.403 o
3 1 -20 2000.260 1782.960 155.151 27.157 o
3 1 -18 117.317 57.643 54.912 1381.690 o
3 1 -16 104.238 78.945 44.242 2017.970 o
3 1 -14 329.944 689.523 81.365 318.819 o
3 1 -12 2239.400 4818.130 211.735 10.935 o
3 1 -10 505.606 1506.330 100.298 122.705 o
3 1 -8 3356.920 2249.800 150.912 12.348 o
3 1 -6 344.564 250.371 54.327 682.374 o
3 1 -4 283.888 327.514 63.619 616.420 o
3 1 -2 121.313 84.021 45.135 1867.840 o
3 1 0 2251.000 4163.230 189.565 12.690 o
3 1 2 1179.280 387.200 49.027 130.624 o
3 1 4 289.509 118.326 27.491 1608.090 o
3 1 6 6611.900 5123.060 154.534 3.086 o
3 1 8 5501.200 3021.290 135.572 5.256 o
3 1 10 2151.290 4403.200 205.517 12.374 o
3 1 12 95.996 -8.848 70.254 919.883 o
3 1 14 213.550 110.569 104.880 381.845 o
3 1 16 569.396 460.742 56.071 323.169 o
3 1 18 35.693 53.787 140.833 235.678 o
3 1 20 1.748 181.417 171.913 157.909 o
3 1 22 18.207 194.752 193.001 125.134 o
3 1 24 390.804 158.574 162.434 154.745 o
3 1 26 404.820 298.528 166.684 141.114 o
3 1 28 27.717 -11.912 137.624 247.486 o
3 1 30 13.497 53.360 132.492 266.787 o
3 1 32 1.707 72.538 130.947 273.156 o
3 1 34 25.114 -92.993 138.202 245.453 o
3 1 36 1.270 -199.305 220.087 96.842 o
3 2 -41 902.321 1033.860 281.643 40.743 o
3 2 -39 572.477 573.353 134.123 150.776 o
3 2 -37 509.389 554.341 191.463 98.430 o
3 2 -35 785.153 730.547 148.007 103.244 o
3 2 -33 301.581 261.138 126.220 243.660 o
3 2 -31 894.947 1016.980 243.560 49.724 o
3 2 -29 147.410 -39.972 86.564 595.312 o
3 2 -27 5.888 58.291 84.506 654.870 o
3 2 -25 399.047 500.793 92.023 293.792 o
3 2 -23 3063.990 3644.140 195.280 10.141 o
3 2 -21 1773.240 2402.980 153.969 25.913 o
3 2 -19 59.892 278.790 129.938 266.678 o
3 2 -17 6283.740 8597.840 270.792 2.272 o
3 2 -15 9.100 82.645 55.357 1508.510 o
3 2 -13 1838.730 1430.880 121.850 35.856 o
3 2 -11 5221.090 4178.260 182.748 4.770 o
3 2 -9 44.102 -12.941 38.242 3133.490 o
3 2 -7 55.683 146.787 32.293 3503.200 o
3 2 -5 273.854 286.480 44.001 932.797 o
3 2 -3 2051.210 2488.250 127.946 22.399 o
3 2 -1 1139.360 1677.370 107.347 57.853 o
3 2 1 7077.980 5468.350 177.066 2.691 o
3 2 3 79.535 210.320 35.191 2542.690 o
3 2 5 1069.600 769.620 80.082 106.565 o
3 2 7 8308.460 10208.200 322.750 1.420 o
3 2 9 1021.920 1860.380 138.158 54.021 o
3 2 11 1718.900 2547.110 187.010 24.159 o
3 2 13 1081.470 865.675 136.539 78.957 o
3 2 15 16.273 8.160 54.962 1549.050 o
3 2 17 8.992 -48.265 87.114 618.007 o
3 2 19 130.410 10.056 96.638 485.347 o
3 2 21 89.731 -81.914 249.954 74.910 o
3 2 23 270.765 -686.347 350.700 37.740 o
3 2 25 579.002 76.206 199.075 101.094 o
3 2 27 284.926 -461.976 361.930 35.420 o
3 2 29 482.401 189.172 243.296 72.043 o
3 2 31 14.461 -188.220 131.593 270.829 o
3 2 33 5.959 -126.437 131.801 270.022 o
3 2 35 3.300 -17.247 130.330 276.156 o
3 3 -42 2004.350 2918.680 700.024 6.670 o
3 3 -40 572.221 997.996 426.154 23.221 o
3 3 -38 857.372 960.743 300.379 38.436 o
3 3 -36 728.383 774.737 267.425 50.090 o
3 3 -34 1166.610 1237.850 215.375 45.514 o
3 3 -32 845.757 1110.770 204.640 61.096 o
3 3 -30 2547.690 2851.220 296.943 12.718 o
3 3 -28 59.629 127.828 108.164 391.859 o
3 3 -26 2023.380 2190.230 246.910 20.059 o
3 3 -24 9218.630 8290.410 323.263 1.430 o
3 3 -22 2736.820 1960.830 132.608 17.820 o
3 3 -20 251.580 178.443 80.247 551.577 o
3 3 -18 5674.470 5885.030 257.178 3.384 o
3 3 -16 545.484 618.583 93.577 215.713 o
3 3 -14 4286.150 4943.470 211.855 5.475 o
3 3 -12 1022.460 1027.630 87.465 94.557 o
3 3 -10 6103.570 5282.680 188.413 3.363 o
3 3 -8 2232.520 1716.820 99.216 26.105 o
3 3 -6 13004.500 12577.700 312.156 0.699 o
3 3 -4 1029.840 916.515 79.470 102.682 o
3 3 -2 6719.530 6385.790 229.700 2.607 o
3 3 0 198.299 77.248 61.498 981.353 o
3 3 2 5034.910 4076.740 172.402 5.103 o
3 3 4 1988.860 1055.820 91.716 38.761 o
3 3 6 308.592 157.358 57.828 780.461 o
3 3 8 4676.530 4675.790 212.578 5.099 o
3 3 10 6983.050 7810.190 354.348 2.101 o
3 3 12 1.530 -50.490 45.929 2223.680 o
3 3 14 1376.430 2166.370 244.654 28.021 o
3 3 16 170.261 549.896 164.530 153.326 o
3 3 18 827.789 1376.110 220.001 52.559 o
3 3 20 484.895 1090.720 198.094 80.722 o
3 3 22 823.089 1001.460 200.169 65.861 o
3 3 24 69.721 -224.599 267.500 65.476 o
3 3 26 1028.970 983.927 273.460 40.472 o
3 3 28 311.276 401.156 219.460 88.807 o
3 3 30 160.979 97.042 208.945 105.559 o
3 3 32 2.489 11.946 173.057 156.622 o
3 3 34 4.789 80.040 173.061 156.435 o
3 3 36 59.846 341.121 232.402 85.359 o
3 4 -41 486.249 1102.310 489.876 18.104 o
3 4 -39 1315.050 1773.830 444.654 16.522 o
3 4 -37 1256.150 1387.550 411.349 19.809 o
3 4 -35 750.191 829.608 259.202 51.371 o
3 4 -33 1562.410 1517.990 324.237 23.345 o
3 4 -31 1635.290 1775.940 498.639 12.964 o
3 4 -29 1763.650 1944.010 327.691 19.511 o
3 4 -27 2699.960 3027.940 395.359 9.938 o
3 4 -25 7396.530 7965.740 959.925 1.455 o
3 4 -23 2864.360 2009.830 356.729 11.924 o
3 4 -21 2720.160 1914.090 257.681 15.290 o
3 4 -19 5044.000 4376.560 618.438 3.574 o
3 4 -17 874.423 378.083 136.289 121.272 o
3 4 -15 3259.800 2789.000 302.443 9.843 o
3 4 -13 1615.330 1716.560 155.575 35.274 o
3 4 -11 4654.170 5847.860 282.345 4.262 o
3 4 -9 6331.810 8265.490 335.230 2.278 o
3 4 -7 10973.600 13491.800 464.547 0.809 o
3 4 -5 11068.800 12184.300 380.655 0.872 o
3 4 -3 3030.100 2182.480 164.139 14.262 o
3 4 -1 7014.730 7726.940 305.212 2.135 o
3 4 1 3523.480 4267.460 224.500 7.574 o
3 4 3 791.729 1361.050 130.645 84.365 o
3 4 5 1163.400 1127.740 109.029 72.249 o
3 4 7 3627.970 3274.000 194.067 8.843 o
3 4 9 3110.340 2741.560 207.962 11.720 o
3 4 11 832.194 477.875 97.519 156.848 o
3 4 13 3065.550 2919.440 224.547 11.318 o
3 4 15 2255.300 2029.130 181.364 21.038 o
3 4 17 1002.250 1137.790 111.516 83.289 o
3 4 19 1286.290 1186.110 117.480 61.245 o
3 4 21 514.875 352.372 735.388 8.540 o
3 4 23 741.598 588.164 247.245 58.490 o
3 4 25 267.907 923.756 360.369 33.666 o
3 4 27 946.812 1073.240 314.665 33.958 o
3 4 29 14.115 317.007 373.420 33.513 o
3 4 31 40.873 26.066 480.214 20.337 o
3 4 33 372.849 766.235 414.990 25.721 o
3 4 35 61.478 111.830 236.124 83.766 o
3 4 37 49.015 403.624 334.280 41.563 o
3 5 -40 560.725 331.286 358.669 33.986 o
3 5 -38 1886.940 1884.040 547.988 10.599 o
3 5 -36 1685.970 1422.510 474.535 14.330 o
3 5 -34 772.024 304.344 285.446 48.527 o
3 5 -32 1551.820 1540.670 492.765 13.850 o
3 5 -30 1732.410 1483.760 461.554 14.574 o
3 5 -28 2868.590 2412.070 568.080 7.592 o
3 5 -26 3883.220 2988.950 592.414 5.422 o
3 5 -24 3294.980 2767.780 569.955 6.569 o
3 5 -22 1027.620 923.648 337.148 30.637 o
3 5 -20 4274.830 4333.760 670.934 3.949 o
3 5 -18 5453.010 4706.600 696.537 2.991 o
3 5 -16 2501.730 2490.780 504.774 9.300 o
3 5 -14 1343.180 1164.170 121.165 58.216 o
3 5 -12 3447.760 3121.590 215.369 9.527 o
3 5 -10 4717.780 4266.910 254.465 5.217 o
3 5 -8 5429.930 5223.810 345.402 3.696 o
3 5 -6 6202.980 5908.210 326.358 2.937 o
3 5 -4 3956.400 3656.240 261.785 7.071 o
3 5 -2 2871.260 3301.010 249.577 11.017 o
3 5 0 6740.230 7699.850 790.662 1.791 o
3 5 2 1952.830 2482.140 250.124 19.232 o
3 5 4 1284.210 1735.090 173.466 41.733 o
3 5 6 2339.250 2732.430 213.552 16.192 o
3 5 8 2728.140 3084.610 223.532 12.537 o
3 5 10 373.790 367.626 174.707 130.121 o
3 5 12 1836.960 1693.310 230.227 25.911 o
3 5 14 2243.230 1898.700 309.505 16.935 o
3 5 16 1798.840 1115.640 180.527 35.719 o
3 5 18 693.124 521.273 382.564 28.862 o
3 5 20 521.589 493.380 148.037 144.742 o
3 5 22 861.006 766.102 169.048 83.629 o
3 5 24 496.371 189.038 218.684 86.820 o
3 5 26 741.070 926.836 423.701 22.847 o
3 5 28 39.362 729.062 287.009 55.009 o
3 5 30 17.741 787.027 560.242 14.803 o
3 5 32 426.487 1463.930 651.350 10.468 o
3 5 34 228.719 488.166 383.964 30.983 o
3 5 36 16.864 329.518 321.524 45.120 o
3 6 -37 2163.050 2399.690 648.324 7.549 o
3 6 -35 1974.850 1614.230 539.019 10.957 o
3 6 -33 762.033 1069.500 436.378 21.291 o
3 6 -31 2269.830 1845.300 527.864 10.201 o
3 6 -29 1350.240 1258.430 483.427 15.463 o
3 6 -27 851.601 541.422 324.365 36.761 o
3 6 -25 2640.640 2140.040 538.845 8.766 o
3 6 -23 2592.090 1934.010 503.640 9.796 o
3 6 -21 453.146 335.046 278.066 55.731 o
3 6 -19 2860.950 2601.090 574.224 7.357 o
3 6 -17 12732.600 11585.600 1108.240 0.640 o
3 6 -15 1188.220 895.697 236.212 45.374 o
3 6 -13 4288.040 3914.540 395.676 5.519 o
3 6 -11 1318.980 1149.070 168.352 50.942 o
3 6 -9 2584.620 2987.020 273.568 12.661 o
3 6 -7 3870.410 5418.690 367.635 5.184 o
3 6 -5 721.833 1324.070 171.870 73.772 o
3 6 -3 2968.560 3616.900 277.641 9.717 o
3 6 -1 1036.050 963.542 226.835 50.761 o
3 6 1 5684.840 5302.190 628.183 2.878 o
3 6 3 5374.140 4342.780 584.427 3.465 o
3 6 5 1386.220 1067.480 303.336 29.775 o
3 6 7 1335.400 1413.560 335.272 25.145 o
3 6 9 1520.230 1898.030 369.621 19.145 o
3 6 11 788.464 1089.120 199.373 65.754 o
3 6 13 507.648 531.762 155.835 134.324 o
3 6 15 1428.330 1382.830 213.174 37.430 o
3 6 17 367.568 341.083 182.373 122.133 o
3 6 19 419.910 659.904 174.663 115.814 o
3 6 21 1156.580 1671.730 260.989 33.823 o
3 6 23 118.241 114.198 241.025 79.994 o
3 6 25 1565.750 2379.440 624.555 8.934 o
3 6 27 6.113 587.068 384.285 31.425 o
3 6 29 163.524 312.555 338.334 40.338 o
3 6 31 287.050 1072.090 499.087 17.963 o
3 6 33 84.659 377.621 382.991 31.692 o
3 7 -34 1665.580 1778.580 583.619 10.272 o
3 7 -32 2445.960 2366.890 624.277 7.519 o
3 7 -30 476.694 518.213 374.318 31.327 o
3 7 -28 1259.890 1349.380 494.043 15.102 o
3 7 -26 740.841 639.463 367.168 30.301 o
3 7 -24 1844.000 1634.030 505.993 12.283 o
3 7 -22 1622.730 2077.840 553.343 10.855 o
3 7 -20 1516.680 1717.040 501.674 13.327 o
3 7 -18 2627.170 1976.970 359.506 12.971 o
3 7 -16 13889.200 12694.600 1223.510 0.534 o
3 7 -14 1079.490 871.912 378.644 25.466 o
3 7 -12 3569.350 3346.500 280.999 8.265 o
3 7 -10 856.838 728.925 150.202 95.581 o
3 7 -8 2576.740 1832.300 231.107 17.354 o
3 7 -6 446.038 357.614 115.493 231.308 o
3 7 -4 3433.490 2344.970 356.987 9.296 o
3 7 -2 25.344 316.398 246.517 76.436 o
3 7 0 7929.970 7280.550 601.421 1.711 o
3 7 2 4918.510 5015.410 468.536 3.909 o
3 7 4 1923.070 2033.950 421.069 14.173 o
3 7 6 2390.320 2657.840 462.040 10.211 o
3 7 8 1701.790 2223.510 425.096 14.593 o
3 7 10 285.374 525.578 275.058 57.913 o
3 7 12 1553.470 2349.220 335.841 19.139 o
3 7 14 72.908 575.797 193.668 117.797 o
3 7 16 634.317 983.470 232.456 61.256 o
3 7 18 494.315 711.280 246.943 63.541 o
3 7 20 977.413 1473.330 285.927 35.010 o
3 7 22 112.536 557.906 381.955 31.564 o
3 7 24 1306.370 2266.330 674.681 8.362 o
3 7 26 32.726 610.390 424.050 25.795 o
3 7 28 558.080 990.230 474.784 19.136 o
3 7 30 89.379 308.144 321.012 45.060 o
3 8 -29 1391.810 1473.750 539.378 12.627 o
3 8 -27 921.800 1408.800 493.934 16.121 o
3 8 -25 1244.220 1218.690 474.212 16.404 o
3 8 -23 1203.960 1439.110 511.722 14.317 o
3 8 -21 1371.590 1221.600 459.917 16.670 o
3 8 -19 4361.380 4117.430 767.643 3.548 o
3 8 -17 1450.580 1674.520 498.114 13.749 o
3 8 -15 6883.630 6578.070 523.677 2.219 o
3 8 -13 1221.770 1623.820 282.134 30.634 o
3 8 -11 3008.920 3611.810 404.571 8.146 o
3 8 -9 1444.570 1995.170 318.006 22.644 o
3 8 -7 993.747 1097.000 286.400 37.735 o
3 8 -5 2174.960 2429.150 354.398 14.221 o
3 8 -3 84.019 193.030 122.607 300.467 o
3 8 -1 7213.430 6890.470 480.468 2.084 o
3 8 1 2147.040 2607.300 300.028 15.548 o
3 8 3 1806.580 2201.570 275.478 20.741 o
3 8 5 2002.020 2240.330 342.946 16.125 o
3 8 7 2021.330 2065.030 330.144 17.071 o
3 8 9 1161.010 1702.670 304.301 28.500 o
3 8 11 140.659 261.625 160.404 173.481 o
3 8 13 1289.750 1437.350 292.607 29.815 o
3 8 15 100.451 398.747 339.360 40.174 o
3 8 17 1154.280 1021.400 234.743 44.937 o
3 8 19 780.291 1519.740 548.407 13.679 o
3 8 21 137.416 484.980 379.053 32.075 o
3 8 23 782.942 1534.730 568.806 12.807 o
3 8 25 139.358 479.070 390.625 30.236 o
3 8 27 602.629 1270.240 542.935 14.567 o
3 9 -24 1237.800 1084.580 472.763 16.763 o
3 9 -22 1133.180 987.837 452.092 18.655 o
3 9 -20 1189.050 1693.120 540.336 12.829 o
3 9 -18 3356.950 3807.190 774.040 4.299 o
3 9 -16 390.943 564.103 395.390 28.536 o
3 9 -14 3242.610 3435.600 715.951 4.938 o
3 9 -12 1294.640 1111.440 263.813 35.955 o
3 9 -10 1830.760 1826.110 320.864 19.810 o
3 9 -8 1525.480 1631.700 319.851 23.483 o
3 9 -6 1169.460 1633.080 352.877 24.100 o
3 9 -4 379.294 795.621 196.516 95.044 o
3 9 -2 5375.730 6098.390 479.146 3.145 o
3 9 0 949.454 1082.630 224.902 52.068 o
3 9 2 1304.500 1180.450 221.328 41.583 o
3 9 4 982.136 984.000 292.499 37.772 o
3 9 6 1260.950 1462.940 300.589 29.149 o
3 9 8 680.916 1278.460 383.746 26.317 o
3 9 10 1346.170 1871.200 481.132 14.476 o
3 9 12 14.791 551.476 209.460 103.381 o
3 9 14 894.546 1523.700 302.195 33.483 o
3 9 16 711.036 1407.360 544.265 14.137 o
3 9 18 687.019 1256.480 487.085 17.503 o
3 9 20 223.925 527.509 382.020 31.238 o
3 9 22 370.031 1501.120 594.548 12.482 o
3 10 -21 887.104 650.480 394.747 25.780 o
3 10 -19 219.380 349.138 345.126 38.490 o
3 10 -17 1600.730 1326.080 479.007 14.634 o
3 10 -15 717.690 940.947 471.393 18.968 o
3 10 -13 874.546 645.163 336.601 33.801 o
3 10 -11 683.346 511.818 357.738 32.653 o
3 10 -9 1279.550 1164.940 279.964 33.502 o
3 10 -7 962.092 1042.100 274.783 40.928 o
3 10 -5 496.694 500.720 178.899 111.883 o
3 10 -3 1881.230 1902.450 302.116 20.055 o
3 10 -1 512.940 698.284 201.803 86.970 o
3 10 1 1160.480 1254.830 250.844 39.172 o
3 10 3 479.211 919.986 216.001 75.248 o
3 10 5 345.796 798.155 244.660 67.279 o
3 10 7 678.468 1184.310 289.056 41.787 o
3 10 9 283.101 801.768 252.912 64.897 o
3 10 11 744.540 944.946 264.276 48.775 o
3 10 13 36.389 1006.790 498.202 18.513 o
3 10 15 487.524 355.573 398.525 28.141 o
3 10 17 519.209 680.508 419.584 24.795 o
3 11 -14 637.314 514.498 372.894 30.604 o
3 11 -12 177.680 6.673 214.434 100.739 o
3 11 -10 364.594 320.994 317.315 44.425 o
3 11 -8 728.627 666.821 404.668 25.520 o
3 11 -6 537.483 609.235 195.182 92.516 o
3 11 -4 228.752 336.891 161.191 162.948 o
3 11 -2 408.715 655.224 211.056 86.574 o
3 11 0 511.239 667.316 208.784 83.346 o
3 11 2 383.272 491.932 188.534 110.156 o
3 11 4 151.934 337.103 211.943 100.348 o
3 11 6 373.325 404.635 198.442 103.619 o
3 11 8 218.699 483.237 219.606 90.219 o
3 11 10 259.617 596.110 388.291 30.012 o
3 11 12 135.447 424.670 374.080 33.014 o
3 12 -9 289.285 524.004 425.854 25.118 o
3 12 -7 231.014 494.296 269.700 61.077 o
3 12 -5 134.026 195.218 248.205 74.982 o
3 12 -3 76.801 157.268 167.992 163.724 o
3 12 -1 443.320 718.540 232.043 71.840 o
3 12 1 109.372 77.051 123.511 299.852 o
3 12 3 123.364 501.310 195.034 115.752 o
3 12 5 296.810 600.725 248.485 68.897 o
3 12 7 152.627 730.795 426.119 25.172 o
3 13 0 156.138 340.156 187.061 127.179 o
4 0 -42 2400.070 1795.240 452.510 11.783 o
4 0 -40 5450.420 4684.960 517.869 3.480 o
4 0 -38 7263.430 7475.280 636.728 1.835 o
4 0 -36 4198.390 4064.460 468.241 5.158 o
4 0 -34 7956.320 7902.420 657.831 1.588 o
4 0 -32 4073.960 4633.750 366.334 5.453 o
4 0 -30 12316.100 13303.700 598.857 0.694 o
4 0 -28 4618.000 5252.350 434.598 4.181 o
4 0 -26 9201.130 10644.100 598.866 1.142 o
4 0 -24 8503.740 10206.200 564.455 1.299 o
4 0 -22 13109.800 13957.500 635.978 0.619 o
4 0 -20 23109.400 25083.900 940.102 0.200 o
4 0 -18 16116.300 18823.400 1045.730 0.370 o
4 0 -16 12103.900 14056.100 885.364 0.643 o
4 0 -14 12028.700 15617.500 908.851 0.600 o
4 0 -12 5039.160 5282.490 710.285 3.020 o
4 0 -10 17543.500 17216.500 673.036 0.372 o
4 0 -8 11529.300 9026.980 481.324 0.976 o
4 0 -6 19765.800 17600.700 663.728 0.314 o
4 0 -4 3032.750 2037.660 230.190 13.604 o
4 0 -2 34375.300 37003.600 957.796 0.093 o
4 0 0 5533.930 4594.900 346.804 3.875 o
4 0 2 26058.300 21681.400 826.767 0.188 o
4 0 4 8841.920 6562.300 1078.160 1.243 o
4 0 6 459.374 156.403 245.326 71.811 o
4 0 8 11364.700 10384.600 542.432 0.908 o
4 0 10 11016.400 13794.300 608.085 0.772 o
4 0 12 2629.600 3932.780 343.008 9.511 o
4 0 14 1961.590 2656.900 289.888 16.967 o
4 0 16 1492.700 1859.060 254.365 27.755 o
4 0 18 1460.950 1024.750 318.192 27.517 o
4 0 20 1541.970 1131.090 369.755 21.749 o
4 0 22 2484.810 2252.280 503.196 9.672 o
4 0 24 191.257 316.758 278.112 58.990 o
4 0 26 2222.300 2692.700 612.953 7.791 o
4 0 28 773.569 822.129 375.744 28.236 o
4 0 30 753.046 1240.000 497.682 16.681 o
4 0 32 180.638 441.702 293.406 52.734 o
4 0 34 96.687 98.951 283.083 58.260 o
4 1 -41 3926.160 3299.530 353.747 6.920 o
4 1 -39 5450.050 5521.340 394.414 3.464 o
4 1 -37 4511.020 4055.990 328.003 5.406 o
4 1 -35 3875.530 3851.070 307.887 6.768 o
4 1 -33 4895.660 5007.520 343.560 4.298 o
4 1 -31 6705.290 6739.900 439.990 2.348 o
4 1 -29 9113.780 9064.980 410.000 1.348 o
4 1 -27 7787.940 8376.510 384.050 1.739 o
4 1 -25 5571.510 5883.370 309.790 3.388 o
4 1 -23 13706.800 13784.300 461.068 0.605 o
4 1 -21 24083.700 24880.900 600.022 0.195 o
4 1 -19 9224.730 8563.460 475.329 1.352 o
4 1 -17 9344.720 8609.950 504.552 1.315 o
4 1 -15 11561.700 11858.800 402.522 0.838 o
4 1 -13 6839.290 6881.820 399.142 2.302 o
4 1 -11 4338.590 5104.050 294.204 5.040 o
4 1 -9 14792.800 16806.200 523.412 0.477 o
4 1 -7 10796.300 11845.900 386.451 0.916 o
4 1 -5 15168.800 15799.800 452.093 0.485 o
4 1 -3 16806.400 16322.600 520.276 0.413 o
4 1 -1 11802.500 10716.300 394.331 0.870 o
4 1 1 12014.000 10572.400 444.468 0.850 o
4 1 3 11283.600 10473.800 891.437 0.831 o
4 1 5 5024.530 5321.150 245.510 4.225 o
4 1 7 1350.750 1509.210 115.533 50.906 o
4 1 9 4704.580 4524.330 181.129 5.237 o
4 1 11 7745.940 6652.020 318.076 2.057 o
4 1 13 1742.030 1217.690 251.377 29.056 o
4 1 15 2070.460 2009.390 254.326 20.150 o
4 1 17 1204.820 1095.980 281.622 35.025 o
4 1 19 2177.250 2353.880 303.902 16.044 o
4 1 21 1416.560 788.459 283.682 33.803 o
4 1 23 1362.550 1223.090 252.164 35.305 o
4 1 25 565.170 361.417 382.282 30.064 o
4 1 27 937.060 709.747 346.097 31.386 o
4 1 29 664.755 605.127 230.017 67.453 o
4 1 31 259.253 95.979 269.253 63.240 o
4 1 33 175.584 147.401 151.483 195.031 o
4 1 35 32.236 -94.859 195.638 122.500 o
4 2 -42 3635.240 3237.490 546.722 5.940 o
4 2 -40 3428.090 2982.990 342.062 8.571 o
4 2 -38 2372.840 2138.050 297.547 15.681 o
4 2 -36 2355.910 2259.890 285.596 15.763 o
4 2 -34 2091.490 2172.140 331.673 16.203 o
4 2 -32 4198.060 4409.300 451.031 5.032 o
4 2 -30 5863.560 5886.680 500.133 2.880 o
4 2 -28 12322.600 12732.400 582.576 0.716 o
4 2 -26 4029.410 4197.050 263.406 6.365 o
4 2 -24 11534.900 12625.200 390.521 0.807 o
4 2 -22 22447.700 22176.600 506.145 0.232 o
4 2 -20 9129.970 8968.050 392.771 1.360 o
4 2 -18 2055.490 1980.160 149.482 25.052 o
4 2 -16 4300.490 4206.190 222.970 6.024 o
4 2 -14 9192.510 8619.040 382.976 1.385 o
4 2 -12 1549.670 1500.480 137.688 41.514 o
4 2 -10 3283.890 4083.780 222.728 8.469 o
4 2 -8 9066.120 11449.600 371.553 1.165 o
4 2 -6 12454.200 14188.300 409.664 0.674 o
4 2 -4 27166.100 32637.400 611.274 0.138 o
4 2 -2 9843.400 9746.280 357.990 1.179 o
4 2 0 8267.890 8749.170 371.450 1.574 o
4 2 2 4860.670 4952.240 335.337 4.386 o
4 2 4 7381.340 8899.050 400.239 1.771 o
4 2 6 1346.800 2012.270 202.654 33.628 o
4 2 8 167.291 205.388 71.011 740.061 o
4 2 10 1305.400 943.129 175.975 53.855 o
4 2 12 4621.110 4007.800 376.458 5.088 o
4 2 14 1623.530 1343.230 461.414 15.302 o
4 2 16 1585.550 1158.090 215.119 36.202 o
4 2 18 2622.520 2003.160 277.205 15.115 o
4 2 20 1796.170 1337.700 175.381 33.800 o
4 2 22 712.920 135.156 199.977 92.302 o
4 2 24 1235.420 419.152 299.423 37.001 o
4 2 26 144.134 -365.857 197.417 119.230 o
4 2 28 317.412 116.602 184.572 128.248 o
4 2 30 293.265 -99.212 252.509 71.847 o
4 2 32 70.073 261.060 161.412 175.234 o
4 2 34 60.016 205.048 160.860 178.050 o
4 3 -37 1046.310 1115.290 280.692 37.670 o
4 3 -35 2007.780 2062.980 350.679 16.334 o
4 3 -33 2144.300 2120.110 333.703 15.961 o
4 3 -31 2895.470 3215.260 391.496 9.130 o
4 3 -29 6935.080 7909.640 572.945 1.925 o
4 3 -27 7282.090 7257.460 657.706 1.840 o
4 3 -25 9866.540 11311.400 633.691 1.001 o
4 3 -23 13940.300 14447.700 460.707 0.574 o
4 3 -21 6756.130 6139.680 275.844 2.617 o
4 3 -19 1879.260 2134.150 166.067 25.787 o
4 3 -17 5779.050 7032.280 339.561 2.841 o
4 3 -15 920.687 1121.620 120.060 87.788 o
4 3 -13 5344.110 6267.240 272.229 3.470 o
4 3 -11 2349.580 2308.500 169.259 18.999 o
4 3 -9 1594.400 796.486 79.007 61.054 o
4 3 -7 11640.900 9161.920 469.922 0.958 o
4 3 -5 16852.100 15393.900 422.665 0.431 o
4 3 -3 12113.100 11304.900 360.978 0.817 o
4 3 -1 7073.900 7101.050 285.181 2.247 o
4 3 1 6468.620 5670.910 396.118 2.766 o
4 3 3 4281.670 3624.760 309.820 6.203 o
4 3 5 1648.370 1013.550 319.231 25.427 o
4 3 7 811.068 479.872 114.891 142.851 o
4 3 9 234.547 169.987 105.949 359.716 o
4 3 11 1538.040 1997.080 351.579 19.710 o
4 3 13 502.688 711.010 211.305 81.237 o
4 3 15 2353.050 2955.880 335.628 12.557 o
4 3 17 2933.510 3264.390 364.509 9.317 o
4 3 19 1533.690 1298.850 241.777 32.761 o
4 3 21 1220.820 1109.600 224.877 43.996 o
4 3 23 540.410 609.383 171.686 111.229 o
4 3 25 371.174 636.881 358.575 34.232 o
4 3 27 188.611 382.903 311.119 47.209 o
4 3 29 175.634 533.758 372.671 32.950 o
4 3 31 3.479 353.465 225.357 91.328 o
4 3 33 29.549 142.285 136.879 247.983 o
4 3 35 309.119 922.673 435.871 23.392 o
4 4 -36 1578.070 1897.410 533.405 11.785 o
4 4 -34 1811.720 1864.160 360.552 17.779 o
4 4 -32 2421.280 1996.010 529.067 9.617 o
4 4 -30 2657.820 2602.760 580.940 7.613 o
4 4 -28 4913.640 4963.110 577.923 3.591 o
4 4 -26 8185.850 8220.420 819.995 1.396 o
4 4 -24 7812.540 7646.540 759.921 1.572 o
4 4 -22 4302.010 4593.710 553.873 4.340 o
4 4 -20 2469.870 2157.230 170.344 18.550 o
4 4 -18 2424.980 2480.670 189.159 17.081 o
4 4 -16 7498.170 7657.290 386.332 1.930 o
4 4 -14 949.513 1309.410 110.485 80.935 o
4 4 -12 6859.920 7468.520 256.758 2.276 o
4 4 -10 1459.090 1620.150 149.357 41.203 o
4 4 -8 4441.650 4890.300 244.161 5.196 o
4 4 -6 8277.790 9501.560 523.061 1.425 o
4 4 -4 7817.110 8152.660 486.177 1.705 o
4 4 -2 3198.710 3094.820 511.072 7.090 o
4 4 0 7754.890 7401.920 742.137 1.627 o
4 4 2 4769.710 4452.020 374.568 4.643 o
4 4 4 2921.960 2154.670 271.527 13.100 o
4 4 6 2458.940 2535.480 438.551 10.680 o
4 4 8 770.096 812.458 264.851 49.510 o
4 4 10 1160.400 667.973 220.965 52.988 o
4 4 12 162.521 0.902 137.609 241.693 o
4 4 14 445.376 137.916 118.508 250.217 o
4 4 16 2738.130 3398.270 471.577 8.195 o
4 4 18 1317.870 1771.650 344.982 22.844 o
4 4 20 866.041 1228.990 385.940 24.962 o
4 4 22 887.389 1184.060 637.317 10.539 o
4 4 24 272.718 367.577 877.928 6.057 o
4 4 26 377.239 1397.330 518.511 16.207 o
4 4 28 366.644 846.317 524.071 16.416 o
4 4 30 14.781 573.278 250.489 72.885 o
4 4 32 19.956 501.710 476.472 20.544 o
4 4 34 236.284 661.685 431.676 24.424 o
4 4 36 93.172 285.459 343.263 39.479 o
4 5 -39 1172.120 644.115 372.327 26.306 o
4 5 -37 988.975 560.948 329.152 34.242 o
4 5 -35 1062.810 285.411 234.627 57.994 o
4 5 -33 1273.170 1470.450 469.792 16.042 o
4 5 -31 2964.920 2587.610 625.371 6.574 o
4 5 -29 2490.810 1775.220 527.405 9.751 o
4 5 -27 2960.300 2290.110 556.827 7.694 o
4 5 -25 3326.120 2630.070 588.619 6.431 o
4 5 -23 3162.810 2217.020 531.081 7.736 o
4 5 -21 1441.060 1262.160 401.106 19.774 o
4 5 -19 5687.190 5166.490 764.418 2.606 o
4 5 -17 42.594 75.825 202.485 114.090 o
4 5 -15 15550.900 14622.300 545.786 0.489 o
4 5 -13 1576.530 1277.720 140.536 43.839 o
4 5 -11 3219.720 3353.820 225.681 9.830 o
4 5 -9 2096.410 2841.410 229.957 17.196 o
4 5 -7 3080.100 3506.600 317.115 9.093 o
4 5 -5 1466.570 1939.920 250.064 27.910 o
4 5 -3 3893.140 3876.900 580.807 4.980 o
4 5 -1 1961.200 1741.910 413.885 14.944 o
4 5 1 1880.820 1863.780 408.977 15.235 o
4 5 3 6576.200 6579.830 742.307 2.056 o
4 5 5 3351.950 4037.350 337.388 7.486 o
4 5 7 790.103 1298.770 193.573 63.127 o
4 5 9 2839.360 3409.730 299.085 10.274 o
4 5 11 228.406 241.037 102.503 370.198 o
4 5 13 2264.400 2381.240 234.249 17.563 o
4 5 15 12.823 12.253 119.471 328.500 o
4 5 17 891.818 1199.880 296.173 36.855 o
4 5 19 728.221 736.068 222.833 66.050 o
4 5 21 700.983 769.629 230.585 63.280 o
4 5 23 264.163 203.537 148.358 192.322 o
4 5 25 627.108 551.727 221.155 73.983 o
4 5 27 213.984 263.696 277.425 59.310 o
4 5 29 6.698 389.989 316.653 46.447 o
4 5 31 66.704 -8.445 331.942 42.542 o
4 5 33 63.277 426.280 367.729 34.344 o
4 6 -34 238.363 161.131 284.523 56.679 o
4 6 -32 1736.810 1445.810 506.715 12.876 o
4 6 -30 1782.700 1517.520 543.545 11.434 o
4 6 -28 1217.900 606.177 353.143 28.286 o
4 6 -26 1130.060 979.760 391.893 23.427 o
4 6 -24 806.168 463.226 296.169 43.896 o
4 6 -22 1992.970 1424.320 460.380 13.714 o
4 6 -20 1140.610 950.595 376.657 24.913 o
4 6 -18 1363.020 737.755 319.033 30.243 o
4 6 -16 372.686 97.159 195.018 113.892 o
4 6 -14 4683.960 4071.460 397.565 4.882 o
4 6 -12 2149.870 2658.830 252.983 16.801 o
4 6 -10 673.207 1086.120 144.274 99.564 o
4 6 -8 1028.260 1281.260 182.839 56.554 o
4 6 -6 627.564 813.385 329.330 36.798 o
4 6 -4 1309.280 1542.240 425.916 18.157 o
4 6 -2 560.512 1219.590 369.024 29.221 o
4 6 0 995.290 2060.410 452.053 16.917 o
4 6 2 2325.240 3253.820 551.372 8.064 o
4 6 4 2218.530 2849.510 516.375 9.333 o
4 6 6 1383.030 1320.340 357.017 23.259 o
4 6 8 264.319 764.155 290.344 51.139 o
4 6 10 583.796 726.688 271.335 52.370 o
4 6 12 26.265 147.936 88.105 590.709 o
4 6 14 340.753 210.818 144.811 191.393 o
4 6 16 34.434 -1.107 138.265 245.104 o
4 6 18 162.831 124.362 123.195 291.774 o
4 6 20 582.967 688.349 229.027 69.253 o
4 6 22 336.036 353.566 161.969 151.762 o
4 6 24 186.025 110.626 106.202 380.926 o
4 6 26 171.158 561.084 365.249 34.231 o
4 6 28 35.891 -65.088 237.036 83.454 o
4 6 30 24.074 253.867 315.925 46.808 o
4 7 -31 898.111 769.004 443.981 20.722 o
4 7 -29 414.876 405.453 328.858 40.815 o
4 7 -27 652.391 591.247 362.437 31.837 o
4 7 -25 811.732 858.088 398.185 25.230 o
4 7 -23 298.442 13.603 190.087 124.131 o
4 7 -21 652.786 281.592 263.560 58.156 o
4 7 -19 188.611 -102.335 192.883 123.978 o
4 7 -17 2120.240 1906.770 529.989 10.451 o
4 7 -15 509.520 -45.638 230.537 81.209 o
4 7 -13 1053.140 839.357 237.561 49.378 o
4 7 -11 706.256 296.066 179.843 103.510 o
4 7 -9 81.922 -5.750 75.042 815.704 o
4 7 -7 581.723 239.039 163.466 132.273 o
4 7 -5 732.696 587.245 293.532 44.723 o
4 7 -3 14.923 1.531 167.406 167.357 o
4 7 -1 599.707 821.945 336.084 35.778 o
4 7 1 1791.170 1611.530 437.672 15.061 o
4 7 3 350.682 432.785 245.652 71.007 o
4 7 5 0.613 149.494 172.662 156.816 o
4 7 7 617.119 720.444 286.212 47.431 o
4 7 9 7.334 84.852 128.971 281.269 o
4 7 11 518.491 729.617 283.719 49.708 o
4 7 13 77.996 324.182 196.675 118.140 o
4 7 15 138.947 168.964 160.196 176.678 o
4 7 17 52.575 -50.065 146.580 217.826 o
4 7 19 93.967 146.630 110.837 366.980 o
4 7 21 388.264 623.724 196.124 99.427 o
4 7 23 24.291 -75.240 243.257 79.258 o
4 7 25 44.873 566.936 394.413 29.787 o
4 7 27 29.294 155.555 312.985 47.786 o
4 8 -26 620.359 651.651 369.049 30.838 o
4 8 -24 338.135 281.914 333.474 40.689 o
4 8 -22 72.790 -154.316 259.970 69.311 o
4 8 -20 234.227 251.892 286.014 55.770 o
4 8 -18 391.197 346.737 273.957 58.113 o
4 8 -16 24.447 -267.439 264.139 67.224 o
4 8 -14 115.202 -395.360 332.489 42.342 o
4 8 -12 0.573 -243.286 167.171 167.853 o
4 8 -10 150.605 157.139 205.076 109.115 o
4 8 -8 333.720 34.859 141.768 210.443 o
4 8 -6 176.943 -139.100 136.060 245.996 o
4 8 -4 151.919 -36.710 123.351 300.197 o
4 8 -2 196.879 -83.027 168.799 160.744 o
4 8 0 789.885 408.480 243.608 60.988 o
4 8 2 325.982 179.131 182.733 128.653 o
4 8 4 162.444 -71.481 191.355 126.486 o
4 8 6 10.187 118.054 176.032 150.965 o
4 8 8 127.950 222.175 191.306 124.710 o
4 8 10 17.942 204.889 173.546 154.428 o
4 8 12 31.042 349.569 196.174 119.550 o
4 8 14 20.301 230.557 135.429 251.282 o
4 8 16 0.359 76.704 238.145 82.673 o
4 8 18 156.422 114.088 252.601 72.594 o
4 8 20 197.324 886.518 460.600 21.376 o
4 8 22 28.725 -221.697 336.526 41.415 o
4 8 24 111.670 527.348 393.615 29.795 o
4 9 -23 105.578 474.347 373.366 33.153 o
4 9 -21 200.573 299.041 308.041 48.325 o
4 9 -19 46.695 -271.189 353.698 37.484 o
4 9 -17 12.391 56.172 235.620 84.450 o
4 9 -15 44.566 114.759 204.744 111.408 o
4 9 -13 21.031 -43.552 114.607 356.919 o
4 9 -11 9.110 -46.380 104.979 425.587 o
4 9 -9 50.059 226.142 130.533 267.866 o
4 9 -7 2.227 13.796 149.004 211.266 o
4 9 -5 659.464 686.476 195.873 83.407 o
4 9 -3 22.415 -5.336 125.559 297.379 o
4 9 -1 927.412 714.608 277.402 44.131 o
4 9 1 0.340 30.852 128.389 284.497 o
4 9 3 24.198 106.032 141.496 233.060 o
4 9 5 6.704 -92.937 330.553 42.931 o
4 9 7 8.258 -59.605 147.130 216.682 o
4 9 9 23.676 -48.065 151.074 205.438 o
4 9 11 19.368 242.150 162.371 175.588 o
4 9 13 10.940 157.277 166.444 168.454 o
4 9 15 0.457 51.553 274.550 62.221 o
4 9 17 16.493 322.731 388.678 30.936 o
4 9 19 105.094 -60.129 306.822 49.725 o
4 10 -16 48.935 142.455 254.566 72.100 o
4 10 -14 3.372 257.905 194.857 122.539 o
4 10 -12 0.482 89.546 154.289 196.752 o
4 10 -10 20.958 117.472 128.642 281.535 o
4 10 -8 97.989 2.859 134.395 257.207 o
4 10 -6 302.539 169.780 122.914 263.883 o
4 10 -4 4.442 112.684 132.927 264.491 o
4 10 -2 120.133 166.981 230.634 86.982 o
4 10 0 0.015 -47.242 162.892 176.787 o
4 10 2 4.374 212.421 188.816 130.777 o
4 10 4 3.974 134.326 304.930 50.400 o
4 10 6 1.524 -13.600 135.851 254.170 o
4 10 8 2.175 84.461 161.049 180.613 o
4 10 10 1.039 128.596 153.280 199.014 o
4 10 12 0.088 52.014 237.923 82.849 o
4 10 14 0.029 152.377 305.993 50.044 o
4 11 -11 56.058 -165.965 238.391 82.460 o
4 11 -9 38.105 -50.482 140.941 235.836 o
4 11 -7 18.488 175.382 148.526 210.725 o
4 11 -5 229.190 278.070 169.058 151.361 o
4 11 -3 192.881 86.045 267.368 64.724 o
4 11 -1 235.958 256.335 175.981 140.755 o
4 11 1 66.012 209.564 192.682 124.608 o
4 11 3 31.219 -107.681 172.303 157.911 o
4 11 5 21.230 187.848 187.554 132.464 o
4 11 7 2.888 180.722 194.214 123.856 o
4 11 9 4.582 94.396 172.673 157.076 o
4 12 -4 23.600 140.708 198.894 118.110 o
4 12 -2 26.102 36.967 192.665 126.250 o
4 12 0 2.545 72.389 152.489 201.502 o
4 12 2 68.951 652.447 293.357 52.804 o
4 12 4 30.049 6.405 204.080 112.576 o
5 1 -38 76.204 41.475 159.337 183.556 o
5 1 -36 1201.240 1011.490 238.600 43.142 o
5 1 -34 211.867 236.449 180.059 136.528 o
5 1 -32 393.713 266.023 100.017 314.072 o
5 1 -30 334.666 44.217 90.465 449.022 o
5 1 -28 28.980 -90.371 90.234 575.067 o
5 1 -26 94.600 59.864 74.825 798.519 o
5 1 -24 181.397 -41.040 88.696 554.999 o
5 1 -22 181.236 322.522 73.782 623.015 o
5 1 -20 607.363 710.533 105.902 169.411 o
5 1 -18 2827.310 2382.330 237.094 13.664 o
5 1 -16 219.370 227.584 108.226 342.745 o
5 1 -14 2782.360 2541.970 298.151 12.313 o
5 1 -12 51.147 126.020 102.431 437.428 o
5 1 -10 21.472 -18.819 89.818 580.875 o
5 1 -8 1112.380 1406.330 432.620 19.087 o
5 1 -6 26.184 -127.468 66.266 1065.290 o
5 1 -4 5.432 27.417 60.279 1288.690 o
5 1 -2 405.672 85.949 123.603 248.772 o
5 1 0 49.078 23.626 248.836 75.677 o
5 1 2 181.536 179.664 72.031 721.930 o
5 1 4 648.096 553.697 130.939 144.984 o
5 1 6 0.722 -50.108 57.482 1419.680 o
5 1 8 34.059 -7.618 50.680 1811.790 o
5 1 10 639.311 729.753 124.816 140.000 o
5 1 12 235.163 158.390 88.324 490.779 o
5 1 14 35.454 -71.695 72.398 891.158 o
5 1 16 1.108 -143.423 98.246 485.978 o
5 1 18 18.899 -88.352 156.690 191.011 o
5 1 20 0.400 -153.081 112.149 372.958 o
5 1 22 59.801 4.323 111.842 372.975 o
5 1 24 76.636 67.693 146.170 217.344 o
5 1 26 14.269 -176.085 175.513 152.258 o
5 1 28 12.664 -20.712 222.963 94.354 o
5 1 30 82.962 77.247 186.929 133.243 o
5 1 32 2.875 144.734 193.916 124.412 o
5 2 -37 1479.940 1760.160 446.681 15.713 o
5 2 -35 743.102 976.816 379.028 27.492 o
5 2 -33 1672.500 1486.300 344.905 21.064 o
5 2 -31 168.256 210.402 137.783 230.923 o
5 2 -29 1083.990 936.763 180.883 62.081 o
5 2 -27 551.821 573.737 151.995 131.738 o
5 2 -25 141.448 168.769 81.558 620.617 o
5 2 -23 260.840 303.063 104.052 338.693 o
5 2 -21 247.279 278.506 94.990 401.641 o
5 2 -19 461.110 362.891 128.545 196.567 o
5 2 -17 7382.970 7503.840 402.155 1.983 o
5 2 -15 59.099 23.566 92.703 540.226 o
5 2 -13 4923.890 5035.970 331.106 4.287 o
5 2 -11 71.603 -91.161 97.245 491.302 o
5 2 -9 263.783 29.138 68.117 779.553 o
5 2 -7 496.719 190.237 73.468 403.527 o
5 2 -5 1895.420 1218.880 127.292 36.720 o
5 2 -3 1423.130 1719.740 195.119 35.882 o
5 2 -1 1157.330 498.380 206.541 60.271 o
5 2 1 354.034 247.111 59.362 618.945 o
5 2 3 11.386 27.419 37.120 3376.980 o
5 2 5 1154.800 685.255 93.527 96.500 o
5 2 7 331.664 71.224 69.604 647.661 o
5 2 9 151.061 29.469 100.627 441.931 o
5 2 11 1648.390 2496.790 423.206 14.289 o
5 2 13 65.899 564.646 392.606 30.013 o
5 2 15 796.431 989.496 298.440 39.517 o
5 2 17 15.094 31.285 102.167 448.672 o
5 2 19 1.166 50.043 79.796 735.288 o
5 2 21 15.825 -164.895 121.681 316.722 o
5 2 23 117.091 108.756 140.067 232.894 o
5 2 25 18.770 87.751 150.028 207.759 o
5 2 27 91.033 137.454 160.006 180.032 o
5 2 29 13.972 50.330 148.271 213.107 o
5 2 31 35.976 149.323 191.223 127.525 o
5 2 33 115.595 85.328 256.450 70.846 o
5 3 -36 824.972 1048.590 277.125 42.971 o
5 3 -34 1185.300 1378.450 293.024 31.624 o
5 3 -32 900.250 791.710 232.736 55.823 o
5 3 -30 1268.110 1345.990 290.369 31.004 o
5 3 -28 1327.140 1524.400 287.895 29.228 o
5 3 -26 3053.080 3073.370 392.849 8.870 o
5 3 -24 192.132 238.512 151.388 190.359 o
5 3 -22 27.336 -34.640 72.682 885.735 o
5 3 -20 9754.240 9973.190 462.084 1.151 o
5 3 -18 660.322 747.391 135.808 125.251 o
5 3 -16 2625.640 2842.940 210.475 13.982 o
5 3 -14 277.029 391.394 94.293 364.650 o
5 3 -12 2559.720 2878.880 249.126 13.542 o
5 3 -10 745.060 943.481 149.731 96.240 o
5 3 -8 396.358 399.216 111.131 251.326 o
5 3 -6 2737.910 2521.460 227.986 13.951 o
5 3 -4 459.783 179.397 113.526 256.952 o
5 3 -2 3260.840 3225.100 208.723 10.071 o
5 3 0 1081.870 1211.020 153.966 63.114 o
5 3 2 850.555 702.474 161.595 90.575 o
5 3 4 318.670 203.672 85.483 448.845 o
5 3 6 277.718 59.201 85.263 524.183 o
5 3 8 1342.580 1155.680 322.407 27.673 o
5 3 10 531.253 635.396 241.324 66.022 o
5 3 12 2004.000 1815.320 380.448 15.877 o
5 3 14 604.540 1058.570 314.223 38.579 o
5 3 16 468.232 770.462 244.618 64.446 o
5 3 18 76.521 428.239 341.311 39.755 o
5 3 20 33.825 174.593 430.708 25.251 o
5 3 22 94.828 164.732 283.861 57.815 o
5 3 24 10.546 1.796 573.030 14.285 o
5 3 26 85.627 427.723 426.804 25.527 o
5 3 28 0.106 250.676 444.161 23.744 o
5 3 30 60.643 155.086 241.299 80.097 o
5 3 32 108.185 285.549 232.719 84.859 o
5 3 34 48.344 565.059 405.066 28.254 o
5 4 -37 1353.890 1245.420 447.004 17.421 o
5 4 -35 789.534 985.015 404.540 24.321 o
5 4 -33 1071.620 893.064 255.314 44.187 o
5 4 -31 2350.030 2467.610 387.345 12.398 o
5 4 -29 1050.750 1154.530 272.498 38.648 o
5 4 -27 2608.240 2691.930 384.053 11.025 o
5 4 -25 2712.560 2666.190 367.754 11.006 o
5 4 -23 2081.180 2239.050 339.568 15.771 o
5 4 -21 2005.840 2093.150 204.534 22.609 o
5 4 -19 5724.330 5665.340 331.638 3.323 o
5 4 -17 339.230 269.082 70.635 522.388 o
5 4 -15 2435.760 2540.830 195.230 16.616 o
5 4 -13 827.450 684.109 102.840 134.441 o
5 4 -11 872.573 858.027 162.434 83.020 o
5 4 -9 2100.470 1677.310 215.963 23.429 o
5 4 -7 1491.400 1380.840 229.724 34.140 o
5 4 -5 1470.860 1621.300 274.390 27.950 o
5 4 -3 5794.550 6878.630 562.756 2.560 o
5 4 -1 1965.570 1967.430 275.761 20.335 o
5 4 1 1554.980 1250.090 221.572 35.115 o
5 4 3 851.885 1164.280 366.454 27.456 o
5 4 5 653.628 754.800 284.619 46.953 o
5 4 7 1.927 74.036 127.978 285.935 o
5 4 9 1083.520 1023.230 296.722 35.196 o
5 4 11 9.087 -294.488 229.372 89.158 o
5 4 13 1393.260 712.991 244.777 41.024 o
5 4 15 539.061 1062.520 315.511 39.119 o
5 4 17 268.304 356.548 213.388 95.576 o
5 4 19 537.390 534.390 220.773 77.858 o
5 4 21 176.462 143.496 130.320 259.468 o
5 4 23 12.715 -68.111 107.131 408.616 o
5 4 25 114.841 -20.131 122.435 308.105 o
5 4 27 3.741 1237.910 512.906 17.376 o
5 4 29 23.662 1281.300 526.517 16.455 o
5 4 31 135.270 401.373 328.904 42.573 o
5 4 33 41.863 407.716 425.104 25.804 o
5 5 -36 774.056 938.354 414.893 23.500 o
5 5 -34 1184.120 1145.970 417.039 20.501 o
5 5 -32 3173.200 2686.900 616.814 6.312 o
5 5 -30 797.187 846.995 360.498 29.983 o
5 5 -28 2327.290 1954.450 500.064 10.560 o
5 5 -26 2174.250 2164.800 528.643 10.023 o
5 5 -24 2894.440 2771.970 577.324 7.118 o
5 5 -22 3474.520 2906.420 622.457 5.727 o
5 5 -20 1478.190 1430.090 438.178 16.903 o
5 5 -18 2226.220 1915.620 478.237 11.471 o
5 5 -16 751.222 737.954 290.490 43.966 o
5 5 -14 2160.530 2203.120 291.181 17.122 o
5 5 -12 1757.150 1422.170 212.443 30.572 o
5 5 -10 1546.200 950.758 160.170 47.716 o
5 5 -8 1672.990 1285.410 195.503 35.123 o
5 5 -6 1861.660 1658.730 445.332 14.342 o
5 5 -4 2539.490 3105.030 557.503 7.709 o
5 5 -2 1720.910 1845.650 442.877 14.641 o
5 5 0 2131.900 1860.010 440.890 12.992 o
5 5 2 604.117 575.360 293.830 46.687 o
5 5 4 458.861 730.849 320.962 40.756 o
5 5 6 870.702 1051.980 338.372 31.445 o
5 5 8 160.777 362.784 221.737 91.531 o
5 5 10 896.617 648.823 245.239 54.137 o
5 5 12 414.564 392.715 212.190 90.803 o
5 5 14 359.599 489.510 226.180 81.367 o
5 5 16 316.961 451.950 215.827 90.519 o
5 5 18 413.469 612.154 246.372 67.105 o
5 5 20 333.327 557.153 241.737 72.063 o
5 5 22 67.884 241.216 164.013 170.378 o
5 5 24 44.871 -181.806 169.129 163.784 o
5 5 26 26.087 -200.053 155.131 194.821 o
5 5 28 57.918 157.979 291.943 54.823 o
5 5 30 89.928 524.576 445.597 23.365 o
5 6 -33 1549.650 1137.310 441.618 17.070 o
5 6 -31 2658.040 3002.350 689.646 5.990 o
5 6 -29 848.089 873.771 400.227 24.749 o
5 6 -27 3201.870 2888.160 630.584 6.003 o
5 6 -25 1679.200 1398.100 476.970 14.299 o
5 6 -23 917.109 1120.210 419.726 21.822 o
5 6 -21 2340.990 1965.670 512.283 10.223 o
5 6 -19 2292.480 2043.660 529.344 9.865 o
5 6 -17 558.772 286.832 205.713 91.827 o
5 6 -15 846.196 700.753 347.625 32.064 o
5 6 -13 3567.400 4074.690 692.654 4.518 o
5 6 -11 4044.080 3624.500 653.499 4.524 o
5 6 -9 1068.860 1168.400 378.293 24.472 o
5 6 -7 1691.800 2053.340 497.841 12.370 o
5 6 -5 846.358 1321.790 417.858 21.819 o
5 6 -3 1193.410 1471.960 434.973 18.368 o
5 6 -1 935.569 1675.280 430.756 19.428 o
5 6 1 916.574 941.123 346.368 30.425 o
5 6 3 45.147 225.230 209.152 106.159 o
5 6 5 720.534 807.903 321.850 37.209 o
5 6 7 2806.190 2533.970 512.248 8.416 o
5 6 9 157.774 99.265 133.226 253.370 o
5 6 11 656.844 351.942 221.330 76.501 o
5 6 13 445.006 224.046 162.209 147.382 o
5 6 15 95.700 -284.079 196.556 120.908 o
5 6 17 256.832 49.559 133.478 243.982 o
5 6 19 171.415 559.702 257.652 67.007 o
5 6 21 55.857 176.866 159.209 182.397 o
5 6 23 82.378 214.528 171.550 156.005 o
5 6 25 73.662 -93.486 296.536 53.287 o
5 6 27 28.308 373.462 378.642 32.532 o
5 7 -28 1312.700 1215.730 340.474 25.845 o
5 7 -26 2146.060 2359.950 440.268 12.012 o
5 7 -24 772.235 656.335 253.115 54.803 o
5 7 -22 1085.280 1062.620 294.950 35.149 o
5 7 -20 1215.960 820.617 278.416 37.667 o
5 7 -18 2611.860 2988.740 672.950 6.233 o
5 7 -16 138.524 177.857 219.547 95.496 o
5 7 -14 1900.330 2021.930 527.131 10.946 o
5 7 -12 4835.520 4560.590 770.931 3.139 o
5 7 -10 2499.470 2038.250 546.019 9.052 o
5 7 -8 1166.240 1127.320 408.686 21.300 o
5 7 -6 1137.590 1266.560 425.399 19.817 o
5 7 -4 254.546 514.762 262.339 63.838 o
5 7 -2 1379.720 1585.260 468.754 15.449 o
5 7 0 377.896 702.293 342.422 37.023 o
5 7 2 27.609 -151.651 204.551 112.075 o
5 7 4 708.743 514.876 291.004 46.316 o
5 7 6 2403.870 2838.430 566.677 8.074 o
5 7 8 424.354 701.333 319.641 41.568 o
5 7 10 1074.820 1381.430 399.945 21.780 o
5 7 12 146.028 153.868 175.788 147.580 o
5 7 14 385.007 23.804 113.226 300.295 o
5 7 16 111.397 -95.296 159.853 182.002 o
5 7 18 84.129 -149.520 156.744 189.956 o
5 7 20 25.229 414.657 223.971 91.754 o
5 7 22 125.370 610.841 424.891 25.517 o
5 8 -23 1328.920 891.794 291.087 33.332 o
5 8 -21 659.058 457.365 235.825 67.374 o
5 8 -19 1322.030 1097.530 319.425 28.559 o
5 8 -17 778.742 812.660 273.594 46.993 o
5 8 -15 1756.270 1390.710 492.546 13.423 o
5 8 -13 1043.180 1183.160 444.591 19.133 o
5 8 -11 2365.500 2917.340 664.320 6.689 o
5 8 -9 1754.720 1855.110 522.025 11.715 o
5 8 -7 1131.170 1022.280 416.104 21.217 o
5 8 -5 860.666 1404.700 453.890 18.805 o
5 8 -3 559.892 916.118 385.279 28.112 o
5 8 -1 728.365 1227.760 414.263 23.035 o
5 8 1 10.461 122.134 167.936 165.794 o
5 8 3 977.178 907.917 380.156 25.926 o
5 8 5 1164.780 1220.290 406.127 21.231 o
5 8 7 328.128 778.804 345.499 36.498 o
5 8 9 720.598 1358.340 420.056 22.202 o
5 8 11 393.719 517.983 273.799 56.831 o
5 8 13 387.092 430.027 263.901 61.650 o
5 8 15 82.527 196.745 209.073 105.904 o
5 8 17 193.979 321.667 161.112 166.371 o
5 8 19 15.750 343.572 189.269 128.700 o
5 9 -18 354.045 333.193 239.735 75.304 o
5 9 -16 1384.980 1737.610 397.415 18.896 o
5 9 -14 756.272 540.585 402.175 25.991 o
5 9 -12 513.958 808.467 387.709 28.377 o
5 9 -10 1020.650 1320.320 498.164 15.720 o
5 9 -8 1565.280 1438.360 483.744 14.354 o
5 9 -6 515.673 462.030 330.629 39.344 o
5 9 -4 1385.170 1328.020 507.699 14.112 o
5 9 -2 188.229 1033.570 401.743 27.555 o
5 9 0 345.249 966.895 412.225 25.754 o
5 9 2 516.910 1390.190 464.122 19.422 o
5 9 4 586.073 1347.270 448.589 20.445 o
5 9 6 215.553 430.211 290.507 53.493 o
5 9 8 385.320 1021.970 392.003 27.930 o
5 9 10 148.744 685.864 254.172 68.081 o
5 9 12 397.840 796.004 343.477 36.297 o
5 9 14 228.586 447.654 408.109 27.562 o
5 10 -13 480.199 518.603 365.308 32.764 o
5 10 -11 514.667 667.211 372.003 31.029 o
5 10 -9 499.040 589.027 248.152 64.457 o
5 10 -7 711.341 401.555 441.143 22.402 o
5 10 -5 339.854 606.876 253.491 65.501 o
5 10 -3 678.646 806.224 271.390 49.662 o
5 10 -1 298.082 589.804 247.994 69.236 o
5 10 1 211.062 377.597 212.376 97.836 o
5 10 3 280.619 543.975 254.831 66.662 o
5 10 5 150.935 578.887 251.560 70.296 o
5 10 7 243.573 391.364 324.448 43.156 o
5 10 9 43.621 466.572 237.219 81.388 o
5 10 11 182.519 662.704 332.144 40.785 o
5 11 -6 61.377 526.154 411.154 27.445 o
5 11 -4 492.162 611.846 283.326 51.212 o
5 11 -2 269.910 362.662 232.357 81.424 o
5 11 0 102.414 238.805 209.181 105.102 o
5 11 2 62.524 557.564 260.122 67.267 o
5 11 4 176.102 651.704 317.175 44.641 o
5 11 6 97.137 -23.017 194.135 123.912 o
5 11 8 47.575 -10.182 234.977 84.895 o
6 0 -34 9979.350 9912.280 1101.890 0.906 o
6 0 -32 9460.750 9127.230 1050.720 1.020 o
6 0 -30 5287.250 4978.740 761.708 2.834 o
6 0 -28 4493.750 4275.240 638.023 3.946 o
6 0 -26 3279.180 3068.760 535.004 6.719 o
6 0 -24 4347.450 4047.800 597.268 4.350 o
6 0 -22 1073.050 1221.260 349.844 27.148 o
6 0 -20 8329.100 10161.400 913.917 1.163 o
6 0 -18 35.277 495.991 245.026 76.319 o
6 0 -16 30554.900 31279.900 1556.870 0.116 o
6 0 -14 7781.620 7673.530 774.213 1.564 o
6 0 -12 10558.900 11152.400 932.028 0.853 o
6 0 -10 7142.750 8117.130 776.259 1.656 o
6 0 -8 3192.220 3579.630 524.745 6.546 o
6 0 -6 1695.170 1476.570 313.290 23.059 o
6 0 -4 3571.070 3546.960 515.914 6.061 o
6 0 -2 679.597 208.298 151.223 138.830 o
6 0 0 672.991 103.144 144.241 155.642 o
6 0 2 2921.980 3367.180 521.695 7.225 o
6 0 4 2558.040 3613.390 538.330 7.464 o
6 0 6 1870.700 2090.170 426.230 14.095 o
6 0 8 7092.640 7911.950 522.505 1.920 o
6 0 10 142.224 468.204 160.123 166.596 o
6 0 12 3874.810 3406.940 344.163 6.984 o
6 0 14 307.831 359.472 261.576 64.570 o
6 0 16 740.536 524.614 262.280 54.123 o
6 0 18 376.531 85.312 382.488 31.394 o
6 0 20 109.950 75.200 174.715 151.747 o
6 0 22 10.384 -165.184 294.235 54.182 o
6 0 24 211.185 -137.352 228.253 88.687 o
6 0 26 104.607 54.804 220.207 96.122 o
6 0 28 53.978 -298.793 295.816 53.574 o
6 0 30 137.799 182.932 279.385 59.385 o
6 1 -33 7597.810 6822.600 902.483 1.580 o
6 1 -31 5156.930 5035.180 519.518 3.562 o
6 1 -29 4734.330 4477.540 494.730 4.229 o
6 1 -27 3128.560 2880.550 305.257 10.104 o
6 1 -25 3867.480 3857.520 342.037 6.567 o
6 1 -23 5400.080 5351.670 397.240 3.561 o
6 1 -21 1057.940 1199.790 187.175 55.913 o
6 1 -19 3078.240 3259.010 308.096 9.594 o
6 1 -17 12045.100 12312.600 699.743 0.735 o
6 1 -15 8789.530 8732.950 578.351 1.375 o
6 1 -13 8292.090 8032.000 727.331 1.456 o
6 1 -11 6277.770 6184.650 484.556 2.612 o
6 1 -9 5029.710 5000.250 434.482 3.920 o
6 1 -7 1895.240 1644.750 253.729 23.973 o
6 1 -5 2267.960 2218.610 291.602 16.299 o
6 1 -3 1349.830 1698.640 255.968 30.963 o
6 1 -1 1457.380 1911.860 444.125 15.595 o
6 1 1 2027.980 2639.150 254.887 17.756 o
6 1 3 1925.740 2069.990 309.325 18.650 o
6 1 5 2777.960 2376.290 349.236 11.680 o
6 1 7 1451.990 1956.990 200.597 32.293 o
6 1 9 2775.560 2400.700 235.364 13.943 o
6 1 11 364.427 554.508 169.698 129.877 o
6 1 13 460.623 699.740 172.853 112.879 o
6 1 15 1114.060 1126.010 162.380 61.424 o
6 1 17 415.821 438.783 139.484 176.155 o
6 1 19 182.188 71.983 93.062 493.417 o
6 1 21 101.220 72.465 97.180 479.641 o
6 1 23 71.913 27.362 128.796 280.576 o
6 1 25 106.300 222.418 163.700 169.721 o
6 1 27 141.685 75.303 185.240 134.464 o
6 1 29 40.708 -8.963 178.879 146.464 o
6 1 31 73.335 -52.378 299.510 52.236 o
6 2 -32 3593.840 3507.780 460.749 6.509 o
6 2 -30 3120.400 2864.910 410.399 8.736 o
6 2 -28 2879.080 2600.740 388.024 10.173 o
6 2 -26 3056.030 2907.000 396.465 9.043 o
6 2 -24 6015.450 5804.280 401.782 2.978 o
6 2 -22 3698.400 3321.320 303.521 7.783 o
6 2 -20 636.436 345.739 114.850 188.884 o
6 2 -18 16596.200 16489.800 663.794 0.411 o
6 2 -16 4061.650 3440.860 303.730 6.832 o
6 2 -14 3763.070 3577.690 303.034 7.332 o
6 2 -12 3133.450 2304.660 240.718 12.200 o
6 2 -10 4041.620 3730.010 307.955 6.560 o
6 2 -8 3421.920 2572.740 461.351 7.729 o
6 2 -6 1228.050 1565.320 204.650 41.236 o
6 2 -4 1144.010 784.208 221.021 51.662 o
6 2 -2 1904.350 1412.430 261.431 24.753 o
6 2 0 3054.360 3035.080 344.343 9.570 o
6 2 2 2386.450 2626.760 291.460 14.288 o
6 2 4 898.747 447.452 210.044 70.521 o
6 2 6 1549.020 1269.940 189.547 38.856 o
6 2 8 532.778 618.142 102.367 203.258 o
6 2 10 2555.770 3091.960 488.965 8.716 o
6 2 12 2.477 65.118 162.755 176.940 o
6 2 14 393.390 256.816 123.705 232.873 o
6 2 16 905.657 640.261 179.243 79.722 o
6 2 18 161.515 249.589 129.945 255.730 o
6 2 20 175.889 61.311 87.539 557.013 o
6 2 22 160.937 305.824 128.276 257.656 o
6 2 24 94.985 199.468 279.043 59.726 o
6 2 26 68.533 482.072 235.168 82.284 o
6 2 28 81.828 519.154 262.651 66.015 o
6 2 30 29.426 141.614 479.096 20.421 o
6 3 -33 1634.460 1893.250 508.457 12.444 o
6 3 -31 3160.840 3117.670 439.469 7.962 o
6 3 -29 1720.730 1456.880 312.884 22.934 o
6 3 -27 2335.440 2972.360 414.733 10.867 o
6 3 -25 3100.830 3346.900 437.738 7.860 o
6 3 -23 3205.700 3373.680 439.074 7.586 o
6 3 -21 4523.210 4841.560 360.712 4.751 o
6 3 -19 5952.370 6444.000 410.299 2.818 o
6 3 -17 3618.320 3232.710 293.057 8.186 o
6 3 -15 3632.060 4065.320 323.091 6.951 o
6 3 -13 1362.470 1426.540 193.632 41.114 o
6 3 -11 1933.320 2334.810 246.185 20.260 o
6 3 -9 3375.860 3862.460 313.147 7.834 o
6 3 -7 1976.950 2286.880 191.787 22.350 o
6 3 -5 978.956 1125.040 134.914 77.606 o
6 3 -3 1207.290 1166.590 232.975 42.155 o
6 3 -1 2246.880 1849.620 322.603 16.581 o
6 3 1 2455.220 2067.570 181.012 18.825 o
6 3 3 1085.850 561.869 160.241 79.657 o
6 3 5 457.797 255.416 141.775 179.076 o
6 3 7 1250.470 1355.340 370.247 23.088 o
6 3 9 418.729 485.385 214.384 87.291 o
6 3 11 665.975 591.243 273.089 51.539 o
6 3 13 426.197 391.928 354.775 35.337 o
6 3 15 142.520 423.832 212.659 98.844 o
6 3 17 184.827 293.132 139.411 219.322 o
6 3 19 228.852 309.331 148.244 190.754 o
6 3 21 101.603 95.361 115.838 339.554 o
6 3 23 227.645 197.480 131.318 245.104 o
6 3 25 49.565 -26.046 134.009 260.572 o
6 3 27 32.496 517.517 612.912 12.437 o
6 3 29 51.428 227.950 779.201 7.720 o
6 4 -36 909.383 900.147 410.442 23.301 o
6 4 -34 3035.490 2506.040 606.765 6.748 o
6 4 -32 916.850 710.974 344.702 31.781 o
6 4 -30 3716.130 3488.860 467.172 6.268 o
6 4 -28 718.239 680.022 254.610 55.359 o
6 4 -26 1766.570 1768.970 350.567 18.927 o
6 4 -24 1501.690 1752.370 316.431 23.378 o
6 4 -22 3531.080 4249.320 477.706 5.887 o
6 4 -20 3627.740 3759.360 444.730 6.365 o
6 4 -18 3102.160 3449.890 294.846 9.360 o
6 4 -16 1446.410 1877.460 218.513 31.507 o
6 4 -14 2429.670 2430.610 248.337 15.748 o
6 4 -12 1877.070 1972.280 222.756 24.011 o
6 4 -10 2436.090 2839.410 270.046 13.910 o
6 4 -8 1623.820 1977.630 336.680 19.986 o
6 4 -6 2977.910 3503.580 317.924 9.405 o
6 4 -4 56.264 237.638 167.002 164.970 o
6 4 -2 2014.250 2041.750 386.027 14.997 o
6 4 0 671.225 1105.970 362.456 29.686 o
6 4 2 658.327 825.325 311.831 39.878 o
6 4 4 807.149 763.850 299.488 40.851 o
6 4 6 545.455 463.867 240.282 68.500 o
6 4 8 660.913 534.102 253.462 58.966 o
6 4 10 1050.320 428.161 262.331 48.240 o
6 4 12 364.245 105.055 139.132 208.987 o
6 4 14 538.468 968.453 324.752 37.812 o
6 4 16 7.618 218.476 208.835 106.963 o
6 4 18 61.432 128.135 168.966 162.711 o
6 4 20 71.068 -114.193 164.660 172.441 o
6 4 22 220.176 374.043 210.764 99.027 o
6 4 24 7.205 -65.861 137.626 247.643 o
6 4 26 127.954 2.001 93.999 513.706 o
6 4 28 18.308 211.288 309.050 48.973 o
6 4 30 33.469 -68.371 223.674 93.723 o
6 5 -31 1123.910 852.952 386.055 24.461 o
6 5 -29 1089.380 1071.760 430.307 20.208 o
6 5 -27 720.091 683.232 320.340 38.243 o
6 5 -25 1374.900 1849.340 514.250 13.086 o
6 5 -23 777.127 845.442 386.358 26.825 o
6 5 -21 1364.800 1353.200 446.581 17.150 o
6 5 -19 1371.740 1032.510 392.795 21.552 o
6 5 -17 2275.420 2243.930 545.441 9.331 o
6 5 -15 1487.780 2057.300 531.493 11.874 o
6 5 -13 729.169 1004.390 395.170 25.617 o
6 5 -11 3381.210 3351.900 644.979 5.388 o
6 5 -9 1984.460 2026.130 508.784 11.206 o
6 5 -7 1448.310 1447.580 440.988 16.853 o
6 5 -5 522.359 539.211 287.601 49.975 o
6 5 -3 303.346 157.724 229.222 85.072 o
6 5 -1 186.649 131.753 219.814 94.857 o
6 5 1 302.139 1256.440 401.670 26.543 o
6 5 3 401.402 583.293 300.296 47.518 o
6 5 5 63.744 62.261 182.929 139.513 o
6 5 7 1216.430 1081.800 364.473 24.986 o
6 5 9 908.268 900.725 330.280 33.057 o
6 5 11 701.473 903.558 311.916 38.788 o
6 5 13 314.033 -3.299 134.936 235.000 o
6 5 15 55.166 94.233 132.495 264.408 o
6 5 17 59.964 132.835 197.279 119.656 o
6 5 19 0.253 446.372 246.715 75.958 o
6 5 21 49.882 155.082 166.678 167.112 o
6 5 23 10.749 40.627 139.426 241.090 o
6 5 25 76.408 -15.058 147.410 214.847 o
6 6 -28 841.977 926.746 409.446 23.698 o
6 6 -26 793.453 838.020 398.482 25.367 o
6 6 -24 297.734 534.374 361.045 34.485 o
6 6 -22 391.393 686.498 347.562 35.974 o
6 6 -20 364.874 324.973 250.247 69.424 o
6 6 -18 995.997 795.128 366.631 27.766 o
6 6 -16 1127.310 1520.530 477.759 16.087 o
6 6 -14 866.811 709.014 376.337 27.897 o
6 6 -12 647.501 590.266 334.132 36.808 o
6 6 -10 1518.920 1035.220 414.102 19.130 o
6 6 -8 1644.460 1616.300 468.212 14.382 o
6 6 -6 24.893 25.708 186.100 135.345 o
6 6 -4 825.128 671.635 312.275 38.615 o
6 6 -2 64.988 -108.672 184.516 137.475 o
6 6 0 417.272 233.090 186.510 117.707 o
6 6 2 29.842 837.774 368.416 33.672 o
6 6 4 7.854 416.290 268.379 64.385 o
6 6 6 484.319 760.380 318.516 40.883 o
6 6 8 860.532 806.383 336.290 33.155 o
6 6 10 347.332 470.479 269.784 59.516 o
6 6 12 177.406 338.451 229.021 85.934 o
6 6 14 190.079 63.437 121.582 299.606 o
6 6 16 3.462 -127.400 163.715 175.014 o
6 6 18 20.231 355.374 240.658 80.031 o
6 6 20 4.635 147.122 177.059 149.113 o
6 6 22 26.237 71.138 123.094 308.202 o
6 6 24 103.058 196.162 189.730 127.758 o
6 7 -23 115.583 88.595 203.406 112.145 o
6 7 -21 354.015 532.632 325.027 41.703 o
6 7 -19 303.748 327.605 288.275 53.925 o
6 7 -17 95.863 236.270 192.358 124.045 o
6 7 -15 570.561 1054.190 432.038 22.544 o
6 7 -13 858.650 1003.480 400.914 24.226 o
6 7 -11 123.866 18.056 159.282 182.633 o
6 7 -9 48.986 35.441 209.115 107.077 o
6 7 -7 588.255 521.636 324.854 39.637 o
6 7 -5 37.233 66.069 196.568 121.126 o
6 7 -3 64.622 -199.823 219.599 97.123 o
6 7 -1 175.394 -82.992 203.492 111.804 o
6 7 1 3.140 -92.406 236.274 84.027 o
6 7 3 0.535 263.627 244.410 78.119 o
6 7 5 290.475 678.877 347.719 36.658 o
6 7 7 316.058 732.569 347.881 36.279 o
6 7 9 10.987 411.893 262.556 67.231 o
6 7 11 106.579 124.671 168.485 162.344 o
6 7 13 63.136 67.418 161.862 177.913 o
6 7 15 40.660 -39.487 157.376 189.173 o
6 7 17 8.136 41.288 165.550 171.064 o
6 7 19 0.976 329.528 233.491 85.278 o
6 7 21 0.274 352.848 233.608 85.091 o
6 8 -18 64.044 250.212 261.304 68.067 o
6 8 -16 26.298 215.914 269.531 64.287 o
6 8 -14 408.662 726.780 383.765 29.713 o
6 8 -12 169.430 355.118 286.903 55.543 o
6 8 -10 40.823 -16.499 171.850 158.678 o
6 8 -8 0.241 -144.250 270.813 63.961 o
6 8 -6 182.360 150.311 263.402 66.481 o
6 8 -4 13.216 -104.938 211.378 104.979 o
6 8 -2 98.450 249.082 255.174 71.076 o
6 8 0 22.236 -133.697 213.756 102.644 o
6 8 2 17.787 6.463 159.167 185.101 o
6 8 4 157.930 329.524 273.131 61.357 o
6 8 6 141.008 509.678 315.495 45.844 o
6 8 8 10.886 152.208 235.157 84.621 o
6 8 10 0.987 302.774 235.103 84.237 o
6 8 12 30.256 -12.037 135.696 254.526 o
6 8 14 3.302 211.150 214.399 101.583 o
6 8 16 26.065 162.632 138.378 242.377 o
6 8 18 12.304 13.864 165.534 171.149 o
6 9 -11 6.285 -341.205 294.947 53.921 o
6 9 -9 0.506 285.782 312.405 47.884 o
6 9 -7 0.524 384.744 307.058 49.405 o
6 9 -5 0.024 177.851 229.798 88.594 o
6 9 -3 9.015 -69.771 199.793 117.510 o
6 9 -1 23.074 -11.709 198.716 118.763 o
6 9 1 2.681 -84.313 193.505 125.276 o
6 9 3 12.908 104.413 206.303 110.020 o
6 9 5 58.025 116.809 229.180 88.902 o
6 9 7 24.523 533.551 324.319 43.966 o
6 9 9 22.421 -35.296 165.926 170.325 o
6 9 11 5.610 518.977 319.063 45.520 o
6 9 13 0.037 -33.950 146.484 218.609 o
6 9 15 20.512 73.365 149.087 210.492 o
6 10 -2 7.300 526.920 371.370 33.694 o
6 10 0 0.114 190.269 257.203 70.736 o
6 10 2 0.881 177.352 233.944 85.487 o
6 10 4 1.734 113.312 268.101 65.206 o
6 10 6 5.091 129.156 197.651 119.810 o
6 10 8 31.562 317.495 294.110 53.828 o
6 10 10 34.533 258.201 240.850 80.206 o
6 10 12 21.959 202.089 249.086 75.279 o
6 11 -5 20.550 234.670 353.675 37.400 o
6 11 -3 13.862 -48.622 275.671 61.723 o
7 1 -28 516.885 670.436 209.473 82.604 o
7 1 -26 141.591 86.853 125.865 285.150 o
7 1 -24 47.915 -82.511 132.775 265.471 o
7 1 -22 75.544 57.230 130.370 272.894 o
7 1 -20 0.778 64.587 154.787 195.626 o
7 1 -18 16.204 57.364 108.764 395.338 o
7 1 -16 369.725 339.063 130.577 211.108 o
7 1 -14 166.607 29.171 95.536 483.060 o
7 1 -12 1477.700 1072.090 215.001 39.647 o
7 1 -10 289.676 43.977 99.930 400.487 o
7 1 -8 102.210 -24.113 120.525 318.844 o
7 1 -6 8.600 -60.619 85.183 646.356 o
7 1 -4 57.099 56.642 118.692 329.933 o
7 1 -2 9.077 -4.883 131.857 269.780 o
7 1 0 23.594 -36.977 101.042 459.017 o
7 1 2 29.427 -64.518 119.264 329.430 o
7 1 4 137.705 176.588 77.786 674.099 o
7 1 6 577.291 643.764 148.873 128.387 o
7 1 8 5.522 42.961 123.795 305.830 o
7 1 10 180.035 248.395 99.533 406.051 o
7 1 12 3.696 67.161 82.623 684.676 o
7 1 14 2.826 -132.542 104.455 429.917 o
7 1 16 63.193 67.484 106.160 410.151 o
7 1 18 0.320 -82.477 128.823 282.662 o
7 1 20 0.561 -231.216 168.308 165.593 o
7 1 22 5.156 85.970 283.645 58.275 o
7 1 24 1.130 197.975 358.353 36.478 o
7 1 26 4.461 -140.794 478.841 20.458 o
7 1 28 11.324 712.818 453.307 22.564 o
7 2 -31 2077.930 1916.030 521.369 10.767 o
7 2 -29 340.009 484.335 298.154 49.418 o
7 2 -27 506.256 515.624 205.464 89.190 o
7 2 -25 98.095 26.585 121.849 311.319 o
7 2 -23 843.868 869.446 228.456 57.730 o
7 2 -21 29.081 -15.574 92.616 545.905 o
7 2 -19 720.945 592.408 141.001 122.560 o
7 2 -17 1014.080 784.111 161.533 76.594 o
7 2 -15 816.328 784.905 226.791 60.597 o
7 2 -13 1559.150 1508.540 218.574 32.822 o
7 2 -11 407.624 420.935 118.309 225.643 o
7 2 -9 651.199 655.586 152.735 116.206 o
7 2 -7 477.240 682.504 152.278 133.648 o
7 2 -5 203.174 212.499 102.152 386.487 o
7 2 -3 377.603 438.711 142.799 175.510 o
7 2 -1 53.830 118.497 84.448 637.451 o
7 2 1 8.394 22.537 74.593 842.022 o
7 2 3 8.257 5.790 68.461 1000.360 o
7 2 5 474.026 403.000 128.846 189.806 o
7 2 7 69.491 223.888 145.858 214.589 o
7 2 9 1073.450 858.943 217.501 53.633 o
7 2 11 52.453 -19.481 140.946 235.549 o
7 2 13 27.004 149.630 170.262 160.791 o
7 2 15 0.538 110.202 139.712 239.640 o
7 2 17 5.885 -32.871 109.416 391.802 o
7 2 19 70.870 -0.275 122.185 312.339 o
7 2 21 32.870 276.278 835.929 6.708 o
7 2 23 9.346 137.407 581.625 13.862 o
7 2 25 5.087 1067.870 490.433 19.093 o
7 2 27 3.127 1166.430 533.188 16.153 o
7 3 -32 530.862 715.020 369.481 31.159 o
7 3 -30 881.650 837.434 394.517 25.260 o
7 3 -28 495.031 601.843 321.336 40.961 o
7 3 -26 627.567 706.039 241.246 62.300 o
7 3 -24 1055.990 923.519 249.194 45.520 o
7 3 -22 776.761 680.638 216.879 67.766 o
7 3 -20 1341.480 1189.590 204.243 43.287 o
7 3 -18 391.735 388.876 138.533 185.410 o
7 3 -16 2113.760 2315.790 273.254 17.704 o
7 3 -14 605.507 776.859 167.843 102.568 o
7 3 -12 633.859 839.774 175.477 92.829 o
7 3 -10 396.192 557.559 145.655 160.016 o
7 3 -8 318.858 570.437 148.142 164.977 o
7 3 -6 369.040 491.562 127.965 203.111 o
7 3 -4 12.829 231.818 103.839 423.472 o
7 3 -2 480.213 610.634 142.581 149.871 o
7 3 0 82.198 99.287 85.861 610.698 o
7 3 2 408.592 399.937 118.877 226.438 o
7 3 4 333.509 464.476 160.715 148.825 o
7 3 6 74.855 -157.980 132.451 265.879 o
7 3 8 242.594 110.851 159.429 173.757 o
7 3 10 0.783 500.926 259.226 68.659 o
7 3 12 236.270 477.748 284.388 55.258 o
7 3 14 102.150 252.848 217.284 97.439 o
7 3 16 29.445 139.094 170.013 161.315 o
7 3 18 120.889 276.763 235.518 82.784 o
7 3 20 70.246 25.765 162.849 176.064 o
7 3 22 26.719 -56.582 137.212 248.987 o
7 3 24 7.468 -56.570 178.870 146.610 o
7 4 -31 130.660 -96.299 231.823 86.795 o
7 4 -29 696.670 620.384 354.209 32.692 o
7 4 -27 1710.690 1650.510 497.396 12.968 o
7 4 -25 617.449 669.530 230.986 67.520 o
7 4 -23 994.761 1071.030 272.333 40.510 o
7 4 -21 2769.410 3044.270 432.085 9.124 o
7 4 -19 237.542 435.400 205.903 101.797 o
7 4 -17 1637.010 1781.150 242.530 27.209 o
7 4 -15 481.357 401.522 108.771 233.343 o
7 4 -13 745.756 934.070 179.488 80.371 o
7 4 -11 362.445 439.254 120.110 229.386 o
7 4 -9 243.565 160.714 146.925 200.017 o
7 4 -7 77.559 271.998 208.096 106.332 o
7 4 -5 1161.230 1217.340 189.876 51.130 o
7 4 -3 61.608 151.172 193.021 124.783 o
7 4 -1 513.931 795.022 319.591 40.125 o
7 4 1 797.560 553.378 295.100 43.595 o
7 4 3 354.022 400.778 260.982 63.755 o
7 4 5 293.191 276.928 229.094 84.070 o
7 4 7 328.713 118.856 145.984 195.537 o
7 4 9 5.178 -132.239 196.197 121.860 o
7 4 11 53.896 -46.390 125.323 297.690 o
7 4 13 15.957 643.547 298.363 51.521 o
7 4 15 1.898 286.571 217.985 97.946 o
7 4 17 84.585 201.191 170.671 157.738 o
7 4 19 97.088 282.262 211.971 102.107 o
7 4 21 26.916 -6.901 162.426 177.717 o
7 4 23 109.045 37.875 117.521 332.628 o
7 4 25 8.585 -110.933 183.146 139.843 o
7 5 -26 1313.310 1759.630 558.282 11.810 o
7 5 -24 504.149 740.909 262.798 56.748 o
7 5 -22 1642.450 1663.630 339.401 20.939 o
7 5 -20 1314.320 1893.860 361.257 21.186 o
7 5 -18 1795.660 1901.720 375.623 17.045 o
7 5 -16 368.928 699.067 243.592 68.466 o
7 5 -14 997.660 1583.570 500.924 15.237 o
7 5 -12 474.253 440.282 308.223 45.290 o
7 5 -10 77.098 37.122 190.355 128.878 o
7 5 -8 740.363 714.233 378.091 28.539 o
7 5 -6 274.245 480.707 329.887 41.317 o
7 5 -4 676.838 991.303 402.313 25.180 o
7 5 -2 450.601 560.510 303.782 46.088 o
7 5 0 329.315 611.469 328.958 40.654 o
7 5 2 475.908 620.705 316.493 42.200 o
7 5 4 368.084 616.146 317.516 43.057 o
7 5 6 293.325 250.450 228.927 84.486 o
7 5 8 7.161 -5.167 150.014 208.435 o
7 5 10 66.073 -71.578 155.122 194.315 o
7 5 12 12.281 -56.142 166.912 168.357 o
7 5 14 109.762 559.572 283.404 56.506 o
7 5 16 59.227 489.991 286.206 56.138 o
7 5 18 8.852 277.168 229.376 88.507 o
7 5 20 101.521 469.368 276.281 59.878 o
7 5 22 15.208 -10.744 139.516 240.942 o
7 5 24 73.691 -52.964 169.150 163.396 o
7 6 -21 1067.830 1512.720 500.818 15.133 o
7 6 -19 972.047 1179.070 458.579 18.494 o
7 6 -17 455.758 231.654 301.231 48.585 o
7 6 -15 1774.610 1748.680 544.733 11.130 o
7 6 -13 408.207 921.189 407.415 26.147 o
7 6 -11 74.911 217.246 252.045 73.151 o
7 6 -9 755.948 1047.660 429.367 21.974 o
7 6 -7 763.864 862.002 395.438 25.809 o
7 6 -5 663.584 290.841 284.559 50.652 o
7 6 -3 285.881 606.866 361.264 34.319 o
7 6 -1 355.032 470.122 287.676 52.737 o
7 6 1 89.695 397.770 291.697 54.187 o
7 6 3 452.568 536.714 331.965 39.274 o
7 6 5 263.048 396.152 274.381 59.329 o
7 6 7 9.850 134.125 205.124 111.208 o
7 6 9 24.759 -282.177 239.124 82.021 o
7 6 11 281.297 128.797 208.622 102.762 o
7 6 13 92.448 -54.002 167.016 167.254 o
7 6 15 43.108 361.015 263.815 66.549 o
7 6 17 48.265 444.182 276.673 60.257 o
7 6 19 20.722 443.209 278.615 59.627 o
7 6 21 9.044 313.774 256.516 70.762 o
7 7 -16 547.631 592.936 361.491 32.725 o
7 7 -14 1420.600 1107.400 464.429 16.460 o
7 7 -12 95.712 431.987 373.176 33.271 o
7 7 -10 389.406 81.003 231.015 82.799 o
7 7 -8 657.220 907.397 408.668 24.826 o
7 7 -6 1078.380 1009.790 447.741 19.143 o
7 7 -4 215.741 -9.319 179.852 141.400 o
7 7 -2 318.093 270.387 283.864 55.690 o
7 7 0 122.978 508.672 347.729 37.999 o
7 7 2 168.618 385.400 299.885 50.848 o
7 7 4 338.557 599.619 349.994 36.156 o
7 7 6 4.420 -2.670 167.230 167.733 o
7 7 8 21.059 129.696 203.186 113.262 o
7 7 10 354.896 590.838 323.797 41.747 o
7 7 12 81.695 193.733 233.416 85.211 o
7 7 14 124.608 150.242 172.187 154.521 o
7 7 16 15.598 163.387 200.624 116.058 o
7 7 18 53.233 440.518 284.079 57.184 o
7 8 -7 588.691 834.983 454.610 20.879 o
7 8 -5 220.659 542.568 382.032 31.220 o
7 8 -3 579.281 600.308 383.268 29.200 o
7 8 -1 145.488 608.358 382.193 31.342 o
7 8 1 182.032 520.599 347.710 37.714 o
7 8 3 245.646 753.739 398.054 28.372 o
7 8 5 3.079 135.772 224.883 92.591 o
7 8 7 117.508 44.934 201.080 115.024 o
7 8 9 93.295 85.496 178.798 145.237 o
7 8 11 119.256 122.193 215.067 100.163 o
7 8 13 33.456 -145.463 195.578 122.570 o
8 0 -24 2925.600 2898.870 573.612 7.008 o
8 0 -22 1869.780 1489.680 420.818 15.708 o
8 0 -20 743.598 822.427 334.215 34.642 o
8 0 -18 2444.890 2182.570 484.448 10.265 o
8 0 -16 612.187 890.395 331.226 36.198 o
8 0 -14 26.268 -49.125 155.220 194.597 o
8 0 -12 2332.590 2989.260 586.324 7.764 o
8 0 -10 4142.860 4675.230 713.734 3.735 o
8 0 -8 1104.010 1426.240 423.520 19.704 o
8 0 -6 3185.240 3123.500 608.584 6.084 o
8 0 -4 179.452 327.848 258.182 68.226 o
8 0 -2 905.249 2110.560 502.778 14.608 o
8 0 0 345.345 962.165 358.126 33.411 o
8 0 2 298.384 965.040 347.683 35.611 o
8 0 4 20.510 58.030 234.880 84.960 o
8 0 6 379.146 775.671 330.357 39.223 o
8 0 8 81.147 528.382 286.125 55.852 o
8 0 10 466.623 348.099 232.808 76.278 o
8 0 12 298.249 298.290 230.908 82.473 o
8 0 14 14.961 134.721 156.189 191.342 o
8 0 16 121.540 40.316 117.450 331.476 o
8 1 -27 4187.020 4066.610 734.294 3.823 o
8 1 -25 2786.180 2942.000 629.071 6.534 o
8 1 -23 2251.060 2072.250 288.807 17.026 o
8 1 -21 1474.410 1506.570 250.008 31.121 o
8 1 -19 2537.680 2205.200 291.521 14.633 o
8 1 -17 555.724 625.444 172.876 108.349 o
8 1 -15 257.700 204.856 155.274 177.578 o
8 1 -13 880.039 975.016 195.039 65.801 o
8 1 -11 2067.210 2153.640 281.827 18.384 o
8 1 -9 1949.280 2285.390 286.605 18.607 o
8 1 -7 1241.540 1716.060 250.924 33.191 o
8 1 -5 1267.950 1308.880 259.622 35.242 o
8 1 -3 610.062 767.186 194.342 84.792 o
8 1 -1 444.105 426.083 155.984 146.552 o
8 1 1 392.788 633.076 177.634 115.828 o
8 1 3 186.836 285.709 136.798 227.202 o
8 1 5 152.821 359.766 160.078 170.003 o
8 1 7 221.914 621.710 208.823 96.415 o
8 1 9 260.016 371.615 173.023 140.149 o
8 1 11 70.883 157.800 126.699 285.134 o
8 1 13 312.808 380.050 181.969 124.731 o
8 1 15 21.965 44.178 158.785 185.797 o
8 1 17 19.054 126.798 168.059 165.377 o
8 2 -28 1897.930 1957.810 555.368 10.297 o
8 2 -26 3040.640 3385.720 689.199 5.371 o
8 2 -24 1670.880 2136.140 554.562 10.639 o
8 2 -22 2138.330 2158.170 388.027 14.019 o
8 2 -20 2876.510 2879.480 331.637 10.632 o
8 2 -18 1074.450 1210.200 219.566 47.691 o
8 2 -16 401.816 398.356 151.585 159.557 o
8 2 -14 1217.300 1465.100 244.019 36.897 o
8 2 -12 1452.090 1531.370 238.737 32.477 o
8 2 -10 292.283 491.054 143.548 182.183 o
8 2 -8 1002.070 972.874 216.048 54.503 o
8 2 -6 405.909 494.925 140.645 171.385 o
8 2 -4 1446.560 1567.690 239.816 32.140 o
8 2 -2 492.639 380.074 127.628 190.885 o
8 2 0 359.672 368.548 123.440 228.851 o
8 2 2 443.747 352.110 124.890 209.161 o
8 2 4 188.791 169.480 89.534 501.889 o
8 2 6 436.753 728.169 279.105 52.529 o
8 2 8 68.162 237.972 436.400 24.551 o
8 2 10 46.727 33.160 115.359 350.612 o
8 2 12 62.001 291.609 233.959 84.513 o
8 2 14 109.448 327.426 249.176 73.970 o
8 2 16 31.667 220.221 218.864 97.202 o
8 3 -27 1179.930 1076.860 440.190 19.048 o
8 3 -25 2205.220 1949.220 559.040 9.529 o
8 3 -23 1958.850 2422.740 609.517 8.526 o
8 3 -21 948.151 1325.960 311.091 32.821 o
8 3 -19 2117.190 2697.940 428.666 11.806 o
8 3 -17 902.974 1105.980 214.858 55.943 o
8 3 -15 1019.230 1414.400 232.373 43.846 o
8 3 -13 836.632 950.665 200.421 66.284 o
8 3 -11 452.860 539.028 155.251 140.530 o
8 3 -9 177.184 262.194 120.497 289.396 o
8 3 -7 290.737 286.536 113.039 290.881 o
8 3 -5 625.602 694.718 160.955 109.764 o
8 3 -3 802.762 1124.050 192.805 66.738 o
8 3 -1 730.282 732.676 194.966 78.982 o
8 3 1 192.579 169.404 131.488 251.441 o
8 3 3 284.157 351.068 127.647 233.951 o
8 3 5 508.709 325.342 158.382 141.725 o
8 3 7 19.130 297.440 238.149 81.985 o
8 3 9 99.830 741.225 338.332 39.618 o
8 3 11 9.238 492.907 293.158 53.853 o
8 3 13 8.327 646.752 334.307 41.250 o
8 3 15 96.849 355.118 283.189 57.532 o
8 4 -22 332.544 625.714 354.341 35.279 o
8 4 -20 1104.790 1407.240 335.532 27.477 o
8 4 -18 784.144 1151.650 309.585 36.441 o
8 4 -16 876.682 1176.470 321.389 33.164 o
8 4 -14 786.921 754.236 176.623 84.850 o
8 4 -12 213.836 324.637 117.537 287.248 o
8 4 -10 377.597 498.667 211.176 90.938 o
8 4 -8 228.633 237.178 190.160 122.464 o
8 4 -6 205.708 537.761 157.921 162.070 o
8 4 -4 743.657 1257.180 211.603 59.945 o
8 4 -2 622.865 999.065 252.550 54.432 o
8 4 0 301.416 273.324 139.748 204.473 o
8 4 2 94.328 231.735 228.386 88.597 o
8 4 4 369.747 539.729 305.091 46.743 o
8 4 6 0.382 13.176 144.926 223.327 o
8 4 8 257.688 25.664 161.859 170.581 o
8 4 10 5.276 251.138 216.850 99.113 o
8 4 12 14.464 541.434 292.356 53.969 o
8 4 14 107.267 676.332 343.124 38.684 o
8 5 -17 1026.940 1461.920 490.361 15.880 o
8 5 -15 108.442 601.492 349.276 37.536 o
8 5 -13 631.086 430.937 350.913 34.522 o
8 5 -11 327.769 1187.400 473.452 19.606 o
8 5 -9 76.414 418.973 311.685 47.574 o
8 5 -7 310.692 803.690 371.026 31.979 o
8 5 -5 533.344 855.657 404.248 26.083 o
8 5 -3 333.676 645.330 369.577 32.520 o
8 5 -1 220.565 618.229 340.088 38.881 o
8 5 1 124.926 255.775 234.967 83.251 o
8 5 3 58.024 453.314 294.653 53.147 o
8 5 5 1.261 63.871 161.934 178.752 o
8 5 7 322.350 542.973 333.852 39.845 o
8 5 9 155.048 58.300 152.921 195.549 o
8 5 11 178.700 222.856 274.590 61.002 o
8 6 -8 97.823 760.710 407.221 27.610 o
8 6 -6 370.931 727.037 398.066 27.914 o
8 6 -4 176.931 433.787 316.726 45.510 o
8 6 -2 94.331 365.180 309.622 48.245 o
8 6 0 155.011 512.083 342.376 39.017 o
8 6 2 2.141 140.299 205.611 110.714 o
8 6 4 51.209 3.602 162.016 178.364 o
9 1 -24 45.118 -25.010 180.754 143.415 o
9 1 -22 22.792 345.660 274.690 61.612 o
9 1 -20 5.304 1.326 267.911 65.353 o
9 1 -18 53.333 -50.678 115.404 350.887 o
9 1 -16 86.589 180.704 117.913 324.400 o
9 1 -14 12.073 44.427 153.829 198.059 o
9 1 -12 70.316 56.829 189.369 130.179 o
9 1 -10 10.989 164.107 105.156 418.387 o
9 1 -8 508.464 359.245 165.013 131.594 o
9 1 -6 55.923 36.597 197.363 120.124 o
9 1 -4 43.408 74.930 118.832 329.475 o
9 1 -2 7.295 198.847 108.315 393.045 o
9 1 0 35.995 221.020 153.447 196.045 o
9 1 2 4.052 346.266 177.572 146.178 o
9 1 4 0.165 119.185 205.088 111.357 o
9 2 -19 123.731 394.801 309.543 48.037 o
9 2 -17 3.376 87.957 137.081 249.100 o
9 2 -15 219.066 298.982 139.884 213.392 o
9 2 -13 68.376 -121.869 106.953 407.116 o
9 2 -11 4.581 47.734 96.535 502.585 o
9 2 -9 476.299 576.922 168.004 121.453 o
9 2 -7 44.289 231.056 132.390 260.876 o
9 2 -5 411.130 351.876 133.533 195.794 o
9 2 -3 16.252 10.186 75.972 811.583 o
9 2 -1 0.975 131.186 191.772 127.278 o
9 2 1 1.050 161.847 150.785 205.239 o
9 2 3 16.799 132.453 177.116 148.952 o
9 3 -14 3.475 282.936 161.677 176.927 o
9 3 -12 50.610 257.206 146.158 213.872 o
9 3 -10 152.972 354.236 166.936 157.386 o
9 3 -8 45.990 106.340 96.756 491.881 o
9 3 -6 260.581 261.378 123.222 261.982 o
9 3 -4 26.159 60.573 126.499 292.107 o
9 3 -2 80.990 228.194 206.046 108.757 o
9 3 0 0.508 -140.984 180.475 144.018 o
9 3 2 32.752 71.092 121.030 318.430 o
9 4 -13 124.550 512.609 302.108 49.983 o
9 4 -11 96.072 468.721 270.706 62.360 o
9 4 -9 57.540 155.225 193.598 124.080 o
9 4 -7 185.212 331.588 333.052 41.470 o
9 4 -5 6.998 -40.784 134.080 260.916 o
9 4 -3 41.481 -76.361 173.972 154.830 o
10 0 -8 120.358 -184.696 206.745 109.087 o
10 0 -6 390.780 167.986 212.253 95.618 o
10 1 -7 144.561 268.312 230.249 86.236 o
10 2 -8 164.721 513.302 316.862 45.297 o
;
_olex2_submission_special_instructions 'No special instructions were received'
_oxdiff_exptl_absorpt_empirical_details
;
Empirical correction (ABSPACK) includes:
- Absorption correction using spherical harmonics
- Frame scaling
;
_oxdiff_exptl_absorpt_empirical_full_max 1.230
_oxdiff_exptl_absorpt_empirical_full_min 0.634
loop_
_space_group_symop_id
_space_group_symop_operation_xyz
1 x,y,z
2 -x+1/2,y,-z
3 -x,-y,-z
4 x-1/2,-y,z
5 x+1/2,y+1/2,z+1/2
6 -x+1,y+1/2,-z+1/2
7 -x+1/2,-y+1/2,-z+1/2
8 x,-y+1/2,z+1/2
loop_
_atom_site_label
_atom_site_type_symbol
_atom_site_fract_x
_atom_site_fract_y
_atom_site_fract_z
_atom_site_U_iso_or_equiv
_atom_site_adp_type
_atom_site_occupancy
_atom_site_site_symmetry_order
_atom_site_refinement_flags_posn
_atom_site_refinement_flags_adp
_atom_site_refinement_flags_occupancy
Cd1 Cd 0.25 0.97466(12) 0.5 0.0487(6) Uani 1.000000 2 S T P
O3 O 0.25 1.1953(13) 0.5 0.081(4) Uani 1.000000 2 S T P
O1 O 0.3264(9) 0.8257(8) 0.4525(2) 0.052(2) Uani 1.000000 1 . . .
O2 O 0.5215(12) 0.9902(8) 0.5440(3) 0.058(2) Uani 1.000000 1 . . .
C8 C 0.8565(13) 0.7237(11) 0.2857(3) 0.044(3) Uani 1.000000 1 . . .
C6 C 0.5617(14) 0.7194(12) 0.3491(3) 0.052(3) Uani 1.000000 1 . . .
C5 C 0.6324(13) 0.8157(12) 0.3269(3) 0.048(3) Uani 1.000000 1 . . .
C4 C 0.6435(16) 0.9400(13) 0.3426(3) 0.061(4) Uani 1.000000 1 . . .
C1 C 0.4353(13) 0.9031(13) 0.4384(3) 0.047(3) Uani 1.000000 1 . . .
C10 C 0.5854(14) 0.8114(11) 0.2520(3) 0.045(3) Uani 1.000000 1 . . .
C12 C 0.3220(14) 0.9038(13) 0.2185(4) 0.059(3) Uani 1.000000 1 . . .
C13 C 0.3773(14) 0.8680(13) 0.1809(4) 0.055(3) Uani 1.000000 1 . . .
C3 C 0.5814(17) 0.9697(12) 0.3789(4) 0.055(3) Uani 1.000000 1 . . .
C14 C 0.5298(14) 0.8084(12) 0.1792(3) 0.054(3) Uani 1.000000 1 . . .
C2 C 0.5114(12) 0.8707(12) 0.4009(3) 0.047(3) Uani 1.000000 1 . . .
C9 C 0.6941(13) 0.7831(10) 0.2874(3) 0.043(3) Uani 1.000000 1 . . .
C11 C 0.4195(14) 0.8770(11) 0.2520(4) 0.052(3) Uani 1.000000 1 . . .
C7 C 0.4986(14) 0.7439(12) 0.3854(3) 0.050(3) Uani 1.000000 1 . . .
H7 H 0.4488(14) 0.6780(12) 0.3994(3) 0.060(3) Uiso 1.000000 1 R . .
H6 H 0.5565(14) 0.6352(12) 0.3393(3) 0.063(4) Uiso 1.000000 1 R . .
H4 H 0.6938(16) 1.0052(13) 0.3284(3) 0.074(4) Uiso 1.000000 1 R . .
H3 H 0.5863(17) 1.0543(12) 0.3884(4) 0.066(4) Uiso 1.000000 1 R . .
H12 H 0.2159(14) 0.9467(13) 0.2194(4) 0.071(4) Uiso 1.000000 1 R . .
H13 H 0.3065(14) 0.8863(13) 0.1576(4) 0.066(4) Uiso 1.000000 1 R . .
H14 H 0.5643(14) 0.7866(12) 0.1544(3) 0.065(4) Uiso 1.000000 1 R . .
H11 H 0.3801(14) 0.9010(11) 0.2762(4) 0.062(4) Uiso 1.000000 1 R . .
H3a H 0.258696706567 1.2457(13) 0.520035642053 0.121(6) Uiso 0.500000 1 GR . .
H3b H 0.241303293433 1.2457(13) 0.479964357947 0.121(6) Uiso 0.500000 1 GR . .
loop_
_atom_site_aniso_label
_atom_site_aniso_U_11
_atom_site_aniso_U_22
_atom_site_aniso_U_33
_atom_site_aniso_U_12
_atom_site_aniso_U_13
_atom_site_aniso_U_23
Cd1 0.0656(9) 0.0561(9) 0.0313(7) -0.000000 0.0391(6) 0.000000
O3 0.148(12) 0.055(8) 0.042(6) -0.000000 0.025(7) 0.000000
O1 0.052(4) 0.070(6) 0.039(4) -0.001(4) 0.031(3) -0.001(4)
O2 0.072(5) 0.072(6) 0.034(4) -0.018(4) 0.035(4) -0.025(4)
C8 0.053(6) 0.044(6) 0.040(5) -0.003(5) 0.032(5) -0.010(5)
C6 0.071(7) 0.052(7) 0.039(5) -0.004(6) 0.032(5) -0.023(5)
C5 0.047(6) 0.060(8) 0.041(6) -0.017(5) 0.028(5) -0.019(6)
C4 0.080(8) 0.066(9) 0.047(7) -0.029(7) 0.052(6) -0.026(6)
C1 0.045(6) 0.073(9) 0.028(5) 0.003(6) 0.022(4) -0.002(6)
C10 0.054(6) 0.046(7) 0.039(6) -0.004(5) 0.028(5) -0.018(5)
C12 0.040(6) 0.068(9) 0.071(8) 0.007(6) 0.013(6) -0.004(8)
C13 0.046(6) 0.066(8) 0.054(7) -0.005(6) 0.008(5) 0.010(6)
C3 0.075(8) 0.057(7) 0.041(6) -0.017(6) 0.040(6) -0.020(6)
C14 0.063(7) 0.067(8) 0.037(6) -0.008(6) 0.024(5) -0.013(6)
C2 0.041(5) 0.075(8) 0.030(5) -0.008(6) 0.028(4) -0.006(5)
C9 0.057(6) 0.045(6) 0.033(5) -0.012(5) 0.029(5) -0.016(5)
C11 0.055(6) 0.048(7) 0.059(7) -0.002(6) 0.036(6) -0.009(6)
C7 0.065(7) 0.050(7) 0.041(6) -0.010(6) 0.038(5) -0.008(5)
loop_
_atom_type_symbol
_atom_type_scat_dispersion_real
_atom_type_scat_dispersion_imag
_atom_type_scat_Cromer_Mann_a1
_atom_type_scat_Cromer_Mann_a2
_atom_type_scat_Cromer_Mann_a3
_atom_type_scat_Cromer_Mann_a4
_atom_type_scat_Cromer_Mann_b1
_atom_type_scat_Cromer_Mann_b2
_atom_type_scat_Cromer_Mann_b3
_atom_type_scat_Cromer_Mann_b4
_atom_type_scat_Cromer_Mann_c
_atom_type_scat_source
_atom_type_scat_dispersion_source
H 0.00000 0.00000 0.49300 0.32291 0.14019 0.04081 10.51090 26.12570 3.14236
57.79970 0.0030380000826
'International Tables Volume C Table 6.1.1.4 (pp. 500-502)'
'Henke, Gullikson and Davis, At. Data and Nucl. Data Tables, 1993, 54, 2'
C 0.00347 0.00161 2.31000 1.02000 1.58860 0.86500 20.84390 10.20750 0.56870
51.65120 0.215599998832
'International Tables Volume C Table 6.1.1.4 (pp. 500-502)'
'Henke, Gullikson and Davis, At. Data and Nucl. Data Tables, 1993, 54, 2'
O 0.01158 0.00611 3.04850 2.28680 1.54630 0.86700 13.27710 5.70110 0.32390
32.90890 0.250800013542
'International Tables Volume C Table 6.1.1.4 (pp. 500-502)'
'Henke, Gullikson and Davis, At. Data and Nucl. Data Tables, 1993, 54, 2'
Cd -0.80532 1.22853 19.22140 17.64440 4.46100 1.60290 0.59460 6.90890 24.70080
87.48250 5.06939983368
'International Tables Volume C Table 6.1.1.4 (pp. 500-502)'
'Henke, Gullikson and Davis, At. Data and Nucl. Data Tables, 1993, 54, 2'
loop_
_geom_angle_atom_site_label_1
_geom_angle_atom_site_label_2
_geom_angle_atom_site_label_3
_geom_angle
_geom_angle_site_symmetry_1
_geom_angle_site_symmetry_3
_geom_angle_publ_flag
O1 Cd1 O3 131.17(19) . . ?
O1 Cd1 O3 131.17(19) 2_556 . ?
O1 Cd1 O1 97.7(4) 2_556 . ?
O2 Cd1 O3 81.4(2) 3_676 . ?
O2 Cd1 O3 81.4(2) 4_575 . ?
O2 Cd1 O3 86.2(2) 2_556 . ?
O2 Cd1 O3 86.2(2) . . ?
O2 Cd1 O1 139.5(3) 4_575 . ?
O2 Cd1 O1 101.7(3) . . ?
O2 Cd1 O1 139.5(3) 3_676 2_556 ?
O2 Cd1 O1 55.6(2) 3_676 . ?
O2 Cd1 O1 83.3(3) . 2_556 ?
O2 Cd1 O1 101.7(3) 2_556 2_556 ?
O2 Cd1 O1 55.6(2) 4_575 2_556 ?
O2 Cd1 O1 83.3(3) 2_556 . ?
O2 Cd1 O2 162.8(4) 4_575 3_676 ?
O2 Cd1 O2 104.0(3) 4_575 . ?
O2 Cd1 O2 104.0(3) 2_556 3_676 ?
O2 Cd1 O2 172.5(4) 2_556 . ?
C1 O1 Cd1 93.5(7) . . ?
C1 O2 Cd1 89.2(6) 3_676 4_675 ?
C1 O2 Cd1 120.3(8) 3_676 2_556 ?
C14 C8 C10 117.1(9) 7_665 7_665 ?
C9 C8 C10 120.3(10) . 7_665 ?
C9 C8 C14 122.6(8) . 7_665 ?
C7 C6 C5 122.4(10) . . ?
C4 C5 C6 118.1(8) . . ?
C9 C5 C6 119.6(10) . . ?
C9 C5 C4 122.3(10) . . ?
C3 C4 C5 121.7(10) . . ?
O2 C1 O1 120.9(8) 3_676 . ?
C2 C1 O1 120.1(11) . . ?
C2 C1 O2 119.0(10) . 3_676 ?
C9 C10 C8 119.1(9) . 7_665 ?
C11 C10 C8 118.1(10) . 7_665 ?
C11 C10 C9 122.8(9) . . ?
C11 C12 C13 120.9(11) . . ?
C14 C13 C12 120.1(11) . . ?
C2 C3 C4 119.2(11) . . ?
C13 C14 C8 122.3(10) . 7_665 ?
C3 C2 C1 119.4(11) . . ?
C7 C2 C1 120.4(10) . . ?
C7 C2 C3 120.0(8) . . ?
C5 C9 C8 119.9(10) . . ?
C10 C9 C8 120.6(8) . . ?
C10 C9 C5 119.5(9) . . ?
C12 C11 C10 121.5(10) . . ?
C2 C7 C6 118.6(10) . . ?
loop_
_geom_bond_atom_site_label_1
_geom_bond_atom_site_label_2
_geom_bond_distance
_geom_bond_site_symmetry_2
_geom_bond_publ_flag
Cd1 O3 2.277(13) . ?
Cd1 O1 2.335(7) . ?
Cd1 O1 2.335(7) 2_556 ?
Cd1 O2 2.432(8) 3_676 ?
Cd1 O2 2.439(10) 2_556 ?
Cd1 O2 2.439(10) . ?
Cd1 O2 2.432(8) 4_575 ?
O1 C1 1.280(13) . ?
O2 C1 1.279(14) 3_676 ?
C8 C10 1.431(12) 7_665 ?
C8 C14 1.439(16) 7_665 ?
C8 C9 1.394(14) . ?
C6 C5 1.387(15) . ?
C6 C7 1.383(12) . ?
C5 C4 1.386(16) . ?
C5 C9 1.497(12) . ?
C4 C3 1.390(13) . ?
C1 C2 1.484(12) . ?
C10 C9 1.417(15) . ?
C10 C11 1.442(14) . ?
C12 C13 1.423(16) . ?
C12 C11 1.320(16) . ?
C13 C14 1.327(15) . ?
C3 C2 1.400(16) . ?
C2 C7 1.407(16) . ?
