#------------------------------------------------------------------------------
#$Date: 2022-02-04 21:31:48 +0200 (Fri, 04 Feb 2022) $
#$Revision: 272651 $
#$URL: file:///home/coder/svn-repositories/cod/cif/7/70/90/7709039.cif $
#------------------------------------------------------------------------------
#
# This file is available in the Crystallography Open Database (COD),
# http://www.crystallography.net/
#
# All data on this site have been placed in the public domain by the
# contributors.
#
data_7709039
loop_
_publ_author_name
'Fonseca de Lima, Juliana'
'Moreno, Fernanda V. S.'
'Menezes, Bruno A. T.'
'da Silva Barbosa, Jader'
'Waddington, Matthew C.'
'Franklin, Si\^an A'
'Clarkson, Guy J.'
'Walker, Marc'
'Serra, Osvaldo A.'
'Walton, Richard I.'
_publ_section_title
;
 Investigation of the preparation and reactivity of metal-organic
 frameworks of cerium and pyridine-2,4,6-tricarboxylate.
;
_journal_issue                   1
_journal_name_full
'Dalton transactions (Cambridge, England : 2003)'
_journal_page_first              145
_journal_page_last               155
_journal_paper_doi               10.1039/d1dt03514b
_journal_volume                  51
_journal_year                    2021
_chemical_formula_moiety         'C8 H2 N Na3 O6'
_chemical_formula_sum            'C8 H2 N Na3 O6'
_chemical_formula_weight         277.08
_space_group_crystal_system      monoclinic
_space_group_IT_number           9
_space_group_name_Hall           'C -2yc'
_space_group_name_H-M_alt        'C 1 c 1'
_atom_sites_solution_hydrogens   geom
_atom_sites_solution_primary     dual
_audit_creation_date             2021-09-20
_audit_creation_method
;
Olex2 1.3-ac4
(compiled 2020.11.27 svn.r5f609507 for Rigaku Oxford Diffraction, GUI svn.r6214)
;
_audit_update_record
;
2021-09-20 deposited with the CCDC.	2021-11-29 downloaded from the CCDC.
;
_cell_angle_alpha                90
_cell_angle_beta                 91.590(2)
_cell_angle_gamma                90
_cell_formula_units_Z            4
_cell_length_a                   3.42187(8)
_cell_length_b                   16.9689(4)
_cell_length_c                   15.1988(4)
_cell_measurement_reflns_used    9232
_cell_measurement_temperature    150(2)
_cell_measurement_theta_max      31.4890
_cell_measurement_theta_min      4.6660
_cell_volume                     882.18(4)
_computing_cell_refinement       'CrysAlisPro 1.171.41.116a (Rigaku OD, 2021)'
_computing_data_collection       'CrysAlisPro 1.171.41.116a (Rigaku OD, 2021)'
_computing_data_reduction        'CrysAlisPro 1.171.41.116a (Rigaku OD, 2021)'
_computing_molecular_graphics    'Olex2 1.3-ac4 (Dolomanov et al., 2009)'
_computing_publication_material  'Olex2 1.3-ac4 (Dolomanov et al., 2009)'
_computing_structure_refinement  'SHELXL 2018/3 (Sheldrick, 2015)'
_computing_structure_solution    'SHELXT  (Sheldrick, 2015)'
_diffrn_ambient_environment      N~2~
_diffrn_ambient_temperature      150(2)
_diffrn_detector                 'CCD plate'
_diffrn_detector_area_resol_mean 5.3046
_diffrn_detector_type            AtlasS2
_diffrn_measured_fraction_theta_full 0.997
_diffrn_measured_fraction_theta_max 0.961
_diffrn_measurement_details
;
List of Runs (angles in degrees, time in seconds):

  # Type    Start    End  Width  t~exp~   \w     \q     \k     \f   Frames
#--------------------------------------------------------------------------
  1  \w    -20.00  25.00   1.00   60.00    --  -16.15 -99.00  30.00   45
  2  \w     -7.00  92.00   1.00   60.00    --   17.24  37.00 -60.00   99
  3  \w     34.00 104.00   1.00   60.00    --   17.24-178.00-120.00   70
  4  \w    -11.00  90.00   1.00   60.00    --   17.24  57.00   0.00  101
  5  \w    -59.00  50.00   1.00   60.00    --   17.24 -77.00-120.00  109
  6  \w    -40.00  58.00   1.00   60.00    --  -16.15  37.00   0.00   98
  7  \w   -103.00 -55.00   1.00   60.00    --  -16.15 178.00 -60.00   48
  8  \w    -20.00  25.00   1.00   60.00    --  -16.15 -99.00   0.00   45
  9  \w    -20.00  58.00   1.00   60.00    --   17.24 -99.00 -60.00   78
 10  \w    -11.00  90.00   1.00   60.00    --   17.24  57.00-180.00  101
 11  \w    -59.00  47.00   1.00   60.00    --   17.24 -77.00 -60.00  106
 12  \w    -20.00  58.00   1.00   60.00    --   17.24 -99.00  90.00   78
;
_diffrn_measurement_device       'four-circle diffractometer'
_diffrn_measurement_device_type  'SuperNova, Dual, Cu at home/near, AtlasS2'
_diffrn_measurement_method       '\w scans'
_diffrn_orient_matrix_type
'CrysAlisPro convention (1999,Acta A55,543-557)'
_diffrn_orient_matrix_UB_11      0.0181264000
_diffrn_orient_matrix_UB_12      0.0060074000
_diffrn_orient_matrix_UB_13      -0.0458919000
_diffrn_orient_matrix_UB_21      0.2041658000
_diffrn_orient_matrix_UB_22      0.0057283000
_diffrn_orient_matrix_UB_23      0.0062907000
_diffrn_orient_matrix_UB_31      0.0312086000
_diffrn_orient_matrix_UB_32      -0.0409724000
_diffrn_orient_matrix_UB_33      -0.0058398000
_diffrn_radiation_monochromator  mirror
_diffrn_radiation_probe          x-ray
_diffrn_radiation_type           'Mo K\a'
_diffrn_radiation_wavelength     0.71073
_diffrn_reflns_av_R_equivalents  0.0229
_diffrn_reflns_av_unetI/netI     0.0178
_diffrn_reflns_Laue_measured_fraction_full 0.997
_diffrn_reflns_Laue_measured_fraction_max 0.961
_diffrn_reflns_limit_h_max       5
_diffrn_reflns_limit_h_min       -5
_diffrn_reflns_limit_k_max       24
_diffrn_reflns_limit_k_min       -24
_diffrn_reflns_limit_l_max       22
_diffrn_reflns_limit_l_min       -21
_diffrn_reflns_number            12566
_diffrn_reflns_point_group_measured_fraction_full 0.997
_diffrn_reflns_point_group_measured_fraction_max 0.929
_diffrn_reflns_theta_full        26.000
_diffrn_reflns_theta_max         31.770
_diffrn_reflns_theta_min         3.600
_diffrn_source                   'micro-focus sealed X-ray tube'
_diffrn_source_type              'SuperNova (Mo) X-ray Source'
_exptl_absorpt_coefficient_mu    0.297
_exptl_absorpt_correction_T_max  1.00000
_exptl_absorpt_correction_T_min  0.89734
_exptl_absorpt_correction_type   multi-scan
_exptl_absorpt_process_details
;
CrysAlisPro 1.171.41.116a (Rigaku Oxford Diffraction, 2021)
Empirical absorption correction using spherical harmonics,
implemented in SCALE3 ABSPACK scaling algorithm.
;
_exptl_crystal_colour            colourless
_exptl_crystal_colour_primary    colourless
_exptl_crystal_density_diffrn    2.086
_exptl_crystal_description       block
_exptl_crystal_F_000             552
_exptl_crystal_size_max          0.16
_exptl_crystal_size_mid          0.1
_exptl_crystal_size_min          0.01
_refine_diff_density_max         0.325
_refine_diff_density_min         -0.212
_refine_diff_density_rms         0.054
_refine_ls_abs_structure_details
;
 Flack x determined using 1278 quotients [(I+)-(I-)]/[(I+)+(I-)]
 (Parsons, Flack and Wagner, Acta Cryst. B69 (2013) 249-259).
Flack x: -0.07(7) Shelx 2018
Hooft y: -0.08(7) Olex2
Not really important as interested in the structure and not the handedness of the crystal
;
_refine_ls_abs_structure_Flack   -0.08(7)
_refine_ls_extinction_method     none
_refine_ls_goodness_of_fit_ref   1.122
_refine_ls_hydrogen_treatment    constr
_refine_ls_matrix_type           full
_refine_ls_number_parameters     163
_refine_ls_number_reflns         2773
_refine_ls_number_restraints     2
_refine_ls_restrained_S_all      1.121
_refine_ls_R_factor_all          0.0234
_refine_ls_R_factor_gt           0.0229
_refine_ls_shift/su_max          0.000
_refine_ls_shift/su_mean         0.000
_refine_ls_structure_factor_coef Fsqd
_refine_ls_weighting_details
'w=1/[\s^2^(Fo^2^)+(0.0352P)^2^+0.3737P] where P=(Fo^2^+2Fc^2^)/3'
_refine_ls_weighting_scheme      calc
_refine_ls_wR_factor_gt          0.0631
_refine_ls_wR_factor_ref         0.0635
_reflns_Friedel_coverage         0.924
_reflns_Friedel_fraction_full    0.998
_reflns_Friedel_fraction_max     0.896
_reflns_number_gt                2735
_reflns_number_total             2773
_reflns_threshold_expression     'I > 2\s(I)'
_cod_data_source_file            d1dt03514b2.cif
_cod_data_source_block           rwj14
_cod_depositor_comments
'Adding full bibliography for 7709038--7709041.cif.'
_cod_original_cell_volume        882.19(3)
_cod_database_code               7709039
_shelx_shelxl_version_number     2018/3
_chemical_oxdiff_formula         'C20 H20 N2 O8 Ce'
_shelx_space_group_comment
;
The symmetry employed for this shelxl refinement is uniquely defined
by the following loop, which should always be used as a source of
symmetry information in preference to the above space-group names.
They are only intended as comments.
;
_reflns_odcompleteness_completeness 99.67
_reflns_odcompleteness_iscentric 1
_reflns_odcompleteness_theta     28.98
_olex2_refinement_description
;
1. Fixed Uiso
 At 1.2 times of:
  All C(H) groups
2.a Aromatic/amide H refined with riding coordinates:
 C3(H3), C7(H7)
;
_shelx_res_file
;
TITL rwJ14 in Cc
    rwj14.res
    created by SHELXL-2018/3 at 16:19:11 on 20-Sep-2021
REM Cc (#9 in standard setting)
CELL 0.71073 3.421872 16.968933 15.198823 90 91.5902 90
ZERR 4 0.000075 0.000353 0.000361 0 0.0021 0
LATT -7
SYMM +X,-Y,0.5+Z
SFAC C H N Na O
UNIT 32 8 4 12 24

L.S. 4
PLAN  5
TEMP -123(2)
CONF
BOND $H
LIST 6
MORE -1
fmap 2
acta 52
REM <olex2.extras>
REM <HklSrc "%.\\rwJ14.hkl">
REM </olex2.extras>

WGHT    0.035200    0.373700
FVAR       4.05104
NA3   4   -0.004940    0.310092    0.401087    11.00000    0.01344    0.00912 =
         0.01154   -0.00037   -0.00024   -0.00083
NA2   4    0.376703    0.522064    0.257538    11.00000    0.01612    0.01093 =
         0.01205   -0.00322    0.00312   -0.00102
NA4   4    0.952320    0.698340    0.208942    11.00000    0.01283    0.00755 =
         0.01273    0.00008    0.00165    0.00097
O9A   5    0.412086    0.377902    0.636876    11.00000    0.01472    0.00945 =
         0.01082    0.00170    0.00160   -0.00166
O1B   5    1.011467    0.711562    0.388349    11.00000    0.01742    0.00718 =
         0.01173    0.00039    0.00110   -0.00304
O8A   5    0.948662    0.590584    0.785777    11.00000    0.03132    0.00829 =
         0.00759    0.00075   -0.00094    0.00042
O1A   5    0.889130    0.598514    0.318250    11.00000    0.01807    0.00999 =
         0.00779   -0.00162    0.00110   -0.00103
O8B   5    0.965872    0.709395    0.723513    11.00000    0.01532    0.00737 =
         0.01223   -0.00191    0.00006   -0.00197
O9B   5    0.497798    0.362197    0.492288    11.00000    0.01712    0.00905 =
         0.01199   -0.00391    0.00124   -0.00213
N5    3    0.724479    0.523506    0.632758    11.00000    0.01029    0.00788 =
         0.00899    0.00020    0.00047   -0.00026
C1    1    0.923270    0.639969    0.386965    11.00000    0.00815    0.00687 =
         0.00826    0.00133    0.00087   -0.00009
C8    1    0.926088    0.636079    0.720741    11.00000    0.00870    0.00889 =
         0.00878   -0.00126    0.00065   -0.00024
C9    1    0.512642    0.401151    0.562180    11.00000    0.00786    0.00657 =
         0.01168    0.00001   -0.00026   -0.00053
C2    1    0.851319    0.599163    0.473662    11.00000    0.00886    0.00814 =
         0.00746    0.00095    0.00087    0.00012
C4    1    0.664742    0.485549    0.556333    11.00000    0.00886    0.00675 =
         0.00946   -0.00016    0.00086   -0.00036
C3    1    0.735536    0.520591    0.475638    11.00000    0.01030    0.00824 =
         0.00827   -0.00006    0.00017   -0.00043
AFIX  43
H3    2    0.705297    0.491311    0.422610    11.00000   -1.20000
AFIX   0
C7    1    0.902648    0.639639    0.553141    11.00000    0.00994    0.00650 =
         0.00844   -0.00015    0.00067   -0.00110
AFIX  43
H7    2    0.974576    0.693712    0.554003    11.00000   -1.20000
AFIX   0
C6    1    0.845642    0.598665    0.631039    11.00000    0.00986    0.00760 =
         0.00737   -0.00078    0.00005   -0.00047
HKLF 4




REM  rwJ14 in Cc
REM wR2 = 0.0635, GooF = S = 1.122, Restrained GooF = 1.121 for all data
REM R1 = 0.0229 for 2735 Fo > 4sig(Fo) and 0.0234 for all 2773 data
REM 163 parameters refined using 2 restraints

END

WGHT      0.0352      0.3737

REM Highest difference peak  0.325,  deepest hole -0.212,  1-sigma level  0.054
Q1    1   0.8642  0.6173  0.5929  11.00000  0.05    0.32
Q2    1   0.8818  0.6167  0.6767  11.00000  0.05    0.32
Q3    1   0.8852  0.6146  0.5170  11.00000  0.05    0.32
Q4    1   0.6906  0.5062  0.5175  11.00000  0.05    0.32
Q5    1   0.7977  0.5569  0.4759  11.00000  0.05    0.31
;
_shelx_res_checksum              44385
_shelx_hkl_file
;
  -5   1  -3 1166.05 206.432  10
  -5   1  -2 3661.46 324.062  10
  -5  -1  -1 732.843 170.537  10
  -5   1  -1 1298.96 225.077  10
  -4   0 -12 4542.89 325.776   6
  -4   0 -12 3880.12 306.292   9
  -4   0 -11 538.520 127.731   6
  -4   0 -11 470.994 170.433  11
  -4   0 -11 156.065 109.522   9
  -4   0 -10 18466.8 678.269   6
  -4   0 -10 19213.5 667.795  10
  -4   0 -10 18884.0 853.155  11
  -4   0 -10 18226.7 687.109   9
  -4   0  -9 146.374 83.7614   6
  -4   0  -9 177.658 129.306  11
  -4   0  -9 111.475 72.7356  10
  -4   0  -9 113.992 114.102   9
  -4   0  -8 96.0860 78.7343   6
  -4   0  -8 1.23595 105.806  11
  -4   0  -8 53.4026 80.5443   9
  -4   0  -8 312.028 103.088  10
  -4   0  -7 46.6106 93.1219  11
  -4   0  -7-28.2795 68.5798  10
  -4   0  -6 10740.7 599.141  11
  -4   0  -6 10575.7 474.610  10
  -4   0  -5 210.275 128.933  11
  -4   0  -5 338.743 99.7685  10
  -4   0  -4 11745.8 615.375  11
  -4   0  -4 11204.3 489.014  10
  -4   0  -3 209.258 115.760  11
  -4   0  -3 117.611 83.5069  10
  -4   0  -2 9013.05 536.023  11
  -4   0  -1 201.191 81.0877   5
  -4   0  -1 274.588 136.159  11
  -4   0   0 23935.3 661.651   5
  -4   0   0 23522.0 889.907  11
  -4   0   1 497.744 106.175   5
  -4   0   1 323.174 165.199  11
  -4   0   2 11747.4 450.813   5
  -4   0   2 11815.9 603.212  11
  -4   0   3 94.0321 77.7010   5
  -4   0   3 203.932 127.172  11
  -4   0   4 2360.01 205.959   5
  -4   0   4 2670.84 285.528  11
  -4   0   5-98.5223 76.6924   5
  -4   0   6 7976.30 394.383   5
  -4   0   7 4.46122 65.5572   5
  -4   0   8 1023.52 154.013   5
  -4   0   9 63.8004 84.9469   5
  -4   0  10 3771.61 296.759   5
  -4   0  11 293.841 119.486   5
  -4   0  12 15925.3 668.506   5
  -4  -2 -12 500.017 137.750   6
  -4   2 -12 746.061 183.514  11
  -4  -2 -12 487.258 123.084   9
  -4   2 -12 705.576 157.610  10
  -4  -2 -11 2247.74 237.461   6
  -4  -2 -11 2292.49 312.318  11
  -4   2 -11 1603.78 248.416  11
  -4   2 -11 2087.45 227.186  10
  -4  -2 -11 1655.87 209.749   9
  -4   2 -11 1585.69 200.285   9
  -4  -2 -10 3020.08 268.608   6
  -4   2 -10 2759.74 242.656   6
  -4   2 -10 3014.25 328.682  11
  -4   2 -10 3232.53 275.329  10
  -4  -2 -10 3560.41 367.348  11
  -4   2 -10 3303.84 276.169   9
  -4  -2 -10 3052.13 274.947   9
  -4  -2  -9 554.911 127.033   6
  -4   2  -9 874.634 141.028   6
  -4  -2  -9 456.216 151.421  11
  -4   2  -9 891.196 202.887  11
  -4  -2  -9 572.754 130.870   9
  -4   2  -9 794.784 153.958  10
  -4  -2  -8 1504.59 187.424   6
  -4   2  -8 1296.05 163.434   6
  -4  -2  -8 1188.23 229.007  11
  -4   2  -8 1147.95 203.282  11
  -4  -2  -8 989.757 142.346  10
  -4  -2  -8 1377.25 191.485   9
  -4   2  -8 1031.31 153.962  10
  -4  -2  -7 2613.55 221.750  10
  -4  -2  -7 2484.35 305.154  11
  -4   2  -7 2475.79 297.871  11
  -4  -2  -7 2322.42 239.822   9
  -4   2  -7 2472.30 245.571  10
  -4  -2  -6 4516.71 396.578  11
  -4   2  -6 4414.89 380.090  11
  -4   2  -6 4613.76 320.208  10
  -4  -2  -6 4111.43 320.380   9
  -4  -2  -6 4349.70 282.548  10
  -4   2  -5 1859.51 251.477  11
  -4  -2  -5 2829.45 315.928  11
  -4  -2  -5 2792.33 230.281  10
  -4   2  -5 3228.14 267.959  10
  -4   2  -4 3397.85 332.170  11
  -4  -2  -4 3336.27 334.281  11
  -4   2  -4 3719.80 285.332  10
  -4  -2  -4 3472.22 254.358  10
  -4  -2  -3 1438.63 148.257   5
  -4   2  -3 2342.13 277.288  11
  -4  -2  -3 1789.66 253.847  11
  -4  -2  -3 1671.40 183.361  10
  -4   2  -3 1675.10 196.514  10
  -4  -2  -2 2137.38 182.057   5
  -4   2  -2 1746.15 242.638  11
  -4  -2  -2 1987.44 243.507  11
  -4   2  -2 1766.19 204.349  10
  -4  -2  -1 11308.1 443.526   5
  -4   2  -1 11530.0 608.184  11
  -4  -2  -1 11803.5 608.954  11
  -4  -2   0 9160.76 391.996   5
  -4  -2   0 8925.96 523.247  11
  -4   2   0 8373.68 514.650  11
  -4  -2   1 7258.54 351.709   5
  -4   2   1 7053.75 312.591   5
  -4  -2   1 7127.73 466.985  11
  -4   2   1 6918.59 463.837  11
  -4   2   2 12648.4 447.482   5
  -4  -2   2 12503.8 486.368   5
  -4  -2   2 12610.9 627.149  11
  -4  -2   3 119.475 78.5224   5
  -4   2   3 238.867 84.8845   5
  -4  -2   3 7.05773 96.1329  11
  -4  -2   4 5069.94 309.789   5
  -4   2   4 5066.02 287.796   5
  -4  -2   4 4812.69 382.918  11
  -4  -2   5 9489.62 438.087   5
  -4   2   5 8972.90 400.350   5
  -4  -2   5 9108.77 521.629  11
  -4  -2   6 16364.0 607.632   5
  -4   2   6 16675.6 580.352   5
  -4  -2   6 17240.3 738.646  11
  -4  -2   7 1906.77 206.623   5
  -4   2   7 1543.53 174.522   5
  -4  -2   7 1915.29 244.108  11
  -4  -2   8 6400.04 375.538   5
  -4   2   8 5176.69 325.621   5
  -4  -2   8 6237.38 439.338  11
  -4  -2   9 58.7420 99.6954   5
  -4   2   9-34.7829 80.9209   5
  -4   2  10 1270.02 178.933   5
  -4  -2  10 1024.79 176.098   5
  -4   2  11 1547.94 208.829   5
  -4  -2  11 1434.46 199.664   5
  -4   2  12 1654.64 213.121   5
  -4  -2  12 1506.89 213.574   5
  -4   4 -12 7661.65 530.488  11
  -4   4 -12 8515.13 476.027  10
  -4  -4 -12 8213.17 462.455   9
  -4  -4 -11 4281.77 338.368   6
  -4   4 -11 4260.64 336.528  10
  -4   4 -11 4235.09 392.411  11
  -4  -4 -11 3602.40 304.959   9
  -4  -4 -10 4190.14 331.356   6
  -4   4 -10 4013.93 318.711  10
  -4   4 -10 4012.92 376.500  11
  -4  -4 -10 4197.36 406.813  11
  -4  -4 -10 4075.77 325.056   9
  -4  -4  -9 521.033 129.331   6
  -4  -4  -9 294.632 150.911  11
  -4   4  -9 611.824 169.020  11
  -4   4  -9 399.870 121.518  10
  -4  -4  -9 604.183 147.685   9
  -4  -4  -8 634.556 136.931   6
  -4  -4  -8 840.095 210.264  11
  -4   4  -8 565.903 156.496  11
  -4  -4  -8 473.252 136.606   9
  -4   4  -8 596.579 138.382  10
  -4   4  -7 853.707 190.708  11
  -4  -4  -7 1092.26 205.241  11
  -4  -4  -7 944.822 170.297   9
  -4   4  -7 1146.16 184.724  10
  -4   4  -6 1687.78 250.549  11
  -4  -4  -6 1159.70 212.428  11
  -4   4  -6 1702.34 209.056  10
  -4  -4  -6 1385.63 202.624   9
  -4   4  -5 755.760 180.828  11
  -4  -4  -5 549.969 171.837  11
  -4  -4  -5 1026.53 139.491  10
  -4   4  -5 933.931 165.503  10
  -4  -4  -5 802.248 149.891   9
  -4  -4  -4 8990.13 398.314   5
  -4  -4  -4 8779.20 537.420  11
  -4   4  -4 8537.99 522.129  11
  -4   4  -4 8781.40 459.449  10
  -4  -4  -4 9129.36 400.586  10
  -4  -4  -4 8848.19 473.177   9
  -4  -4  -3 1478.92 164.159   5
  -4   4  -3 1359.76 222.044  11
  -4  -4  -3 1464.56 231.802  11
  -4  -4  -3 1513.25 162.530  10
  -4   4  -3 1353.45 182.093  10
  -4  -4  -2 2679.65 219.695   5
  -4   4  -2 2208.13 269.507  11
  -4  -4  -2 2207.36 273.322  11
  -4   4  -2 2692.11 255.669  10
  -4  -4  -1 2085.47 196.408   5
  -4  -4  -1 1771.08 248.907  11
  -4   4  -1 1870.13 250.956  11
  -4  -4   0 2958.46 231.624   5
  -4  -4   0 2871.48 303.130  11
  -4   4   0 3325.53 327.868  11
  -4  -4   1 313.513 88.1629   5
  -4  -4   1 70.3208 103.444  11
  -4   4   1 491.327 98.3833   1
  -4  -4   2 1158.07 155.515   5
  -4  -4   2 1409.04 217.837  11
  -4   4   2 1116.83 133.604   1
  -4  -4   3 6131.36 349.587   5
  -4   4   3 6615.75 304.894   5
  -4  -4   3 5865.55 418.038  11
  -4   4   3 5627.72 293.070   1
  -4  -4   4 5470.09 335.589   5
  -4   4   4 5433.22 282.247   5
  -4   4   4 4548.56 265.515   1
  -4  -4   4 5201.50 394.865  11
  -4   4   5 869.861 126.136   5
  -4  -4   5 1025.96 162.664   5
  -4  -4   5 1136.11 201.855  11
  -4   4   5 1481.40 183.258   8
  -4  -4   6 4433.91 311.348   5
  -4   4   6 3963.25 260.201   5
  -4  -4   6 3495.77 326.257  11
  -4  -4   7 349.428 104.816   5
  -4   4   7 327.385 98.8269   5
  -4  -4   7-6.45340 100.554  11
  -4  -4   8 2590.26 256.011   5
  -4   4   8 2657.76 225.335   5
  -4  -4   8 2475.72 276.752  11
  -4  -4   9 2090.09 225.055   5
  -4   4   9 1574.34 182.682   5
  -4  -4   9 2058.41 255.790  11
  -4   4  10 1412.91 184.053   5
  -4  -4  10 1333.52 193.223   5
  -4  -4  10 1244.19 195.728  11
  -4   4  11 245.805 107.882   5
  -4  -4  11 200.439 81.9289   5
  -4  -4  11 540.374 146.571  11
  -4   4  12 10447.7 525.267   5
  -4  -4  12 10478.6 569.799  11
  -4   6 -11 3242.40 348.240  11
  -4   6 -11 3391.21 310.932  10
  -4  -6 -11 3301.46 304.562   9
  -4  -6 -10 5266.23 386.152   6
  -4   6 -10 5429.63 381.829  10
  -4   6 -10 5704.68 437.919  11
  -4  -6 -10 4871.30 362.315   9
  -4  -6  -9 828.218 152.115   6
  -4   6  -9 834.751 172.637  11
  -4  -6  -9 978.116 220.720  11
  -4   6  -9 1246.67 189.368  10
  -4  -6  -9 1303.53 199.803   9
  -4  -6  -8 966.055 163.711   6
  -4   6  -8 1015.62 195.021  11
  -4  -6  -8 878.485 197.271  11
  -4   6  -8 914.633 160.966  10
  -4  -6  -8 1171.72 187.104   9
  -4  -6  -7 15711.9 776.375  11
  -4   6  -7 15774.5 729.585  11
  -4  -6  -7 15854.7 663.153   9
  -4   6  -7 16014.4 673.742  10
  -4   6  -6 10554.1 591.070  11
  -4  -6  -6 10780.0 629.310  11
  -4   6  -6 10942.2 546.188  10
  -4  -6  -6 10822.8 535.315   9
  -4  -6  -5 5305.57 323.924   5
  -4   6  -5 4983.42 401.571  11
  -4  -6  -5 4612.72 405.071  11
  -4   6  -5 5222.67 372.266  10
  -4  -6  -5 5165.60 362.620   9
  -4  -6  -4 6196.12 349.957   5
  -4   6  -4 6843.67 377.656   1
  -4  -6  -4 5642.23 444.242  11
  -4   6  -4 5601.41 428.866  11
  -4  -6  -4 5528.32 378.573   9
  -4   6  -4 5838.42 389.039  10
  -4  -6  -3 4726.13 309.026   5
  -4   6  -3 5901.75 345.424   1
  -4  -6  -3 5056.07 418.769  11
  -4   6  -3 4884.76 388.857  11
  -4  -6  -3 5494.14 369.383   9
  -4   6  -3 5428.64 369.077  10
  -4  -6  -2 6807.72 371.445   5
  -4   6  -2 7386.57 384.657   1
  -4   6  -2 7101.74 478.197  11
  -4  -6  -2 6664.03 474.985  11
  -4  -6  -2 6861.33 412.421   9
  -4   6  -2 6706.02 420.908  10
  -4  -6  -1 6093.53 353.834   5
  -4   6  -1 7181.85 372.886   1
  -4  -6  -1 5768.36 428.732  11
  -4  -6  -1 6322.77 400.527   9
  -4   6  -1 5572.07 386.534  10
  -4  -6   0 5787.32 351.288   5
  -4  -6   0 5630.03 424.926  11
  -4   6   0 6744.29 361.215   1
  -4  -6   1 5057.55 324.976   5
  -4  -6   1 5270.71 411.948  11
  -4   6   1 5506.49 332.458   1
  -4  -6   2 92.5747 81.3421   5
  -4  -6   2 332.453 146.411  11
  -4  -6   3 211.900 102.924   5
  -4  -6   3 71.3340 104.458  11
  -4  -6   4 4090.00 304.692   5
  -4   6   4 5098.09 307.977   1
  -4  -6   4 4675.58 370.367  11
  -4  -6   5 12791.4 559.465   5
  -4   6   5 12846.2 506.667   1
  -4  -6   5 12044.9 604.515  11
  -4   6   5 12618.6 556.176   8
  -4  -6   6 5749.99 374.553   5
  -4   6   6 6401.27 327.919   5
  -4  -6   6 5523.21 407.577  11
  -4   6   6 6899.49 402.217   8
  -4   6   7 8016.32 383.885   5
  -4  -6   7 8048.28 449.093   5
  -4  -6   7 7286.45 467.169  11
  -4   6   7 8724.50 454.830   8
  -4  -6   8 2065.05 238.858   5
  -4   6   8 2488.00 221.743   5
  -4  -6   8 2878.22 296.085  11
  -4  -6   9 2216.33 244.658   5
  -4   6   9 2157.32 216.418   5
  -4  -6   9 2101.72 249.473  11
  -4  -6  10 3347.33 308.921   5
  -4   6  10 3973.44 300.632   5
  -4  -6  10 3418.54 317.945  11
  -4   6  11 6902.34 411.190   5
  -4  -6  11 7731.82 470.208  11
  -4   6  12 6658.80 416.982   5
  -4   8 -10 393.647 151.114  11
  -4   8  -9 2710.26 283.873  10
  -4   8  -9 3223.17 330.592  11
  -4  -8  -8 4856.22 375.181   6
  -4   8  -8 4649.87 366.139  10
  -4   8  -8 4664.40 393.476  11
  -4  -8  -8 4207.56 339.473   9
  -4   8  -7 7878.55 512.370  11
  -4  -8  -7 7744.15 545.034  11
  -4   8  -7 7787.30 476.278  10
  -4  -8  -7 8432.83 477.746   9
  -4  -8  -6 5719.48 363.211   5
  -4   8  -6 5636.99 427.253  11
  -4  -8  -6 5320.52 449.277  11
  -4  -8  -6 5505.98 383.500   9
  -4   8  -6 5187.44 382.965  10
  -4  -8  -5 1302.17 176.708   5
  -4  -8  -5 942.670 205.238  11
  -4   8  -5 1473.92 228.310  11
  -4   8  -5 1268.11 194.743  10
  -4  -8  -5 1348.52 194.262   9
  -4  -8  -4 5517.53 354.448   5
  -4   8  -4 6407.78 410.528   1
  -4  -8  -4 5495.06 441.214  11
  -4   8  -4 5748.02 432.688  11
  -4   8  -4 5760.56 402.958  10
  -4  -8  -4 5375.20 379.781   9
  -4  -8  -3 2402.33 232.868   5
  -4   8  -3 2608.71 247.405   1
  -4   8  -3 2617.76 307.639  11
  -4  -8  -3 2064.75 273.610  11
  -4  -8  -3 2326.32 253.335   9
  -4   8  -3 2204.14 242.545  10
  -4  -8  -2 1481.11 188.739   5
  -4   8  -2 1747.87 212.766   1
  -4  -8  -2 1700.26 254.224  11
  -4   8  -2 1469.44 206.802  10
  -4  -8  -2 1729.05 221.902   9
  -4  -8  -1 2203.32 227.156   5
  -4   8  -1 2733.17 253.314   1
  -4  -8  -1 1801.78 264.475  11
  -4   8  -1 2437.17 262.666  10
  -4  -8  -1 2512.31 253.997   9
  -4  -8   0 8513.54 450.731   5
  -4   8   0 9201.23 462.845   1
  -4  -8   0 8351.55 523.255  11
  -4  -8   0 8564.34 475.465   9
  -4  -8   1 6793.41 401.465   5
  -4   8   1 7131.67 408.712   1
  -4  -8   1 6384.44 454.353  11
  -4  -8   1 6612.55 411.938   9
  -4  -8   2 3666.63 293.421   5
  -4   8   2 3702.98 292.614   1
  -4  -8   2 3136.44 313.312  11
  -4  -8   2 3198.10 287.907   9
  -4  -8   3 327.504 116.167   5
  -4   8   3 566.871 135.973   1
  -4  -8   3 377.737 138.927  11
  -4  -8   3 324.037 118.219   9
  -4  -8   4 103.462 81.7628   5
  -4   8   4 402.211 114.905   1
  -4  -8   4 161.443 87.8655  11
  -4  -8   4 146.513 80.8420   9
  -4  -8   5 2379.50 245.479   5
  -4   8   5 3317.17 276.614   1
  -4  -8   5 2756.06 289.926  11
  -4  -8   5 2872.21 273.294   9
  -4   8   5 3444.52 311.628   8
  -4  -8   6 7581.81 446.972   5
  -4   8   6 8296.54 434.877   1
  -4  -8   6 7490.18 467.272  11
  -4  -8   6 7885.16 442.693   9
  -4   8   6 8216.31 466.499   8
  -4  -8   7 4601.45 352.652   5
  -4   8   7 5282.35 350.202   1
  -4  -8   7 4743.31 374.654  11
  -4  -8   7 4392.72 331.556   9
  -4   8   7 5151.82 379.339   8
  -4  -8   8 1667.59 221.862   5
  -4  -8   8 1793.30 237.348  11
  -4  -8   8 1623.86 208.802   9
  -4   8   8 2244.63 263.000   8
  -4  -8   9 8393.40 495.712   5
  -4   8   9 8810.10 436.740   5
  -4  -8   9 7857.82 484.184  11
  -4  -8   9 8346.04 453.998   9
  -4   8  10 3303.52 278.626   5
  -4  -8  10 3111.33 303.286  11
  -4  -8  10 2881.14 274.084   9
  -4   8  11 4091.79 316.625   5
  -4  -8  11 3638.04 302.618   9
  -4   8  12 3900.73 325.400   5
  -4  10  -9 149.675 120.321  11
  -4  10  -8 5698.59 432.792  11
  -4 -10  -7 322.274 117.134   5
  -4  10  -7 364.347 150.294  11
  -4 -10  -6 13243.8 592.268   5
  -4  10  -6 12847.0 657.323  11
  -4  10  -6 12935.9 634.819  10
  -4 -10  -5 1928.12 235.694   5
  -4  10  -5 1973.63 263.534  11
  -4 -10  -5 1687.61 271.861  11
  -4 -10  -5 2007.45 244.619   9
  -4  10  -5 2271.26 284.569  10
  -4 -10  -4 4652.09 340.612   5
  -4  10  -4 5003.21 376.957   1
  -4 -10  -4 4591.59 425.981  11
  -4  10  -4 4970.49 409.790  11
  -4 -10  -4 4307.36 347.140   9
  -4  10  -4 4770.41 379.063  10
  -4 -10  -3 3915.33 315.325   5
  -4  10  -3 4377.53 352.948   1
  -4 -10  -3 3987.99 390.461  11
  -4  10  -3 4194.04 350.182  10
  -4 -10  -3 4126.33 336.371   9
  -4 -10  -2 1705.49 212.868   5
  -4  10  -2 1778.78 233.634   1
  -4 -10  -2 1680.62 255.534  11
  -4  10  -2 1697.98 234.089  10
  -4 -10  -2 1601.01 216.189   9
  -4 -10  -1 2823.17 269.740   5
  -4  10  -1 3407.59 304.568   1
  -4 -10  -1 2982.83 330.576  11
  -4 -10  -1 2863.47 281.984   9
  -4  10  -1 2811.04 288.859  10
  -4 -10   0 1959.35 227.832   5
  -4  10   0 1679.24 223.924   1
  -4 -10   0 1054.31 207.711  11
  -4 -10   0 1288.34 202.796   9
  -4  10   0 1482.65 215.962  10
  -4 -10   1 3307.92 295.320   5
  -4  10   1 3633.49 318.780   1
  -4 -10   1 3274.97 331.749  11
  -4 -10   1 2788.56 274.721   9
  -4 -10   2 4526.03 340.697   5
  -4  10   2 5094.28 374.012   1
  -4 -10   2 4579.83 390.144  11
  -4 -10   2 4878.48 353.573   9
  -4 -10   3 3755.71 316.911   5
  -4  10   3 3784.44 326.938   1
  -4 -10   3 3796.65 347.537  11
  -4 -10   3 3104.37 287.479   9
  -4 -10   4 725.171 163.536   5
  -4  10   4 846.684 181.623   1
  -4 -10   4 647.746 154.865  11
  -4 -10   4 381.626 123.289   9
  -4  10   4 974.049 195.920   8
  -4 -10   5 3084.77 294.299   5
  -4  10   5 3250.60 300.543   1
  -4 -10   5 2668.20 291.405  11
  -4 -10   5 2805.62 269.698   9
  -4  10   5 3339.93 328.478   8
  -4 -10   6 16264.4 705.903   5
  -4  10   6 18963.9 732.333   1
  -4 -10   6 19464.0 783.263  11
  -4 -10   6 18364.3 711.946   9
  -4  10   6 18213.6 768.070   8
  -4 -10   7 3280.65 311.889   5
  -4  10   7 3643.52 322.205   1
  -4 -10   7 3105.40 308.726  11
  -4  10   7 4317.16 366.759   8
  -4 -10   7 3129.09 282.803   9
  -4  10   8 356.021 140.846   1
  -4 -10   8 188.825 127.828  11
  -4 -10   8 146.642 115.778   9
  -4  10   8 278.059 141.078   8
  -4 -10   9 8017.83 452.546   9
  -4  10   9 9190.58 549.016   8
  -4 -10  10 368.761 117.319   9
  -4 -12  -7 5350.49 401.333   5
  -4  12  -7 6271.06 458.563  11
  -4 -12  -6 1821.14 243.036   5
  -4  12  -6 1926.84 269.191  11
  -4 -12  -5 632.978 152.500   5
  -4  12  -5 588.313 166.756  11
  -4  12  -5 1042.90 208.370   1
  -4 -12  -4 3228.48 309.122   5
  -4  12  -4 3628.27 352.869  11
  -4  12  -4 3297.36 333.893   1
  -4 -12  -3 5204.91 379.016   5
  -4 -12  -3 5032.65 442.025  11
  -4  12  -3 5554.65 419.409   1
  -4 -12  -2 1739.82 226.970   5
  -4  12  -2 1615.41 235.058   1
  -4 -12  -2 1336.87 229.148  11
  -4 -12  -1 11545.1 576.315   5
  -4  12  -1 11494.9 604.301   1
  -4 -12  -1 12078.7 666.971  11
  -4 -12  -1 10210.2 541.914   9
  -4 -12   0 5415.38 390.481   5
  -4  12   0 5442.51 413.816   1
  -4 -12   0 5425.50 437.060  11
  -4 -12   0 5405.75 384.747   9
  -4  12   0 5440.47 416.275  10
  -4 -12   1 715.366 181.616   5
  -4  12   1 985.753 196.775   1
  -4 -12   1 419.354 157.975  11
  -4 -12   1 863.346 179.860   9
  -4  12   1 910.538 183.255  10
  -4 -12   2 4973.64 377.807   5
  -4  12   2 4649.30 386.932   1
  -4 -12   2 4159.68 382.456  11
  -4 -12   2 4304.18 344.844   9
  -4 -12   3 775.806 177.092   5
  -4  12   3 871.538 200.896   1
  -4 -12   3 727.430 179.715  11
  -4 -12   3 403.930 133.605   9
  -4 -12   4 3216.90 308.574   5
  -4  12   4 3982.18 357.958   1
  -4 -12   4 3029.15 316.160  11
  -4 -12   4 3666.83 320.555   9
  -4  12   4 3430.38 350.093   8
  -4  12   5 2386.23 279.010   1
  -4 -12   5 2148.10 262.809  11
  -4  12   5 2131.59 272.517   8
  -4 -12   5 2027.81 234.342   9
  -4  12   6 833.289 179.804   1
  -4 -12   6 381.535 126.382  11
  -4  12   6 855.435 188.074   8
  -4 -12   6 1086.38 183.920   9
  -4  12   7 5657.80 420.113   1
  -4  12   7 6424.44 480.554   8
  -4 -12   7 5597.55 382.716   9
  -4  12   8 3376.45 329.721   1
  -4  12   8 3522.48 367.010   8
  -4 -12   8 3102.49 292.063   9
  -4 -12   9 1348.95 199.963   9
  -4  12   9 1318.66 246.862   8
  -4  14  -4 1923.56 276.988   1
  -4  14  -3 1169.89 222.532   1
  -4  14  -2 926.841 227.405   1
  -4  14  -1 2502.37 307.985   1
  -4 -14   0 3545.81 365.896  11
  -4  14   0 3703.63 369.329   1
  -4 -14   1 754.382 197.105  11
  -4  14   1 1503.03 250.256   1
  -4 -14   2 1923.03 278.432  11
  -4  14   2 2197.25 285.103   1
  -4 -14   3 8064.08 529.345  11
  -4  14   3 8597.55 553.124   1
  -4 -14   4 1584.21 244.661  11
  -4  14   4 1366.23 238.670   1
  -4  14   5 1054.91 224.770   1
  -3   1 -17 7693.11 428.317   6
  -3  -1 -17 7344.34 508.715  11
  -3  -1 -16 3096.41 269.895   6
  -3   1 -16 3293.59 273.006   6
  -3  -1 -16 3202.54 335.298  11
  -3   1 -16 3489.14 282.294  10
  -3   1 -16 3447.15 336.007  11
  -3   1 -15 2181.44 214.029   6
  -3  -1 -15 2359.06 225.565   6
  -3   1 -15 1810.07 243.964  11
  -3  -1 -15 2186.40 207.495  10
  -3  -1 -15 2116.31 279.855  11
  -3   1 -15 2168.99 215.420  10
  -3  -1 -14 1309.55 168.598   6
  -3   1 -14 1037.18 148.546   6
  -3  -1 -14 1050.64 208.451  11
  -3   1 -14 698.258 159.665  11
  -3  -1 -14 900.985 137.915   9
  -3   1 -14 1201.84 166.226  10
  -3  -1 -14 873.750 129.843  10
  -3   1 -13 1271.99 154.633   6
  -3  -1 -13 1379.90 167.031   6
  -3   1 -13 1545.66 228.002  11
  -3  -1 -13 1416.44 223.432  11
  -3   1 -13 1323.47 149.474   9
  -3   1 -13 1558.69 175.446  10
  -3  -1 -13 1559.95 167.521   9
  -3  -1 -13 1594.66 168.985  10
  -3   1 -12 3770.73 253.038   6
  -3  -1 -12 3780.35 263.875   6
  -3  -1 -12 3614.11 245.823  10
  -3   1 -12 4108.26 338.735  11
  -3   1 -12 3768.06 266.807  10
  -3  -1 -12 3622.81 327.440  11
  -3  -1 -12 3875.56 253.660   9
  -3   1 -12 3412.76 235.427   9
  -3   1 -11 2747.21 206.891   6
  -3  -1 -11 2775.08 215.859   6
  -3   1 -11 2655.04 267.566  11
  -3   1 -11 2497.38 209.830  10
  -3  -1 -11 2929.11 213.460  10
  -3  -1 -11 2777.46 279.530  11
  -3   1 -11 2794.75 215.741   9
  -3  -1 -11 2745.70 216.905   9
  -3  -1 -10 4709.90 278.453   6
  -3   1 -10 4459.80 261.197   6
  -3  -1 -10 4700.04 267.779  10
  -3   1 -10 4379.66 271.329  10
  -3  -1 -10 4698.17 350.634  11
  -3   1 -10 4641.70 348.131  11
  -3  -1 -10 4601.45 277.857   9
  -3   1 -10 4863.80 284.119   9
  -3   1  -9 2482.50 191.550   6
  -3  -1  -9 2425.38 195.111   6
  -3   1  -9 2684.42 213.173  10
  -3  -1  -9 2613.28 191.535  10
  -3  -1  -9 2193.23 245.692  11
  -3   1  -9 2333.63 246.369  11
  -3  -1  -9 2303.89 197.817   9
  -3   1  -8 24621.4 660.568   6
  -3  -1  -8 24275.3 683.861   6
  -3  -1  -8 24306.0 659.486  10
  -3  -1  -8 23925.0 818.034  11
  -3   1  -8 23233.3 791.020  11
  -3   1  -8 23622.5 686.367  10
  -3  -1  -8 22653.1 692.429   9
  -3   1  -7 2079.79 166.845   6
  -3  -1  -7 2068.60 175.833   6
  -3  -1  -7 2188.90 149.361   5
  -3  -1  -7 2078.72 172.327  10
  -3   1  -7 1597.89 196.937  11
  -3  -1  -7 2048.43 225.403  11
  -3   1  -7 1815.79 173.782  10
  -3  -1  -6 2251.99 153.393   5
  -3  -1  -6 2753.71 201.935   6
  -3   1  -6 2662.86 187.886   6
  -3   1  -6 2384.75 130.332   5
  -3  -1  -6 2319.14 235.811  11
  -3   1  -6 2613.20 244.498  11
  -3   1  -6 2511.98 195.542  10
  -3  -1  -6 2539.50 191.252  10
  -3  -1  -5 6715.28 311.799   6
  -3  -1  -5 5827.65 246.349   5
  -3   1  -5 6235.81 221.196   5
  -3   1  -5 6284.74 291.198   6
  -3  -1  -5 5968.42 368.769  11
  -3   1  -5 6073.73 370.869  11
  -3  -1  -5 6388.21 300.689  10
  -3   1  -5 6301.89 321.865  10
  -3   1  -4 3163.04 200.950   6
  -3   1  -4 2950.14 150.868   5
  -3  -1  -4 2774.57 196.103   6
  -3  -1  -4 3202.60 176.173   5
  -3  -1  -4 2790.24 247.314  11
  -3   1  -4 2940.36 254.357  11
  -3   1  -4 2762.72 203.021  10
  -3  -1  -4 3134.84 207.576  10
  -3   1  -3 4728.73 197.959   5
  -3  -1  -3 5007.31 226.628   5
  -3  -1  -3 4309.99 305.593  11
  -3   1  -3 4860.11 326.259  11
  -3   1  -2 18886.6 465.535   5
  -3  -1  -2 17395.0 481.676   5
  -3  -1  -2 17814.1 647.159  11
  -3   1  -2 18324.9 656.706  11
  -3   1  -2 18353.8 473.262   1
  -3  -1  -2 17980.9 406.836   1
  -3   1  -1 908.981 94.3901   5
  -3  -1  -1 1079.38 110.146   5
  -3  -1  -1 944.882 152.191  11
  -3   1  -1 775.164 138.690  11
  -3   1  -1 901.042 95.7876   1
  -3  -1  -1 874.769 73.2130   1
  -3  -1   0 4221.83 215.081   5
  -3   1   0 4141.69 201.732   5
  -3  -1   0 3635.03 282.991  11
  -3  -1   0 4068.80 149.724   1
  -3   1   0 3587.08 181.852   1
  -3   1   1 3447.79 187.273   5
  -3  -1   1 3490.85 202.243   5
  -3  -1   1 3663.47 272.054  11
  -3   1   1 3471.12 177.690   1
  -3   1   2 2929.33 162.442   1
  -3   1   2 3039.82 180.198   5
  -3  -1   2 3339.87 202.586   5
  -3  -1   3 2588.94 179.708   5
  -3   1   3 2307.66 165.417   5
  -3   1   4 561.272 87.5387   5
  -3  -1   4 744.044 101.059   5
  -3  -1   5 254.119 74.0789   5
  -3   1   5 325.630 79.6168   5
  -3  -1   5 219.873 58.4107   8
  -3   1   6 45207.6 995.546   5
  -3  -1   6 43160.9 996.866   5
  -3  -1   6 43339.7 847.678   8
  -3  -1   7 4941.80 277.026   5
  -3   1   7 4992.18 276.737   5
  -3  -1   7 5217.99 211.019   8
  -3   1   8 5467.52 305.900   5
  -3  -1   8 5637.37 307.193   5
  -3  -1   9 5522.47 316.902   5
  -3   1   9 5384.82 310.079   5
  -3  -1  10 5587.67 327.583   5
  -3   1  10 5399.18 320.654   5
  -3   1  11 3130.33 257.457   5
  -3  -1  11 3014.02 247.423   5
  -3  -1  12 834.743 146.038   5
  -3   1  12 1006.69 163.282   5
  -3   1  13 5861.96 373.448   5
  -3  -1  13 5649.10 363.496   5
  -3   1  14 4044.89 320.852   5
  -3  -1  14 3805.54 309.759   5
  -3   1  15-27.9869 102.141   5
  -3  -1  15 209.324 107.287   5
  -3  -1  16-41.1010 102.878   5
  -3   1  16-80.3377 93.8530   5
  -3   3 -17 115.833 83.9101   6
  -3  -3 -17 108.926 130.554  11
  -3   3 -17 322.586 114.290  10
  -3   3 -16 7031.51 389.200   6
  -3  -3 -16 6910.21 408.586   6
  -3  -3 -16 6367.71 481.822  11
  -3   3 -16 6927.01 413.406  10
  -3  -3 -15 3104.15 273.068   6
  -3   3 -15 3054.76 246.962   6
  -3  -3 -15 2686.33 312.862  11
  -3   3 -15 3513.75 324.580  11
  -3   3 -15 3760.61 295.800  10
  -3  -3 -14 5336.03 340.846   6
  -3   3 -14 5490.97 315.911   6
  -3   3 -14 4824.93 378.912  11
  -3   3 -14 5432.57 349.685  10
  -3  -3 -14 4840.95 399.940  11
  -3  -3 -14 5408.41 317.842   9
  -3   3 -13 767.165 122.219   6
  -3  -3 -13 830.527 140.958   6
  -3  -3 -13 758.382 190.765  11
  -3   3 -13 622.555 154.208  11
  -3   3 -13 551.785 131.139  10
  -3  -3 -13 633.796 114.559   9
  -3  -3 -12 8252.11 406.070   6
  -3   3 -12 8367.03 375.937   6
  -3   3 -12 7593.64 452.839  11
  -3  -3 -12 8848.84 364.321  10
  -3   3 -12 8270.36 414.081  10
  -3  -3 -12 8035.55 500.886  11
  -3  -3 -12 7578.34 375.214   9
  -3   3 -12 8055.56 360.426   9
  -3  -3 -11 1937.77 193.031   6
  -3   3 -11 2050.63 177.488   6
  -3  -3 -11 2043.80 167.562  10
  -3   3 -11 2199.42 241.177  11
  -3  -3 -11 2412.85 278.558  11
  -3   3 -11 2245.48 212.976  10
  -3   3 -11 1992.67 176.393   9
  -3  -3 -11 2202.46 203.185   9
  -3  -3 -10 13512.9 513.923   6
  -3   3 -10 13707.3 473.349   6
  -3   3 -10 13523.5 524.613  10
  -3  -3 -10 14338.1 461.971  10
  -3  -3 -10 14761.5 660.076  11
  -3   3 -10 12710.4 573.948  11
  -3  -3 -10 13891.7 521.010   9
  -3  -3  -9 1113.84 142.963   6
  -3   3  -9 956.042 118.722   6
  -3  -3  -9 1126.35 191.221  11
  -3  -3  -9 1184.03 124.906  10
  -3   3  -9 1006.27 161.470  11
  -3  -3  -9 684.996 121.231   9
  -3   3  -9 1257.97 151.782  10
  -3  -3  -8 3241.85 209.033   5
  -3   3  -8 3193.86 200.829   6
  -3  -3  -8 2941.54 225.133   6
  -3   3  -8 3305.99 272.238  11
  -3   3  -8 3428.76 248.950  10
  -3  -3  -8 2864.17 277.078  11
  -3  -3  -8 3059.77 193.809  10
  -3  -3  -8 3309.54 243.758   9
  -3  -3  -7 3918.00 248.592   6
  -3  -3  -7 3995.12 224.743   5
  -3   3  -7 3666.70 215.175   6
  -3   3  -7 3752.47 291.702  11
  -3  -3  -7 3852.77 316.731  11
  -3  -3  -7 4094.24 224.823  10
  -3  -3  -7 3896.62 260.995   9
  -3   3  -7 3763.85 257.204  10
  -3  -3  -6 25280.5 640.971   5
  -3  -3  -6 25928.7 714.550   6
  -3   3  -6 25852.1 649.752   6
  -3  -3  -6 24853.9 836.831  11
  -3   3  -6 24477.6 798.170  11
  -3  -3  -6 25068.2 644.522  10
  -3   3  -6 26054.3 743.675  10
  -3  -3  -6 24075.3 721.476   9
  -3   3  -5 874.218 110.027   6
  -3  -3  -5 796.286 103.114   5
  -3  -3  -5 824.871 129.397   6
  -3   3  -5 1002.67 160.737  11
  -3  -3  -5 859.523 157.838  11
  -3  -3  -5 554.020 85.0997  10
  -3   3  -5 725.321 123.578  10
  -3   3  -4 53560.5 1070.67   6
  -3  -3  -4 50854.4 1065.53   5
  -3   3  -4 52022.4 891.461   5
  -3  -3  -4 54523.5 1158.73   6
  -3  -3  -4 51153.6 1284.44  11
  -3   3  -4 51001.6 1261.38  11
  -3  -3  -4 50136.4 1064.11  10
  -3   3  -4 49735.1 1151.21  10
  -3   3  -3 2910.35 131.567   5
  -3  -3  -3 2955.48 189.197   5
  -3  -3  -3 3128.97 273.861  11
  -3   3  -3 3453.49 276.959  11
  -3   3  -3 3037.16 228.158  10
  -3   3  -2 2362.55 126.260   5
  -3  -3  -2 2356.34 173.215   5
  -3  -3  -2 2539.89 237.322  11
  -3   3  -1 2617.41 140.432   5
  -3  -3  -1 2687.92 187.587   5
  -3  -3  -1 2573.46 242.626  11
  -3  -3   0 42910.9 911.238   5
  -3   3   0 37057.1 786.396   5
  -3  -3   0 42623.8 1079.37  11
  -3  -3   1 5894.85 280.220   5
  -3   3   1 5801.10 233.461   5
  -3  -3   1 5459.67 336.552  11
  -3   3   2 27424.4 632.248   5
  -3  -3   2 27397.2 704.054   5
  -3  -3   2 26668.2 815.582  11
  -3   3   2 26943.1 675.233   1
  -3   3   3 10333.6 350.087   5
  -3  -3   3 10594.3 407.115   5
  -3   3   3 10684.6 376.932   1
  -3  -3   3 9698.05 456.448  11
  -3   3   4 3529.17 204.335   5
  -3  -3   4 3670.65 230.635   5
  -3   3   4 3444.41 207.941   1
  -3   3   4 3590.50 163.107   3
  -3  -3   4 3348.28 263.404  11
  -3  -3   4 3309.92 130.517   8
  -3   3   5 2562.62 143.584   3
  -3   3   5 3412.60 222.939   1
  -3  -3   5 2632.50 201.197   5
  -3   3   5 2718.78 187.206   5
  -3   3   5 2612.09 193.408   8
  -3  -3   5 2403.32 95.4698   8
  -3  -3   6 15949.6 531.986   5
  -3   3   6 15533.7 498.880   5
  -3   3   6 15224.5 500.244   8
  -3   3   7 6721.83 322.187   5
  -3  -3   7 6508.54 329.710   5
  -3   3   7 6399.77 313.088   8
  -3   3   8 2170.31 192.378   5
  -3  -3   8 1635.67 175.673   5
  -3   3   8 2108.29 186.879   8
  -3   3   9 2670.65 221.968   5
  -3  -3   9 3397.80 249.234   5
  -3   3   9 2830.10 222.028   8
  -3   3  10 17076.8 600.801   5
  -3  -3  10 16457.4 594.753   5
  -3   3  10 15305.9 548.693   8
  -3   3  11 2308.60 227.495   5
  -3  -3  11 2579.71 233.928   5
  -3   3  11 2881.75 234.959   8
  -3  -3  12 5038.61 341.094   5
  -3   3  12 5044.55 337.513   5
  -3   3  13 12241.8 557.559   5
  -3  -3  13 12753.1 557.855   5
  -3   3  14 2765.01 273.755   5
  -3  -3  14 2961.66 276.219   5
  -3  -3  15 1042.86 176.198   5
  -3   3  15 1125.05 183.347   5
  -3   3  16 13442.7 635.746   5
  -3  -3  16 12989.8 612.580   5
  -3   5 -16 5069.02 364.752  10
  -3  -5 -16 4201.66 411.649  11
  -3  -5 -15 2672.10 258.766   6
  -3   5 -15 2505.92 217.097   6
  -3   5 -15 2278.23 245.243  10
  -3  -5 -15 2134.52 291.438  11
  -3  -5 -15 2733.42 243.676   9
  -3  -5 -14 19445.5 714.502   6
  -3   5 -14 20715.0 643.410   6
  -3  -5 -14 19111.7 842.754  11
  -3   5 -14 19949.8 736.853  10
  -3   5 -14 19986.8 760.174  11
  -3  -5 -14 19210.4 665.683   9
  -3  -5 -13 3599.10 283.376   6
  -3   5 -13 3745.53 243.663   6
  -3   5 -13 3143.18 274.330  10
  -3  -5 -13 3476.97 347.582  11
  -3   5 -13 3451.98 298.455  11
  -3  -5 -13 3215.57 252.827   9
  -3  -5 -12 14632.9 574.747   6
  -3   5 -12 14157.6 490.491   6
  -3   5 -12 13839.6 610.077  11
  -3  -5 -12 14089.0 691.872  11
  -3   5 -12 14037.9 581.180  10
  -3  -5 -12 14173.8 547.236   9
  -3   5 -11 2478.45 188.316   6
  -3  -5 -11 2460.51 222.318   6
  -3   5 -11 2649.50 256.139  11
  -3   5 -11 2547.79 249.141  10
  -3  -5 -11 2679.18 296.546  11
  -3  -5 -11 2441.07 218.173   9
  -3  -5 -10 6548.72 359.551   6
  -3   5 -10 6608.89 298.766   6
  -3  -5 -10 7052.89 281.433  10
  -3   5 -10 6455.89 392.525  11
  -3  -5 -10 6916.11 454.878  11
  -3   5 -10 6638.10 370.742  10
  -3  -5 -10 6322.27 347.312   9
  -3  -5  -9 1693.78 173.832   6
  -3   5  -9 1597.14 142.859   6
  -3   5  -9 1409.22 190.173  11
  -3   5  -9 1930.98 200.420  10
  -3  -5  -9 1876.66 137.799  10
  -3  -5  -9 1570.68 218.165  11
  -3  -5  -9 1723.43 188.434   9
  -3   5  -8 407.667 79.2338   6
  -3  -5  -8 281.927 80.9410   6
  -3  -5  -8 360.734 87.9932   5
  -3  -5  -8 321.401 133.549  11
  -3   5  -8 513.684 124.187  11
  -3  -5  -8 238.814 101.030   9
  -3  -5  -8 353.497 65.8440  10
  -3   5  -8 416.858 108.368  10
  -3  -5  -7 4400.65 260.298   5
  -3  -5  -7 4892.43 293.963   6
  -3   5  -7 4865.70 234.026   6
  -3  -5  -7 4835.87 221.804  10
  -3   5  -7 4777.19 324.666  11
  -3  -5  -7 4357.45 345.343  11
  -3   5  -7 4645.36 302.307  10
  -3  -5  -7 4284.10 284.563   9
  -3  -5  -6 5865.04 319.187   6
  -3   5  -6 5624.10 253.390   6
  -3  -5  -6 5483.60 290.899   5
  -3   5  -6 5519.89 350.119  11
  -3  -5  -6 6060.16 251.324  10
  -3  -5  -6 5013.29 364.817  11
  -3  -5  -6 5444.80 315.895   9
  -3   5  -6 5640.91 327.273  10
  -3  -5  -5 1342.64 141.778   5
  -3  -5  -5 1770.45 185.433   6
  -3   5  -5 1378.62 124.982   6
  -3   5  -5 1634.79 195.223  11
  -3  -5  -5 1604.67 210.099  11
  -3  -5  -5 1386.46 165.134   9
  -3  -5  -5 1524.59 132.943  10
  -3   5  -5 1554.68 178.133  10
  -3  -5  -4 9786.36 381.929   5
  -3  -5  -4 10288.4 425.204   6
  -3   5  -4 9008.38 450.307  11
  -3  -5  -4 9585.80 486.080  11
  -3   5  -4 8802.14 408.625  10
  -3  -5  -4 9606.24 423.741   9
  -3  -5  -4 9337.17 329.369  10
  -3   5  -3 6435.37 156.234   5
  -3  -5  -3 7287.30 326.508   5
  -3  -5  -3 7713.75 421.223  11
  -3   5  -3 6799.53 353.436  10
  -3  -5  -3 7253.60 361.006   9
  -3  -5  -2 6954.79 319.015   5
  -3   5  -2 6883.98 197.060   5
  -3  -5  -2 7038.98 398.821  11
  -3   5  -1 3442.09 147.314   5
  -3  -5  -1 3276.46 213.959   5
  -3  -5  -1 3067.40 262.994  11
  -3   5  -1 3235.10 221.082   1
  -3   5   0 102062. 1677.93   5
  -3  -5   0 98693.1 1860.43   5
  -3  -5   0 96866.4 2025.24  11
  -3   5   0 100106. 1878.68   1
  -3  -5   1 12514.3 450.895   5
  -3   5   1 12128.6 351.400   5
  -3   5   1 14211.0 490.012   1
  -3  -5   1 12660.2 532.727  11
  -3  -5   2 3744.23 238.224   5
  -3   5   2 4159.09 194.590   5
  -3   5   2 3307.59 223.116   1
  -3  -5   2 3857.76 281.348  11
  -3  -5   2 3479.61 140.166   8
  -3  -5   3 897.951 126.837   5
  -3   5   3 1087.06 107.723   5
  -3  -5   3 1259.68 167.265  11
  -3   5   3 891.769 126.947   1
  -3   5   4 12796.9 408.333   5
  -3  -5   4 12084.3 458.054   5
  -3   5   4 11905.0 448.476   1
  -3  -5   4 12483.4 514.389  11
  -3   5   5 5617.47 274.118   5
  -3  -5   5 6223.55 321.371   5
  -3   5   5 5821.16 304.091   1
  -3  -5   5 5689.65 342.209  11
  -3   5   5 6340.36 326.858   8
  -3   5   6 36610.9 870.097   5
  -3  -5   6 35680.5 916.356   5
  -3   5   6 35467.4 887.279   1
  -3  -5   6 36021.8 968.395  11
  -3   5   6 36765.3 921.190   8
  -3   5   7 1563.06 165.070   5
  -3  -5   7 1643.74 171.610   5
  -3   5   7 1840.62 177.927   1
  -3  -5   7 1739.86 182.877  11
  -3   5   7 1509.68 171.572   8
  -3   5   8 5828.60 314.392   5
  -3  -5   8 6309.67 341.835   5
  -3  -5   8 5839.89 340.589  11
  -3   5   8 5544.33 324.207   8
  -3   5   9 1450.30 168.016   5
  -3  -5   9 1228.05 161.338   5
  -3  -5   9 1323.92 168.130  11
  -3   5   9 1109.92 165.245   8
  -3   5  10 2567.99 227.600   5
  -3  -5  10 2448.47 228.229   5
  -3  -5  10 2955.77 243.916  11
  -3   5  10 2964.25 247.917   8
  -3  -5  11 9870.50 469.424   5
  -3   5  11 9498.56 458.658   5
  -3   5  11 10100.5 475.509   8
  -3   5  12 30143.6 898.061   5
  -3  -5  12 26351.9 852.755   5
  -3   5  12 28922.4 879.450   8
  -3  -5  13 7238.19 419.629   5
  -3   5  13 7367.26 428.089   5
  -3   5  14 2743.43 274.007   5
  -3  -5  14 2520.23 261.235   5
  -3  -5  15 927.600 177.388   5
  -3   5  15 1300.05 206.032   5
  -3   5  16 199.843 102.397   5
  -3   7 -15 2584.98 274.598  10
  -3  -7 -15 1873.15 283.655  11
  -3  -7 -15 1785.83 207.659   9
  -3  -7 -14 317.615 112.042   6
  -3  -7 -14 342.718 140.525  11
  -3  -7 -14 532.675 132.462   9
  -3   7 -14 316.834 113.762  10
  -3  -7 -13 9114.50 472.510   6
  -3   7 -13 9252.60 492.189  10
  -3  -7 -13 8560.94 554.712  11
  -3  -7 -13 9499.29 459.012   9
  -3  -7 -12 403.530 125.158   6
  -3  -7 -12 228.404 130.368  11
  -3   7 -12 533.319 140.544  11
  -3   7 -12 431.003 140.558  10
  -3  -7 -12 236.986 88.1301   9
  -3   7 -11 6357.91 289.204   6
  -3  -7 -11 6052.83 363.654   6
  -3   7 -11 5535.34 361.412  10
  -3  -7 -11 5675.89 435.447  11
  -3   7 -11 5466.70 362.740  11
  -3  -7 -11 5449.99 341.099   9
  -3   7 -10 16970.8 494.206   6
  -3  -7 -10 16255.9 609.012   6
  -3   7 -10 16603.9 642.938  11
  -3   7 -10 15448.0 616.686  10
  -3  -7 -10 16388.5 747.291  11
  -3  -7 -10 16060.3 601.954   9
  -3  -7  -9 988.512 148.543   6
  -3  -7  -9 797.813 137.522   5
  -3   7  -9 942.073 105.679   6
  -3  -7  -9 576.869 159.753  11
  -3   7  -9 718.351 135.596  11
  -3   7  -9 1022.03 166.622  10
  -3  -7  -9 971.469 156.148   9
  -3   7  -8 549.113 80.6843   6
  -3  -7  -8 533.465 107.970   6
  -3  -7  -8 552.295 116.176   5
  -3  -7  -8 675.365 171.878  11
  -3   7  -8 540.777 128.259  11
  -3   7  -8 550.776 116.995  10
  -3  -7  -8 489.656 119.180   9
  -3  -7  -7 10835.0 467.931   6
  -3   7  -7 11008.7 348.866   6
  -3  -7  -7 10188.9 435.448   5
  -3   7  -7 10026.6 478.452  11
  -3  -7  -7 9895.48 535.890  11
  -3  -7  -7 10180.8 299.275  10
  -3   7  -7 10172.5 472.554  10
  -3  -7  -7 10307.7 458.209   9
  -3  -7  -6 8630.63 392.706   5
  -3  -7  -6 8689.42 407.615   6
  -3   7  -6 9036.27 308.012   6
  -3  -7  -6 8947.18 275.907  10
  -3   7  -6 8303.14 433.773  11
  -3  -7  -6 8358.19 486.022  11
  -3   7  -6 8843.30 431.366  10
  -3  -7  -6 8678.15 419.107   9
  -3  -7  -5 18080.1 613.349   6
  -3  -7  -5 18205.4 584.726   5
  -3  -7  -5 18559.2 450.733  10
  -3   7  -5 16181.3 635.422  11
  -3  -7  -5 17321.1 701.008  11
  -3  -7  -5 17118.0 604.917   9
  -3   7  -5 17912.7 636.517  10
  -3  -7  -4 14668.9 521.076   5
  -3  -7  -4 15153.1 551.580   6
  -3  -7  -4 15437.4 641.380  11
  -3  -7  -4 15395.5 410.176  10
  -3  -7  -4 14528.3 551.003   9
  -3   7  -4 14196.3 555.955  10
  -3  -7  -3 1147.41 144.619   5
  -3  -7  -3 1018.96 173.720  11
  -3  -7  -3 1092.78 146.740   9
  -3  -7  -3 1150.78 102.851  10
  -3   7  -3 1182.41 154.313  10
  -3  -7  -2 1081.94 146.051   5
  -3  -7  -2 1075.94 168.246  11
  -3   7  -2 1322.03 182.823  10
  -3  -7  -2 1321.94 169.191   9
  -3  -7  -2 808.394 117.362   8
  -3  -7  -1 3945.18 251.986   5
  -3   7  -1 4313.11 147.962   5
  -3   7  -1 4499.72 292.772   1
  -3  -7  -1 3827.71 299.380  11
  -3  -7  -1 3461.58 198.609   8
  -3  -7  -1 3791.91 271.864   9
  -3  -7   0 10813.4 430.711   5
  -3   7   0 10358.5 281.217   5
  -3   7   0 10291.8 437.694   1
  -3  -7   0 10449.2 488.764  11
  -3  -7   0 9424.56 302.472   8
  -3  -7   0 9655.43 431.564   9
  -3  -7   1 13573.3 494.425   5
  -3   7   1 13919.8 360.314   5
  -3   7   1 14216.0 520.428   1
  -3  -7   1 12896.7 541.216  11
  -3  -7   1 13135.8 502.258   9
  -3  -7   1 11812.7 297.628   8
  -3  -7   2 19983.2 621.753   5
  -3   7   2 19276.7 486.881   5
  -3  -7   2 20209.0 689.613  11
  -3   7   2 18324.0 620.256   1
  -3   7   3 19844.2 517.548   5
  -3  -7   3 20503.9 637.176   5
  -3  -7   3 17566.4 651.041  11
  -3   7   3 19131.7 633.747   1
  -3  -7   4 1968.70 188.542   5
  -3   7   4 2054.76 155.449   5
  -3   7   4 1956.36 195.478   1
  -3  -7   4 2106.74 209.720  11
  -3   7   5 18558.4 540.525   5
  -3  -7   5 17828.2 606.768   5
  -3   7   5 18256.9 624.862   1
  -3  -7   5 17560.8 632.826  11
  -3   7   5 18446.9 634.943   8
  -3  -7   6 14926.9 556.185   5
  -3   7   6 15223.5 501.109   5
  -3   7   6 16347.7 579.113   1
  -3  -7   6 15289.1 576.914  11
  -3   7   6 15965.0 591.074   8
  -3   7   7 13510.3 485.770   5
  -3  -7   7 14151.4 548.622   5
  -3   7   7 14084.7 536.697   1
  -3  -7   7 13461.4 534.454  11
  -3   7   7 14026.9 556.138   8
  -3   7   8 3355.34 241.598   5
  -3  -7   8 3373.04 261.575   5
  -3   7   8 3377.78 256.963   1
  -3  -7   8 2847.33 239.513  11
  -3   7   8 3486.13 279.252   8
  -3   7   9 1812.33 183.529   5
  -3  -7   9 1170.29 155.552   5
  -3  -7   9 1504.06 172.813  11
  -3   7   9 1342.96 183.502   8
  -3   7  10 6742.75 367.497   5
  -3  -7  10 7181.13 397.560   5
  -3  -7  10 6813.90 363.308  11
  -3   7  10 7090.63 411.665   8
  -3  -7  11 4483.94 321.519   5
  -3   7  11 3954.23 294.801   5
  -3  -7  11 4662.37 298.423  11
  -3  -7  12 1375.05 190.376   5
  -3   7  12 1615.93 202.507   5
  -3  -7  12 1544.66 175.114  11
  -3   7  12 1325.32 220.428   8
  -3  -7  13 15441.5 639.562   5
  -3   7  13 14496.8 612.101   5
  -3   7  13 15110.3 661.141   8
  -3  -7  14 6536.99 413.302   5
  -3   7  14 5994.87 399.777   5
  -3  -7  15 1629.28 222.610   5
  -3   7  15 1453.89 218.130   5
  -3  -9 -15 714.432 146.355   9
  -3  -9 -14 1191.20 183.217   9
  -3   9 -14 1234.41 204.792  10
  -3  -9 -13 3212.17 284.768   6
  -3   9 -13 2937.58 288.606  10
  -3  -9 -13 2561.40 326.266  11
  -3  -9 -13 2916.41 269.676   9
  -3  -9 -12 1076.21 173.786   6
  -3  -9 -12 348.728 133.204  11
  -3   9 -12 1356.54 193.281  10
  -3  -9 -12 818.641 156.026   9
  -3  -9 -11 2810.62 254.105   6
  -3   9 -11 2375.89 232.558  11
  -3  -9 -11 2864.60 327.462  11
  -3   9 -11 2857.97 268.162  10
  -3  -9 -11 2850.95 257.981   9
  -3  -9 -10 1427.28 181.712   6
  -3  -9 -10 1238.66 228.366  11
  -3   9 -10 1290.51 177.468  11
  -3  -9 -10 1040.47 161.137   9
  -3   9 -10 1126.04 169.956  10
  -3  -9  -9 15473.2 602.691   6
  -3  -9  -9 14744.2 584.562   5
  -3   9  -9 15078.2 619.067  10
  -3   9  -9 14705.9 599.904  11
  -3  -9  -9 13731.0 687.552  11
  -3  -9  -9 14894.5 591.620   9
  -3  -9  -8 4093.36 294.903   6
  -3  -9  -8 3855.65 284.120   5
  -3  -9  -8 3397.43 333.875  11
  -3   9  -8 3914.24 297.563  11
  -3   9  -8 3473.65 290.462  10
  -3  -9  -8 3482.85 275.765   9
  -3  -9  -7 13997.7 544.378   5
  -3  -9  -7 13630.7 550.815   6
  -3  -9  -7 13301.2 647.344  11
  -3   9  -7 12901.5 559.823  10
  -3   9  -7 12997.4 556.776  11
  -3  -9  -7 12875.2 536.537   9
  -3  -9  -6 2940.17 246.350   5
  -3  -9  -6 2893.96 243.801   6
  -3  -9  -6 2492.69 269.961  11
  -3   9  -6 3176.42 270.479  11
  -3  -9  -6 2979.73 250.308   9
  -3   9  -6 2385.98 236.429  10
  -3  -9  -5 27662.3 794.918   5
  -3  -9  -5 26808.1 811.665   6
  -3  -9  -5 25287.3 902.251  11
  -3  -9  -5 26250.1 799.986   9
  -3   9  -5 26687.6 835.883  10
  -3  -9  -4 3286.41 249.153   5
  -3  -9  -4 3176.18 301.677  11
  -3  -9  -4 3170.87 253.104   9
  -3   9  -4 3401.95 287.188  10
  -3  -9  -3 10410.3 452.633   5
  -3  -9  -3 10356.4 526.446  11
  -3  -9  -3 10632.5 294.851  10
  -3   9  -3 10073.0 468.299  10
  -3  -9  -3 10219.6 460.759   9
  -3  -9  -2 4080.56 276.728   5
  -3  -9  -2 4198.73 325.513  11
  -3  -9  -2 4399.55 291.327   9
  -3   9  -2 4298.22 298.206  10
  -3  -9  -1 26609.0 767.360   5
  -3   9  -1 25198.4 794.398   1
  -3  -9  -1 25580.7 849.121  11
  -3   9  -1 25605.0 803.595  10
  -3  -9  -1 24086.3 752.155   9
  -3  -9   0 842.945 139.059   5
  -3   9   0 735.339 67.0558   5
  -3   9   0 855.919 160.394   1
  -3  -9   0 1251.81 189.275  11
  -3  -9   0 882.660 143.948   9
  -3  -9   1 894.219 139.249   5
  -3   9   1 806.345 78.7550   5
  -3   9   1 709.743 140.160   1
  -3  -9   1 846.278 154.775  11
  -3  -9   1 685.902 126.896   9
  -3   9   2 1921.96 131.303   5
  -3  -9   2 1694.46 179.581   5
  -3   9   2 2204.74 221.795   1
  -3  -9   2 1794.83 201.620  11
  -3  -9   2 1624.86 182.738   9
  -3  -9   3 6655.52 364.635   5
  -3   9   3 7479.02 289.819   5
  -3   9   3 7130.84 390.459   1
  -3  -9   3 7228.53 395.737  11
  -3  -9   3 6835.99 360.574   9
  -3  -9   4 424.017 108.170   5
  -3   9   4 522.813 88.1010   5
  -3   9   4 398.074 154.798   1
  -3  -9   4 475.410 116.857  11
  -3  -9   4 468.375 112.459   9
  -3  -9   5 14317.2 557.576   5
  -3   9   5 14665.8 467.791   5
  -3   9   5 14605.8 583.265   1
  -3  -9   5 14234.3 559.148  11
  -3   9   5 15076.4 600.536   8
  -3  -9   5 13181.5 516.432   9
  -3  -9   6 7565.78 401.341   5
  -3   9   6 8071.02 438.563   1
  -3  -9   6 8029.59 405.591  11
  -3   9   6 7688.03 426.977   8
  -3  -9   6 7653.15 379.770   9
  -3  -9   7 5563.49 347.537   5
  -3   9   7 6439.47 381.852   1
  -3  -9   7 5851.47 337.574  11
  -3  -9   7 5415.85 316.073   9
  -3   9   7 6193.61 383.831   8
  -3  -9   8 5185.86 339.807   5
  -3   9   8 5584.92 356.313   1
  -3  -9   8 4459.64 290.110  11
  -3   9   8 4779.21 346.296   8
  -3  -9   8 4658.27 288.141   9
  -3  -9   9 7980.51 439.627   5
  -3   9   9 9501.30 466.132   1
  -3  -9   9 8676.94 417.399  11
  -3   9   9 9522.63 500.207   8
  -3  -9   9 9820.71 419.903   9
  -3  -9  10 1213.31 180.557   5
  -3  -9  10 1010.58 143.324  11
  -3  -9  10 912.128 133.714   9
  -3   9  10 1183.12 217.646   8
  -3  -9  11 2759.94 260.641   5
  -3   9  11 2558.77 286.369   8
  -3  -9  11 2908.69 223.079   9
  -3  -9  12 115.436 96.0350   5
  -3   9  12 0.53468 122.089   8
  -3  -9  12 101.628 70.9606   9
  -3  -9  13 8825.70 485.008   5
  -3   9  13 8154.23 508.069   8
  -3  -9  14 474.903 134.251   5
  -3   9  14 565.708 191.950   8
  -3 -11 -14 1152.42 185.290   9
  -3 -11 -13 4468.82 342.412   9
  -3 -11 -12 1774.34 219.522   6
  -3 -11 -12 1586.03 270.584  11
  -3  11 -12 1909.23 238.217  10
  -3 -11 -12 1348.44 199.530   9
  -3 -11 -11 2757.21 263.230   6
  -3 -11 -11 2350.92 298.148  11
  -3  11 -11 2351.81 256.488  10
  -3 -11 -11 2180.95 238.157   9
  -3 -11 -10 4948.41 345.923   6
  -3 -11 -10 4407.44 399.414  11
  -3  11 -10 5450.84 377.402  10
  -3 -11 -10 5358.31 363.200   9
  -3 -11  -9 6379.39 391.352   5
  -3 -11  -9 6175.88 385.882   6
  -3  11  -9 5945.22 395.332  10
  -3  11  -9 6626.40 388.686  11
  -3 -11  -9 7040.98 490.545  11
  -3 -11  -9 6380.11 388.424   9
  -3 -11  -8 3789.99 301.553   5
  -3 -11  -8 3246.91 274.677   6
  -3 -11  -8 3610.79 347.266  11
  -3  11  -8 3912.96 291.160  11
  -3  11  -8 3839.08 307.729  10
  -3 -11  -8 3239.43 276.099   9
  -3 -11  -7 1464.58 185.456   6
  -3 -11  -7 1272.27 188.898   5
  -3  11  -7 1640.44 200.548  11
  -3 -11  -7 1615.76 236.513  11
  -3 -11  -7 1300.63 185.485   9
  -3  11  -7 1384.05 192.698  10
  -3 -11  -6 8855.27 454.845   5
  -3 -11  -6 9175.96 464.179   6
  -3 -11  -6 8688.28 523.368  11
  -3  11  -6 9792.65 482.632  11
  -3  11  -6 9415.51 483.496  10
  -3 -11  -6 9037.07 449.188   9
  -3 -11  -5 574.968 132.053   5
  -3 -11  -5 533.990 128.404   6
  -3 -11  -5 486.380 151.904  11
  -3  11  -5 668.906 140.875  10
  -3 -11  -5 282.150 102.987   9
  -3 -11  -4 1407.27 178.696   5
  -3 -11  -4 1196.93 204.502  11
  -3  11  -4 1432.58 187.282  10
  -3 -11  -4 1254.92 169.671   9
  -3 -11  -3 1237.46 172.699   5
  -3 -11  -3 1352.58 209.101  11
  -3  11  -3 1214.29 175.792  10
  -3 -11  -3 1717.64 196.201   9
  -3 -11  -2 447.463 112.986   5
  -3 -11  -2 354.715 136.667  11
  -3  11  -2 490.324 116.161  10
  -3 -11  -2 395.165 120.628   9
  -3 -11  -1 16.8510 73.8408   5
  -3  11  -1 118.354 93.2892   1
  -3 -11  -1 61.9334 82.9376  11
  -3  11  -1 88.2531 86.0501  10
  -3 -11  -1 48.8291 72.1223   9
  -3 -11   0 601.943 122.409   5
  -3  11   0 819.384 166.353   1
  -3 -11   0 478.808 139.531  11
  -3  11   0 669.147 134.575  10
  -3 -11   0 531.860 113.986   9
  -3 -11   1 5517.33 340.413   5
  -3  11   1 5691.01 367.268   1
  -3 -11   1 5659.54 367.846  11
  -3 -11   1 5523.25 334.324   9
  -3 -11   2 3696.39 280.791   5
  -3  11   2 3336.52 178.863   5
  -3  11   2 4212.00 317.603   1
  -3 -11   2 3899.00 308.665  11
  -3 -11   2 3852.82 278.052   9
  -3 -11   3 979.093 156.225   5
  -3  11   3 1136.61 111.785   5
  -3  11   3 1236.85 185.929   1
  -3 -11   3 1114.95 169.624  11
  -3 -11   3 978.495 155.200   9
  -3 -11   4 748.133 142.738   5
  -3  11   4 753.492 153.789   1
  -3 -11   4 864.992 152.605  11
  -3 -11   4 768.545 137.808   9
  -3 -11   5 2812.05 254.078   5
  -3  11   5 2982.51 277.087   1
  -3 -11   5 2741.95 250.270  11
  -3  11   5 3379.41 294.801   8
  -3 -11   5 2966.29 241.756   9
  -3 -11   6 9443.30 466.428   5
  -3  11   6 8837.71 479.235   1
  -3 -11   6 8999.08 439.700  11
  -3 -11   6 8471.90 404.987   9
  -3  11   6 9801.74 513.463   8
  -3 -11   7 5072.78 346.711   5
  -3  11   7 5773.09 386.729   1
  -3 -11   7 4608.44 308.283  11
  -3 -11   7 4741.81 295.082   9
  -3  11   7 6055.01 406.501   8
  -3 -11   8 843.199 156.417   5
  -3  11   8 962.949 162.027   1
  -3 -11   8 812.977 140.805  11
  -3 -11   8 977.986 143.812   9
  -3  11   8 1037.36 198.930   8
  -3 -11   9 5920.89 387.351   5
  -3  11   9 6099.86 391.633   1
  -3 -11   9 5642.63 329.405  11
  -3  11   9 5544.75 407.474   8
  -3 -11   9 5747.76 320.630   9
  -3  11  10 1640.84 221.763   1
  -3 -11  10 1399.72 200.472   5
  -3 -11  10 1540.12 176.817   9
  -3  11  10 938.392 188.658   8
  -3 -11  11 701.239 151.779   5
  -3 -11  11 422.101 98.7683   9
  -3  11  11 815.891 190.614   8
  -3 -11  12 451.170 135.257   5
  -3  11  12 841.970 214.603   8
  -3  11  13 2224.01 295.704   8
  -3  11  14 1693.95 278.998   8
  -3  11  15 1707.67 293.389   8
  -3 -13 -11 856.804 167.381   9
  -3 -13 -10 3344.55 297.211   6
  -3  13 -10 3605.08 322.469  10
  -3 -13 -10 3120.20 353.989  11
  -3 -13 -10 2908.98 283.340   9
  -3 -13  -9 2488.26 266.027   5
  -3 -13  -9 2343.09 251.030   6
  -3 -13  -9 2232.87 289.189  11
  -3  13  -9 2213.96 247.951  10
  -3 -13  -9 2117.90 235.661   9
  -3 -13  -8 2958.81 290.547   5
  -3 -13  -8 3020.81 286.998   6
  -3 -13  -8 2946.92 333.915  11
  -3  13  -8 3478.95 307.770  10
  -3  13  -8 3090.12 271.900  11
  -3 -13  -8 3237.21 284.650   9
  -3 -13  -7 4524.71 340.069   6
  -3 -13  -7 4433.02 351.458   5
  -3  13  -7 4115.27 332.462  10
  -3 -13  -7 4261.09 385.725  11
  -3  13  -7 3891.85 304.963  11
  -3 -13  -7 3688.39 304.462   9
  -3 -13  -6 1608.90 212.511   5
  -3 -13  -6 2134.32 235.378   6
  -3 -13  -6 1607.83 244.299  11
  -3 -13  -6 1806.46 216.615   9
  -3  13  -6 1962.68 234.385  10
  -3 -13  -5 663.607 151.197   5
  -3 -13  -5 818.163 194.032  11
  -3  13  -5 613.024 161.356  10
  -3 -13  -5 742.068 147.458   9
  -3 -13  -4 9469.20 482.450   5
  -3 -13  -4 8058.59 506.051  11
  -3 -13  -4 8721.54 451.809   9
  -3  13  -4 8977.29 481.968  10
  -3 -13  -3 4053.04 311.100   5
  -3 -13  -3 3260.15 324.831  11
  -3 -13  -3 3636.77 295.465   9
  -3  13  -3 4240.82 324.641  10
  -3 -13  -2 787.813 149.710   5
  -3 -13  -2 660.672 157.049  11
  -3 -13  -2 686.074 136.704   9
  -3  13  -2 749.606 157.672  10
  -3 -13  -1 10109.0 491.636   5
  -3  13  -1 10386.3 544.499   1
  -3 -13  -1 9016.78 517.628  11
  -3  13  -1 10106.1 502.706  10
  -3 -13  -1 9880.93 468.423   9
  -3 -13   0 4445.84 323.343   5
  -3  13   0 4184.57 350.367   1
  -3 -13   0 3464.90 309.604  11
  -3  13   0 3993.57 317.326  10
  -3 -13   0 4236.57 298.259   9
  -3 -13   1 6653.21 398.559   5
  -3  13   1 7039.60 439.160   1
  -3 -13   1 6558.92 421.012  11
  -3  13   1 6561.55 409.960  10
  -3 -13   1 6449.87 368.098   9
  -3 -13   2 2061.12 223.525   5
  -3  13   2 2558.96 278.436   1
  -3 -13   2 1776.82 219.003  11
  -3 -13   2 1471.08 177.827   9
  -3 -13   3 5987.60 375.864   5
  -3  13   3 5839.89 406.277   1
  -3 -13   3 5972.40 379.402  11
  -3 -13   3 6025.25 352.718   9
  -3 -13   4 899.264 159.550   5
  -3  13   4 1043.53 202.685   1
  -3 -13   4 938.486 160.892  11
  -3 -13   4 1009.13 150.511   9
  -3  13   4 916.567 173.945   8
  -3 -13   5 1598.89 211.153   5
  -3  13   5 1856.26 244.582   1
  -3 -13   5 1651.80 199.369  11
  -3 -13   5 1735.14 193.925   9
  -3  13   5 2022.28 269.125   8
  -3 -13   6 6812.85 419.246   5
  -3  13   6 6737.19 446.515   1
  -3 -13   6 7909.78 414.941  11
  -3 -13   6 7242.29 379.044   9
  -3  13   6 7289.28 471.946   8
  -3 -13   7 3020.30 285.643   5
  -3  13   7 3024.87 305.455   1
  -3 -13   7 3284.40 262.118  11
  -3 -13   7 2907.95 239.609   9
  -3  13   7 3061.28 326.053   8
  -3  13   8 6041.23 419.531   1
  -3 -13   8 6311.48 407.806   5
  -3  13   8 5584.13 433.511   8
  -3 -13   8 5432.00 323.746   9
  -3  13   9 11776.2 593.865   1
  -3 -13   9 12300.6 585.050   5
  -3 -13   9 12138.3 487.117   9
  -3  13   9 12168.7 643.035   8
  -3  13  10 5326.52 402.735   1
  -3 -13  10 4519.83 355.548   5
  -3  13  10 4489.21 409.902   8
  -3 -13  10 4887.85 298.529   9
  -3 -13  11 23372.4 862.389   5
  -3  13  11 24636.8 982.186   8
  -3  13  12 870.716 246.038   8
  -3  13  13 963.661 233.183   8
  -3 -15  -9 6200.69 435.457   5
  -3 -15  -8 4994.13 395.219   5
  -3 -15  -8 4600.61 365.134   6
  -3 -15  -8 4892.91 433.959  11
  -3  15  -8 4569.10 366.988  10
  -3 -15  -8 4914.16 368.070   9
  -3 -15  -7 6114.38 426.077   5
  -3 -15  -7 6060.27 477.958  11
  -3  15  -7 6451.82 432.431  10
  -3 -15  -7 6656.33 415.084   9
  -3 -15  -6 12334.6 600.885   5
  -3 -15  -6 12134.2 666.395  11
  -3  15  -6 11877.0 589.613  10
  -3 -15  -6 12550.9 583.763   9
  -3 -15  -5 4430.42 353.333   5
  -3  15  -5 4096.37 342.142  10
  -3 -15  -5 4056.03 368.248  11
  -3 -15  -5 4263.70 332.765   9
  -3 -15  -4 11752.2 572.670   5
  -3 -15  -4 10577.4 600.293  11
  -3 -15  -4 11967.0 549.740   9
  -3  15  -4 11292.8 580.665  10
  -3 -15  -3 12371.7 583.911   5
  -3 -15  -3 11273.7 612.405  11
  -3  15  -3 11992.9 583.450  10
  -3 -15  -3 11792.2 548.359   9
  -3 -15  -2 1529.51 207.828   5
  -3  15  -2 1815.64 262.250   1
  -3 -15  -2 1603.91 236.753  11
  -3  15  -2 1946.06 233.600  10
  -3 -15  -2 1698.71 202.240   9
  -3 -15  -1 4055.42 328.362   5
  -3  15  -1 4365.08 381.714   1
  -3 -15  -1 4385.88 363.129  11
  -3 -15  -1 4230.33 321.564   9
  -3  15  -1 4210.76 336.144  10
  -3 -15   0 11612.7 560.075   5
  -3  15   0 12163.1 629.224   1
  -3 -15   0 10812.2 568.586  11
  -3 -15   0 11798.3 527.830   9
  -3  15   0 11310.5 550.252  10
  -3 -15   1 2620.88 268.552   5
  -3  15   1 2939.49 332.412   1
  -3 -15   1 2736.47 280.985  11
  -3 -15   1 2366.95 238.835   9
  -3  15   1 2595.34 269.150  10
  -3 -15   2 1754.24 226.283   5
  -3  15   2 2313.39 272.592   1
  -3 -15   2 1785.70 230.684  11
  -3  15   2 1852.64 228.845  10
  -3 -15   2 1564.20 200.554   9
  -3 -15   3 3583.51 315.216   5
  -3  15   3 3676.43 342.618   1
  -3 -15   3 3377.23 296.880  11
  -3  15   3 3470.96 305.084  10
  -3 -15   3 3751.61 291.015   9
  -3 -15   4 363.257 115.762   5
  -3  15   4 624.067 218.822   1
  -3 -15   4 172.044 107.890  11
  -3  15   4 557.122 169.754   8
  -3 -15   4 174.797 99.0438   9
  -3 -15   5 14605.9 644.827   5
  -3  15   5 14937.7 711.876   1
  -3 -15   5 13850.7 589.261  11
  -3 -15   5 14679.4 575.149   9
  -3  15   5 13432.6 684.462   8
  -3  15   6 13534.9 679.775   1
  -3 -15   6 13478.8 625.183   5
  -3 -15   6 14786.5 565.642   9
  -3  15   6 14511.2 709.962   8
  -3  15   7 455.771 184.085   1
  -3 -15   7 182.484 111.093   5
  -3 -15   7 95.4876 89.2658   9
  -3  15   7 53.2305 136.960   8
  -3  15   8 138.590 169.733   1
  -3 -15   8 149.311 98.1278   5
  -3 -15   8 148.133 84.0947   9
  -3  15   8 183.575 142.977   8
  -3  15   9 6468.04 461.515   1
  -3 -15   9 6291.51 434.053   5
  -3 -15   9 7353.20 380.559   9
  -3  15   9 6795.98 508.106   8
  -3  15  10 848.677 188.595   1
  -3  15  10 1160.27 247.316   8
  -3  15  11 1702.82 308.849   8
  -3 -17  -6 204.028 129.052  11
  -3 -17  -5 13096.7 644.481   5
  -3  17  -5 12381.6 616.157  10
  -3 -17  -5 11854.9 664.955  11
  -3 -17  -4 948.574 184.202   5
  -3 -17  -4 1199.16 216.527  11
  -3 -17  -4 1069.78 186.543   9
  -3  17  -4 1162.81 221.269  10
  -3 -17  -3 821.690 175.983   5
  -3  17  -3 852.064 221.925   1
  -3 -17  -3 863.070 186.495  11
  -3  17  -3 816.406 166.238  10
  -3 -17  -3 624.543 134.952   9
  -3 -17  -2 2878.97 298.864   5
  -3  17  -2 4076.67 380.015   1
  -3 -17  -2 2844.70 312.066  11
  -3 -17  -2 3173.79 290.255   9
  -3  17  -2 3213.64 307.430  10
  -3 -17  -1 470.322 157.233   5
  -3  17  -1 554.514 184.798   1
  -3 -17  -1-39.7691 103.842  11
  -3  17  -1 180.051 133.068  10
  -3 -17  -1 62.9128 93.5974   9
  -3 -17   0 5085.60 387.735   5
  -3  17   0 5579.90 448.877   1
  -3 -17   0 4753.46 381.534  11
  -3  17   0 5075.72 376.742  10
  -3 -17   0 4852.73 351.345   9
  -3 -17   1 2050.18 252.648   5
  -3  17   1 1754.57 268.620   1
  -3 -17   1 1617.07 216.406  11
  -3 -17   1 1644.29 213.642   9
  -3  17   1 1751.45 235.235  10
  -3 -17   2 7492.26 475.015   5
  -3  17   2 8349.99 540.473   1
  -3 -17   2 7680.86 467.963  11
  -3  17   2 7755.88 469.530  10
  -3 -17   2 7938.32 435.920   9
  -3 -17   3 2637.20 285.733   5
  -3  17   3 3084.70 335.893   1
  -3 -17   3 2753.39 277.227  11
  -3 -17   3 3352.00 281.460   9
  -3  17   3 3071.97 342.398   8
  -3  17   3 2708.60 284.800  10
  -3  17   4 1129.16 224.288   1
  -3 -17   4 733.113 164.914   5
  -3 -17   4 998.689 163.281   9
  -3  17   4 1427.12 206.846  10
  -3  17   4 929.573 225.845   8
  -3  17   5 16863.2 793.516   1
  -3 -17   5 16977.0 736.752   5
  -3  17   5 17627.3 828.053   8
  -3  17   5 17872.4 750.391  10
  -3 -17   5 16421.1 640.930   9
  -3  17   6 6722.90 499.928   1
  -3  17   6 6863.85 518.958   8
  -3 -17   6 5949.88 366.658   9
  -3 -17   7 10413.6 483.451   9
  -3 -19  -3 2152.31 295.185  11
  -3 -19  -2 199.498 136.785  11
  -3 -19  -1 2141.13 278.172  11
  -3 -19   0 4579.57 387.355  11
  -3 -19   1 2781.14 301.215  11
  -3 -19   3 4958.81 356.360   9
  -3 -19   4 192.428 117.565   9
  -3 -19   5 1037.38 185.041   9
  -3 -19   6 10210.6 502.245   9
  -2   0 -20 4176.20 330.047  10
  -2   0 -19 67.4293 64.8850   6
  -2   0 -19 99.5338 110.741  10
  -2   0 -18 5881.42 363.454   6
  -2   0 -18 5879.26 364.510  10
  -2   0 -17 35.3006 74.2928   6
  -2   0 -17 28.8076 78.8848  11
  -2   0 -17 103.748 96.2824  10
  -2   0 -16 2933.48 239.872   6
  -2   0 -16 2517.77 254.059  11
  -2   0 -16 2911.37 234.096  10
  -2   0 -15-12.2630 62.2371   6
  -2   0 -15 0.62678 86.4828  11
  -2   0 -15 4.36809 55.9386  10
  -2   0 -14 134.448 66.6479   6
  -2   0 -14 133.915 81.8731  11
  -2   0 -14 212.831 59.1657   9
  -2   0 -14 125.604 61.6028  10
  -2   0 -13 18.6323 68.0573   6
  -2   0 -13 47.2796 67.3227  11
  -2   0 -13-3.45442 52.9706  10
  -2   0 -13 25.5605 44.2834   9
  -2   0 -12 14742.0 492.934   6
  -2   0 -12 15230.1 580.688  11
  -2   0 -12 14658.5 492.368  10
  -2   0 -12 15259.2 442.092   9
  -2   0 -11 76.9471 52.8307   6
  -2   0 -11-8.94571 67.6475  11
  -2   0 -11 23.3207 48.9257   9
  -2   0 -11-39.9985 59.2581  10
  -2   0 -10 57341.8 1159.16   6
  -2   0 -10 57404.0 1290.80  11
  -2   0 -10 56859.9 1158.74  10
  -2   0 -10 55083.9 1105.83   9
  -2   0  -9-78.0754 50.0782   6
  -2   0  -9 66.3649 62.4311  11
  -2   0  -9 30.2928 44.3329   9
  -2   0  -9 10.7897 41.2694  10
  -2   0  -8 1408.50 123.040   6
  -2   0  -8 1872.76 144.963  10
  -2   0  -8 1496.82 162.455  11
  -2   0  -8 1674.55 134.219   9
  -2   0  -7-25.5541 40.1112   6
  -2   0  -7 6.19738 63.1928  11
  -2   0  -7 26.5286 40.2352  10
  -2   0  -6 120648. 1978.46   5
  -2   0  -6 126450. 2066.37   6
  -2   0  -6 120833. 2216.11  11
  -2   0  -6 120579. 2083.59  10
  -2   0  -5 34.8935 32.0296   5
  -2   0  -5 10.5489 38.6573   6
  -2   0  -5 17.6961 65.5242  11
  -2   0  -5 48.9788 40.7214  10
  -2   0  -4 39674.4 779.211   6
  -2   0  -4 38989.2 719.260   5
  -2   0  -4 39269.2 903.894  11
  -2   0  -4 35725.4 784.673  10
  -2   0  -3 13.6493 29.4918   5
  -2   0  -3 45.6207 32.9814   6
  -2   0  -3 8.32021 54.6594  11
  -2   0  -3 27.1494 36.2923   2
  -2   0  -2 22568.1 518.353   6
  -2   0  -2 22093.3 472.778   5
  -2   0  -2 22537.8 617.363  11
  -2   0  -2 21602.0 498.018   2
  -2   0  -1 8.45334 36.1293   5
  -2   0  -1 34.6002 62.5368  11
  -2   0  -1-11.9079 27.4498   2
  -2   0   0 378883. 5691.95   2
  -2   0   0 362246. 5635.28   1
  -2   0   0 377177. 5675.77   5
  -2   0   1 29.6241 37.4578   1
  -2   0   1 13.7279 31.9897   2
  -2   0   1 91.6911 46.8921   5
  -2   0   2 156502. 2515.23   2
  -2   0   2 155871. 2460.99   1
  -2   0   2 154337. 2510.84   5
  -2   0   3 42.4058 39.0515   2
  -2   0   3-24.8554 21.3415   3
  -2   0   3 49.8864 38.3324   1
  -2   0   3 19.8951 38.7608   5
  -2   0   4 3709.45 112.762   3
  -2   0   4 3835.25 182.265   2
  -2   0   4 3774.31 189.997   5
  -2   0   4 3714.14 159.117   8
  -2   0   5-8.41996 18.8202   3
  -2   0   5 22.8930 47.4566   5
  -2   0   5-19.4075 37.3663   8
  -2   0   6 62310.2 1034.26   3
  -2   0   6 61491.0 1218.37   5
  -2   0   6 65295.7 1141.80   8
  -2   0   7 9.48079 26.1059   3
  -2   0   7 54.7243 57.5940   5
  -2   0   7-10.2801 49.1551   8
  -2   0   8 18453.0 403.622   3
  -2   0   8 18435.4 547.529   5
  -2   0   8 18102.3 477.707   8
  -2   0   9-10.5566 32.3289   3
  -2   0   9 28.7791 64.9749   5
  -2   0  10 20392.0 616.729   5
  -2   0  11-28.7526 65.7421   5
  -2   0  12 32133.8 866.423   5
  -2   0  13 28.1787 77.3033   5
  -2   0  14 8872.51 437.586   5
  -2   0  15-115.215 106.879   5
  -2   0  16 18601.7 703.303   5
  -2   0  17-3.25927 93.5214   5
  -2   0  18 36892.6 1113.25   5
  -2   0  19 85.1505 106.792   5
  -2   2 -20 31.7288 102.229  10
  -2   2 -19 1021.23 160.757   6
  -2   2 -19 935.643 170.996  10
  -2  -2 -18 2633.95 246.575   6
  -2   2 -18 2593.10 240.577   6
  -2  -2 -18 3036.57 301.595  11
  -2   2 -18 2452.07 247.244  10
  -2  -2 -18 2394.78 229.729  10
  -2   2 -17 14231.1 562.445   6
  -2  -2 -17 15092.8 589.124   6
  -2  -2 -17 14408.1 543.020  10
  -2   2 -17 14463.5 583.260  10
  -2  -2 -17 13524.8 626.299  11
  -2   2 -16 8547.04 411.192   6
  -2  -2 -16 8884.18 425.288   6
  -2   2 -16 7708.75 419.193  11
  -2   2 -16 8430.55 422.603  10
  -2  -2 -16 8241.57 468.399  11
  -2  -2 -16 8854.53 396.457  10
  -2   2 -15 12541.2 491.142   6
  -2  -2 -15 12876.6 510.262   6
  -2  -2 -15 11796.9 562.689  11
  -2   2 -15 12352.1 504.495  10
  -2  -2 -15 12378.6 464.585  10
  -2   2 -15 12731.5 531.612  11
  -2  -2 -15 13498.9 436.755   9
  -2  -2 -14 15112.9 538.243   6
  -2   2 -14 15023.8 520.895   6
  -2  -2 -14 14077.7 490.415  10
  -2   2 -14 15146.5 549.232  10
  -2   2 -14 14533.8 568.624  11
  -2  -2 -14 14978.5 621.962  11
  -2  -2 -14 15679.9 472.208   9
  -2   2 -13 21915.0 636.517   6
  -2  -2 -13 21744.3 655.629   6
  -2  -2 -13 20837.6 734.735  11
  -2   2 -13 21837.8 667.636  10
  -2  -2 -13 20868.1 601.652  10
  -2   2 -13 22067.9 708.622  11
  -2   2 -13 22997.0 545.037   9
  -2  -2 -13 21428.5 583.248   9
  -2   2 -12 19032.3 561.678   6
  -2  -2 -12 17907.4 567.738   6
  -2   2 -12 17974.7 583.078  10
  -2  -2 -12 17984.8 662.287  11
  -2   2 -12 18312.6 626.008  11
  -2  -2 -12 17794.8 530.397  10
  -2  -2 -12 19165.9 529.896   9
  -2   2 -12 18200.6 480.181   9
  -2   2 -11 4393.72 237.489   6
  -2  -2 -11 4288.15 248.005   6
  -2  -2 -11 4324.06 301.455  11
  -2  -2 -11 4029.16 219.508  10
  -2   2 -11 4238.86 255.193  10
  -2   2 -11 4349.49 278.884  11
  -2   2 -11 4405.01 210.745   9
  -2  -2 -11 4781.30 238.621   9
  -2  -2 -10 18329.4 536.232   6
  -2   2 -10 18231.5 510.639   6
  -2   2 -10 17427.9 543.949  10
  -2  -2 -10 18204.6 637.805  11
  -2  -2 -10 18106.6 503.839  10
  -2   2 -10 17696.3 592.423  11
  -2   2 -10 18295.1 379.603   7
  -2  -2 -10 18059.0 510.101   9
  -2   2 -10 17997.6 483.029   9
  -2  -2  -9 7076.43 297.822   6
  -2   2  -9 7054.12 277.715   6
  -2  -2  -9 7007.42 273.831  10
  -2  -2  -9 7020.63 369.466  11
  -2   2  -9 6890.35 342.915  11
  -2   2  -9 6716.41 303.434  10
  -2   2  -9 7347.74 279.477   9
  -2   2  -9 7107.73 192.976   7
  -2  -2  -9 6509.78 283.478   9
  -2  -2  -8 4922.76 240.578   6
  -2   2  -8 4992.91 224.523   6
  -2   2  -8 4510.81 266.194  11
  -2  -2  -8 4601.97 289.485  11
  -2  -2  -8 4892.92 221.986  10
  -2   2  -8 4914.21 247.783  10
  -2  -2  -8 4769.29 238.778   9
  -2   2  -8 5099.56 152.059   7
  -2  -2  -7 1358.93 120.658   6
  -2   2  -7 1357.86 110.840   6
  -2  -2  -7 1361.02 157.674  11
  -2   2  -7 1201.62 136.688  11
  -2  -2  -7 1212.94 103.957  10
  -2   2  -7 1280.25 126.232  10
  -2  -2  -7 1488.57 131.261   9
  -2  -2  -6 13942.2 406.296   6
  -2   2  -6 13791.5 377.376   6
  -2  -2  -6 13034.1 375.999   5
  -2   2  -6 13230.1 461.974  11
  -2  -2  -6 14405.1 506.079  11
  -2  -2  -6 12707.9 374.225  10
  -2  -2  -6 13826.8 425.742   9
  -2   2  -6 13839.8 433.044  10
  -2  -2  -5 8693.57 301.541   6
  -2   2  -5 8661.70 276.236   6
  -2  -2  -5 8246.43 276.791   5
  -2   2  -5 8945.84 360.798  11
  -2  -2  -5 8790.64 377.143  11
  -2   2  -5 8593.83 324.599  10
  -2  -2  -5 8534.50 283.032  10
  -2   2  -4 27151.5 568.255   6
  -2  -2  -4 25659.0 573.432   5
  -2  -2  -4 26757.9 608.516   6
  -2   2  -4 26215.2 477.308   5
  -2   2  -4 25158.3 569.225   2
  -2  -2  -4 26294.2 709.842  11
  -2   2  -4 25891.9 684.050  11
  -2   2  -4 25233.0 623.931  10
  -2  -2  -4 25279.5 572.254  10
  -2  -2  -3 4104.24 181.923   5
  -2  -2  -3 4333.08 198.822   6
  -2   2  -3 4316.46 137.305   5
  -2   2  -3 4213.26 175.028   6
  -2   2  -3 4248.22 179.559   2
  -2  -2  -3 4318.83 252.358  11
  -2   2  -3 4448.34 244.118  11
  -2   2  -3 4281.27 213.092  10
  -2   2  -2 19852.7 451.540   6
  -2  -2  -2 19423.4 464.918   5
  -2  -2  -2 20239.7 498.529   6
  -2   2  -2 19337.5 394.333   5
  -2  -2  -2 19437.9 575.398  11
  -2  -2  -2 19177.0 470.445   2
  -2   2  -2 19630.1 447.677   2
  -2   2  -1 61164.6 993.439   5
  -2  -2  -1 57589.8 1061.46   5
  -2  -2  -1 60837.6 1107.91   6
  -2  -2  -1 57206.5 1193.85  11
  -2  -2  -1 55489.8 923.839   1
  -2  -2  -1 58315.2 1066.96   2
  -2   2  -1 58675.5 1029.32   2
  -2  -2   0 116458. 1955.93   5
  -2   2   0 117170. 1884.85   5
  -2  -2   0 114030. 2089.26  11
  -2  -2   0 117443. 1793.15   1
  -2  -2   0 119324. 1960.55   2
  -2   2   0 118373. 1908.98   2
  -2   2   1 18691.6 415.389   5
  -2  -2   1 18944.5 460.366   5
  -2  -2   1 17395.2 530.201  11
  -2   2   1 17473.8 391.205   3
  -2   2   1 17448.8 442.327   1
  -2   2   1 18399.1 417.162   2
  -2  -2   1 17997.7 455.330   2
  -2   2   2 10493.1 292.012   2
  -2   2   2 9842.05 314.459   1
  -2   2   2 10377.7 266.827   3
  -2  -2   2 10774.7 332.955   2
  -2  -2   2 10788.0 328.589   5
  -2   2   2 10996.4 307.049   5
  -2   2   3 555.852 64.5143   2
  -2   2   3 497.496 75.6241   1
  -2  -2   3 509.368 72.6370   2
  -2   2   3 558.817 56.1467   3
  -2   2   3 602.584 78.3217   5
  -2  -2   3 592.949 78.9091   5
  -2   2   4 55367.1 1053.18   5
  -2  -2   4 56655.6 1074.50   5
  -2   2   4 56816.6 952.137   3
  -2   2   4 54828.8 1047.20   1
  -2   2   4 54830.3 1009.29   2
  -2  -2   4 55699.4 1067.78  10
  -2  -2   4 52307.3 913.323   8
  -2   2   5 31674.0 586.779   3
  -2  -2   5 31692.5 703.588   5
  -2   2   5 25750.5 658.986   5
  -2  -2   5 29955.7 555.994   8
  -2   2   5 31274.4 675.652   8
  -2   2   6 65462.1 1088.78   3
  -2  -2   6 61897.3 969.876   3
  -2   2   6 62016.9 1210.99   5
  -2  -2   6 64412.0 1225.37   5
  -2   2   6 62465.2 1186.91   8
  -2  -2   7 800.338 49.0014   3
  -2   2   7 839.214 76.1414   3
  -2   2   7 696.395 95.0693   5
  -2  -2   7 641.746 98.1538   5
  -2  -2   8 34394.6 615.007   3
  -2   2   8 33757.9 691.097   3
  -2  -2   8 36075.6 832.354   5
  -2   2   9 3034.65 160.619   3
  -2  -2   9 3130.71 214.949   5
  -2   2  10 10301.5 330.022   3
  -2   2  10 10505.5 371.633   4
  -2  -2  10 10415.6 416.744   5
  -2   2  10 9698.46 393.907   8
  -2  -2  11 717.652 121.275   5
  -2   2  11 888.521 115.015   4
  -2   2  12 50841.8 1096.09   4
  -2  -2  12 49550.4 1166.45   5
  -2  -2  13 4426.28 291.367   5
  -2   2  13 4737.50 273.493   4
  -2  -2  14 594.059 133.376   5
  -2   2  14 561.109 109.905   4
  -2   2  15 6502.15 350.120   4
  -2  -2  15 7005.98 392.088   5
  -2   2  15 7062.61 401.037   5
  -2   2  16 395.067 129.325   5
  -2  -2  16 241.817 103.082   5
  -2   2  16 272.389 101.399   4
  -2  -2  17 11945.5 565.713   5
  -2   2  17 11886.2 566.992   5
  -2   2  17 11805.4 519.875   4
  -2   2  18 2900.30 262.202   4
  -2   2  18 2391.91 258.194   5
  -2  -2  18 2872.38 277.416   5
  -2  -2  19 2289.31 259.774   5
  -2   2  19 2247.31 243.331   4
  -2   4 -19 3357.00 275.932   6
  -2  -4 -19 3291.73 330.183  11
  -2   4 -19 3353.42 304.762  10
  -2   4 -18 1241.65 168.485   6
  -2  -4 -18 1330.26 183.107   6
  -2  -4 -18 1022.66 203.425  11
  -2   4 -18 1219.65 186.269  10
  -2  -4 -17 3565.08 284.821   6
  -2   4 -17 2997.64 245.368   6
  -2   4 -17 3397.59 284.620  10
  -2  -4 -17 2777.17 299.715  11
  -2  -4 -16 2502.04 229.502   6
  -2   4 -16 2252.22 201.719   6
  -2  -4 -16 2524.96 204.431  10
  -2  -4 -16 2094.06 249.032  11
  -2   4 -16 2543.78 242.429  10
  -2   4 -15 360.897 87.2770   6
  -2  -4 -15 646.840 121.406   6
  -2   4 -15 408.258 108.468  11
  -2  -4 -15 209.374 110.408  11
  -2  -4 -15 509.168 94.3139  10
  -2  -4 -15 534.915 105.601   9
  -2   4 -15 516.951 115.439  10
  -2   4 -14 7669.42 357.025   6
  -2  -4 -14 7366.94 371.304   6
  -2   4 -14 7636.28 382.287  11
  -2  -4 -14 7514.49 446.930  11
  -2   4 -14 8032.68 402.728  10
  -2  -4 -14 8091.74 333.833  10
  -2  -4 -14 7657.28 337.790   9
  -2   4 -13 7319.03 335.717   6
  -2  -4 -13 7811.21 372.132   6
  -2  -4 -13 8620.58 465.306  11
  -2   4 -13 8260.81 391.493  11
  -2   4 -13 7873.71 388.457  10
  -2  -4 -13 7248.83 303.719  10
  -2   4 -13 8058.42 267.565   9
  -2  -4 -13 7867.68 335.465   9
  -2  -4 -12 24949.7 700.836   6
  -2   4 -12 23880.3 648.803   6
  -2  -4 -12 25349.2 824.444  11
  -2  -4 -12 23566.0 599.450  10
  -2   4 -12 24004.0 718.129  11
  -2   4 -12 23751.9 719.656  10
  -2  -4 -12 23639.2 644.569   9
  -2   4 -12 24950.8 567.784   9
  -2   4 -11 29292.0 711.837   6
  -2  -4 -11 29412.5 766.423   6
  -2   4 -11 28813.3 787.414  10
  -2  -4 -11 28189.6 660.267  10
  -2  -4 -11 29136.9 889.062  11
  -2   4 -11 28348.0 787.787  11
  -2   4 -11 29012.4 644.562   9
  -2  -4 -11 29573.4 730.793   9
  -2   4 -10 2408.66 161.227   6
  -2  -4 -10 2222.24 176.898   6
  -2   4 -10 2090.89 136.218   4
  -2   4 -10 2204.44 186.132  10
  -2  -4 -10 2084.68 220.295  11
  -2  -4 -10 2216.33 144.011  10
  -2   4 -10 2132.87 187.307  11
  -2   4 -10 2359.41 140.421   7
  -2  -4 -10 2081.15 167.873   9
  -2   4  -9 1214.50 111.967   6
  -2  -4  -9 1465.92 141.182   6
  -2   4  -9 1431.24 152.961  11
  -2  -4  -9 1171.17 98.4109  10
  -2  -4  -9 1146.95 164.527  11
  -2  -4  -9 1325.90 137.463   9
  -2   4  -9 1270.64 142.195  10
  -2   4  -9 1239.26 97.7839   7
  -2   4  -8 4380.22 202.675   6
  -2  -4  -8 4607.25 239.204   6
  -2  -4  -8 4378.94 292.920  11
  -2   4  -8 4445.18 256.932  11
  -2   4  -8 4394.66 247.800  10
  -2  -4  -8 4271.52 186.557  10
  -2  -4  -8 4207.79 233.275   9
  -2   4  -8 4499.89 183.763   7
  -2  -4  -7 8143.12 319.873   6
  -2  -4  -7 8262.07 322.189   5
  -2   4  -7 8472.88 278.747   6
  -2   4  -7 8356.61 352.853  11
  -2  -4  -7 8185.15 261.402  10
  -2  -4  -7 8225.49 398.190  11
  -2   4  -7 8478.87 347.111  10
  -2  -4  -7 8178.70 328.465   9
  -2   4  -7 8283.82 261.175   7
  -2  -4  -6 29733.1 697.815   6
  -2   4  -6 29290.3 620.038   6
  -2  -4  -6 29716.3 687.579   5
  -2  -4  -6 30283.4 825.784  11
  -2   4  -6 28671.2 743.143  11
  -2  -4  -6 29674.2 603.939  10
  -2   4  -6 29071.9 732.168  10
  -2  -4  -6 29285.8 713.677   9
  -2   4  -6 29443.7 609.732   7
  -2   4  -5 3953.36 165.068   6
  -2  -4  -5 3608.45 197.523   6
  -2  -4  -5 3805.74 198.910   5
  -2   4  -5 3956.39 238.234  11
  -2  -4  -5 3540.85 246.119  11
  -2   4  -5 4046.44 170.792   7
  -2  -4  -5 3823.04 163.181  10
  -2  -4  -5 3533.94 206.930   9
  -2   4  -5 3550.60 213.035  10
  -2   4  -4 46182.1 836.386   6
  -2  -4  -4 46110.3 935.773   6
  -2  -4  -4 44116.2 911.940   5
  -2   4  -4 44321.2 865.640   2
  -2  -4  -4 46240.6 1058.51  11
  -2  -4  -4 44423.3 958.587   9
  -2   4  -4 45520.8 969.888  10
  -2  -4  -4 44991.6 840.795  10
  -2   4  -3 6061.10 196.634   6
  -2  -4  -3 6014.89 253.962   6
  -2   4  -3 5224.66 118.439   5
  -2  -4  -3 6243.31 248.173   5
  -2  -4  -3 5491.15 136.923   1
  -2   4  -3 6186.08 215.954   2
  -2  -4  -3 6328.54 313.143  11
  -2   4  -3 5787.39 272.828  12
  -2   4  -3 6557.02 280.915  10
  -2  -4  -2 24499.7 599.072   6
  -2   4  -2 24905.2 434.502   5
  -2  -4  -2 24144.9 579.258   5
  -2   4  -2 24033.6 503.516   6
  -2  -4  -2 23103.0 663.456  11
  -2   4  -2 23765.4 516.238   2
  -2  -4  -1 3741.45 191.958   5
  -2   4  -1 4264.29 132.695   5
  -2  -4  -1 4209.51 212.222   6
  -2  -4  -1 4215.86 246.268  11
  -2   4  -1 3957.80 159.622   2
  -2  -4   0 73301.3 1358.60   5
  -2   4   0 76251.9 1242.90   5
  -2  -4   0 76179.2 1471.36  11
  -2   4   0 74269.9 1307.74   3
  -2   4   0 75505.5 1263.33   2
  -2   4   1 2377.07 121.364   5
  -2  -4   1 2327.71 152.808   5
  -2  -4   1 2343.47 175.294  11
  -2   4   1 2545.48 117.850   2
  -2   4   1 2388.41 132.432   3
  -2   4   2 31382.8 644.456   5
  -2  -4   2 33530.3 725.895   5
  -2  -4   2 31457.7 665.998  10
  -2  -4   2 31572.5 767.825  11
  -2   4   2 31357.7 644.755   3
  -2   4   2 31914.0 611.422   2
  -2  -4   3 22756.1 567.069   5
  -2   4   3 21172.6 509.547   5
  -2  -4   3 22845.0 612.302  11
  -2   4   3 22925.2 500.912   3
  -2   4   3 22695.0 474.736   2
  -2  -4   4 4631.48 226.194   5
  -2  -4   4 4841.87 226.640  10
  -2  -4   4 4659.97 250.337  11
  -2   4   4 4994.23 193.438   3
  -2   4   5 3540.49 204.642   1
  -2   4   5 3507.83 161.921   3
  -2  -4   5 3372.50 195.997   5
  -2   4   6 9055.49 346.512   1
  -2   4   6 9587.62 292.323   3
  -2  -4   6 9506.18 350.390   5
  -2   4   7 7037.51 305.235   1
  -2   4   7 7105.62 251.888   3
  -2   4   7 6683.81 254.404   4
  -2  -4   7 7102.29 307.278   5
  -2   4   7 6660.98 306.662   8
  -2   4   8 514.310 79.0413   3
  -2   4   8 492.209 73.5428   4
  -2  -4   8 562.084 38.7795   3
  -2  -4   8 496.947 95.3463   5
  -2   4   8 495.287 103.014   8
  -2  -4   9 5707.35 162.714   3
  -2   4   9 5813.70 242.842   3
  -2  -4   9 5661.02 290.413   5
  -2   4   9 5831.46 256.501   4
  -2   4   9 5718.48 305.754   8
  -2  -4  10 5972.25 305.148   5
  -2   4  10 6077.22 275.348   4
  -2   4  10 5600.40 320.870   8
  -2   4  11 11107.7 395.986   4
  -2  -4  11 10832.2 436.798   5
  -2   4  11 10241.6 451.957   8
  -2   4  12 53345.2 1146.41   4
  -2  -4  12 53188.6 1220.25   5
  -2   4  13 11042.1 429.806   4
  -2  -4  13 11368.0 474.851   5
  -2  -4  14 6867.01 381.605   5
  -2   4  14 6614.77 339.499   4
  -2  -4  15 2417.67 234.545   5
  -2   4  15 2362.32 210.777   4
  -2   4  16 2603.67 228.320   4
  -2  -4  16 2741.22 259.477   5
  -2  -4  17 919.428 162.116   5
  -2   4  17 974.589 160.742   4
  -2  -4  18 682.209 150.892   5
  -2   4  18 813.532 149.532   4
  -2   4  19 1720.02 214.691   4
  -2   6 -19 105.685 76.8248   6
  -2  -6 -19 253.897 135.509  11
  -2   6 -18 1971.94 210.193   6
  -2  -6 -18 2124.27 283.144  11
  -2   6 -18 1565.38 212.805  10
  -2   6 -17 5722.56 337.674   6
  -2  -6 -17 5113.38 351.154   6
  -2  -6 -17 5243.85 412.046  11
  -2   6 -17 5476.94 380.353  10
  -2  -6 -16 620.940 125.656   6
  -2   6 -16 673.279 124.565   6
  -2  -6 -16 703.799 168.460  11
  -2  -6 -16 725.594 128.198   9
  -2   6 -16 782.777 151.895  10
  -2  -6 -15 596.301 119.360   6
  -2   6 -15 414.852 95.5582   6
  -2  -6 -15 510.398 157.699  11
  -2   6 -15 598.819 133.925  10
  -2  -6 -15 541.506 105.962   9
  -2   6 -14 432.753 84.8587   6
  -2  -6 -14 510.254 113.388   6
  -2   6 -14 531.382 105.477  11
  -2  -6 -14 709.051 161.361  11
  -2  -6 -14 699.329 113.189   9
  -2  -6 -14 496.047 91.9154  10
  -2   6 -14 521.805 111.135  10
  -2  -6 -13 6345.93 340.554   6
  -2   6 -13 6126.20 297.324   6
  -2   6 -13 5967.20 318.280  11
  -2  -6 -13 5961.69 404.200  11
  -2  -6 -13 6190.42 258.541  10
  -2   6 -13 6490.24 367.719  10
  -2  -6 -13 6337.19 316.281   9
  -2   6 -12 8555.78 340.752   6
  -2  -6 -12 8681.57 393.429   6
  -2  -6 -12 7774.96 449.690  11
  -2  -6 -12 8389.36 292.882  10
  -2   6 -12 8922.14 386.104  11
  -2   6 -12 8675.78 418.151  10
  -2  -6 -12 8509.50 367.314   9
  -2   6 -12 8514.43 275.594   9
  -2  -6 -11 1052.32 136.502   6
  -2   6 -11 969.011 108.217   6
  -2   6 -11 848.938 125.776  11
  -2  -6 -11 1004.78 97.6986  10
  -2  -6 -11 809.099 162.638  11
  -2  -6 -11 884.654 131.944   9
  -2   6 -11 909.194 131.583  10
  -2   6 -10 5917.98 250.247   6
  -2  -6 -10 5794.54 297.339   6
  -2   6 -10 5757.89 299.833  11
  -2  -6 -10 5317.72 353.939  11
  -2  -6 -10 5461.64 206.653  10
  -2   6 -10 5382.20 305.549  10
  -2  -6 -10 5538.33 285.565   9
  -2   6  -9 614.517 76.6530   6
  -2  -6  -9 690.405 103.575   6
  -2  -6  -9 715.378 102.928   1
  -2  -6  -9 618.534 142.665  11
  -2   6  -9 793.516 112.150  11
  -2  -6  -9 700.766 109.895   9
  -2  -6  -9 696.723 68.7798  10
  -2   6  -9 708.162 92.7938   7
  -2   6  -9 583.588 102.078  10
  -2  -6  -8 5217.36 267.175   6
  -2   6  -8 5501.62 219.609   6
  -2  -6  -8 5765.97 285.791   5
  -2  -6  -8 5766.53 245.797   1
  -2  -6  -8 5634.80 354.041  11
  -2   6  -8 5353.72 290.493  10
  -2   6  -8 5470.66 281.412  11
  -2  -6  -8 5560.02 188.116  10
  -2  -6  -8 5707.86 282.584   9
  -2   6  -8 5366.19 241.633   7
  -2  -6  -7 14904.4 475.621   5
  -2  -6  -7 14695.3 466.922   6
  -2   6  -7 14453.5 375.538   6
  -2  -6  -7 13922.3 391.294   1
  -2   6  -7 14688.0 481.978  11
  -2  -6  -7 14112.2 559.911  11
  -2   6  -7 13996.9 489.682  10
  -2  -6  -7 14603.7 333.676  10
  -2  -6  -7 14327.3 468.961   9
  -2   6  -7 14319.3 417.941   7
  -2  -6  -6 45455.9 976.576   6
  -2   6  -6 45614.9 843.584   6
  -2  -6  -6 46747.8 984.162   5
  -2  -6  -6 43250.3 849.914   1
  -2   6  -6 44653.0 1005.50  11
  -2  -6  -6 45167.9 1110.65  11
  -2  -6  -6 45037.5 792.173  10
  -2   6  -6 44701.4 917.551   7
  -2   6  -6 46357.6 1031.86  10
  -2  -6  -6 46173.3 997.283   9
  -2  -6  -5 10363.4 371.346   5
  -2   6  -5 10637.3 281.426   6
  -2  -6  -5 11328.0 382.250   6
  -2  -6  -5 10080.8 273.998   1
  -2  -6  -5 10839.8 456.005  11
  -2  -6  -5 10760.2 259.058  10
  -2   6  -5 10907.0 407.981  10
  -2   6  -5 10593.1 344.453   7
  -2  -6  -5 9915.50 377.290   9
  -2  -6  -4 34540.9 779.496   6
  -2   6  -4 34957.3 635.769   6
  -2  -6  -4 33392.9 773.548   5
  -2   6  -4 32829.0 688.198   2
  -2  -6  -4 31774.8 592.702   1
  -2  -6  -4 33980.4 886.891  11
  -2  -6  -4 33417.1 792.321   9
  -2  -6  -4 31734.6 793.605   8
  -2  -6  -4 34398.1 623.540  10
  -2   6  -4 35452.9 744.434   7
  -2   6  -4 34078.9 818.343  10
  -2   6  -3 41820.8 741.407   6
  -2  -6  -3 41020.4 892.520   5
  -2  -6  -3 42619.3 907.763   6
  -2   6  -3 41759.3 796.984   2
  -2  -6  -3 41664.8 1004.68  11
  -2   6  -3 43012.6 863.999   7
  -2  -6  -3 42101.8 919.302   9
  -2   6  -3 40352.9 923.350  10
  -2  -6  -3 40312.3 889.907   8
  -2  -6  -3 40229.5 748.408  10
  -2  -6  -2 131.560 61.8417   5
  -2   6  -2 90.7448 20.6714   5
  -2   6  -2 76.8842 15.4915   5
  -2  -6  -2 42.1982 36.6367   6
  -2   6  -2 109.121 37.6502   2
  -2  -6  -2 25.6435 71.0744  11
  -2   6  -2 87.1520 60.0733  10
  -2  -6  -2 107.983 57.2909   9
  -2  -6  -2 67.4375 56.9544   8
  -2  -6  -1 6152.34 267.273   5
  -2   6  -1 6341.98 162.636   5
  -2   6  -1 6114.66 198.970   2
  -2   6  -1 5880.07 243.762   3
  -2  -6  -1 5764.70 192.086  10
  -2  -6  -1 6062.76 308.002  11
  -2  -6  -1 5548.15 225.024   8
  -2  -6  -1 5854.32 276.689   9
  -2  -6   0 1625.13 138.606   5
  -2   6   0 1602.11 87.8710   5
  -2   6   0 1694.05 122.477   3
  -2   6   0 1565.47 88.4866   2
  -2  -6   0 1604.08 104.124  10
  -2  -6   0 1652.45 160.450  11
  -2  -6   0 1496.22 137.923   9
  -2  -6   0 1361.29 97.5839   8
  -2  -6   1 12390.1 397.249   5
  -2   6   1 11976.6 359.914   3
  -2   6   1 12371.4 419.675   1
  -2   6   1 12403.8 286.571   2
  -2  -6   1 11896.7 428.179  11
  -2  -6   1 12322.7 332.728  10
  -2  -6   1 11154.0 268.427   8
  -2  -6   2 13700.2 432.285   5
  -2  -6   2 14160.0 465.287  11
  -2  -6   2 13989.2 378.324  10
  -2   6   2 14114.8 315.760   2
  -2   6   2 14041.9 393.786   3
  -2   6   2 14542.8 464.380   1
  -2  -6   3 15196.4 460.281   5
  -2  -6   3 15708.9 484.584  11
  -2   6   3 14768.2 404.730   3
  -2   6   3 14664.2 473.892   1
  -2   6   3 14345.3 323.268   2
  -2  -6   4 3987.83 229.913   5
  -2   6   4 3952.53 236.384   1
  -2   6   4 3707.12 185.416   3
  -2  -6   4 3888.12 223.555  11
  -2  -6   4 3546.32 190.251  10
  -2  -6   5 15598.8 482.677   5
  -2   6   5 15830.3 384.429   4
  -2   6   5 16077.3 431.551   3
  -2   6   5 15565.1 510.206   1
  -2  -6   5 16764.8 494.560  11
  -2   6   5 15492.8 502.963   8
  -2   6   6 18867.5 445.377   4
  -2  -6   6 18396.5 541.469   5
  -2   6   6 18846.9 569.853   1
  -2   6   6 18198.5 480.250   3
  -2  -6   6 17748.3 521.294  11
  -2   6   6 17993.3 564.596   8
  -2  -6   7 498.801 90.7714   5
  -2   6   7 528.850 75.1098   4
  -2   6   7 415.777 91.1219   1
  -2  -6   7 612.785 94.1829  11
  -2   6   7 509.430 109.788   8
  -2   6   8 3468.66 186.851   4
  -2  -6   8 3598.61 226.794   5
  -2  -6   8 3038.79 91.6788   3
  -2   6   8 3583.74 231.706   1
  -2  -6   8 3573.61 205.013  11
  -2   6   8 3338.12 240.400   8
  -2  -6   9 521.078 108.329   5
  -2  -6   9 442.830 41.8193   3
  -2   6   9 449.462 78.9692   4
  -2  -6   9 445.277 79.6339  11
  -2   6   9 336.176 113.596   8
  -2  -6  10 11932.5 278.115   3
  -2  -6  10 10911.8 434.348   5
  -2   6  10 11336.2 389.247   4
  -2   6  10 10691.9 471.406   8
  -2  -6  11 10553.0 278.758   3
  -2   6  11 10833.6 392.817   4
  -2  -6  11 10604.4 437.123   5
  -2   6  11 9193.03 460.988   8
  -2  -6  12 1467.51 102.913   3
  -2   6  12 1755.48 163.870   4
  -2  -6  12 1576.83 167.177   5
  -2   6  12 1337.08 186.384   8
  -2  -6  13 17340.9 614.878   5
  -2   6  13 18527.2 577.660   4
  -2  -6  13 18072.5 442.835   3
  -2   6  14 1949.54 186.508   4
  -2  -6  14 1875.51 203.299   5
  -2  -6  15 1162.39 171.671   5
  -2   6  15 1369.94 164.381   4
  -2   6  16 3165.38 252.964   4
  -2  -6  16 3231.98 275.724   5
  -2   6  17 4229.06 309.276   4
  -2  -6  17 4419.38 329.940   5
  -2  -6  18 1201.78 193.289   5
  -2   6  18 1455.89 191.059   4
  -2   8 -18 309.798 103.172   6
  -2  -8 -18 168.549 134.988  11
  -2   8 -17 1228.85 156.896   6
  -2  -8 -17 946.219 163.287   6
  -2  -8 -17 984.050 205.300  11
  -2   8 -17 1108.79 195.258  10
  -2  -8 -16 10045.5 493.251   6
  -2  -8 -16 9523.23 573.105  11
  -2   8 -16 10078.7 529.284  10
  -2   8 -16 10200.9 440.118   6
  -2  -8 -16 10814.0 469.602   9
  -2  -8 -15 2185.27 217.215   6
  -2  -8 -15 2031.27 269.807  11
  -2   8 -15 2002.44 181.689   6
  -2   8 -15 2156.41 236.770  10
  -2  -8 -15 2443.64 217.293   9
  -2  -8 -14 4043.86 286.034   6
  -2   8 -14 4497.95 326.231  10
  -2  -8 -14 3799.12 343.141  11
  -2   8 -14 4103.43 247.455   6
  -2  -8 -14 4031.49 276.037   9
  -2   8 -13 663.060 98.2479   6
  -2  -8 -13 364.675 100.534   6
  -2  -8 -13 311.443 129.698  11
  -2   8 -13 488.213 119.320  10
  -2  -8 -13 619.060 114.156   9
  -2   8 -12 1079.78 117.951   6
  -2  -8 -12 1289.26 155.681   6
  -2  -8 -12 1213.15 200.946  11
  -2   8 -12 1174.06 140.726  11
  -2   8 -12 1118.69 158.805  10
  -2  -8 -12 1079.04 140.591   9
  -2  -8 -11 2758.44 221.453   6
  -2   8 -11 3133.13 185.371   6
  -2   8 -11 3059.01 248.827  10
  -2   8 -11 3055.00 213.862  11
  -2  -8 -11 3060.83 287.508  11
  -2  -8 -11 3131.67 229.361   9
  -2   8 -10 5969.04 250.700   6
  -2  -8 -10 6246.49 316.626   6
  -2  -8 -10 6227.11 170.185  10
  -2   8 -10 5930.41 292.879  11
  -2   8 -10 5958.07 340.215  10
  -2  -8 -10 6491.15 404.314  11
  -2  -8 -10 5959.51 315.446   9
  -2   8  -9 16023.9 425.168   6
  -2  -8  -9 16763.6 537.146   6
  -2  -8  -9 15122.9 479.840   1
  -2  -8  -9 15396.0 635.302  11
  -2   8  -9 15828.8 510.153  11
  -2   8  -9 15878.6 562.430  10
  -2  -8  -9 16264.3 309.747  10
  -2  -8  -9 16287.7 540.749   9
  -2  -8  -8 13584.2 462.456   6
  -2   8  -8 13066.9 343.153   6
  -2  -8  -8 13308.1 477.719   5
  -2  -8  -8 11856.1 383.287   1
  -2   8  -8 12331.8 435.559  11
  -2  -8  -8 10596.9 216.625  10
  -2  -8  -8 12601.1 547.093  11
  -2   8  -8 12575.7 477.843  10
  -2  -8  -8 13219.7 463.889   9
  -2   8  -7 25972.7 541.436   6
  -2  -8  -7 25302.5 680.160   6
  -2  -8  -7 24306.2 695.594   5
  -2  -8  -7 24946.9 588.555   1
  -2  -8  -7 26123.7 826.704  11
  -2   8  -7 25341.0 683.216  11
  -2   8  -7 25802.7 731.621  10
  -2  -8  -7 25362.3 694.616   9
  -2  -8  -6 7196.03 316.688   6
  -2  -8  -6 7348.59 334.626   5
  -2   8  -6 7039.16 214.344   6
  -2  -8  -6 6680.13 238.978   1
  -2  -8  -6 7468.72 404.610  11
  -2   8  -6 6526.32 330.560  10
  -2  -8  -6 7253.32 329.299   9
  -2   8  -5 1812.41 92.7369   6
  -2  -8  -5 1686.07 149.200   6
  -2  -8  -5 1811.40 168.860   5
  -2  -8  -5 1528.96 177.331  11
  -2  -8  -5 1797.04 160.877   9
  -2   8  -5 1724.62 166.736  10
  -2  -8  -4 19307.4 571.653   5
  -2   8  -4 19112.0 380.991   6
  -2  -8  -4 19178.8 553.361   6
  -2  -8  -4 19326.1 329.201  10
  -2  -8  -4 20572.4 667.744  11
  -2  -8  -4 19201.6 326.681  10
  -2  -8  -4 17785.0 555.589   8
  -2   8  -4 19318.6 593.620  10
  -2  -8  -4 18934.8 567.684   9
  -2  -8  -3 6914.49 305.470   6
  -2  -8  -3 6735.13 310.333   5
  -2   8  -3 6758.66 229.749   2
  -2  -8  -3 6789.52 162.443  10
  -2  -8  -3 6774.78 357.015  11
  -2  -8  -3 6665.35 310.306   9
  -2  -8  -3 6517.59 288.225   8
  -2  -8  -3 7189.11 169.189  10
  -2   8  -3 6766.11 318.029  10
  -2  -8  -2 7107.01 315.725   5
  -2   8  -2 6895.87 153.895   5
  -2   8  -2 7783.87 152.346   5
  -2  -8  -2 7400.63 319.482   6
  -2   8  -2 7246.43 226.623   2
  -2  -8  -2 7068.92 354.691  11
  -2  -8  -2 7051.06 185.872  10
  -2  -8  -2 6743.20 310.208   9
  -2   8  -2 6505.53 315.986  10
  -2  -8  -2 6949.91 277.284   8
  -2  -8  -1 6493.30 298.336   5
  -2   8  -1 6184.69 177.621   5
  -2   8  -1 6457.69 200.212   2
  -2  -8  -1 6198.92 322.334  11
  -2  -8  -1 6757.56 191.428  10
  -2  -8  -1 5774.44 283.134   9
  -2  -8  -1 5954.39 232.923   8
  -2  -8   0 22375.9 611.316   5
  -2   8   0 22649.1 476.491   5
  -2   8   0 23054.5 452.971   2
  -2  -8   0 22114.8 659.113  11
  -2  -8   0 21712.5 466.940  10
  -2  -8   0 22296.8 607.689   9
  -2  -8   0 21394.5 479.320   8
  -2  -8   1 1696.32 151.488   5
  -2   8   1 1718.37 114.468   5
  -2   8   1 1937.96 175.179   1
  -2   8   1 1725.82 85.0057   2
  -2  -8   1 1609.09 103.634  10
  -2  -8   1 1866.80 172.944  11
  -2  -8   1 1745.80 145.498   9
  -2  -8   2 4392.80 243.351   5
  -2   8   2 4340.17 134.864   2
  -2   8   2 4486.92 265.177   1
  -2  -8   2 3916.19 179.802  10
  -2  -8   2 4384.05 253.063  11
  -2  -8   2 4329.16 230.242   9
  -2  -8   3 13454.8 447.607   5
  -2   8   3 13302.8 476.520   1
  -2   8   3 12444.5 264.086   2
  -2  -8   3 12835.6 439.904  11
  -2  -8   3 12374.8 416.503   9
  -2  -8   4 5099.56 269.482   5
  -2   8   4 5151.79 175.051   4
  -2   8   4 5088.85 289.006   1
  -2  -8   4 5026.22 263.058  11
  -2  -8   4 5197.30 230.391  10
  -2  -8   4 5214.18 254.077   9
  -2   8   5 1326.51 92.8593   4
  -2  -8   5 1422.27 147.453   5
  -2   8   5 1460.20 162.995   1
  -2  -8   5 1583.31 146.330  11
  -2  -8   5 1545.83 136.565   9
  -2   8   5 1486.68 166.147   8
  -2   8   6 31698.7 648.074   4
  -2  -8   6 32339.2 800.189   5
  -2   8   6 29511.3 821.470   1
  -2  -8   6 30923.0 745.767  11
  -2  -8   6 30901.8 730.345   9
  -2   8   6 30941.6 838.684   8
  -2   8   7 92991.8 1588.82   4
  -2  -8   7 91316.2 1756.67   5
  -2   8   7 89397.1 1806.47   1
  -2  -8   7 91399.3 1678.49  11
  -2   8   7 92637.2 1835.61   8
  -2  -8   7 91180.2 1661.44   9
  -2  -8   8 3658.53 241.039   5
  -2   8   8 3952.42 197.276   4
  -2   8   8 3730.27 261.229   1
  -2  -8   8 3765.59 109.771   3
  -2  -8   8 3938.42 213.276  11
  -2  -8   8 4106.77 214.541   9
  -2   8   8 4294.07 292.121   8
  -2  -8   9 1892.37 178.154   5
  -2   8   9 1805.53 143.438   4
  -2   8   9 2057.31 200.119   1
  -2  -8   9 1833.17 83.6879   3
  -2  -8   9 1787.22 140.984  11
  -2  -8   9 1835.38 142.521   9
  -2   8   9 1741.97 205.053   8
  -2  -8  10 10877.1 450.412   5
  -2   8  10 11799.3 395.667   4
  -2  -8  10 11746.8 277.389   3
  -2  -8  10 11702.6 377.810  11
  -2  -8  10 11088.4 368.750   9
  -2   8  10 10809.9 506.261   8
  -2   8  11 5489.10 271.395   4
  -2  -8  11 5325.81 311.816   5
  -2  -8  11 5661.98 190.669   3
  -2  -8  11 5517.89 244.379  11
  -2   8  11 4904.56 353.368   8
  -2  -8  11 5597.48 243.068   9
  -2  -8  12 6512.14 358.077   5
  -2   8  12 6981.30 323.344   4
  -2  -8  12 7654.98 286.026  11
  -2   8  12 6003.50 404.451   8
  -2  -8  12 6895.91 270.550   9
  -2   8  13 1776.58 174.278   4
  -2  -8  13 1765.01 198.115   5
  -2  -8  13 2085.65 137.465   9
  -2   8  13 2226.98 266.002   8
  -2   8  14 1167.03 146.861   4
  -2  -8  14 1111.12 168.880   5
  -2   8  15 1692.62 183.382   4
  -2  -8  15 1575.48 193.309   5
  -2   8  16 1452.30 180.469   4
  -2  -8  16 1518.46 194.203   5
  -2   8  17 2026.02 219.131   4
  -2  -8  17 2142.76 228.981   5
  -2   8  18 2060.47 228.478   4
  -2  -8  18 1669.86 214.494   5
  -2 -10 -17 2155.08 236.220   9
  -2 -10 -16 4261.51 323.173   6
  -2  10 -16 4472.59 360.565  10
  -2 -10 -16 4649.02 405.635  11
  -2 -10 -16 4699.94 331.055   9
  -2 -10 -15 6247.41 385.102   6
  -2 -10 -15 5996.88 455.718  11
  -2  10 -15 6467.25 419.191  10
  -2 -10 -15 6219.59 371.055   9
  -2  10 -14 251.700 69.6714   6
  -2 -10 -14 174.014 81.2092   6
  -2 -10 -14 253.422 144.309  11
  -2 -10 -14 145.509 83.5088   9
  -2  10 -14 220.697 107.312  10
  -2 -10 -13 1937.61 199.684   6
  -2 -10 -13 1999.81 272.025  11
  -2 -10 -13 1820.82 196.209   9
  -2  10 -13 2170.68 166.149   6
  -2  10 -13 1601.41 200.030  10
  -2 -10 -12 2177.88 208.277   6
  -2  10 -12 2303.18 163.574   6
  -2 -10 -12 2279.74 273.256  11
  -2 -10 -12 1789.38 189.875   9
  -2  10 -12 1934.07 216.640  10
  -2 -10 -11 755.727 124.763   6
  -2  10 -11 848.359 94.0732   6
  -2 -10 -11 800.701 176.608  11
  -2  10 -11 750.782 104.840  11
  -2  10 -11 839.869 149.205  10
  -2 -10 -11 886.551 143.838   9
  -2 -10 -10 14181.1 527.889   6
  -2  10 -10 14767.2 406.249   6
  -2  10 -10 14086.0 562.857  10
  -2  10 -10 14716.3 477.815  11
  -2 -10 -10 13350.6 626.447  11
  -2 -10 -10 14475.9 534.391   9
  -2  10  -9 990.935 90.1406   6
  -2 -10  -9 1069.73 141.155   6
  -2  10  -9 826.418 109.169  11
  -2 -10  -9 1419.47 211.481  11
  -2  10  -9 912.678 143.629  10
  -2 -10  -9 1027.32 146.375   9
  -2  10  -8 9281.40 271.926   6
  -2 -10  -8 8777.91 418.726   5
  -2 -10  -8 9192.13 388.450   6
  -2 -10  -8 9072.48 341.532   1
  -2  10  -8 8317.04 405.669  10
  -2 -10  -8 9284.73 483.809  11
  -2  10  -8 9175.76 371.680  11
  -2 -10  -8 8879.02 396.049   9
  -2 -10  -7 49518.0 1115.32   6
  -2  10  -7 50821.8 885.043   6
  -2 -10  -7 46462.4 1135.34   5
  -2 -10  -7 49277.1 1268.16  11
  -2  10  -7 50548.5 1094.28  11
  -2  10  -7 47436.4 1153.79  10
  -2 -10  -7 50087.0 1132.63   9
  -2  10  -6 43512.4 746.250   6
  -2 -10  -6 43297.0 1038.23   5
  -2 -10  -6 42424.1 991.945   6
  -2 -10  -6 39907.4 1109.82  11
  -2  10  -6 41556.5 1036.79  10
  -2 -10  -6 41263.4 997.856   9
  -2  10  -5 4033.83 118.219   6
  -2 -10  -5 3929.49 244.602   6
  -2 -10  -5 4061.39 261.393   5
  -2 -10  -5 3932.51 293.679  11
  -2  10  -5 3815.24 260.840  10
  -2 -10  -5 3371.30 235.516   9
  -2 -10  -4 10896.1 411.991   6
  -2 -10  -4 11064.4 431.195   5
  -2 -10  -4 10611.8 483.680  11
  -2 -10  -4 9900.09 406.693   9
  -2  10  -4 10394.4 431.586  10
  -2 -10  -3 9448.80 387.945   6
  -2 -10  -3 9259.03 394.268   5
  -2  10  -3 9524.73 284.777   2
  -2 -10  -3 9767.29 451.920  11
  -2 -10  -3 9194.65 355.728   8
  -2  10  -3 9649.51 408.599  10
  -2 -10  -3 9412.51 386.058   9
  -2  10  -2 15093.1 292.100   5
  -2 -10  -2 15520.4 512.008   5
  -2  10  -2 14170.1 352.995   2
  -2 -10  -2 14025.5 540.783  11
  -2 -10  -2 13432.8 246.418  10
  -2  10  -2 14921.7 506.454  10
  -2 -10  -2 14529.2 489.883   9
  -2 -10  -2 14464.4 429.005   8
  -2 -10  -1 9333.54 390.775   5
  -2  10  -1 9579.87 251.230   5
  -2  10  -1 9656.87 258.967   2
  -2 -10  -1 10046.3 440.452  11
  -2 -10  -1 9550.00 227.086  10
  -2 -10  -1 9503.93 311.470   8
  -2  10  -1 9666.88 401.310  10
  -2 -10  -1 9652.04 381.303   9
  -2 -10   0 33493.0 842.328   5
  -2  10   0 35092.8 673.604   5
  -2  10   0 33767.0 617.344   2
  -2 -10   0 33273.2 631.578  10
  -2 -10   0 33070.0 880.377  11
  -2 -10   0 32617.4 809.877   9
  -2 -10   1 7809.65 352.179   5
  -2  10   1 7574.47 265.424   5
  -2  10   1 8145.23 198.049   2
  -2  10   1 8487.27 396.061   1
  -2 -10   1 8073.76 247.030  10
  -2 -10   1 7101.03 350.374  11
  -2 -10   1 8078.57 339.101   9
  -2 -10   2 33100.2 830.867   5
  -2  10   2 32014.8 713.145   5
  -2  10   2 32524.5 548.816   2
  -2  10   2 32202.8 874.548   1
  -2 -10   2 32393.3 674.330  10
  -2 -10   2 32593.5 832.959  11
  -2 -10   2 33421.7 794.395   9
  -2 -10   3 13740.2 497.465   5
  -2  10   3 16342.4 334.521   4
  -2  10   3 16459.3 469.996   5
  -2  10   3 16163.0 570.531   1
  -2 -10   3 16169.9 524.709  11
  -2 -10   3 16437.6 501.986   9
  -2 -10   4-6.42621 63.3148   5
  -2  10   4 83.0239 34.5488   4
  -2  10   4 248.610 97.9484   1
  -2 -10   4 160.781 75.8055  11
  -2 -10   4 107.114 46.2101  10
  -2 -10   4 138.546 77.1833   9
  -2  10   5 26746.8 548.120   4
  -2 -10   5 26563.6 732.972   5
  -2  10   5 25537.8 780.466   1
  -2 -10   5 25645.4 684.043  11
  -2  10   5 26910.9 795.788   8
  -2 -10   5 26413.4 668.912   9
  -2 -10   6 31262.9 818.228   5
  -2  10   6 30997.7 635.684   4
  -2  10   6 27690.6 847.726   1
  -2 -10   6 30313.6 747.449  11
  -2 -10   6 30690.2 732.998   9
  -2  10   6 30582.3 879.310   8
  -2  10   7 56374.9 1064.68   4
  -2 -10   7 57786.9 1263.49   5
  -2  10   7 58102.1 1331.86   1
  -2 -10   7 56129.6 1154.23  11
  -2 -10   7 57102.6 1145.75   9
  -2  10   7 56989.7 1354.76   8
  -2 -10   8 846.868 140.878   5
  -2  10   8 1205.19 110.590   4
  -2 -10   8 1086.68 67.4437   3
  -2  10   8 800.319 147.080   1
  -2 -10   8 1038.34 113.045  11
  -2 -10   8 1103.03 117.966   9
  -2  10   8 1083.63 176.031   8
  -2 -10   9 18304.8 609.111   5
  -2  10   9 17123.1 486.159   4
  -2  10   9 17863.2 637.958   1
  -2 -10   9 17498.9 369.585   3
  -2 -10   9 17122.5 483.567  11
  -2 -10   9 17628.3 493.285   9
  -2  10   9 16637.8 658.269   8
  -2 -10  10 5027.67 311.579   5
  -2  10  10 4751.84 244.825   4
  -2  10  10 5243.27 335.000   1
  -2 -10  10 5102.47 228.507  11
  -2  10  10 5510.38 383.708   8
  -2 -10  10 4957.83 236.375   9
  -2  10  11 3420.59 216.805   4
  -2 -10  11 3668.00 268.917   5
  -2  10  11 3316.98 311.233   8
  -2 -10  11 3396.61 186.476   9
  -2 -10  12 3955.74 286.326   5
  -2  10  12 4204.44 253.558   4
  -2 -10  12 4360.87 204.882   9
  -2  10  12 4341.89 362.308   8
  -2  10  13 1190.48 146.925   4
  -2 -10  13 1311.67 172.567   5
  -2  10  13 995.626 202.920   8
  -2  10  14 1081.22 147.199   4
  -2 -10  14 1214.71 179.925   5
  -2  10  14 1290.08 242.629   8
  -2 -10  15 5025.35 346.120   5
  -2  10  15 5224.50 318.662   4
  -2  10  16 7876.61 408.942   4
  -2 -10  16 8108.92 451.974   5
  -2  10  17 9198.53 462.108   4
  -2 -10  17 9877.79 516.691   5
  -2  10  18 4463.59 329.308   4
  -2 -12 -17 7316.18 443.846   9
  -2 -12 -16 523.744 141.375   9
  -2 -12 -15 432.977 116.827   6
  -2 -12 -15 274.657 156.701  11
  -2  12 -15 537.709 145.968  10
  -2 -12 -15 314.600 113.243   9
  -2 -12 -14 1389.10 178.235   6
  -2 -12 -14 1495.14 247.191  11
  -2  12 -14 1376.44 204.495  10
  -2 -12 -14 1300.55 197.340   9
  -2 -12 -13 10310.8 482.194   6
  -2 -12 -13 9201.50 566.022  11
  -2  12 -13 8909.23 491.600  10
  -2 -12 -13 8442.17 445.393   9
  -2 -12 -12 6736.21 380.952   6
  -2 -12 -12 6787.38 473.015  11
  -2  12 -12 7140.52 425.271  10
  -2 -12 -12 6800.67 389.296   9
  -2 -12 -11 4191.82 286.891   6
  -2  12 -11 4079.59 312.902  10
  -2 -12 -11 3245.23 322.211  11
  -2 -12 -11 4282.62 301.462   9
  -2 -12 -10 10484.4 459.468   6
  -2 -12 -10 10135.3 550.156  11
  -2  12 -10 9904.21 480.904  10
  -2 -12 -10 10624.6 472.498   9
  -2 -12  -9 11636.0 525.395   5
  -2 -12  -9 11104.2 465.293   6
  -2 -12  -9 10233.3 552.376  11
  -2  12  -9 11079.1 408.273  11
  -2  12  -9 11100.5 498.243  10
  -2 -12  -9 11099.5 477.238   9
  -2 -12  -8 3385.89 244.721   6
  -2 -12  -8 3819.30 286.622   5
  -2 -12  -8 3477.82 308.841  11
  -2  12  -8 3680.40 230.141  11
  -2  12  -8 3416.95 263.133  10
  -2 -12  -8 3629.56 261.683   9
  -2 -12  -7 7352.99 357.438   6
  -2 -12  -7 7043.58 383.038   5
  -2 -12  -7 6555.19 407.467  11
  -2  12  -7 6471.05 362.067  10
  -2 -12  -7 7401.91 367.951   9
  -2 -12  -6 21664.9 700.009   5
  -2 -12  -6 22083.3 661.180   6
  -2 -12  -6 21586.3 764.265  11
  -2  12  -6 21065.6 688.693  10
  -2 -12  -6 20801.7 658.662   9
  -2 -12  -5 550.599 135.700   5
  -2 -12  -5 323.159 96.0945   6
  -2 -12  -5 352.197 114.291  11
  -2 -12  -5 297.010 92.0043   9
  -2  12  -5 266.241 92.4470  10
  -2 -12  -4 14329.7 511.758   6
  -2 -12  -4 15430.9 553.505   5
  -2 -12  -4 13617.3 570.723  11
  -2  12  -4 13600.3 523.874  10
  -2 -12  -4 13963.2 514.025   9
  -2  12  -3 43010.3 678.251   5
  -2 -12  -3 39875.8 987.315   6
  -2 -12  -3 39471.0 1009.12   5
  -2 -12  -3 39028.1 1068.85  11
  -2 -12  -3 38161.2 975.826   9
  -2  12  -3 39193.0 1012.88  10
  -2  12  -2 3580.88 132.916   5
  -2 -12  -2 3325.37 247.088   5
  -2  12  -2 3342.81 148.281   2
  -2 -12  -2 3715.95 278.395  11
  -2  12  -2 3233.00 237.273  10
  -2 -12  -2 3882.46 247.544   9
  -2  12  -1 53526.7 908.019   5
  -2 -12  -1 52409.1 1170.38   5
  -2  12  -1 53403.5 883.702   2
  -2 -12  -1 50887.8 1201.83  11
  -2 -12  -1 47802.4 788.246  10
  -2  12  -1 50600.1 1146.79  10
  -2  12   0 26463.4 590.506   5
  -2 -12   0 26090.7 759.675   5
  -2  12   0 28683.6 519.520   2
  -2 -12   0 27573.3 524.694  10
  -2 -12   0 26641.9 787.772  11
  -2  12   0 25735.6 756.161  10
  -2 -12   0 27629.2 736.900   9
  -2 -12   1 559.638 124.102   5
  -2  12   1 613.294 82.2477   5
  -2  12   1 557.342 208.991   1
  -2  12   1 578.981 41.1293   2
  -2 -12   1 688.204 148.046  11
  -2 -12   1 687.205 69.4785  10
  -2 -12   1 1002.82 148.789   9
  -2  12   1 801.708 124.434  10
  -2 -12   2 8141.93 381.550   5
  -2  12   2 7754.58 299.183   5
  -2  12   2 7654.30 404.488   1
  -2 -12   2 7905.48 372.050  11
  -2 -12   2 7797.27 263.026  10
  -2 -12   2 8143.94 347.252   9
  -2  12   3 9739.77 230.420   4
  -2 -12   3 9365.31 415.594   5
  -2  12   3 9211.52 452.318   1
  -2 -12   3 9177.70 402.469  11
  -2 -12   3 9476.38 377.853   9
  -2 -12   4 11281.0 461.363   5
  -2  12   4 11139.4 281.611   4
  -2  12   4 11048.7 496.179   1
  -2 -12   4 10923.2 425.958  11
  -2 -12   4 11180.1 371.988  10
  -2  12   4 11791.1 518.905   8
  -2 -12   4 11335.5 409.854   9
  -2 -12   5 18091.6 608.994   5
  -2  12   5 18583.2 424.083   4
  -2  12   5 17523.3 661.764   1
  -2 -12   5 17543.9 549.211  11
  -2  12   5 19283.6 687.676   8
  -2 -12   5 17928.5 536.508   9
  -2 -12   6 14865.8 548.770   5
  -2  12   6 15773.8 396.290   4
  -2  12   6 14399.0 598.949   1
  -2 -12   6 15144.4 485.248  11
  -2  12   6 14611.2 600.168   8
  -2 -12   6 14389.9 465.660   9
  -2 -12   7 6635.20 356.152   5
  -2  12   7 6622.11 252.754   4
  -2  12   7 6466.22 392.075   1
  -2 -12   7 6948.99 301.090  11
  -2  12   7 6936.32 414.069   8
  -2 -12   7 6989.49 303.656   9
  -2 -12   8 7342.37 379.637   5
  -2  12   8 7264.41 277.694   4
  -2  12   8 7096.18 412.410   1
  -2 -12   8 6817.75 287.818  11
  -2  12   8 7359.73 440.914   8
  -2 -12   8 6954.24 298.412   9
  -2  12   9 5791.20 261.072   4
  -2 -12   9 6357.11 361.448   5
  -2  12   9 5804.88 370.550   1
  -2 -12   9 5915.31 250.771  11
  -2  12   9 5011.41 373.310   8
  -2 -12   9 6198.02 276.643   9
  -2  12  10 564.858 138.528   1
  -2  12  10 451.211 87.7110   4
  -2 -12  10 444.816 119.103   5
  -2 -12  10 403.078 79.1576   9
  -2  12  10 401.292 139.568   8
  -2  12  11 2801.98 204.353   4
  -2 -12  11 3154.71 263.594   5
  -2  12  11 3148.00 318.229   8
  -2 -12  11 3069.86 180.945   9
  -2  12  12 10488.8 409.076   4
  -2 -12  12 7984.76 436.555   5
  -2  12  12 10197.9 586.131   8
  -2 -12  13 21306.7 759.467   5
  -2  12  13 20881.5 639.901   4
  -2  12  13 20787.5 883.667   8
  -2  12  14 1816.14 191.794   4
  -2 -12  14 1663.96 209.906   5
  -2  12  14 1359.30 257.957   8
  -2  12  15 1353.28 177.414   4
  -2 -12  15 1221.01 190.849   5
  -2  12  15 870.986 234.209   8
  -2  12  16 1455.93 188.073   4
  -2 -12  16 1775.46 230.550   5
  -2  12  17 4196.80 312.372   4
  -2 -14 -15 619.201 152.353   9
  -2 -14 -14 1687.21 209.124   6
  -2 -14 -14 1869.35 231.760   9
  -2 -14 -13 11143.0 525.501   6
  -2  14 -13 10934.3 568.815  10
  -2 -14 -13 10624.1 624.630  11
  -2 -14 -13 11582.8 542.850   9
  -2 -14 -12 2205.68 227.487   6
  -2 -14 -12 2497.09 301.121  11
  -2  14 -12 2387.93 262.733  10
  -2 -14 -12 2539.06 256.597   9
  -2 -14 -11 14955.8 595.149   6
  -2  14 -11 14482.0 633.664  10
  -2 -14 -11 15699.7 740.651  11
  -2 -14 -11 15575.1 624.439   9
  -2 -14 -10 588.511 120.815   6
  -2 -14 -10 1079.52 202.822  11
  -2 -14 -10 763.539 143.819   9
  -2  14 -10 721.688 148.838  10
  -2 -14  -9 259.500 93.3439   6
  -2 -14  -9 342.212 132.174  11
  -2  14  -9 77.1180 64.9825  10
  -2 -14  -9 142.088 97.7936   9
  -2 -14  -8 5391.25 327.969   6
  -2 -14  -8 5841.88 378.721   5
  -2 -14  -8 5936.13 409.723  11
  -2  14  -8 5416.54 349.174  10
  -2 -14  -8 5747.67 351.695   9
  -2 -14  -7 3721.58 301.939   5
  -2 -14  -7 4016.51 277.836   6
  -2  14  -7 3663.40 281.521  10
  -2 -14  -7 3429.67 314.364  11
  -2 -14  -7 3618.28 270.680   9
  -2 -14  -6 18064.4 614.256   6
  -2 -14  -6 17907.9 664.289   5
  -2 -14  -6 16227.8 689.089  11
  -2  14  -6 16491.2 622.605  10
  -2 -14  -6 17865.0 624.332   9
  -2 -14  -5 4509.43 312.942   5
  -2 -14  -5 4459.08 291.045   6
  -2 -14  -5 4191.53 331.265  11
  -2  14  -5 4654.79 308.854  10
  -2 -14  -5 4070.41 282.517   9
  -2 -14  -4 3466.11 252.343   6
  -2 -14  -4 3388.36 267.945   5
  -2 -14  -4 3472.01 292.875  11
  -2  14  -4 3404.49 260.822  10
  -2 -14  -4 3621.83 264.965   9
  -2 -14  -3 2348.63 225.752   5
  -2 -14  -3 2253.63 241.186  11
  -2  14  -3 2174.34 207.895  10
  -2 -14  -3 1840.31 190.066   9
  -2 -14  -2-28.1456 73.5183   5
  -2 -14  -2 221.223 105.076  11
  -2 -14  -2 120.510 76.1015   9
  -2  14  -2 20.9552 63.6855  10
  -2 -14  -1 2358.92 222.287   5
  -2 -14  -1 2170.98 218.875  11
  -2  14  -1 2478.68 213.913  10
  -2 -14  -1 2186.76 191.826   9
  -2 -14   0 7739.90 396.855   5
  -2  14   0 8655.23 457.626   1
  -2 -14   0 7163.18 389.379  11
  -2 -14   0 7590.67 362.065   9
  -2  14   0 7406.11 374.133  10
  -2 -14   1 4992.16 314.353   5
  -2  14   1 4766.75 337.907   1
  -2 -14   1 4585.63 296.205  11
  -2  14   1 4540.54 292.524  10
  -2 -14   1 4407.93 272.527   9
  -2 -14   2 1041.16 149.672   5
  -2  14   2 1057.42 176.362   1
  -2 -14   2 1041.68 147.370  11
  -2 -14   2 1066.99 139.830   9
  -2  14   2 1083.36 143.349  10
  -2 -14   3 18754.2 645.766   5
  -2  14   3 19538.8 721.994   1
  -2 -14   3 18056.2 598.895  11
  -2 -14   3 18098.2 580.463   9
  -2 -14   4 5378.15 332.039   5
  -2  14   4 5445.98 181.528   4
  -2  14   4 5465.32 365.177   1
  -2 -14   4 4964.56 287.055  11
  -2  14   4 5441.71 372.088   8
  -2 -14   4 5102.93 283.725   9
  -2 -14   5 2959.40 245.670   5
  -2  14   5 3453.45 154.211   4
  -2  14   5 2786.46 269.056   1
  -2 -14   5 3032.05 215.514  11
  -2  14   5 3277.41 289.376   8
  -2 -14   5 2967.79 212.034   9
  -2 -14   6 4926.84 324.731   5
  -2  14   6 4858.47 204.997   4
  -2  14   6 4896.62 362.267   1
  -2 -14   6 4863.45 268.044  11
  -2  14   6 4710.21 365.287   8
  -2 -14   6 5534.11 286.371   9
  -2 -14   7 6580.36 376.772   5
  -2  14   7 6559.56 255.190   4
  -2  14   7 6691.31 421.115   1
  -2 -14   7 6479.15 292.497  11
  -2 -14   7 6561.60 307.554   9
  -2  14   7 6787.48 433.633   8
  -2  14   8 11611.1 567.664   1
  -2 -14   8 12159.8 528.444   5
  -2  14   8 12467.3 389.565   4
  -2  14   8 12079.1 605.696   8
  -2 -14   8 11720.7 417.350   9
  -2  14   9 1885.69 232.178   1
  -2 -14   9 1955.40 213.887   5
  -2  14   9 2108.44 161.864   4
  -2 -14   9 2192.63 169.982   9
  -2  14   9 2033.04 270.548   8
  -2  14  10 1371.64 139.584   4
  -2  14  10 1355.03 208.790   1
  -2 -14  10 1193.63 173.463   5
  -2  14  10 1151.71 231.975   8
  -2 -14  10 1570.08 139.923   9
  -2  14  11 1061.33 131.626   4
  -2  14  11 1033.08 181.287   1
  -2 -14  11 943.467 163.596   5
  -2  14  11 1020.93 228.000   8
  -2 -14  12 6291.30 397.202   5
  -2  14  12 6749.32 330.964   4
  -2  14  12 6330.10 492.351   8
  -2 -14  13 11574.9 553.083   5
  -2  14  13 11442.9 462.970   4
  -2  14  13 11148.2 664.219   8
  -2  14  14 1751.74 185.194   4
  -2 -14  14 1738.04 223.304   5
  -2  14  14 1824.17 307.555   8
  -2 -14  15 3127.56 305.159   5
  -2  14  15 3154.27 256.127   4
  -2  14  15 3477.56 403.486   8
  -2  14  16 767.363 145.434   4
  -2 -16 -12 153.219 93.2997   6
  -2 -16 -12 177.184 125.952   9
  -2  16 -12 239.238 107.095  10
  -2 -16 -11 2701.77 249.880   6
  -2 -16 -11 2305.47 286.566  11
  -2  16 -11 2834.92 287.607  10
  -2 -16 -11 2844.22 277.868   9
  -2 -16 -10 2693.35 250.401   6
  -2 -16 -10 2142.53 284.399  11
  -2  16 -10 1824.35 227.370  10
  -2 -16 -10 2496.11 258.837   9
  -2 -16  -9 2162.87 226.206   6
  -2  16  -9 2346.61 246.830  10
  -2 -16  -9 2109.85 271.817  11
  -2 -16  -9 2294.74 240.878   9
  -2 -16  -8 2842.62 245.818   6
  -2 -16  -8 2866.02 288.291   5
  -2 -16  -8 3004.87 311.136  11
  -2  16  -8 2609.45 257.986  10
  -2 -16  -8 2629.15 252.740   9
  -2 -16  -7 7394.98 403.976   6
  -2 -16  -7 7827.77 455.333   5
  -2  16  -7 7373.10 418.798  10
  -2 -16  -7 7338.01 480.120  11
  -2 -16  -7 7363.29 412.265   9
  -2 -16  -6 4759.28 316.691   6
  -2 -16  -6 4990.29 362.975   5
  -2  16  -6 4701.78 327.922  10
  -2 -16  -6 5049.15 384.649  11
  -2 -16  -6 4999.01 341.755   9
  -2 -16  -5 11117.3 498.909   6
  -2 -16  -5 12100.1 557.137   5
  -2  16  -5 10978.6 508.553  10
  -2 -16  -5 11259.2 571.155  11
  -2 -16  -5 11091.3 503.957   9
  -2 -16  -4 7760.62 434.825   5
  -2 -16  -4 7147.31 445.691  11
  -2  16  -4 7887.94 422.266  10
  -2 -16  -4 7641.58 409.866   9
  -2 -16  -3 789.735 148.064   5
  -2 -16  -3 950.709 166.012  11
  -2 -16  -3 716.447 133.757   9
  -2  16  -3 1054.40 163.765  10
  -2 -16  -2 4755.47 332.474   5
  -2 -16  -2 4515.10 330.115  11
  -2 -16  -2 5117.28 315.408   9
  -2  16  -2 4424.34 303.850  10
  -2 -16  -1 1378.72 188.313   5
  -2 -16  -1 1829.68 211.322  11
  -2 -16  -1 1578.40 176.105   9
  -2  16  -1 1700.40 184.560  10
  -2 -16   0 3978.33 309.276   5
  -2  16   0 4453.10 349.782   1
  -2 -16   0 3949.12 294.121  11
  -2  16   0 4479.47 300.904  10
  -2 -16   0 4203.33 282.911   9
  -2 -16   1 83.3919 85.2286   5
  -2  16   1 360.048 138.205   1
  -2 -16   1 430.130 114.168  11
  -2  16   1 420.466 113.443  10
  -2 -16   1 117.076 71.0061   9
  -2 -16   2 1439.93 186.895   5
  -2  16   2 1534.76 220.003   1
  -2 -16   2 1516.34 177.769  11
  -2 -16   2 1588.63 177.604   9
  -2  16   2 1454.62 180.499  10
  -2 -16   3 4440.55 316.894   5
  -2  16   3 4187.82 337.929   1
  -2 -16   3 4295.08 281.621  11
  -2  16   3 4853.88 369.847   8
  -2  16   3 3866.05 281.294  10
  -2 -16   3 4215.26 271.461   9
  -2 -16   4 17548.9 660.575   5
  -2  16   4 16598.9 708.458   1
  -2 -16   4 17111.7 577.419  11
  -2  16   4 16996.1 721.245   8
  -2  16   4 17213.1 629.350  10
  -2 -16   4 16522.2 563.397   9
  -2 -16   5 10242.4 493.208   5
  -2  16   5 10608.7 568.951   1
  -2 -16   5 10142.2 412.673  11
  -2  16   5 9722.39 542.591   8
  -2 -16   5 10033.7 415.914   9
  -2  16   6 1941.79 249.269   1
  -2 -16   6 1846.02 216.507   5
  -2 -16   6 1704.68 168.183   9
  -2  16   6 1693.59 244.304   8
  -2  16   7 13840.7 664.369   1
  -2 -16   7 14229.9 599.484   5
  -2  16   7 13343.0 673.743   8
  -2 -16   7 14519.2 498.302   9
  -2  16   8 2639.40 284.000   1
  -2 -16   8 2239.12 239.355   5
  -2 -16   8 2089.53 176.417   9
  -2  16   8 2139.89 278.026   8
  -2  16   9 327.140 142.761   1
  -2 -16   9 412.361 133.312   5
  -2 -16   9 475.517 95.1793   9
  -2  16   9 317.633 169.788   8
  -2  16  10 2515.05 291.835   1
  -2 -16  10 2436.13 250.049   5
  -2  16  10 2693.36 345.404   8
  -2  16  11 7836.33 495.620   1
  -2 -16  11 7720.79 453.448   5
  -2  16  11 8208.16 568.208   8
  -2 -16  12 2910.65 280.596   5
  -2  16  12 3276.30 389.023   8
  -2 -16  13 2036.39 244.468   5
  -2  16  13 2030.66 330.562   8
  -2 -18 -11 403.191 120.269   6
  -2 -18 -10 3163.59 284.903   6
  -2 -18  -9 10646.0 525.139   6
  -2  18  -9 10947.3 563.523  10
  -2 -18  -9 10615.9 623.274  11
  -2 -18  -9 11595.7 564.614   9
  -2 -18  -8 73.8076 105.956   5
  -2 -18  -8 80.5040 81.4249   6
  -2 -18  -8 16.5814 107.936  11
  -2 -18  -8 239.925 120.239   9
  -2  18  -8 83.7238 74.9270  10
  -2 -18  -7 6011.08 388.424   6
  -2 -18  -7 6079.72 427.681   5
  -2 -18  -7 5845.01 443.379  11
  -2  18  -7 5999.32 395.928  10
  -2 -18  -7 5691.29 394.130   9
  -2 -18  -6 17851.0 738.713   5
  -2 -18  -6 17553.2 772.564  11
  -2  18  -6 16724.9 675.279  10
  -2 -18  -6 17170.8 682.493   9
  -2 -18  -5 4700.65 361.807   5
  -2  18  -5 3594.05 297.417  10
  -2 -18  -5 3778.37 341.997  11
  -2 -18  -5 3723.00 304.097   9
  -2 -18  -4 8344.57 483.854   5
  -2 -18  -4 8091.91 490.224  11
  -2  18  -4 8336.17 451.625  10
  -2 -18  -4 8294.86 447.406   9
  -2 -18  -3 3923.54 328.751   5
  -2 -18  -3 4488.42 353.628  11
  -2  18  -3 4285.53 315.185  10
  -2 -18  -3 3828.12 303.679   9
  -2 -18  -2 881.975 168.090   5
  -2 -18  -2 621.459 153.482  11
  -2 -18  -2 735.195 151.748   9
  -2  18  -2 757.964 140.521  10
  -2 -18  -1 6395.93 414.733   5
  -2  18  -1 6715.03 458.863   1
  -2 -18  -1 5851.02 381.924  11
  -2  18  -1 6156.71 375.760  10
  -2 -18  -1 5813.66 354.247   9
  -2 -18   0 12763.2 587.010   5
  -2  18   0 13672.0 666.324   1
  -2 -18   0 11534.9 545.874  11
  -2  18   0 14393.3 586.980  10
  -2 -18   0 13098.5 545.388   9
  -2 -18   1 409.299 146.358   5
  -2  18   1 745.699 174.695   1
  -2 -18   1 612.604 130.155  11
  -2 -18   1 718.949 141.881   9
  -2  18   1 573.609 129.809  10
  -2 -18   2 8182.07 462.355   5
  -2  18   2 8837.77 524.172   1
  -2 -18   2 8200.18 422.230  11
  -2  18   2 8201.44 432.176  10
  -2  18   2 9170.92 537.816   8
  -2 -18   2 7879.74 403.567   9
  -2 -18   3 10569.6 527.262   5
  -2  18   3 10883.9 595.572   1
  -2 -18   3 10055.0 453.906  11
  -2  18   3 11331.9 601.111   8
  -2 -18   3 10100.1 456.667   9
  -2  18   3 9769.58 476.687  10
  -2  18   4 1287.82 215.491   1
  -2 -18   4 1518.53 219.886   5
  -2 -18   4 1053.99 150.684   9
  -2  18   4 1162.01 230.040   8
  -2  18   4 1200.32 166.053  10
  -2  18   5 744.814 172.890   1
  -2 -18   5 817.200 158.029   5
  -2  18   5 912.332 208.891   8
  -2  18   5 1029.95 159.278  10
  -2 -18   5 625.698 123.397   9
  -2  18   6 8699.53 567.861   1
  -2 -18   6 9503.48 503.037   5
  -2  18   6 9382.76 470.461  10
  -2 -18   6 9408.74 419.968   9
  -2  18   6 8752.97 555.992   8
  -2  18   7 21930.9 897.341   1
  -2 -18   7 22335.3 816.539   5
  -2  18   7 22385.3 933.650   8
  -2 -18   7 22573.5 679.617   9
  -2  18   8 255.723 137.098   1
  -2 -18   8 307.422 135.234   5
  -2  18   8 134.794 133.083   8
  -2  18   9 442.153 149.968   1
  -2 -18   9 144.695 100.545   5
  -2  18   9 370.586 158.318   8
  -2  18  10 9087.87 552.967   1
  -2 -18  10 9202.19 513.502   5
  -2  18  10 9540.91 628.202   8
  -2 -18  11 1658.34 232.894   5
  -2 -20  -7 5513.83 442.211  11
  -2  20  -7 5663.60 402.754  10
  -2 -20  -6 760.309 179.503  11
  -2  20  -6 690.898 136.987  10
  -2 -20  -5 853.178 182.937   5
  -2 -20  -5 610.709 166.153  11
  -2  20  -5 531.805 128.335  10
  -2 -20  -5 891.568 189.831   9
  -2 -20  -4 109.686 102.537   5
  -2 -20  -4 44.1407 97.6395  11
  -2 -20  -4 65.6384 103.139   9
  -2  20  -4 48.6623 84.2001  10
  -2 -20  -3 2362.41 277.922   5
  -2 -20  -3 2027.93 254.869  11
  -2 -20  -3 2410.89 260.917   9
  -2  20  -3 2156.95 235.457  10
  -2 -20  -2 176.948 121.214   5
  -2  20  -2 122.744 108.766   1
  -2 -20  -2-67.5610 94.0141  11
  -2 -20  -2 82.2483 96.1149   9
  -2  20  -2 250.976 101.847  10
  -2 -20  -1 1309.38 211.009   5
  -2  20  -1 1390.63 264.480   1
  -2 -20  -1 1314.53 191.852  11
  -2  20  -1 1205.10 182.109  10
  -2 -20  -1 1084.57 175.664   9
  -2 -20   0 10598.6 560.786   5
  -2  20   0 11037.3 628.378   1
  -2  20   0 10746.2 518.672  10
  -2 -20   0 10577.1 522.191  11
  -2 -20   0 10953.7 519.436   9
  -2 -20   1 7416.31 462.757   5
  -2  20   1 7155.38 501.762   1
  -2 -20   1 6255.42 390.563  11
  -2  20   1 6537.87 399.812  10
  -2  20   1 6614.03 470.247   8
  -2 -20   1 6835.79 394.952   9
  -2  20   2 1242.03 227.510   1
  -2 -20   2 1120.36 194.869   5
  -2 -20   2 1236.91 178.638   9
  -2  20   2 1047.10 214.990   8
  -2  20   2 1242.34 174.404  10
  -2  20   3 2495.46 310.995   1
  -2 -20   3 2230.40 254.766   5
  -2 -20   3 2028.80 216.973   9
  -2  20   3 2265.81 232.700  10
  -2  20   3 2257.24 300.764   8
  -2  20   4 907.476 207.423   1
  -2 -20   4 953.681 179.910   5
  -2 -20   4 739.499 138.564   9
  -2  20   4 1084.72 220.567   8
  -2  20   4 910.337 155.115  10
  -2  20   5 1522.60 249.727   1
  -2 -20   5 1463.69 220.703   5
  -2 -20   5 1456.78 180.139   9
  -2  20   5 1504.80 254.478   8
  -2  20   5 1198.38 175.018  10
  -2  20   6 7901.22 540.479   1
  -2 -20   6 8332.83 502.460   5
  -2  20   6 7513.79 427.581  10
  -2 -20   6 8244.05 411.682   9
  -2  20   6 8806.36 587.592   8
  -2 -20   7 1481.81 225.895   5
  -2  20   7 1312.90 185.213  10
  -2 -22  -4 4168.50 379.820  11
  -2  22  -3 7710.88 464.198  10
  -2 -22  -3 6965.92 472.506  11
  -2  22  -2 3946.77 326.448  10
  -2 -22  -2 3751.80 345.601  11
  -2  22  -1 9087.90 494.145  10
  -2 -22  -1 9352.67 526.427  11
  -2  22   0 5770.51 383.051  10
  -2  22   1 4463.15 340.982  10
  -2 -22   1 4394.08 339.471   9
  -2  22   2 5135.47 369.295  10
  -2 -22   2 5126.81 363.659   9
  -2 -22   3 4138.34 320.425   9
  -2  22   3 4490.39 345.568  10
  -2 -22   4 195.998 122.091   9
  -2 -22   5 1590.29 210.278   9
  -1  -1 -21 3137.34 292.847  10
  -1   1 -21 2588.72 271.986  10
  -1   1 -20 3742.62 315.176  10
  -1  -1 -20 3915.28 312.284  10
  -1  -1 -20 4459.00 325.347   6
  -1   1 -20 3865.01 306.426   6
  -1  -1 -19 1912.79 212.302   6
  -1   1 -19 2060.92 234.738  10
  -1  -1 -19 1993.88 222.883  10
  -1   1 -19 2169.47 225.190   6
  -1  -1 -18 4394.90 308.394  10
  -1   1 -18 3907.40 299.518  10
  -1  -1 -18 3854.49 286.500  11
  -1   1 -18 4192.88 296.945   6
  -1  -1 -18 4293.54 298.582   6
  -1  -1 -17 20291.8 679.144  11
  -1   1 -17 20883.0 692.117  10
  -1  -1 -17 20216.7 663.996  10
  -1   1 -17 21242.7 650.563  11
  -1  -1 -17 20344.9 682.519   6
  -1   1 -17 21119.5 690.198   6
  -1  -1 -16 16349.8 589.853  11
  -1  -1 -16 18162.9 595.336  10
  -1   1 -16 16885.3 564.198  11
  -1   1 -16 17124.9 599.413  10
  -1   1 -16 18553.7 609.998   6
  -1  -1 -16 18000.2 601.976   6
  -1   1 -15 2019.11 186.413  10
  -1   1 -15 1801.65 177.477  11
  -1  -1 -15 1889.67 189.979  11
  -1   1 -15 1995.84 183.896   6
  -1  -1 -15 1886.12 179.421  10
  -1  -1 -15 2010.19 131.809   9
  -1  -1 -15 1959.64 183.635   6
  -1   1 -14 5649.64 300.200  10
  -1  -1 -14 6358.03 333.292  11
  -1   1 -14 5777.83 302.910  11
  -1  -1 -14 5738.87 289.861  10
  -1  -1 -14 5652.28 299.470   6
  -1  -1 -14 5865.96 226.347   9
  -1   1 -14 5440.63 295.413   6
  -1   1 -14 5884.24 193.882   9
  -1  -1 -13 1448.06 146.220   6
  -1   1 -13 1314.21 142.893  11
  -1   1 -13 1571.07 71.4007  12
  -1  -1 -13 1555.01 168.440  11
  -1  -1 -13 1484.85 147.084  10
  -1   1 -13 1496.40 94.5156   9
  -1   1 -13 1462.60 147.839   6
  -1  -1 -13 1485.37 109.857   9
  -1   1 -13 1383.59 146.636  10
  -1  -1 -12 65370.1 1298.65  10
  -1   1 -12 67405.7 1085.82  12
  -1  -1 -12 66834.5 1378.44  11
  -1   1 -12 64463.3 1327.54  11
  -1   1 -12 66669.4 1330.06  10
  -1  -1 -12 69968.8 1343.25   6
  -1  -1 -12 66671.0 1187.93   9
  -1   1 -12 67517.8 1139.99   9
  -1   1 -12 68196.1 1332.84   6
  -1  -1 -11 19926.9 532.200  10
  -1  -1 -11 20077.9 594.755  11
  -1   1 -11 19954.9 565.125  11
  -1   1 -11 20136.5 558.457  10
  -1   1 -11 20121.2 388.870  12
  -1  -1 -11 19951.9 554.910   6
  -1  -1 -11 20982.4 469.770   9
  -1   1 -11 20449.2 431.313   9
  -1   1 -11 20378.2 553.487   6
  -1  -1 -10 40047.5 911.577  11
  -1  -1 -10 38615.0 824.171  10
  -1   1 -10 40145.4 875.361  11
  -1   1 -10 38883.4 679.621  12
  -1   1 -10 39293.5 856.808  10
  -1  -1 -10 40920.9 860.754   6
  -1   1 -10 39951.8 722.989   9
  -1  -1 -10 39350.5 757.787   9
  -1   1 -10 39874.3 850.504   6
  -1  -1  -9 2174.32 136.646   4
  -1   1  -9 2095.54 127.494   4
  -1  -1  -9 2136.83 169.078  11
  -1   1  -9 2048.87 155.091  11
  -1  -1  -9 2083.27 137.685  10
  -1   1  -9 2198.75 91.4408  12
  -1   1  -9 2058.86 144.924  10
  -1   1  -9 2207.72 145.150   6
  -1  -1  -9 2234.13 148.748   6
  -1   1  -9 2252.67 108.327   9
  -1  -1  -9 2276.84 123.675   9
  -1  -1  -8 30285.6 632.906   4
  -1   1  -8 28971.9 610.890   4
  -1  -1  -8 29459.6 712.925  11
  -1   1  -8 29954.3 541.082  12
  -1  -1  -8 29806.2 635.309  10
  -1   1  -8 30438.5 690.731  11
  -1   1  -8 29598.5 662.146  10
  -1  -1  -8 30109.4 659.963   6
  -1   1  -8 31331.1 656.279   6
  -1  -1  -8 29361.3 599.485   9
  -1   1  -8 30699.1 576.834   9
  -1   1  -7 38565.7 722.564   4
  -1  -1  -7 37428.8 745.421   4
  -1  -1  -7 37793.0 750.328  10
  -1   1  -7 36612.8 666.922  12
  -1   1  -7 38151.9 806.900  11
  -1  -1  -7 39139.9 839.690  11
  -1   1  -7 41005.2 786.123  10
  -1   1  -7 38836.7 702.373   9
  -1   1  -7 39228.0 763.994   6
  -1  -1  -7 39170.8 729.013   9
  -1   1  -6 3569.96 144.157   4
  -1  -1  -6 3765.54 160.272   4
  -1  -1  -6 4131.62 168.632  10
  -1   1  -6 3786.52 131.930  12
  -1  -1  -6 4240.94 225.207  11
  -1   1  -6 4131.48 181.081  10
  -1   1  -6 3834.64 193.374  11
  -1  -1  -6 3818.01 162.169   9
  -1   1  -6 3995.16 168.174   6
  -1   1  -5 17225.1 366.182   4
  -1  -1  -5 16966.5 399.759   6
  -1  -1  -5 17362.4 391.465   4
  -1  -1  -5 17744.4 460.943  11
  -1   1  -5 16844.8 356.493  12
  -1  -1  -5 17446.3 386.804  10
  -1   1  -5 18134.0 414.531  10
  -1   1  -5 17951.6 439.598  11
  -1  -1  -5 17803.1 396.367   9
  -1   1  -5 17386.0 390.522   6
  -1  -1  -4 3707.52 146.497   6
  -1  -1  -4 3422.56 137.909   5
  -1   1  -4 3466.16 136.306   6
  -1   1  -4 3536.30 123.814   4
  -1   1  -4 3186.97 160.632  11
  -1  -1  -4 3520.35 178.680  11
  -1   1  -4 3788.52 136.471  12
  -1  -1  -4 3526.68 140.111  10
  -1   1  -4 3782.45 116.808   7
  -1   1  -4 3870.16 159.245  10
  -1   1  -3 8892.09 220.732   6
  -1  -1  -3 8919.89 237.849   6
  -1   1  -3 8777.23 186.551   5
  -1  -1  -3 9020.46 224.762   5
  -1   1  -3 8842.83 227.299   2
  -1   1  -3 8929.22 271.413  11
  -1  -1  -3 8821.39 283.064  11
  -1   1  -3 8819.35 234.767  12
  -1   1  -3 9074.73 255.925  10
  -1   1  -3 9022.91 194.885   7
  -1  -1  -3 8883.64 230.368  10
  -1   1  -2 160199. 2402.82   5
  -1   1  -2 160597. 2444.47   6
  -1  -1  -2 159048. 2471.59   6
  -1  -1  -2 160415. 2553.11  11
  -1   1  -2 152801. 2488.92  12
  -1   1  -2 158370. 2451.12   2
  -1   1  -1 91787.9 1435.71   5
  -1   1  -1 94123.6 1467.75   6
  -1  -1  -1 92850.3 1495.50   6
  -1  -1  -1 96911.9 1482.98   5
  -1  -1  -1 94103.8 1566.83  11
  -1   1  -1 92101.2 1467.29   2
  -1  -1  -1 91814.1 1478.96   2
  -1   1   0 136678. 2088.31   3
  -1  -1   0 134809. 2113.50   2
  -1  -1   0 134642. 2051.77   1
  -1   1   0 137241. 2091.05   2
  -1  -1   0 138827. 2118.16   5
  -1   1   0 137382. 2086.77   5
  -1  -1   0 133594. 2135.10   6
  -1  -1   1 99904.6 1577.37   2
  -1   1   1 99156.8 1536.28   3
  -1  -1   1 98744.5 1517.31   1
  -1   1   1 98339.1 1579.77   1
  -1   1   1 97346.2 1547.35   2
  -1   1   1 100440. 1567.07   5
  -1  -1   1 100619. 1581.91   5
  -1   1   2 43769.2 776.640   1
  -1   1   2 43822.7 744.448   2
  -1  -1   2 43118.3 775.490   2
  -1   1   2 44183.6 722.015   3
  -1  -1   2 45079.4 781.290   5
  -1   1   3 1146.69 70.2804   4
  -1  -1   3 1224.39 85.6077   5
  -1   1   3 1178.59 82.9043   1
  -1   1   3 1168.37 61.4666   3
  -1  -1   3 1188.94 87.1953  10
  -1   1   3 1042.92 74.5903   8
  -1  -1   3 1166.21 59.5399   8
  -1   1   4 21124.9 428.112   4
  -1  -1   4 21102.6 463.931   5
  -1  -1   4 20463.6 400.910   8
  -1   1   4 20395.3 440.759   8
  -1   1   5 12891.6 313.120   4
  -1  -1   5 11823.8 333.588   5
  -1   1   5 12449.7 330.898   8
  -1  -1   6 41728.4 782.572   4
  -1   1   6 42527.6 778.034   4
  -1  -1   6 40106.6 810.096   5
  -1   1   6 40461.9 824.207  11
  -1   1   6 39802.1 806.685   8
  -1  -1   7 57827.4 1054.35   4
  -1   1   7 57849.9 1049.29   4
  -1  -1   7 57821.0 1058.06  11
  -1   1   7 57305.0 1097.06  11
  -1   1   7 57343.2 1093.53   8
  -1  -1   8 11972.0 344.625   4
  -1   1   8 11595.2 339.919   4
  -1  -1   8 10978.5 335.209  11
  -1   1   8 10230.3 349.426  11
  -1  -1   9 6451.23 254.904   4
  -1   1   9 6784.26 256.382   4
  -1  -1   9 6116.63 245.853  11
  -1   1   9 6273.00 233.855   9
  -1  -1  10 32488.3 723.064   4
  -1   1  10 33725.9 725.699   4
  -1  -1  10 30519.2 705.123  11
  -1  -1  10 30778.5 639.618   9
  -1   1  10 33010.1 679.237   9
  -1  -1  11 24827.5 614.849   4
  -1   1  11 23545.0 599.653   4
  -1   1  11 22739.6 622.935  11
  -1  -1  11 23462.5 517.221   9
  -1   1  11 23384.2 543.300   9
  -1  -1  12 34108.2 798.327   4
  -1   1  12 34429.1 794.374   4
  -1  -1  12 32926.8 669.882   9
  -1  -1  13 6340.10 296.579   4
  -1   1  13 6811.99 309.669   4
  -1  -1  13 6513.65 296.329  11
  -1  -1  13 6278.02 221.761   9
  -1  -1  14 8575.28 362.821   4
  -1   1  14 8150.74 354.522   4
  -1  -1  14 7993.75 341.016  11
  -1  -1  14 8007.91 253.385   9
  -1  -1  15 1498.31 163.033   4
  -1   1  15 1514.11 163.891   4
  -1  -1  16 4965.47 298.107   4
  -1  -1  16 5387.76 329.127   5
  -1   1  16 5287.04 305.921   4
  -1  -1  17 18429.4 626.296   4
  -1   1  17 17889.0 623.844   4
  -1  -1  17 17793.0 649.230   5
  -1  -1  18 1511.19 180.675   4
  -1   1  18 1632.75 189.618   4
  -1  -1  18 1337.83 178.097   5
  -1  -1  19 4561.64 322.900   4
  -1   1  19 4868.55 332.669   4
  -1  -1  19 5119.15 355.111   5
  -1  -1  20 6781.50 404.618   4
  -1   1  20 6596.78 400.900   4
  -1  -1  20 6876.74 430.999   5
  -1  -1  21 1927.13 242.609   5
  -1  -3 -21 1806.69 219.512  10
  -1  -3 -20 4281.41 307.142  10
  -1   3 -20 4195.54 353.522  10
  -1   3 -20 4060.10 316.908   6
  -1  -3 -20 4150.96 321.334   6
  -1  -3 -19 4117.24 294.157  10
  -1  -3 -19 4548.75 335.624  11
  -1   3 -19 4105.82 330.575  10
  -1   3 -19 4115.81 302.971   6
  -1  -3 -19 4026.23 312.005   6
  -1  -3 -18 1875.48 219.523  11
  -1   3 -18 1983.98 208.091   6
  -1  -3 -18 2185.70 210.980  10
  -1   3 -18 1807.81 223.608  10
  -1  -3 -18 2024.96 213.422   6
  -1   3 -17 616.106 119.521   6
  -1  -3 -17 855.947 139.221   6
  -1  -3 -17 722.091 140.424  11
  -1   3 -17 608.043 135.876  10
  -1  -3 -17 660.511 132.604  10
  -1  -3 -16 7135.35 393.691  11
  -1  -3 -16 6909.26 342.428  10
  -1   3 -16 7621.29 328.238  11
  -1   3 -16 7605.45 391.686  10
  -1  -3 -16 7801.05 305.477   9
  -1  -3 -16 7598.44 383.381   6
  -1   3 -16 7789.37 379.426   6
  -1   3 -15 4895.37 301.143  10
  -1  -3 -15 4979.46 316.222  11
  -1  -3 -15 5135.37 279.733  10
  -1   3 -15 4619.36 252.151  11
  -1  -3 -15 4476.48 223.904   9
  -1  -3 -15 5137.79 296.950   6
  -1   3 -15 4906.89 286.839   6
  -1   3 -14 2634.60 186.407  11
  -1   3 -14 2376.96 202.194  10
  -1  -3 -14 2489.81 191.823  10
  -1  -3 -14 3347.01 271.230  11
  -1  -3 -14 2371.27 195.538   6
  -1   3 -14 2357.71 194.097   6
  -1  -3 -14 2393.14 160.512   9
  -1  -3 -13 29186.1 813.873  11
  -1   3 -13 27961.7 693.156  11
  -1   3 -13 29104.9 768.981  10
  -1   3 -13 28388.6 565.203  12
  -1  -3 -13 28061.5 692.658  10
  -1   3 -13 28265.6 726.212   6
  -1  -3 -13 29110.7 749.487   6
  -1  -3 -13 28923.9 649.962   9
  -1   3 -13 27054.5 486.655   9
  -1  -3 -12 23354.5 700.137  11
  -1   3 -12 24582.4 612.180  11
  -1   3 -12 24047.9 494.393  12
  -1   3 -12 23779.0 663.720  10
  -1  -3 -12 23845.7 594.473  10
  -1  -3 -12 25209.3 659.372   6
  -1   3 -12 23579.4 436.243   9
  -1  -3 -12 21955.0 550.605   9
  -1   3 -12 22756.7 619.981   6
  -1   3 -11 970.444 110.061   6
  -1  -3 -11 1035.75 118.400   6
  -1   3 -11 758.182 68.4245  12
  -1  -3 -11 743.201 119.607  11
  -1   3 -11 886.483 106.363  11
  -1  -3 -11 937.628 97.9111   9
  -1  -3 -11 976.756 101.754  10
  -1   3 -11 734.439 54.0678   9
  -1   3 -11 876.253 114.996  10
  -1   3 -10 6340.86 232.484   4
  -1  -3 -10 6347.70 316.069  11
  -1  -3 -10 6373.52 242.785  10
  -1   3 -10 6693.66 266.095  11
  -1   3 -10 6050.18 199.414  12
  -1   3 -10 6237.51 285.196  10
  -1  -3 -10 6618.10 279.738   6
  -1   3 -10 6307.88 262.359   6
  -1   3 -10 6267.53 173.526   9
  -1  -3 -10 6496.71 242.909   9
  -1   3  -9 863.829 94.4018   6
  -1   3  -9 707.024 75.2518   4
  -1  -3  -9 1137.15 137.824  11
  -1   3  -9 926.410 106.563  11
  -1   3  -9 893.493 72.0004  12
  -1   3  -9 1047.24 122.996  10
  -1  -3  -9 1171.30 102.000  10
  -1  -3  -9 973.313 107.261   6
  -1  -3  -9 1004.42 95.7777   9
  -1   3  -9 899.512 64.0919   9
  -1   3  -8 1095.19 82.4193   4
  -1  -3  -8 915.615 91.4366   4
  -1  -3  -8 1146.59 94.2511   2
  -1  -3  -8 1101.23 85.0420  10
  -1  -3  -8 1445.88 144.791  11
  -1   3  -8 1214.66 83.0743  12
  -1   3  -8 1204.70 104.641  11
  -1   3  -8 1168.48 111.494  10
  -1   3  -8 1216.46 73.0875   9
  -1   3  -8 1105.04 96.3351   6
  -1  -3  -8 1221.12 100.288   9
  -1  -3  -8 1086.20 64.8656   7
  -1   3  -7 32952.5 618.406   4
  -1  -3  -7 32404.8 684.946   4
  -1  -3  -7 32742.8 773.402  11
  -1  -3  -7 32994.8 631.899  10
  -1   3  -7 33735.7 717.154  10
  -1   3  -7 33002.1 694.519  11
  -1   3  -7 31607.9 618.425  12
  -1  -3  -7 32183.2 562.940   7
  -1   3  -7 32372.8 662.412   6
  -1  -3  -7 33516.0 671.942   9
  -1   3  -6 215242. 3369.66   4
  -1  -3  -6 222035. 3464.22   4
  -1  -3  -6 215191. 3578.66  11
  -1   3  -6 220200. 3403.45  12
  -1  -3  -6 222534. 3383.65  10
  -1   3  -6 220720. 3470.42  11
  -1   3  -6 239014. 3532.96  10
  -1  -3  -6 217125. 3310.17   7
  -1   3  -6 219864. 3424.30   6
  -1  -3  -6 221106. 3448.70   9
  -1  -3  -5 3348.02 158.589   5
  -1   3  -5 3020.80 108.953   4
  -1   3  -5 3144.59 154.822  11
  -1   3  -5 3134.54 161.399  10
  -1   3  -5 3193.23 135.537  12
  -1  -3  -5 3477.93 198.182  11
  -1  -3  -5 3111.14 118.443  10
  -1   3  -5 3071.20 131.932   6
  -1   3  -5 3528.51 158.660   7
  -1  -3  -5 3210.23 153.057   9
  -1  -3  -4 76071.3 1292.98   5
  -1   3  -4 75415.3 1187.96   4
  -1   3  -4 75811.1 1254.42   2
  -1  -3  -4 73759.7 1372.45  11
  -1   3  -4 73969.1 1264.25  12
  -1  -3  -4 74035.4 1202.17  10
  -1   3  -4 75705.4 1300.03  11
  -1  -3  -4 74059.8 1287.24   9
  -1   3  -4 81881.2 1287.05   7
  -1   3  -4 73909.7 1230.18   6
  -1   3  -4 74532.5 1316.78  10
  -1   3  -3 6135.38 163.704   6
  -1  -3  -3 6846.47 210.982   5
  -1   3  -3 5871.57 134.635   4
  -1   3  -3 5756.16 176.500   2
  -1  -3  -3 5629.80 235.570  11
  -1   3  -3 5542.13 193.260  12
  -1  -3  -3 5949.64 206.575   9
  -1   3  -3 5724.39 186.516   7
  -1  -3  -3 5846.45 151.485  10
  -1   3  -3 6071.28 216.409  10
  -1  -3  -2 128022. 1996.47   5
  -1   3  -2 123436. 1906.96   6
  -1   3  -2 128025. 1942.56   2
  -1  -3  -2 122740. 1895.26   1
  -1   3  -2 124533. 2009.19  12
  -1  -3  -2 123194. 2069.21  11
  -1   3  -2 121141. 2017.66  10
  -1  -3  -2 121994. 2007.54   9
  -1   3  -2 125237. 1973.53   7
  -1  -3  -1 128877. 2041.62   5
  -1   3  -1 126325. 1948.29   6
  -1   3  -1 130992. 1929.08   5
  -1   3  -1 129065. 2021.37   3
  -1   3  -1 124027. 1972.25   2
  -1  -3  -1 128731. 2102.11  11
  -1   3  -1 126987. 2065.21  12
  -1   3  -1 125366. 2025.77   7
  -1  -3   0 299967. 4601.00   5
  -1   3   0 306247. 4516.62   2
  -1   3   0 298338. 4574.21   3
  -1  -3   0 300946. 4649.65  11
  -1   3   0 294798. 4645.24  12
  -1  -3   1 163438. 2521.28   5
  -1   3   1 160808. 2540.09   1
  -1   3   1 162577. 2486.67   3
  -1   3   1 161724. 2421.08   2
  -1  -3   1 165422. 2555.30  11
  -1  -3   1 161999. 2468.96  10
  -1  -3   1 153901. 2410.70   8
  -1   3   2 152956. 2353.53   4
  -1  -3   2 155677. 2438.76   5
  -1  -3   2 151888. 2408.01  10
  -1  -3   2 157439. 2457.50  11
  -1   3   2 152675. 2338.69   2
  -1   3   2 153645. 2399.62   3
  -1   3   2 161456. 2477.86   1
  -1  -3   3 13270.2 331.324   5
  -1   3   3 13164.3 280.862   4
  -1   3   3 13010.2 348.572   1
  -1   3   3 13203.0 301.238   3
  -1  -3   3 12114.5 314.475  10
  -1   3   4 493.212 68.4281   4
  -1  -3   4 375.072 71.3127   5
  -1  -3   4 327.117 30.3924   3
  -1   3   4 628.579 111.267   1
  -1   3   4 254.979 54.2909   3
  -1  -3   4 950.069 114.035  10
  -1   3   4 386.850 110.653   8
  -1  -3   5 6459.17 231.691   5
  -1   3   5 6731.64 205.981   4
  -1   3   5 6492.83 244.955   1
  -1  -3   5 6354.77 230.356  10
  -1   3   5 6621.08 248.278   8
  -1  -3   6 228619. 3635.12   5
  -1   3   6 236127. 3575.56   4
  -1   3   6 230273. 3683.90  11
  -1   3   6 221480. 3664.21   8
  -1   3   7 35985.3 716.504   4
  -1  -3   7 36982.2 772.448   5
  -1   3   7 35132.0 751.627  10
  -1   3   7 35716.6 743.436   9
  -1   3   8 2059.32 132.947   4
  -1  -3   8 1713.10 140.014   5
  -1  -3   8 2020.62 117.820  11
  -1   3   8 2039.54 145.372  10
  -1  -3   9 15824.5 443.156   4
  -1   3   9 16504.3 437.366   4
  -1  -3   9 15698.8 468.965   5
  -1  -3   9 15569.9 397.211  11
  -1   3   9 15579.5 488.762  11
  -1  -3  10 10955.9 362.135   4
  -1  -3  10 11091.6 389.003   5
  -1   3  10 10877.2 357.309   4
  -1  -3  10 10548.8 319.703  11
  -1  -3  11 5404.27 252.524   4
  -1   3  11 5278.08 250.084   4
  -1  -3  11 5397.68 271.879   5
  -1  -3  11 5041.01 215.090  11
  -1   3  11 5265.81 229.108   9
  -1  -3  11 4965.21 177.953   9
  -1  -3  12 22563.5 604.177   4
  -1   3  12 22446.2 600.971   4
  -1  -3  12 22105.3 634.482   5
  -1  -3  12 22297.0 550.636  11
  -1   3  12 22686.9 560.447   9
  -1  -3  12 21738.0 460.065   9
  -1  -3  13 56985.8 1187.54   4
  -1   3  13 57513.3 1185.63   4
  -1  -3  13 57513.5 1237.20   5
  -1  -3  13 56393.7 1112.67  11
  -1  -3  13 56803.1 977.505   9
  -1  -3  14 16867.9 539.927   4
  -1   3  14 16989.3 543.281   4
  -1  -3  14 17164.3 576.921   5
  -1  -3  15 3485.46 252.563   5
  -1   3  15 3565.31 244.340   4
  -1  -3  15 3510.23 240.342   4
  -1  -3  16 14358.1 529.583   4
  -1   3  16 15177.4 539.727   4
  -1  -3  16 14229.3 561.296   5
  -1   3  17 436.249 107.448   4
  -1  -3  17 622.624 119.879   4
  -1  -3  17 705.455 136.868   5
  -1  -3  18 11794.0 531.551   5
  -1  -3  18 10990.0 487.365   4
  -1   3  18 11633.9 502.243   4
  -1  -3  19 3027.61 261.468   4
  -1   3  19 2690.37 248.031   4
  -1  -3  19 3186.76 281.080   5
  -1   3  20 5772.33 382.033   4
  -1  -3  20 5728.64 390.737   5
  -1  -3  21 1366.14 222.812   5
  -1   5 -20 1588.53 203.100   6
  -1  -5 -20 1476.79 222.439  11
  -1   5 -20 1578.01 233.889  10
  -1   5 -19 3168.97 303.379  10
  -1  -5 -19 3020.66 286.429  11
  -1  -5 -19 3528.46 288.201   6
  -1   5 -19 2898.34 262.229   6
  -1  -5 -18 4227.92 270.043  10
  -1  -5 -18 4180.96 329.103  11
  -1   5 -18 4052.23 320.466  10
  -1  -5 -18 4192.15 306.692   6
  -1   5 -18 4179.12 298.981   6
  -1   5 -17 5772.96 374.296  10
  -1  -5 -17 5680.76 375.451  11
  -1  -5 -17 6411.37 317.543  10
  -1   5 -17 6204.72 347.110   6
  -1  -5 -17 6461.56 368.395   6
  -1   5 -16 12652.3 535.181  10
  -1  -5 -16 12839.3 447.761  10
  -1  -5 -16 11596.5 538.173  11
  -1   5 -16 12316.9 486.097   6
  -1  -5 -16 12444.8 503.715   6
  -1  -5 -16 12927.9 438.786   9
  -1  -5 -15 3512.73 280.776  11
  -1   5 -15 3716.80 271.878  10
  -1  -5 -15 3398.57 215.844  10
  -1  -5 -15 3473.94 246.189   6
  -1  -5 -15 3256.92 206.864   9
  -1   5 -15 3541.66 239.467   6
  -1  -5 -15 3146.20 184.073   7
  -1   5 -14 8737.06 312.908  11
  -1  -5 -14 8762.16 437.507  11
  -1   5 -14 8274.37 397.508  10
  -1  -5 -14 9098.58 346.691  10
  -1  -5 -14 8620.48 337.244   9
  -1  -5 -14 8943.42 390.606   6
  -1   5 -14 9013.33 374.951   6
  -1  -5 -14 8999.05 307.432   7
  -1  -5 -13 4066.53 288.591  11
  -1   5 -13 4165.95 267.684  10
  -1  -5 -13 4277.13 221.853  10
  -1   5 -13 4333.49 206.395  11
  -1  -5 -13 4107.82 194.915   7
  -1   5 -13 4424.85 247.135   6
  -1  -5 -13 4352.65 230.435   9
  -1  -5 -13 4061.70 251.009   6
  -1  -5 -12 13005.7 515.625  11
  -1   5 -12 11707.4 363.446  11
  -1  -5 -12 12135.6 372.257  10
  -1   5 -12 12266.8 460.737  10
  -1  -5 -12 11876.2 338.466   7
  -1   5 -12 11518.4 407.754   6
  -1  -5 -12 12734.9 402.708   9
  -1  -5 -12 11532.8 426.932   6
  -1  -5 -11 3554.33 215.019   6
  -1   5 -11 3379.98 174.093  11
  -1  -5 -11 3548.00 177.695  10
  -1   5 -11 2836.82 207.841  10
  -1  -5 -11 3310.91 247.932  11
  -1  -5 -11 3367.16 152.259   7
  -1   5 -11 2652.61 74.8185   9
  -1   5 -11 3444.56 195.542   6
  -1  -5 -11 3349.05 190.727   9
  -1  -5 -10 41197.8 900.848   6
  -1   5 -10 39767.2 800.080   4
  -1  -5 -10 40827.5 999.666  11
  -1   5 -10 40765.8 827.359  11
  -1  -5 -10 41240.4 798.396  10
  -1   5 -10 39133.6 793.228  12
  -1   5 -10 41977.0 943.575  10
  -1  -5 -10 41500.3 772.773   7
  -1  -5 -10 42295.1 865.434   9
  -1   5 -10 41248.8 862.373   6
  -1   5 -10 41379.1 677.936   9
  -1  -5  -9 2508.87 165.989   6
  -1   5  -9 2272.60 125.260   4
  -1  -5  -9 1900.21 153.432   1
  -1  -5  -9 2759.29 213.000  11
  -1   5  -9 2404.80 135.422  12
  -1   5  -9 2779.08 191.337  10
  -1  -5  -9 2595.94 133.847  10
  -1   5  -9 2634.15 147.349  11
  -1   5  -9 2669.50 97.9560   9
  -1   5  -9 2423.67 148.009   6
  -1  -5  -9 2537.20 119.703   7
  -1  -5  -9 2556.39 158.302   9
  -1   5  -8 245.763 49.2666   6
  -1  -5  -8 410.420 62.4664   2
  -1   5  -8 319.223 49.8859   4
  -1  -5  -8 344.433 69.8590   1
  -1  -5  -8 707.863 117.448  11
  -1   5  -8 342.909 54.9496  12
  -1   5  -8 331.669 55.2897  11
  -1  -5  -8 356.561 70.4319   9
  -1  -5  -8 505.068 64.4518  10
  -1   5  -8 460.938 84.4442  10
  -1  -5  -8 353.402 47.6873   7
  -1   5  -7 32488.8 594.063   4
  -1   5  -7 32497.7 665.627   2
  -1  -5  -7 31182.2 684.408   1
  -1  -5  -7 31623.3 639.078   2
  -1  -5  -7 32243.1 785.983  11
  -1  -5  -7 31566.1 576.609  10
  -1   5  -7 32715.6 644.085  12
  -1   5  -7 32993.0 727.071  10
  -1   5  -7 33243.7 654.885  11
  -1   5  -7 32983.9 643.276   6
  -1  -5  -7 31514.6 676.160   9
  -1  -5  -7 30371.7 790.925   8
  -1   5  -6 108078. 1689.76   4
  -1  -5  -6 109815. 1802.80   1
  -1   5  -6 106546. 1778.26   2
  -1  -5  -6 113492. 1955.67  11
  -1   5  -6 109186. 1778.43  11
  -1   5  -6 105144. 1770.06  12
  -1  -5  -6 107155. 1671.18  10
  -1   5  -6 112507. 1868.33  10
  -1   5  -6 106465. 1741.80   6
  -1  -5  -6 99720.7 1705.14   7
  -1  -5  -6 104153. 1938.92   8
  -1   5  -6 102262. 1873.50   7
  -1  -5  -6 110426. 1817.79   9
  -1   5  -5 23558.6 431.574   4
  -1  -5  -5 23608.2 560.470   5
  -1  -5  -5 23755.8 521.992   1
  -1   5  -5 24223.7 507.736   2
  -1  -5  -5 23651.8 413.720  10
  -1  -5  -5 23995.2 625.736  11
  -1   5  -5 24365.6 572.516  10
  -1   5  -5 24454.4 524.395  12
  -1   5  -5 23907.1 521.884  11
  -1   5  -5 24244.0 475.741   6
  -1  -5  -5 23139.6 607.394   8
  -1   5  -5 23189.7 568.112   7
  -1  -5  -5 23976.3 542.777   9
  -1  -5  -4 121228. 2060.09   5
  -1   5  -4 125665. 1886.29   4
  -1  -5  -4 117014. 1987.61   1
  -1   5  -4 124166. 1983.52   2
  -1  -5  -4 123931. 1989.76   2
  -1  -5  -4 122387. 2142.41  11
  -1   5  -4 124357. 2029.31  12
  -1  -5  -4 126203. 1866.75  10
  -1   5  -4 118352. 2073.41  10
  -1  -5  -4 117750. 2099.46   8
  -1   5  -4 121788. 1933.95   6
  -1   5  -4 129323. 2072.76   7
  -1  -5  -4 121222. 2040.95   9
  -1   5  -3 28573.3 460.538   4
  -1  -5  -3 31684.1 635.857   5
  -1  -5  -3 26765.6 541.023   1
  -1   5  -3 29328.6 554.433   2
  -1  -5  -3 28841.8 570.206   2
  -1   5  -3 29634.3 611.858  12
  -1  -5  -3 30398.1 683.844  11
  -1   5  -3 30336.1 641.365  10
  -1   5  -3 29243.3 502.924   6
  -1  -5  -3 29033.9 639.359   8
  -1   5  -3 31206.2 635.030   7
  -1  -5  -3 28234.9 609.053   9
  -1   5  -2 51151.7 769.085   5
  -1   5  -2 49347.2 777.625   6
  -1  -5  -2 49612.5 928.646   5
  -1   5  -2 50143.4 836.541   2
  -1  -5  -2 48211.4 876.158   2
  -1   5  -2 49652.7 923.437  12
  -1  -5  -2 49669.7 979.840  11
  -1  -5  -2 50100.0 919.939   9
  -1   5  -2 45425.1 919.770  10
  -1   5  -2 49961.5 929.981   7
  -1  -5  -2 43354.3 901.683   8
  -1  -5  -1 7174.68 242.108   5
  -1   5  -1 6463.94 159.360   5
  -1   5  -1 6931.37 175.618   2
  -1  -5  -1 7732.90 284.585  11
  -1  -5  -1 7496.02 157.384  10
  -1  -5  -1 7421.54 240.396   9
  -1   5  -1 6928.33 237.774   7
  -1  -5  -1 6669.60 215.065   8
  -1  -5   0 36682.9 720.482   5
  -1   5   0 35725.4 636.313   5
  -1   5   0 36543.9 603.634   2
  -1   5   0 36560.1 695.762   3
  -1  -5   0 31094.3 721.744  11
  -1  -5   0 38454.0 621.019  10
  -1  -5   0 36758.7 709.715   9
  -1  -5   0 36268.9 647.086   8
  -1   5   0 36754.6 726.209   7
  -1  -5   1 35534.9 711.594   5
  -1   5   1 36880.0 586.654   4
  -1   5   1 36496.0 691.641   3
  -1   5   1 36645.9 582.553   2
  -1  -5   1 35216.8 638.645  10
  -1  -5   1 34766.5 719.760  11
  -1  -5   1 36386.3 700.410   9
  -1   5   1 36124.7 723.410   7
  -1  -5   2 23356.6 521.420   5
  -1   5   2 23231.9 423.036   4
  -1   5   2 23130.6 494.526   3
  -1   5   2 23176.0 377.621   2
  -1  -5   2 23745.4 512.355  11
  -1  -5   2 23669.7 469.745  10
  -1  -5   2 24113.8 502.267   9
  -1  -5   3 13751.9 364.871   5
  -1   5   3 13310.5 297.182   4
  -1  -5   3 13913.8 267.001   3
  -1   5   3 13646.0 345.168   3
  -1  -5   3 13864.5 349.390  11
  -1  -5   3 14159.5 341.494  10
  -1  -5   3 14121.1 343.775   9
  -1  -5   4 156256. 2442.81   5
  -1   5   4 148461. 2346.06   4
  -1   5   4 151960. 2403.18   3
  -1  -5   4 145474. 2400.09  10
  -1   5   4 143121. 2486.04  12
  -1  -5   4 153475. 2379.97  11
  -1   5   4 147278. 2479.43   8
  -1   5   5 13647.2 329.995   4
  -1  -5   5 13783.4 376.176   5
  -1  -5   5 12946.7 364.206  10
  -1  -5   5 13471.8 329.947  11
  -1  -5   5 13176.0 283.135   3
  -1   5   5 13292.5 356.472   3
  -1  -5   6 177805. 2871.12   5
  -1   5   6 177588. 2807.37   4
  -1   5   6 176046. 2844.34   3
  -1  -5   6 177416. 2737.83   3
  -1  -5   7 7921.38 291.597   5
  -1   5   7 7766.62 264.471   4
  -1  -5   7 8014.98 224.338   3
  -1   5   7 8284.19 339.687  11
  -1  -5   7 7866.07 296.128  10
  -1   5   7 7685.11 280.462  10
  -1  -5   8 7235.88 289.626   5
  -1   5   8 7878.11 274.986   4
  -1  -5   8 7178.68 214.231  11
  -1   5   8 7530.19 282.656  10
  -1   5   8 7337.26 286.510   9
  -1   5   8 7564.07 341.718   8
  -1  -5   9 8397.44 317.915   5
  -1   5   9 8368.42 300.164   4
  -1  -5   9 7574.88 228.051  11
  -1   5   9 7663.73 355.926   8
  -1   5   9 8365.67 310.526   9
  -1  -5  10 22597.8 617.298   5
  -1   5  10 24309.7 593.676   4
  -1  -5  10 23249.6 491.353  11
  -1   5  10 22327.0 690.202   8
  -1  -5  11 6569.48 304.419   5
  -1   5  11 6475.65 284.932   4
  -1  -5  11 6118.53 211.570  11
  -1  -5  12 35685.6 859.638   5
  -1   5  12 35254.5 818.074   4
  -1  -5  12 34627.9 688.470  11
  -1  -5  12 34090.1 614.838   9
  -1   5  13 5482.15 284.175   4
  -1  -5  13 4648.15 272.792   5
  -1  -5  13 4882.02 193.173  11
  -1  -5  13 5031.43 129.929   9
  -1  -5  13 4447.40 130.104   9
  -1  -5  14 8049.16 377.050   5
  -1   5  14 8374.08 366.710   4
  -1  -5  15 83.4103 82.4646   5
  -1   5  15 90.2929 96.6139   4
  -1   5  16 4396.74 285.966   4
  -1  -5  16 3892.35 279.408   5
  -1   5  17 4054.80 284.479   4
  -1  -5  17 4440.18 304.296   5
  -1   5  18 2707.41 245.077   4
  -1  -5  18 2268.88 234.282   5
  -1  -5  19 102.791 99.2916   5
  -1   5  19 247.079 96.8323   4
  -1   5  20 4806.36 347.416   4
  -1  -5  20 4836.42 346.819   5
  -1   7 -20 701.705 136.602   6
  -1  -7 -20 741.028 174.963  11
  -1  -7 -19 2341.25 238.834   6
  -1  -7 -19 1900.55 252.970  11
  -1   7 -19 2002.47 248.850  10
  -1   7 -19 2271.66 231.542   6
  -1   7 -18 451.677 116.517   6
  -1  -7 -18 732.841 141.348   6
  -1  -7 -18 563.298 151.218  11
  -1   7 -18 426.740 119.515  10
  -1  -7 -17 1433.31 177.574   6
  -1   7 -17 1047.10 149.925   6
  -1  -7 -17 1018.24 179.161  11
  -1  -7 -17 1749.20 174.532   9
  -1   7 -17 1002.63 174.489  10
  -1  -7 -16 3172.32 250.412   6
  -1  -7 -16 3120.95 285.059  11
  -1   7 -16 2617.28 247.440  10
  -1  -7 -16 3268.68 230.630   9
  -1   7 -16 2989.72 232.993   6
  -1  -7 -15 5872.76 331.443   6
  -1   7 -15 5827.29 354.456  10
  -1  -7 -15 6034.87 392.525  11
  -1  -7 -15 6036.27 306.695   9
  -1   7 -15 6292.59 320.840   6
  -1  -7 -14 4525.27 282.346   6
  -1  -7 -14 5012.48 338.466  11
  -1   7 -14 4356.52 297.952  10
  -1  -7 -14 4999.92 230.916   7
  -1   7 -14 4555.78 263.990   6
  -1  -7 -14 4987.16 268.899   9
  -1  -7 -13 52213.5 1150.81   6
  -1   7 -13 49999.1 940.424  11
  -1  -7 -13 50359.7 1265.87  11
  -1   7 -13 51994.1 1212.45  10
  -1   7 -13 50838.9 1095.86   6
  -1  -7 -13 51982.2 1016.61   7
  -1  -7 -13 51844.7 1104.70   9
  -1  -7 -12 8566.92 362.570   6
  -1  -7 -12 8019.62 421.334  11
  -1   7 -12 7962.78 255.263  11
  -1   7 -12 8601.35 395.640  10
  -1   7 -12 8093.17 329.650   6
  -1  -7 -12 8386.88 291.988   7
  -1  -7 -12 8438.69 343.936   9
  -1  -7 -11 6444.46 298.619   6
  -1  -7 -11 6385.80 361.807  11
  -1   7 -11 5895.31 213.038  11
  -1   7 -11 6165.83 318.784  10
  -1  -7 -11 6325.36 241.835   7
  -1  -7 -11 6402.77 291.126   9
  -1   7 -11 6041.55 269.392   6
  -1   7 -10 19678.6 465.087   4
  -1  -7 -10 20203.9 557.338   6
  -1   7 -10 19449.6 499.736  12
  -1  -7 -10 19955.5 654.744  11
  -1   7 -10 19949.9 458.322  11
  -1   7 -10 20051.6 604.672  10
  -1   7 -10 20374.4 347.810   9
  -1  -7 -10 20758.0 485.312   7
  -1   7 -10 17980.9 343.784   9
  -1  -7 -10 20838.0 559.236   9
  -1   7 -10 20079.7 518.772   6
  -1  -7  -9 1155.94 119.418   6
  -1   7  -9 1052.67 85.8487   4
  -1   7  -9 1132.35 88.6444  11
  -1   7  -9 1184.81 106.532  12
  -1  -7  -9 1516.05 172.953  11
  -1  -7  -9 1312.08 100.158   7
  -1   7  -9 1129.83 129.853  10
  -1  -7  -9 1435.86 136.814   9
  -1   7  -9 1297.83 110.569   6
  -1   7  -9 1288.82 72.1353   9
  -1  -7  -8 11742.1 374.848   6
  -1   7  -8 11125.2 291.287   4
  -1  -7  -8 11045.2 388.717   1
  -1  -7  -8 11471.5 455.073  11
  -1   7  -8 11208.6 402.669  10
  -1   7  -8 10986.9 343.035  12
  -1   7  -8 12049.1 318.023  11
  -1  -7  -8 11438.5 323.676   7
  -1   7  -8 10424.2 264.895   9
  -1  -7  -8 12220.4 385.174   9
  -1   7  -8 11544.1 334.444   6
  -1   7  -7 10070.2 251.790   4
  -1  -7  -7 9336.91 321.866   6
  -1  -7  -7 9290.58 338.377   1
  -1  -7  -7 9908.53 295.094   2
  -1  -7  -7 9338.89 395.995  11
  -1   7  -7 9284.01 354.133  10
  -1   7  -7 9763.86 282.527  11
  -1  -7  -7 9423.41 289.118   7
  -1   7  -7 8780.15 249.108   9
  -1   7  -7 9311.32 390.706   7
  -1  -7  -7 9490.91 330.676   9
  -1   7  -7 10462.5 290.745   6
  -1   7  -6 6274.32 176.630   4
  -1  -7  -6 6514.91 248.700   6
  -1  -7  -6 6374.47 280.526   5
  -1  -7  -6 5890.05 245.036   1
  -1   7  -6 5910.62 262.437  10
  -1  -7  -6 6183.29 308.573  11
  -1   7  -6 6142.61 216.480  11
  -1   7  -6 6812.46 298.433   7
  -1   7  -6 6004.43 202.471   9
  -1  -7  -6 5618.29 292.185   8
  -1  -7  -6 6303.64 254.299   9
  -1   7  -6 6183.59 200.792   6
  -1   7  -5 12410.3 253.860   4
  -1  -7  -5 12312.4 352.340   6
  -1  -7  -5 9550.05 359.689   5
  -1  -7  -5 11621.5 345.566   1
  -1  -7  -5 11468.9 417.079  11
  -1   7  -5 11919.0 385.288  10
  -1   7  -5 12297.8 285.197   6
  -1   7  -5 13219.8 420.815   7
  -1  -7  -5 12318.0 370.642   9
  -1  -7  -5 11300.2 398.440   8
  -1   7  -4 35255.8 580.376   4
  -1   7  -4 34672.7 583.229   5
  -1  -7  -4 36408.0 777.106   5
  -1  -7  -4 32667.4 695.542   1
  -1  -7  -4 35464.4 824.157  11
  -1   7  -4 34842.3 771.245  10
  -1   7  -4 37827.6 621.053   6
  -1   7  -4 36424.9 795.513   7
  -1  -7  -4 32558.8 773.472   8
  -1  -7  -4 35090.3 743.088   9
  -1   7  -3 3318.64 83.2100   4
  -1   7  -3 3049.56 95.7075   5
  -1  -7  -3 3542.03 186.947   5
  -1  -7  -3 3831.60 164.586   2
  -1  -7  -3 4610.81 257.265  11
  -1  -7  -3 3459.89 187.519   8
  -1   7  -3 3644.89 196.184  10
  -1   7  -3 3332.23 97.6000   6
  -1  -7  -3 4551.62 207.350   9
  -1   7  -3 3553.56 205.243   7
  -1   7  -2 27856.6 498.648   5
  -1  -7  -2 29435.0 647.852   5
  -1   7  -2 27987.5 528.066   2
  -1  -7  -2 27484.4 582.201   2
  -1  -7  -2 24902.1 655.459  11
  -1   7  -2 29308.5 664.161   7
  -1  -7  -2 27993.9 611.627   8
  -1   7  -2 27862.8 632.620  10
  -1  -7  -2 29417.7 628.330   9
  -1  -7  -1 38348.7 803.068   5
  -1   7  -1 38431.7 675.659   5
  -1  -7  -1 38381.6 751.333   2
  -1   7  -1 38817.1 663.299   2
  -1  -7  -1 42116.0 855.361  11
  -1  -7  -1 37377.3 617.744  10
  -1   7  -1 37469.5 790.299  10
  -1   7  -1 38770.3 815.569   7
  -1  -7  -1 36581.0 739.220   8
  -1   7  -1 38575.8 783.354   9
  -1  -7  -1 42372.6 790.459   9
  -1  -7   0 185074. 2937.25   5
  -1   7   0 179919. 2721.93   4
  -1   7   0 178671. 2815.32   5
  -1  -7   0 180353. 2893.52   2
  -1   7   0 184852. 2751.03   2
  -1  -7   0 177239. 2766.25  10
  -1  -7   0 186572. 2957.05  11
  -1   7   0 179997. 2951.93   7
  -1   7   0 182534. 2925.03   9
  -1  -7   0 188779. 2904.18   9
  -1  -7   1 90565.7 1571.53   5
  -1   7   1 90861.5 1393.90   4
  -1   7   1 88745.1 1489.69   5
  -1   7   1 90358.0 1371.48   2
  -1  -7   1 86852.6 1441.90  10
  -1  -7   1 86782.1 1559.19  11
  -1   7   1 91802.7 1608.70  11
  -1  -7   1 89807.5 1526.35   9
  -1   7   1 89603.5 1590.15   7
  -1   7   2 57178.3 914.547   4
  -1  -7   2 56167.9 1055.61   5
  -1   7   2 55139.1 1013.71   5
  -1  -7   2 54672.4 933.977   3
  -1   7   2 56020.9 1099.08  11
  -1  -7   2 54274.4 964.699  10
  -1  -7   2 55624.7 1034.74  11
  -1   7   2 56956.4 1082.36   7
  -1  -7   2 55442.8 1011.16   9
  -1  -7   3 40575.4 832.679   5
  -1   7   3 41704.0 817.314   5
  -1   7   3 42756.8 720.755   4
  -1  -7   3 41423.0 715.573   3
  -1   7   3 40703.1 815.566   3
  -1  -7   3 39165.1 768.266  10
  -1  -7   3 40481.6 787.701  11
  -1  -7   3 40262.8 780.051   9
  -1  -7   4 14652.3 417.808   5
  -1   7   4 16130.8 349.519   4
  -1  -7   4 14872.5 330.021   3
  -1   7   4 14469.1 402.418   3
  -1  -7   4 15440.1 392.248  10
  -1  -7   4 15710.7 381.491  11
  -1   7   4 14741.1 454.807  12
  -1  -7   4 15248.8 379.144   9
  -1  -7   5 1370.18 121.840   5
  -1   7   5 1311.20 93.2868   4
  -1   7   5 1266.43 110.737   3
  -1  -7   5 1228.81 81.1013   3
  -1  -7   5 1606.69 103.519  11
  -1   7   5 1452.27 140.683  12
  -1  -7   5 1518.07 105.644   9
  -1  -7   6 2463.62 164.709   5
  -1   7   6 2503.84 137.965   4
  -1  -7   6 2600.01 120.226   3
  -1   7   6 2539.96 161.914   3
  -1  -7   6 2781.31 162.764  10
  -1  -7   6 2691.94 119.442  11
  -1   7   6 2414.72 179.579  12
  -1  -7   6 2537.76 126.130   9
  -1   7   6 2464.39 192.560   8
  -1  -7   7 3355.23 191.419   5
  -1   7   7 3464.57 174.373   4
  -1  -7   7 3496.82 149.365   3
  -1   7   7 3174.12 209.757   1
  -1  -7   7 3791.83 135.794  11
  -1  -7   7 3545.13 145.610   9
  -1   7   7 3834.22 247.218   8
  -1   7   8 16825.5 448.373   4
  -1  -7   8 17313.7 494.236   5
  -1   7   8 17132.7 523.969   1
  -1  -7   8 16722.1 406.258   3
  -1  -7   8 17441.4 354.942  11
  -1  -7   8 17357.9 378.533   9
  -1   7   8 17353.7 573.260   8
  -1   7   9 7333.11 284.205   4
  -1  -7   9 7314.72 306.455   5
  -1  -7   9 7309.90 248.914   3
  -1  -7   9 7788.84 190.066  11
  -1  -7   9 6773.29 181.475  11
  -1   7   9 7667.32 378.417   8
  -1  -7   9 7491.54 207.154   9
  -1  -7  10 9709.08 376.978   5
  -1   7  10 10430.4 364.995   4
  -1  -7  10 10218.5 318.909   3
  -1  -7  10 10242.9 233.284  11
  -1  -7  10 11419.2 235.870  11
  -1   7  10 10651.6 475.122   8
  -1  -7  10 10824.6 253.784   9
  -1  -7  11 1117.39 131.952   5
  -1  -7  11 1179.36 106.674   3
  -1   7  11 1168.51 136.609   4
  -1  -7  11 1092.44 57.4716  11
  -1  -7  11 1275.66 58.1019  11
  -1  -7  11 1377.03 68.4398   9
  -1   7  11 1433.48 195.289   8
  -1  -7  12 5004.93 228.481   3
  -1  -7  12 5371.07 280.326   5
  -1   7  12 5325.94 275.579   4
  -1  -7  12 5073.20 124.449   9
  -1  -7  13 50760.0 1030.44   3
  -1   7  13 51441.3 1118.04   4
  -1  -7  13 49694.1 1124.92   5
  -1  -7  14 3614.77 213.141   3
  -1  -7  14 3643.64 249.099   5
  -1   7  14 3669.88 249.501   4
  -1  -7  15 6600.33 298.781   3
  -1  -7  15 5980.47 335.270   5
  -1   7  15 6301.32 336.276   4
  -1  -7  16 5856.52 294.548   3
  -1  -7  16 5592.36 330.663   5
  -1   7  16 6324.07 345.427   4
  -1  -7  17 2213.56 186.118   3
  -1   7  17 2166.41 214.486   4
  -1  -7  17 2154.02 214.394   5
  -1  -7  18 3382.41 248.587   3
  -1  -7  18 3582.93 283.731   5
  -1   7  18 3070.81 266.497   4
  -1   7  19 2271.25 233.996   4
  -1  -7  19 2283.63 210.458   3
  -1  -7  19 2390.38 243.821   5
  -1  -7  20 628.211 150.198   5
  -1   9 -20 1379.25 193.957   6
  -1  -9 -19 14769.6 710.227  11
  -1   9 -19 13460.7 568.302   6
  -1   9 -18 652.548 129.981   6
  -1  -9 -18 719.281 132.870   6
  -1  -9 -18 700.758 171.026  11
  -1   9 -18 529.524 135.788  10
  -1  -9 -17 5918.71 361.115   6
  -1   9 -17 6007.46 397.837  10
  -1  -9 -17 5738.56 419.021  11
  -1   9 -17 5581.00 335.728   6
  -1  -9 -17 5861.50 340.583   9
  -1  -9 -16 2942.77 244.838   6
  -1   9 -16 2970.04 280.573  10
  -1  -9 -16 2643.17 280.551  11
  -1   9 -16 2752.75 220.106   6
  -1  -9 -16 3169.14 244.519   9
  -1  -9 -15 5558.58 330.598   6
  -1  -9 -15 6018.61 401.471  11
  -1   9 -15 5406.13 356.365  10
  -1   9 -15 5724.44 309.174   6
  -1  -9 -15 5959.51 330.051   9
  -1  -9 -14 4365.27 275.710   6
  -1  -9 -14 4368.29 338.689  11
  -1   9 -14 4249.10 307.300  10
  -1  -9 -14 4835.42 284.507   9
  -1   9 -14 4210.00 256.019   6
  -1  -9 -14 4622.87 242.070   7
  -1  -9 -13 1595.29 166.602   6
  -1   9 -13 1194.87 135.669   6
  -1  -9 -13 1613.61 213.216  11
  -1  -9 -13 1333.94 156.760   9
  -1   9 -13 1466.84 179.723  10
  -1  -9 -13 1247.58 122.915   7
  -1  -9 -12 10254.4 411.037   6
  -1  -9 -12 9675.82 482.176  11
  -1   9 -12 10406.6 455.629  10
  -1  -9 -12 10312.1 362.413   7
  -1  -9 -12 10252.0 409.247   9
  -1   9 -12 10038.9 376.615   6
  -1   9 -11 412.428 79.5441   6
  -1  -9 -11 414.060 86.0569   6
  -1   9 -11 423.329 51.0095  11
  -1  -9 -11 873.658 162.166  11
  -1  -9 -11 536.388 118.550   9
  -1   9 -11 494.965 112.539  10
  -1  -9 -11 344.965 72.1964   7
  -1   9 -10 8982.66 283.108   4
  -1  -9 -10 9243.68 359.624   6
  -1  -9 -10 8378.54 429.623  11
  -1   9 -10 8977.04 245.650  11
  -1   9 -10 8606.70 388.731  10
  -1  -9 -10 8658.55 321.592   7
  -1  -9 -10 9163.13 371.723   9
  -1   9 -10 8813.92 318.350   6
  -1   9 -10 8985.91 193.546   9
  -1   9  -9 31326.3 643.716   4
  -1  -9  -9 32234.2 762.832   6
  -1  -9  -9 30924.2 888.728  11
  -1   9  -9 32771.3 626.611  11
  -1   9  -9 32398.5 832.452  10
  -1   9  -9 31792.7 695.441   6
  -1  -9  -9 30645.8 719.722   7
  -1   9  -9 32028.8 582.304   9
  -1  -9  -9 32643.7 780.882   9
  -1  -9  -8 3328.79 197.957   6
  -1   9  -8 3201.17 141.446   4
  -1  -9  -8 4108.60 282.558  11
  -1   9  -8 3431.64 229.153  10
  -1   9  -8 3456.09 151.473  11
  -1   9  -8 3448.74 169.067   6
  -1  -9  -8 3931.44 228.553   9
  -1   9  -8 3576.37 145.544   9
  -1  -9  -8 3146.30 190.133   7
  -1   9  -7 15471.9 346.929   4
  -1  -9  -7 15841.2 457.219   6
  -1  -9  -7 15829.5 511.592   5
  -1  -9  -7 15935.8 482.990   1
  -1  -9  -7 15899.3 559.070  11
  -1   9  -7 15837.9 384.956  11
  -1   9  -7 15187.5 493.227  10
  -1   9  -7 15332.9 370.441   9
  -1   9  -7 15017.0 380.226   6
  -1  -9  -7 15724.6 475.012   9
  -1  -9  -6 1112.06 130.583   5
  -1  -9  -6 512.209 80.0440   6
  -1   9  -6 312.556 48.2443   6
  -1  -9  -6 336.632 79.3435   1
  -1  -9  -6 298.107 61.4287   2
  -1   9  -6 251.616 39.1242   4
  -1  -9  -6 672.103 125.442  11
  -1  -9  -6 869.670 124.203   9
  -1   9  -6 325.150 83.6791  10
  -1   9  -6 237.995 63.0457   9
  -1  -9  -5 6120.64 248.641   6
  -1   9  -5 5996.26 171.314   5
  -1   9  -5 5868.85 159.983   4
  -1  -9  -5 5872.51 282.886   5
  -1  -9  -5 5612.52 241.816   1
  -1  -9  -5 6185.77 225.651   2
  -1  -9  -5 5901.72 307.802  11
  -1   9  -5 6049.70 276.973  10
  -1  -9  -5 6230.14 294.889   8
  -1   9  -5 5907.00 219.622   9
  -1   9  -5 5956.57 179.320   6
  -1  -9  -5 5835.20 257.606   9
  -1  -9  -4 6013.75 241.798   6
  -1   9  -4 6082.11 151.801   4
  -1   9  -4 5941.52 169.572   5
  -1  -9  -4 6260.53 285.802   5
  -1  -9  -4 5844.73 295.391  11
  -1   9  -4 6097.32 270.742  10
  -1   9  -4 6551.65 166.094   6
  -1  -9  -4 6027.77 275.335   8
  -1   9  -4 5561.02 223.275   9
  -1  -9  -4 6058.40 260.039   9
  -1   9  -3 32586.9 590.634   5
  -1  -9  -3 32140.0 701.681   6
  -1   9  -3 31948.4 536.377   4
  -1  -9  -3 33335.4 767.306   5
  -1  -9  -3 33757.9 805.668  11
  -1   9  -3 31483.3 702.688  11
  -1  -9  -3 32929.4 732.162   9
  -1   9  -3 32121.3 531.046   6
  -1   9  -3 33706.0 795.058   7
  -1  -9  -3 32292.8 737.649   8
  -1   9  -3 32698.5 699.529   9
  -1   9  -3 32108.6 742.299  10
  -1   9  -2 24461.1 480.201   5
  -1  -9  -2 24114.6 565.577   6
  -1  -9  -2 23877.1 609.785   5
  -1   9  -2 24386.3 413.272   4
  -1  -9  -2 24216.9 636.120  11
  -1   9  -2 23382.0 573.528  11
  -1   9  -2 25564.8 649.374   7
  -1  -9  -2 23889.7 573.728   8
  -1  -9  -2 24521.4 580.230   9
  -1   9  -2 23974.6 566.622   9
  -1   9  -1 82081.2 1360.08   5
  -1   9  -1 83189.9 1260.16   4
  -1  -9  -1 82851.4 1508.50   5
  -1   9  -1 81251.2 1483.69  11
  -1  -9  -1 81423.5 1517.41  11
  -1   9  -1 82447.6 1461.59   9
  -1   9  -1 84583.5 1537.41   7
  -1  -9  -1 77315.7 1262.65  10
  -1  -9  -1 80819.1 1451.89   9
  -1   9  -1 81384.4 1472.45  10
  -1  -9   0 16935.4 479.509   5
  -1   9   0 16845.8 405.583   5
  -1   9   0 17164.1 323.088   4
  -1   9   0 17843.9 335.997   2
  -1   9   0 17360.8 498.884  11
  -1  -9   0 14473.5 463.284  11
  -1  -9   0 17362.0 351.262  10
  -1   9   0 18192.6 511.417   7
  -1   9   0 17347.1 471.467  10
  -1   9   0 17592.4 477.512   9
  -1  -9   0 17319.2 454.481   9
  -1  -9   1 24442.2 612.583   5
  -1   9   1 23886.3 447.840   4
  -1   9   1 27523.5 558.039   5
  -1   9   1 23841.2 414.636   2
  -1  -9   1 27572.2 621.144  11
  -1  -9   1 22045.0 479.539  10
  -1   9   1 25179.1 644.106  11
  -1   9   1 24038.4 630.602   7
  -1   9   1 25923.0 625.990   9
  -1  -9   1 26769.6 583.464   9
  -1  -9   2 12814.6 407.982   5
  -1   9   2 13188.6 291.896   4
  -1   9   2 12971.5 369.166   5
  -1  -9   2 14153.5 397.445  11
  -1   9   2 13104.7 426.620  12
  -1  -9   2 12758.9 328.136  10
  -1   9   2 13764.5 453.452  11
  -1  -9   2 13584.2 377.845   9
  -1  -9   3 42982.4 889.446   5
  -1   9   3 43928.4 861.864   5
  -1  -9   3 43532.3 766.848   3
  -1  -9   3 42831.8 802.800  10
  -1  -9   3 42356.9 832.383  11
  -1   9   3 42636.0 921.132  12
  -1   9   3 44615.2 954.201  11
  -1  -9   3 44651.3 825.946   9
  -1   9   4 1163.18 86.1572   4
  -1   9   4 1150.18 116.844   5
  -1  -9   4 1217.98 125.351   5
  -1  -9   4 1215.43 87.3712   3
  -1  -9   4 1267.21 103.410  10
  -1  -9   4 1345.63 103.251  11
  -1  -9   4 896.066 95.0010   9
  -1   9   5 2088.91 118.030   4
  -1  -9   5 1914.74 156.261   5
  -1   9   5 1877.53 152.234   5
  -1  -9   5 1916.91 112.962   3
  -1  -9   5 2173.96 121.119  11
  -1   9   5 2278.25 193.268   8
  -1  -9   5 2038.64 126.887   9
  -1   9   6 7270.47 246.289   4
  -1  -9   6 6745.53 290.094   5
  -1   9   6 6565.23 319.533   1
  -1  -9   6 6990.65 227.450   3
  -1  -9   6 6853.12 276.068  10
  -1  -9   6 6827.20 208.642  11
  -1   9   6 7342.56 352.483   8
  -1  -9   6 6967.74 230.080   9
  -1  -9   7 12916.8 424.411   5
  -1   9   7 13286.1 375.527   4
  -1   9   7 13330.1 476.827   1
  -1  -9   7 12982.2 348.334   3
  -1  -9   7 13433.7 297.755  11
  -1   9   7 13551.5 512.168   8
  -1  -9   7 13298.1 338.852   9
  -1  -9   8 14634.8 461.391   5
  -1   9   8 14516.4 412.180   4
  -1  -9   8 15029.7 386.022   3
  -1   9   8 15170.6 511.298   1
  -1  -9   8 13480.0 273.730  11
  -1   9   8 14206.1 550.018   8
  -1  -9   8 14703.3 346.815   9
  -1  -9   9 21817.5 516.016   3
  -1   9   9 21093.2 641.861   1
  -1  -9   9 21552.8 598.125   5
  -1   9   9 21023.8 552.568   4
  -1   9   9 22671.7 731.668   8
  -1  -9   9 21175.7 445.672   9
  -1  -9  10 7755.40 279.299   3
  -1  -9  10 7197.12 319.738   5
  -1   9  10 7333.46 303.823   4
  -1  -9  10 7342.59 204.694   9
  -1   9  10 7682.40 420.077   8
  -1  -9  11 11122.0 359.483   3
  -1   9  11 10993.8 395.806   4
  -1  -9  11 10573.0 409.532   5
  -1   9  11 10343.9 503.104   8
  -1  -9  11 11018.6 246.160   9
  -1  -9  12 2711.29 172.894   3
  -1  -9  12 2676.68 199.716   5
  -1   9  12 2598.51 197.559   4
  -1   9  12 2393.67 266.698   8
  -1  -9  13 7044.62 295.993   3
  -1  -9  13 6460.95 328.395   5
  -1   9  13 6725.19 331.016   4
  -1  -9  14 2988.44 200.420   3
  -1  -9  14 2688.16 216.246   5
  -1   9  14 3012.00 233.216   4
  -1  -9  15 3733.99 232.156   3
  -1  -9  15 3644.83 262.965   5
  -1   9  15 3692.66 256.495   4
  -1   9  16 254.884 111.268   4
  -1  -9  16 47.6754 65.3961   3
  -1  -9  16 417.168 117.795   5
  -1  -9  17 8847.18 392.283   3
  -1   9  17 8557.42 435.533   4
  -1  -9  17 9189.15 448.704   5
  -1  -9  18 952.343 143.083   3
  -1   9  18 796.528 157.170   4
  -1  -9  18 853.968 152.650   5
  -1   9  19 26187.0 868.690   4
  -1  -9  19 27164.4 868.022   5
  -1  -9  20 5394.92 373.352   5
  -1  11 -19 6764.40 405.120   6
  -1 -11 -18 5537.75 370.716   6
  -1 -11 -18 6793.81 478.404  11
  -1 -11 -18 6534.16 392.239   9
  -1  11 -18 6078.14 361.220   6
  -1 -11 -17 8437.43 442.866   6
  -1  11 -17 7878.27 476.879  10
  -1 -11 -17 8593.58 527.649  11
  -1  11 -17 8453.97 416.876   6
  -1 -11 -17 9523.33 460.693   9
  -1  11 -16 666.324 119.568   6
  -1 -11 -16 781.202 145.065   6
  -1 -11 -16 739.941 160.678  11
  -1 -11 -16 667.043 128.906   9
  -1  11 -16 610.098 139.935  10
  -1  11 -15 818.398 125.647   6
  -1 -11 -15 992.993 139.972   6
  -1 -11 -15 899.232 169.643  11
  -1 -11 -15 1053.18 161.598   9
  -1  11 -15 804.758 154.800  10
  -1 -11 -14 3771.49 262.851   6
  -1  11 -14 3364.59 286.783  10
  -1 -11 -14 3963.76 334.819  11
  -1  11 -14 3770.30 239.565   6
  -1 -11 -14 3951.91 278.216   9
  -1 -11 -13 2999.42 227.996   6
  -1 -11 -13 3157.56 298.982  11
  -1  11 -13 3149.77 269.033  10
  -1 -11 -13 3077.36 243.778   9
  -1 -11 -13 3425.28 226.064   7
  -1  11 -13 3297.92 218.104   6
  -1  11 -12 138.258 59.3648   6
  -1 -11 -12 51.2337 53.6098   6
  -1 -11 -12 349.834 131.189  11
  -1 -11 -12 137.793 65.4087   7
  -1  11 -12 171.593 84.9662  10
  -1 -11 -12-12.0681 85.2628   9
  -1 -11 -11 16023.6 526.810   6
  -1 -11 -11 15596.4 642.858  11
  -1  11 -11 16039.4 584.985  10
  -1 -11 -11 15183.2 508.390   7
  -1 -11 -11 16524.0 559.523   9
  -1  11 -11 16056.2 471.380   6
  -1 -11 -10 16851.1 523.917   6
  -1 -11 -10 15762.9 624.267  11
  -1  11 -10 14678.6 304.885  11
  -1  11 -10 16476.3 576.291  10
  -1 -11 -10 14298.1 490.383   7
  -1  11 -10 16683.0 454.874   6
  -1 -11 -10 16820.3 547.240   9
  -1  11  -9 5785.93 212.169   4
  -1 -11  -9 6539.72 298.265   6
  -1 -11  -9 7290.79 406.911  11
  -1  11  -9 6160.54 188.975  11
  -1  11  -9 6273.38 336.114  10
  -1  11  -9 5556.92 189.996  11
  -1  11  -9 6075.00 242.204   6
  -1  11  -9 6265.04 196.476   9
  -1 -11  -9 6850.41 334.752   9
  -1 -11  -8 4221.56 226.748   6
  -1  11  -8 3860.09 156.231   4
  -1 -11  -8 3871.34 287.062  11
  -1  11  -8 3754.58 246.489  10
  -1  11  -8 3718.97 154.571  11
  -1  11  -8 3576.98 157.715  11
  -1  11  -8 3816.78 177.120   6
  -1 -11  -8 3789.27 239.971   9
  -1  11  -8 3889.77 163.215   9
  -1 -11  -7 53821.3 1085.51   6
  -1  11  -7 54127.6 926.936   4
  -1 -11  -7 56915.3 1220.03   5
  -1 -11  -7 53462.9 1251.34  11
  -1  11  -7 52474.6 1152.25  10
  -1  11  -7 50258.5 973.140  11
  -1  11  -7 51854.6 959.582   6
  -1  11  -7 52049.1 977.171   9
  -1 -11  -7 54629.4 1141.80   9
  -1 -11  -6 40382.4 860.502   6
  -1  11  -6 38056.0 718.531   5
  -1  11  -6 38482.5 694.457   4
  -1 -11  -6 42133.1 969.065   5
  -1 -11  -6 40156.2 1007.53  11
  -1  11  -6 39459.7 921.446  10
  -1  11  -6 36793.4 777.614  11
  -1  11  -6 37937.9 779.296   9
  -1  11  -6 38524.2 720.823   6
  -1 -11  -6 40254.8 909.199   9
  -1 -11  -5 14554.3 432.073   6
  -1  11  -5 13880.5 305.582   4
  -1  11  -5 14547.7 339.601   5
  -1 -11  -5 13996.8 492.261   5
  -1 -11  -5 13575.9 518.038  11
  -1  11  -5 14760.7 475.845  10
  -1  11  -5 13950.5 394.484  11
  -1 -11  -5 14194.1 461.858   9
  -1  11  -5 14527.9 317.923   6
  -1  11  -5 14094.1 396.206   9
  -1  11  -4 2067.81 108.831   5
  -1 -11  -4 2176.14 178.207   5
  -1  11  -4 2110.83 88.3340   4
  -1 -11  -4 2248.53 153.330   6
  -1 -11  -4 2176.94 142.803   2
  -1  11  -4 2269.33 172.160  10
  -1 -11  -4 1921.43 183.877  11
  -1  11  -4 2078.89 145.561  11
  -1  11  -4 2088.37 142.888   9
  -1  11  -4 2125.49 85.4607   6
  -1 -11  -4 2401.00 174.239   9
  -1  11  -3 2802.94 99.6610   4
  -1  11  -3 2944.55 133.815   5
  -1 -11  -3 2660.34 198.874   5
  -1  11  -3 2824.98 77.5587   6
  -1 -11  -3 2654.26 167.248   6
  -1 -11  -3 2780.64 161.637   2
  -1 -11  -3 2955.34 214.613  11
  -1  11  -3 2611.58 166.300  11
  -1  11  -3 2827.62 184.942  10
  -1  11  -3 2780.05 167.198   9
  -1  11  -3 2725.53 77.8719   6
  -1 -11  -3 2739.90 184.520   9
  -1  11  -2 5384.03 149.459   4
  -1  11  -2 5181.12 192.638   5
  -1 -11  -2 5238.74 239.340   6
  -1 -11  -2 5375.36 272.455   5
  -1 -11  -2 5097.11 228.678   2
  -1 -11  -2 5232.80 280.724  11
  -1  11  -2 5189.21 249.516  11
  -1  11  -2 5139.42 254.921  10
  -1  11  -2 4991.38 237.578   9
  -1 -11  -2 5286.12 248.219   9
  -1  11  -1 14544.5 376.484   5
  -1  11  -1 14435.1 298.875   4
  -1 -11  -1 15697.8 486.541   5
  -1 -11  -1 14301.3 424.430   2
  -1 -11  -1 15429.8 487.112  11
  -1  11  -1 13664.4 461.114  11
  -1  11  -1 15292.4 463.281  10
  -1 -11  -1 14820.3 442.665   9
  -1  11   0 24508.7 559.450   5
  -1  11   0 25108.7 460.586   4
  -1 -11   0 25207.5 658.030   5
  -1 -11   0 25437.0 650.084  11
  -1  11   0 25659.9 663.493  11
  -1 -11   0 23750.2 480.911  10
  -1  11   0 23682.4 609.381  10
  -1 -11   0 24961.4 607.479   9
  -1 -11   1 15751.0 483.943   5
  -1  11   1 13896.9 322.054   4
  -1  11   1 16471.7 431.035   5
  -1  11   1 15847.3 313.492   2
  -1 -11   1 16145.3 475.852  11
  -1 -11   1 15501.7 368.716  10
  -1  11   1 15440.7 457.897  10
  -1 -11   1 16196.4 449.663   9
  -1 -11   2 5720.36 275.246   5
  -1  11   2 5960.33 183.960   4
  -1  11   2 5605.47 240.300   5
  -1  11   2 5753.15 116.071   2
  -1  11   2 5958.57 117.837   2
  -1  11   2 6360.16 318.493   1
  -1 -11   2 5047.68 242.064  11
  -1 -11   2 5615.30 208.663  10
  -1 -11   2 5762.70 244.877   9
  -1 -11   3 1791.86 154.215   5
  -1  11   3 1478.20 92.2677   4
  -1  11   3 1477.30 128.954   5
  -1  11   3 1483.71 156.806   1
  -1 -11   3 1433.71 108.353   3
  -1 -11   3 1482.50 123.522  11
  -1 -11   3 1463.09 108.607  10
  -1  11   3 1699.17 170.759   8
  -1 -11   3 1553.80 124.290   9
  -1 -11   4 3417.66 211.102   5
  -1  11   4 3151.90 144.327   4
  -1  11   4 2897.10 220.831   1
  -1 -11   4 2910.27 151.290   3
  -1 -11   4 3003.86 161.576  11
  -1 -11   4 3011.40 165.163   9
  -1  11   4 2824.31 224.070   8
  -1 -11   5 4482.95 246.258   5
  -1  11   5 4669.71 193.206   4
  -1 -11   5 4906.48 201.907   3
  -1  11   5 4282.68 286.043   1
  -1 -11   5 5179.75 204.473  11
  -1 -11   5 4369.51 219.096  10
  -1  11   5 4699.65 296.943   8
  -1 -11   5 5007.00 212.887   9
  -1  11   6 42096.9 838.248   4
  -1 -11   6 42575.4 953.587   5
  -1  11   6 42391.1 1040.11   1
  -1 -11   6 42796.1 832.905   3
  -1 -11   6 41455.1 781.410  11
  -1  11   6 42967.5 1067.92   8
  -1 -11   6 42013.2 831.146   9
  -1  11   7 46534.6 923.608   4
  -1 -11   7 46836.7 1030.15   5
  -1 -11   7 48644.7 916.584   3
  -1  11   7 46648.5 1120.14   1
  -1 -11   7 44535.2 799.943  11
  -1  11   7 47118.6 1164.72   8
  -1 -11   7 48587.2 894.374   9
  -1 -11   8 3731.35 185.382   3
  -1  11   8 3616.09 260.984   1
  -1  11   8 3704.06 195.574   4
  -1 -11   8 3390.31 226.319   5
  -1  11   8 3390.51 279.257   8
  -1 -11   8 3645.21 166.241   9
  -1 -11   9 26659.6 616.354   3
  -1  11   9 26058.5 768.450   1
  -1 -11   9 25492.4 701.393   5
  -1  11   9 27457.3 650.611   4
  -1  11   9 26253.4 849.281   8
  -1 -11   9 25299.2 543.001   9
  -1  11  10 12676.3 509.802   1
  -1 -11  10 12277.4 391.581   3
  -1 -11  10 12957.9 464.704   5
  -1  11  10 12443.1 419.147   4
  -1  11  10 12203.9 573.118   8
  -1 -11  10 13192.6 318.957   9
  -1 -11  11 12673.2 407.922   3
  -1 -11  11 11729.3 459.139   5
  -1  11  11 12628.9 441.412   4
  -1 -11  11 13178.5 296.228   9
  -1  11  11 13054.4 606.953   8
  -1 -11  12 3448.01 206.236   3
  -1 -11  12 3521.96 243.747   5
  -1  11  12 3522.13 229.620   4
  -1  11  12 3205.33 322.636   8
  -1 -11  13 85.2001 60.7341   3
  -1  11  13 110.767 91.2267   4
  -1 -11  13 72.8239 68.8115   5
  -1  11  13 36.6606 133.473   8
  -1 -11  14 5158.36 269.629   3
  -1  11  14 5511.98 314.994   4
  -1 -11  14 5212.41 313.822   5
  -1 -11  15 1952.17 170.571   3
  -1  11  15 1730.58 194.435   4
  -1 -11  15 2005.31 202.668   5
  -1 -11  16 2602.10 207.268   3
  -1 -11  16 2838.10 247.398   5
  -1  11  16 2762.45 243.920   4
  -1 -11  17 1405.04 170.604   3
  -1  11  17 1068.12 172.369   4
  -1 -11  17 1040.75 164.209   5
  -1 -11  18 7095.71 407.782   5
  -1  11  18 7151.56 416.325   4
  -1 -11  19 6025.83 388.401   5
  -1 -13 -18 123.144 116.511   9
  -1 -13 -17 6282.05 386.728   6
  -1 -13 -17 5706.60 379.511   9
  -1 -13 -16 2758.28 251.279   6
  -1 -13 -16 2722.58 305.943  11
  -1 -13 -16 2007.70 226.739   9
  -1  13 -16 2066.21 249.792  10
  -1 -13 -15 3512.29 273.444   6
  -1 -13 -15 3892.14 357.333  11
  -1  13 -15 2977.35 290.684  10
  -1  13 -15 3039.06 228.402   6
  -1 -13 -15 3357.05 280.743   9
  -1  13 -14 1099.85 138.012   6
  -1 -13 -14 1453.57 175.495   6
  -1 -13 -14 1207.06 206.336  11
  -1  13 -14 1017.01 167.917  10
  -1 -13 -14 1080.77 171.391   9
  -1 -13 -13 8349.96 400.503   6
  -1 -13 -13 7149.67 463.700  11
  -1  13 -13 7206.26 423.150  10
  -1 -13 -13 7951.86 416.633   9
  -1  13 -13 8120.80 348.914   6
  -1  13 -12 607.185 98.9938   6
  -1 -13 -12 581.083 109.334   6
  -1 -13 -12 588.944 157.062  11
  -1 -13 -12 519.530 126.807   9
  -1  13 -12 274.804 98.9652  10
  -1  13 -11 1141.24 120.215   6
  -1 -13 -11 1268.20 149.174   6
  -1 -13 -11 1275.12 200.453  11
  -1 -13 -11 1280.71 175.948   9
  -1  13 -11 1253.77 176.373  10
  -1 -13 -10 16652.6 539.153   6
  -1  13 -10 15752.7 592.034  10
  -1 -13 -10 15247.3 642.527  11
  -1 -13 -10 16257.0 579.957   9
  -1  13 -10 16312.2 458.016   6
  -1 -13  -9 23192.8 649.111   6
  -1 -13  -9 24896.9 816.350  11
  -1  13  -9 22203.2 716.009  10
  -1  13  -9 22137.4 542.998   6
  -1 -13  -9 21669.0 682.234   9
  -1 -13  -8 4419.81 249.454   6
  -1 -13  -8 4639.25 326.018  11
  -1  13  -8 4551.78 287.161  10
  -1  13  -8 4535.19 174.173  11
  -1  13  -8 4307.12 190.019   6
  -1 -13  -8 4339.92 271.370   9
  -1 -13  -7 59156.2 1208.63   6
  -1  13  -7 58097.2 1020.80   4
  -1 -13  -7 59938.1 1340.75   5
  -1 -13  -7 56971.6 1375.71  11
  -1  13  -7 57221.2 1276.50  10
  -1  13  -7 58800.7 1047.08   6
  -1 -13  -7 57324.9 1264.20   9
  -1  13  -7 59391.4 1103.94   9
  -1  13  -6 8030.65 233.246   4
  -1 -13  -6 9157.73 350.216   6
  -1  13  -6 8176.11 265.943   5
  -1 -13  -6 8846.46 421.359   5
  -1  13  -6 8580.04 307.159  11
  -1 -13  -6 8657.52 438.492  11
  -1  13  -6 9145.98 389.186  10
  -1  13  -6 8279.05 239.839   6
  -1 -13  -6 9224.51 389.714   9
  -1  13  -6 8613.04 308.871   9
  -1  13  -5 3294.34 128.545   4
  -1 -13  -5 3194.53 199.560   6
  -1  13  -5 3185.75 124.104   6
  -1  13  -5 2926.75 146.645   5
  -1 -13  -5 3565.58 253.689   5
  -1  13  -5 3502.06 194.652  11
  -1 -13  -5 3368.08 265.827  11
  -1  13  -5 3202.06 223.065  10
  -1  13  -5 2999.70 119.301   6
  -1 -13  -5 3441.05 229.679   9
  -1 -13  -4 12517.5 416.462   6
  -1  13  -4 12331.2 283.819   4
  -1  13  -4 11817.9 331.081   5
  -1  13  -4 12629.1 254.413   6
  -1 -13  -4 12201.2 470.076   5
  -1 -13  -4 12334.6 495.427  11
  -1  13  -4 11852.7 435.802  10
  -1  13  -4 12447.9 405.301  11
  -1  13  -4 12083.9 253.906   6
  -1 -13  -4 11460.9 435.491   9
  -1  13  -3 4029.03 137.466   4
  -1  13  -3 3747.84 176.241   5
  -1  13  -3 3799.73 89.3877   6
  -1 -13  -3 4046.67 222.071   6
  -1 -13  -3 4152.93 262.598   5
  -1  13  -3 3957.66 141.706   4
  -1  13  -3 4018.69 232.204  11
  -1 -13  -3 4109.40 273.173  11
  -1  13  -3 4013.96 239.930  10
  -1  13  -3 3670.05 89.4352   6
  -1 -13  -3 3916.17 240.914   9
  -1  13  -2 2467.27 144.269   5
  -1  13  -2 2361.59 107.240   4
  -1 -13  -2 2517.86 202.377   5
  -1 -13  -2 2672.23 214.404  11
  -1  13  -2 2018.24 170.389  11
  -1  13  -2 2617.53 191.615  10
  -1 -13  -2 2419.41 182.348   9
  -1  13  -1 2937.19 167.057   5
  -1  13  -1 2970.35 127.944   4
  -1 -13  -1 3450.16 253.428   5
  -1 -13  -1 4952.83 287.695  11
  -1  13  -1 3457.42 224.110  10
  -1 -13  -1 4085.05 242.963   9
  -1  13   0 8537.85 306.866   5
  -1  13   0 8523.11 233.024   4
  -1 -13   0 9177.86 384.468   5
  -1  13   0 8613.87 242.294   2
  -1 -13   0 8860.92 368.333  11
  -1 -13   0 9366.73 352.540   9
  -1  13   0 8821.28 346.874  10
  -1  13   1 25882.6 642.081   5
  -1  13   1 27638.0 530.673   4
  -1 -13   1 25986.9 716.326   5
  -1  13   1 27276.7 780.827   1
  -1  13   1 27458.6 494.558   2
  -1 -13   1 26022.7 679.630  11
  -1 -13   1 25516.7 556.024  10
  -1 -13   1 25822.3 661.107   9
  -1  13   1 26588.3 671.842  10
  -1 -13   2 4773.11 270.652   5
  -1  13   2 4458.82 170.205   4
  -1  13   2 4912.45 111.858   2
  -1  13   2 4764.61 299.172   1
  -1  13   2 4826.16 111.682   2
  -1 -13   2 4304.45 235.988  11
  -1  13   2 4494.72 234.773  10
  -1 -13   2 4626.73 200.501  10
  -1 -13   2 4430.67 229.961   9
  -1 -13   3 8660.19 371.043   5
  -1  13   3 8600.87 262.100   4
  -1  13   3 8843.42 420.575   1
  -1 -13   3 8412.16 299.516   3
  -1 -13   3 8566.28 320.800  11
  -1  13   3 9177.04 424.063   8
  -1 -13   3 8763.76 324.648   9
  -1 -13   4 11203.6 433.938   5
  -1  13   4 11738.8 328.948   4
  -1  13   4 11172.2 476.921   1
  -1 -13   4 11906.0 363.085   3
  -1 -13   4 11511.6 364.702  11
  -1 -13   4 11671.0 382.410  10
  -1  13   4 12355.9 512.158   8
  -1 -13   4 12376.6 388.219   9
  -1 -13   5 7004.67 328.353   5
  -1  13   5 6750.75 246.957   4
  -1  13   5 6447.70 361.930   1
  -1 -13   5 6981.10 264.318   3
  -1 -13   5 6381.46 241.592  11
  -1  13   5 7167.85 384.981   8
  -1 -13   5 6848.30 272.681   9
  -1 -13   6 18708.8 584.870   5
  -1  13   6 18831.5 482.870   4
  -1  13   6 18814.9 654.245   1
  -1 -13   6 19226.4 497.002   3
  -1 -13   6 18529.5 431.365  11
  -1  13   6 17736.4 662.802   8
  -1 -13   6 19280.2 496.481   9
  -1 -13   7 20431.9 638.350   5
  -1  13   7 21007.3 553.112   4
  -1  13   7 22756.6 757.660   1
  -1 -13   7 21818.0 558.337   3
  -1 -13   7 22687.2 448.166  11
  -1  13   7 23343.6 795.688   8
  -1 -13   7 23938.9 557.142   9
  -1 -13   8 2043.79 148.320   3
  -1  13   8 1949.22 220.565   1
  -1  13   8 1959.31 148.240   4
  -1 -13   8 1909.67 182.265   5
  -1 -13   8 1903.44 131.885   9
  -1  13   8 1734.53 228.512   8
  -1  13   9 46865.9 1169.59   1
  -1 -13   9 44783.6 947.853   3
  -1  13   9 46535.3 976.519   4
  -1 -13   9 46573.2 1076.81   5
  -1  13   9 44798.0 1250.74   8
  -1 -13   9 44525.1 873.169   9
  -1  13  10 14056.2 575.407   1
  -1 -13  10 14011.2 443.106   3
  -1 -13  10 14175.5 520.248   5
  -1  13  10 14378.5 469.319   4
  -1 -13  10 14702.3 371.726   9
  -1  13  10 13893.2 643.180   8
  -1 -13  11 10235.2 371.962   3
  -1 -13  11 10076.6 440.581   5
  -1  13  11 10301.6 399.537   4
  -1  13  11 10080.0 560.385   8
  -1 -13  12 1835.06 157.759   3
  -1  13  12 1884.26 180.795   4
  -1 -13  12 1769.93 185.342   5
  -1  13  12 1641.79 255.025   8
  -1 -13  13 2488.63 190.658   3
  -1 -13  13 2727.47 230.737   5
  -1  13  13 2679.08 222.024   4
  -1  13  13 2282.35 301.321   8
  -1 -13  14 544.591 104.249   3
  -1  13  14 601.583 132.398   4
  -1 -13  14 434.660 107.806   5
  -1 -13  15 5184.17 292.651   3
  -1 -13  15 5166.18 337.310   5
  -1  13  15 5139.65 329.151   4
  -1  13  16 2771.92 249.713   4
  -1 -13  16 2100.50 224.662   5
  -1 -13  17 7385.91 417.431   5
  -1  13  17 6351.65 395.436   4
  -1 -13  18 681.581 151.418   5
  -1 -15 -16 4055.53 306.662   6
  -1 -15 -16 4154.24 341.411   9
  -1 -15 -15 2203.34 225.901   6
  -1 -15 -15 2172.07 277.049  11
  -1 -15 -15 2212.10 243.845   9
  -1  15 -15 2198.24 262.683  10
  -1 -15 -14 919.824 144.313   6
  -1 -15 -14 890.526 175.393  11
  -1 -15 -14 795.031 160.813   9
  -1  15 -14 881.411 167.639  10
  -1 -15 -13 3940.82 282.084   6
  -1 -15 -13 4532.70 387.152  11
  -1  15 -13 3872.56 324.761  10
  -1 -15 -13 4024.04 316.430   9
  -1 -15 -12 4542.85 289.935   6
  -1 -15 -12 4781.91 379.810  11
  -1  15 -12 4901.38 348.686  10
  -1 -15 -12 4504.44 325.361   9
  -1 -15 -11 5155.41 307.751   6
  -1 -15 -11 5363.15 398.013  11
  -1  15 -11 4725.51 338.478  10
  -1 -15 -11 5429.29 348.435   9
  -1 -15 -10 270.820 78.7502   6
  -1 -15 -10 267.315 120.556  11
  -1 -15 -10 423.014 125.496   9
  -1  15 -10 367.855 113.537  10
  -1 -15  -9 2938.87 219.846   6
  -1 -15  -9 3355.94 296.323  11
  -1  15  -9 3661.26 275.034  10
  -1 -15  -9 3395.43 257.856   9
  -1  15  -8 554.421 70.7033   6
  -1 -15  -8 591.737 103.332   6
  -1 -15  -8 791.280 158.142  11
  -1 -15  -8 696.781 131.340   9
  -1  15  -8 710.942 132.868  10
  -1 -15  -7 10178.6 404.003   6
  -1 -15  -7 10405.6 482.604   5
  -1 -15  -7 9647.74 485.050  11
  -1  15  -7 10086.8 444.387  10
  -1 -15  -7 10306.7 453.043   9
  -1  15  -7 10200.6 287.143   6
  -1 -15  -6 96865.6 1821.63   6
  -1 -15  -6 99736.8 1989.81   5
  -1 -15  -6 99166.0 2017.45  11
  -1  15  -6 92363.2 1874.66  10
  -1  15  -6 95927.1 1570.07   6
  -1 -15  -6 96641.7 1899.76   9
  -1 -15  -5 17664.3 549.293   6
  -1 -15  -5 18595.0 653.321   5
  -1 -15  -5 18221.6 664.780  11
  -1  15  -5 17988.8 592.709  10
  -1  15  -5 17956.6 363.752   6
  -1 -15  -5 17611.9 598.929   9
  -1 -15  -4 19732.4 577.408   6
  -1 -15  -4 19829.9 660.360   5
  -1  15  -4 18986.9 597.697  10
  -1 -15  -4 19230.8 662.208  11
  -1  15  -4 19066.9 348.539   6
  -1 -15  -4 18991.8 606.372   9
  -1 -15  -3 38323.4 973.581   5
  -1  15  -3 36934.2 689.441   4
  -1 -15  -3 36255.5 968.602  11
  -1  15  -3 34871.7 883.618  10
  -1 -15  -3 35183.6 894.198   9
  -1 -15  -2 7777.26 391.836   5
  -1  15  -2 8719.94 242.186   4
  -1 -15  -2 8331.83 397.955  11
  -1  15  -2 8416.47 365.501  10
  -1 -15  -2 8497.78 376.016   9
  -1 -15  -1 20763.5 652.574   5
  -1  15  -1 20148.2 429.952   4
  -1  15  -1 20325.7 472.968   2
  -1 -15  -1 18899.3 614.138  11
  -1  15  -1 18894.7 581.160  10
  -1 -15  -1 19189.1 590.296   9
  -1 -15   0 14901.2 543.995   5
  -1  15   0 15115.2 357.586   4
  -1  15   0 15021.6 356.898   2
  -1 -15   0 15051.4 518.946  11
  -1  15   0 14979.0 498.493  10
  -1 -15   0 15202.3 502.206   9
  -1  15   1 4019.69 168.809   4
  -1 -15   1 5164.40 301.615   5
  -1  15   1 4293.11 139.993   2
  -1  15   1 6263.97 364.662   1
  -1 -15   1 5404.18 288.738  11
  -1 -15   1 5071.73 272.770   9
  -1  15   1 4733.95 263.308  10
  -1  15   2 5975.39 212.968   4
  -1 -15   2 5910.25 327.008   5
  -1  15   2 5969.02 354.760   1
  -1  15   2 6267.25 141.372   2
  -1 -15   2 6190.11 297.213  11
  -1  15   2 5790.85 369.381   8
  -1  15   2 5694.23 285.328  10
  -1 -15   2 6362.85 301.574   9
  -1 -15   3 33578.0 872.973   5
  -1  15   3 30374.6 664.496   4
  -1  15   3 33341.7 947.916   1
  -1 -15   3 33507.2 777.362  11
  -1  15   3 35668.7 981.368   8
  -1 -15   3 31559.3 734.499  10
  -1  15   3 31418.5 783.538  10
  -1 -15   3 33955.3 795.801   9
  -1  15   4 1318.68 112.689   4
  -1 -15   4 1495.32 179.945   5
  -1  15   4 2091.93 273.739   1
  -1 -15   4 1634.59 154.104   3
  -1 -15   4 2309.81 174.138  11
  -1  15   4 2062.89 270.232   8
  -1  15   4 1424.20 146.399  10
  -1 -15   4 2075.47 181.533   9
  -1 -15   5 23363.1 702.090   5
  -1  15   5 23954.1 564.185   4
  -1  15   5 23144.5 777.239   1
  -1 -15   5 23636.2 601.344   3
  -1 -15   5 21511.3 547.529  11
  -1  15   5 23824.8 815.992   8
  -1 -15   5 23829.1 618.214   9
  -1 -15   6 103399. 1989.30   5
  -1  15   6 105592. 2137.47   1
  -1 -15   6 105372. 1842.78   3
  -1 -15   6 105612. 1732.31  11
  -1 -15   6 107466. 1849.44   9
  -1  15   6 105124. 2189.65   8
  -1  15   7 9503.72 480.399   1
  -1 -15   7 8955.11 342.304   3
  -1 -15   7 9194.18 418.215   5
  -1  15   7 9592.23 343.372   4
  -1 -15   7 9015.17 333.127   9
  -1  15   7 10001.5 529.983   8
  -1 -15   8 1943.63 157.083   3
  -1  15   8 1767.51 216.786   1
  -1  15   8 2213.29 165.805   4
  -1 -15   8 1927.64 190.107   5
  -1 -15   8 2148.59 152.509   9
  -1  15   8 1759.31 246.616   8
  -1 -15   9 2353.92 175.829   3
  -1  15   9 2639.83 261.693   1
  -1  15   9 2369.27 178.730   4
  -1 -15   9 2183.95 214.381   5
  -1 -15   9 2583.90 159.949   9
  -1  15   9 2591.00 303.405   8
  -1  15  10 1427.85 189.961   1
  -1  15  10 1360.70 147.429   4
  -1 -15  10 1247.00 133.164   3
  -1 -15  10 1281.55 163.651   5
  -1  15  10 1405.56 246.151   8
  -1 -15  11 8138.56 345.744   3
  -1  15  11 7836.32 448.111   1
  -1 -15  11 7955.05 408.032   5
  -1  15  11 7922.08 359.142   4
  -1  15  11 7333.36 515.904   8
  -1 -15  12 7625.53 343.119   3
  -1 -15  12 7518.16 398.348   5
  -1  15  12 7950.29 372.824   4
  -1  15  12 7775.75 544.259   8
  -1 -15  13 9550.30 395.065   3
  -1 -15  13 10042.2 473.717   5
  -1  15  13 9737.83 435.503   4
  -1  15  13 9448.71 614.283   8
  -1  15  14 687.208 153.325   4
  -1 -15  14 684.941 144.481   5
  -1  15  15 723.769 152.128   4
  -1 -15  15 864.596 157.596   5
  -1  15  16 1784.62 222.496   4
  -1 -15  16 1771.75 215.216   5
  -1 -15  17 1994.30 227.821   5
  -1 -17 -15 3043.65 273.575   6
  -1 -17 -14 191.506 95.5476   6
  -1 -17 -14 640.374 175.197   9
  -1 -17 -13 8239.37 425.352   6
  -1 -17 -13 7855.95 528.747  11
  -1  17 -13 8717.33 501.860  10
  -1 -17 -13 8011.79 470.231   9
  -1 -17 -12 28509.2 869.281   6
  -1 -17 -12 30695.9 1071.61  11
  -1  17 -12 30133.1 983.489  10
  -1 -17 -12 31945.6 983.422   9
  -1 -17 -11 3161.55 245.543   6
  -1  17 -11 2572.43 266.502  10
  -1 -17 -11 2914.22 295.256  11
  -1 -17 -11 3520.49 296.597   9
  -1 -17 -10 6306.17 343.594   6
  -1 -17 -10 5674.82 418.951  11
  -1  17 -10 5782.48 378.519  10
  -1 -17 -10 6324.06 396.008   9
  -1 -17  -9 480.152 106.163   6
  -1 -17  -9 860.636 195.817  11
  -1  17  -9 339.393 114.824  10
  -1 -17  -9 461.727 133.566   9
  -1 -17  -8 847.563 127.719   6
  -1 -17  -8 1119.90 186.142  11
  -1 -17  -8 789.859 141.409   9
  -1  17  -8 807.312 145.474  10
  -1 -17  -7 7594.91 366.399   6
  -1 -17  -7 7133.40 435.267  11
  -1  17  -7 6918.47 382.405  10
  -1 -17  -7 7480.36 406.328   9
  -1 -17  -6 1561.02 214.956   5
  -1 -17  -6 1360.84 151.800   6
  -1 -17  -6 1692.07 226.258  11
  -1 -17  -6 1386.26 189.253   9
  -1  17  -6 1515.69 181.181  10
  -1 -17  -5 2986.94 218.882   6
  -1 -17  -5 3226.85 277.735   5
  -1 -17  -5 2604.36 251.973  11
  -1  17  -5 2856.34 230.926  10
  -1 -17  -5 2550.08 234.017   9
  -1 -17  -4 2246.76 222.886   5
  -1 -17  -4 2494.09 246.619  11
  -1  17  -4 1909.04 190.866  10
  -1 -17  -4 2365.77 219.551   9
  -1  17  -3 3368.21 153.466   4
  -1 -17  -3 3163.72 267.781   5
  -1  17  -3 2901.67 183.476   2
  -1  17  -3 3089.86 231.981  10
  -1 -17  -3 4035.51 293.364  11
  -1 -17  -3 3805.60 281.917   9
  -1  17  -2 1655.68 107.250   4
  -1 -17  -2 1879.44 224.209   5
  -1  17  -2 1582.60 126.895   2
  -1 -17  -2 2332.53 237.128  11
  -1  17  -2 1839.67 179.939  10
  -1 -17  -2 2295.92 213.175   9
  -1  17  -1 2920.15 142.779   4
  -1 -17  -1 3300.06 269.011   5
  -1  17  -1 3096.20 156.971   2
  -1  17  -1 2892.67 216.393  10
  -1 -17  -1 3095.47 249.215  11
  -1 -17  -1 3121.81 243.388   9
  -1  17   0 24142.6 523.080   4
  -1 -17   0 25548.5 771.723   5
  -1  17   0 24312.8 503.876   2
  -1  17   0 25032.8 830.333   1
  -1 -17   0 23192.8 710.796  11
  -1  17   0 23605.7 685.397  10
  -1 -17   0 22011.0 684.364   9
  -1  17   1 7432.23 246.797   4
  -1 -17   1 7395.15 389.274   5
  -1  17   1 7488.37 428.768   1
  -1 -17   1 6496.84 333.722  11
  -1  17   1 7025.49 421.750   8
  -1  17   1 7529.56 344.561  10
  -1 -17   1 6309.85 332.696   9
  -1  17   2 12557.7 355.022   4
  -1 -17   2 12375.0 511.957   5
  -1  17   2 13577.4 585.672   1
  -1 -17   2 11918.2 446.197  11
  -1  17   2 13039.4 579.854   8
  -1  17   2 12773.6 460.109  10
  -1 -17   2 12028.5 454.771   9
  -1  17   3 16202.9 427.616   4
  -1 -17   3 16065.7 588.341   5
  -1  17   3 16293.3 657.694   1
  -1 -17   3 14412.3 488.110  11
  -1  17   3 16800.0 536.539  10
  -1  17   3 16583.4 677.629   8
  -1 -17   3 15797.8 525.814   9
  -1  17   4 5286.99 228.948   4
  -1 -17   4 4993.61 318.492   5
  -1  17   4 5046.28 362.483   1
  -1 -17   4 5088.81 251.209  11
  -1  17   4 4798.74 268.478  10
  -1  17   4 4903.96 362.592   8
  -1 -17   4 5128.90 276.990   9
  -1 -17   5 477.660 114.294   5
  -1  17   5 480.018 75.4382   4
  -1 -17   5 458.768 90.0216   3
  -1  17   5 470.902 137.282   1
  -1 -17   5 735.343 98.0771  11
  -1 -17   5 705.705 113.495   9
  -1  17   5 565.356 97.6775  10
  -1  17   5 932.790 182.728   8
  -1  17   6 8879.03 493.953   1
  -1 -17   6 8977.02 360.288   3
  -1 -17   6 9778.53 452.576   5
  -1  17   6 9508.14 342.318   4
  -1  17   6 9022.03 381.914  10
  -1 -17   6 9006.18 362.334   9
  -1  17   6 8993.16 517.977   8
  -1  17   7 5587.15 398.101   1
  -1 -17   7 5270.96 277.230   3
  -1 -17   7 6023.35 352.418   5
  -1  17   7 5152.53 259.250   4
  -1  17   7 5296.15 287.270  10
  -1  17   7 5494.58 425.953   8
  -1 -17   7 5101.79 265.435   9
  -1  17   8 187.088 78.6010   4
  -1  17   8 169.759 122.744   1
  -1 -17   8 101.662 74.5789   3
  -1 -17   8 162.495 87.8012   5
  -1 -17   8 29.4257 61.0974   9
  -1  17   8 204.151 147.212   8
  -1  17   9 3096.56 298.335   1
  -1 -17   9 3650.05 229.668   3
  -1 -17   9 3623.59 279.941   5
  -1  17   9 3198.51 211.381   4
  -1  17   9 2788.77 327.121   8
  -1  17  10 2754.69 291.613   1
  -1 -17  10 3075.59 215.761   3
  -1  17  10 2450.25 195.826   4
  -1 -17  10 2484.02 236.189   5
  -1  17  10 2658.84 337.572   8
  -1  17  11 536.766 111.182   4
  -1  17  11 763.149 158.087   1
  -1 -17  11 639.833 105.309   3
  -1 -17  11 566.251 136.066   5
  -1  17  11 161.869 157.463   8
  -1 -17  12 20925.8 729.926   5
  -1  17  12 18382.6 625.801   4
  -1  17  12 19130.6 920.905   8
  -1 -17  13 6119.90 384.914   5
  -1  17  13 5002.98 316.749   4
  -1  17  13 5222.72 497.264   8
  -1 -17  14 6279.80 395.901   5
  -1  17  14 6715.52 382.537   4
  -1 -17  15 3917.14 312.180   5
  -1  17  15 3921.26 298.229   4
  -1 -17  16 3555.00 311.463   5
  -1 -19 -13 524.178 121.106   6
  -1 -19 -12 1645.58 197.639   6
  -1 -19 -11 240.396 95.3638   6
  -1 -19 -11 326.695 156.196  11
  -1 -19 -11 196.986 137.232   9
  -1  19 -11 230.813 103.803  10
  -1 -19 -10 696.370 135.133   6
  -1 -19 -10 624.739 176.444  11
  -1 -19 -10 645.425 153.188   9
  -1  19 -10 436.899 126.765  10
  -1 -19  -9 1901.22 194.507   6
  -1 -19  -9 1797.31 249.463  11
  -1 -19  -9 2009.94 253.236   9
  -1  19  -9 1664.06 210.190  10
  -1 -19  -8 6549.79 365.899   6
  -1  19  -8 6737.61 404.930  10
  -1 -19  -8 7251.93 467.369  11
  -1 -19  -8 7822.98 452.502   9
  -1 -19  -7 4182.51 283.842   6
  -1 -19  -7 4821.08 368.659  11
  -1  19  -7 4876.83 332.728  10
  -1 -19  -7 4600.22 341.276   9
  -1 -19  -6 2697.57 229.857   6
  -1 -19  -6 2888.80 283.302   5
  -1 -19  -6 3093.11 302.815  11
  -1  19  -6 2254.32 226.315  10
  -1 -19  -6 2460.12 255.118   9
  -1 -19  -5 2768.15 277.326   5
  -1  19  -5 2194.61 179.058   2
  -1  19  -5 2335.09 221.162  10
  -1 -19  -5 2539.71 262.455  11
  -1 -19  -5 2126.75 225.000   9
  -1 -19  -4 6359.23 406.030   5
  -1  19  -4 5649.69 276.251   2
  -1 -19  -4 5577.67 371.595  11
  -1  19  -4 5504.93 335.891  10
  -1 -19  -4 6027.87 362.697   9
  -1 -19  -3 10142.7 504.911   5
  -1 -19  -3 10441.9 501.447  11
  -1  19  -3 9620.91 441.963  10
  -1 -19  -3 9871.90 466.281   9
  -1 -19  -2 6027.46 384.910   5
  -1 -19  -2 5393.16 347.624  11
  -1  19  -2 5303.40 311.136  10
  -1 -19  -2 5281.45 333.956   9
  -1 -19  -1 3324.58 287.671   5
  -1  19  -1 3153.87 300.934   1
  -1 -19  -1 3153.10 260.428  11
  -1  19  -1 3029.71 231.067  10
  -1 -19  -1 3153.77 254.298   9
  -1 -19   0 3658.29 292.087   5
  -1  19   0 4018.08 337.701   1
  -1  19   0 3673.74 249.951  10
  -1 -19   0 3645.44 271.917  11
  -1  19   0 3817.76 333.514   8
  -1 -19   0 3733.09 274.669   9
  -1 -19   1 2064.55 227.297   5
  -1  19   1 2216.60 262.175   1
  -1  19   1 2038.91 189.131  10
  -1 -19   1 1834.07 192.550  11
  -1 -19   1 1708.24 186.750   9
  -1  19   1 2078.31 252.365   8
  -1 -19   2 2172.20 235.776   5
  -1  19   2 2276.71 265.958   1
  -1  19   2 2094.36 191.921  10
  -1 -19   2 2396.84 208.424  11
  -1 -19   2 2385.38 218.821   9
  -1  19   2 2573.33 287.373   8
  -1 -19   3 5023.53 334.906   5
  -1  19   3 4610.46 370.592   1
  -1 -19   3 4857.98 274.426  11
  -1  19   3 4982.78 291.064  10
  -1  19   3 4709.63 386.523   8
  -1 -19   3 4871.88 297.825   9
  -1  19   4 1607.83 231.563   1
  -1  19   4 1205.64 119.847   4
  -1 -19   4 1374.12 195.784   5
  -1 -19   4 1770.63 184.408   9
  -1  19   4 1835.85 174.037  10
  -1  19   4 1524.74 237.141   8
  -1  19   5 1349.84 124.026   4
  -1  19   5 1236.87 215.368   1
  -1 -19   5 1015.47 162.225   5
  -1 -19   5 1029.23 145.911   9
  -1  19   5 1439.98 155.994  10
  -1  19   5 1156.88 211.314   8
  -1  19   6 8116.83 497.513   1
  -1  19   6 7188.81 315.512   4
  -1 -19   6 8038.73 433.800   5
  -1  19   6 7849.44 520.516   8
  -1  19   6 8672.66 377.135  10
  -1 -19   6 8115.49 366.981   9
  -1  19   7 3123.94 320.680   1
  -1 -19   7 2995.93 226.877   3
  -1 -19   7 3180.15 273.969   5
  -1  19   7 3262.88 211.665   4
  -1 -19   7 2999.05 218.395   9
  -1  19   7 3124.15 358.774   8
  -1 -19   8 6991.87 341.532   3
  -1  19   8 6698.26 459.488   1
  -1 -19   8 6582.85 397.743   5
  -1  19   8 7297.40 327.056   4
  -1  19   8 6934.80 516.004   8
  -1  19   9 4161.04 364.804   1
  -1 -19   9 4608.82 279.474   3
  -1 -19   9 4307.26 323.897   5
  -1  19   9 4719.15 268.706   4
  -1  19   9 4897.72 445.661   8
  -1  19  10 165.021 122.748   1
  -1  19  10 256.722 96.4935   4
  -1 -19  10 168.141 85.2386   5
  -1  19  10 234.930 178.072   8
  -1  19  11 1193.70 160.700   4
  -1  19  11 1395.75 232.084   1
  -1 -19  11 1407.45 196.290   5
  -1  19  11 1346.24 274.609   8
  -1  19  12 817.315 143.427   4
  -1 -19  12 698.367 149.970   5
  -1  19  13 1667.52 198.878   4
  -1 -19  13 1472.30 207.530   5
  -1 -19  14 398.169 126.649   5
  -1 -21 -11 4002.77 313.296   6
  -1 -21 -10 583.433 129.012   6
  -1 -21  -9 1390.72 189.607   6
  -1  21  -9 1400.12 203.296  10
  -1 -21  -8 2914.22 252.790   6
  -1  21  -8 2415.71 248.413  10
  -1 -21  -8 2745.12 304.258  11
  -1  21  -7 4133.10 322.020  10
  -1 -21  -7 3993.28 359.261  11
  -1 -21  -7 3836.83 332.821   9
  -1 -21  -6 1037.41 190.593  11
  -1 -21  -6 988.715 196.483   9
  -1  21  -6 667.491 136.855  10
  -1 -21  -5 4813.27 380.881   5
  -1  21  -5 4248.85 314.533  10
  -1 -21  -5 4518.39 362.507  11
  -1 -21  -5 4760.21 353.258   9
  -1 -21  -4 629.646 159.375   5
  -1 -21  -4 850.471 172.906  11
  -1 -21  -4 572.070 153.252   9
  -1  21  -4 957.350 150.731  10
  -1 -21  -3 1286.75 210.825   5
  -1 -21  -3 1095.80 180.816  11
  -1 -21  -3 1118.24 193.484   9
  -1  21  -3 808.374 135.307  10
  -1 -21  -2 5574.34 394.350   5
  -1  21  -2 5491.79 418.239   1
  -1  21  -2 4800.29 315.858  10
  -1 -21  -2 5623.20 378.916  11
  -1  21  -2 6066.95 439.560   8
  -1 -21  -2 5191.50 353.168   9
  -1 -21  -1 1829.22 234.675   5
  -1  21  -1 2003.86 264.352   1
  -1  21  -1 1813.00 190.611  10
  -1 -21  -1 1883.98 218.425  11
  -1 -21  -1 2086.77 232.328   9
  -1  21  -1 1613.77 242.362   8
  -1 -21   0 20404.7 776.625   5
  -1  21   0 20484.2 841.039   1
  -1  21   0 19815.1 661.406  10
  -1 -21   0 20845.9 716.510  11
  -1  21   0 21853.2 878.682   8
  -1 -21   0 19841.3 710.858   9
  -1 -21   1 2730.43 274.468   5
  -1  21   1 2612.31 295.048   1
  -1  21   1 3021.77 232.526  10
  -1 -21   1 2706.99 234.654  11
  -1 -21   1 2499.16 238.530   9
  -1  21   1 3302.06 335.662   8
  -1 -21   2 5757.46 385.734   5
  -1  21   2 5657.25 427.484   1
  -1  21   2 5386.35 314.131  10
  -1  21   2 4916.61 409.722   8
  -1 -21   2 5296.39 336.353   9
  -1  21   3 2285.21 266.674   1
  -1 -21   3 1998.64 241.631   5
  -1 -21   3 1763.70 202.213   9
  -1  21   3 1610.81 243.092   8
  -1  21   4 1489.26 244.162   1
  -1 -21   4 1514.93 205.060   5
  -1 -21   4 1591.49 196.840   9
  -1  21   4 1488.13 248.884   8
  -1  21   5 838.490 218.936   1
  -1 -21   5 618.988 156.189   5
  -1 -21   5 911.635 150.685   9
  -1  21   5 453.699 189.822   8
  -1  21   6 3951.84 367.534   1
  -1 -21   6 3826.04 317.955   5
  -1 -21   6 3906.69 272.311   9
  -1  21   6 3590.46 383.521   8
  -1  21   7 2323.21 295.369   1
  -1 -21   7 2179.61 244.841   5
  -1  21   7 2597.11 341.388   8
  -1  21   8 4216.15 386.589   1
  -1 -21   8 3723.08 318.067   5
  -1  21   8 3517.06 415.360   8
  -1 -21   9 2392.82 257.258   5
  -1 -21  10 413.046 125.444   5
  -1 -21  11 1085.88 191.140   5
  -1  23  -7 1339.25 202.704  10
  -1  23  -6 1023.65 185.104  10
  -1 -23  -5 2539.92 290.052  11
  -1  23  -5 2123.74 237.694  10
  -1 -23  -4 2465.55 288.572  11
  -1  23  -4 2128.24 237.312  10
  -1  23  -4 2315.55 313.210   8
  -1 -23  -3 2961.04 295.030  11
  -1  23  -3 2959.59 339.271   8
  -1 -23  -2 5385.25 418.174   5
  -1  23  -2 5015.66 422.749   1
  -1 -23  -2 4845.15 363.509  11
  -1  23  -2 4899.82 422.147   8
  -1 -23  -2 5624.93 388.739   9
  -1 -23  -1 1392.58 231.717   5
  -1  23  -1 1737.08 270.665   1
  -1 -23  -1 1353.21 202.331  11
  -1 -23  -1 1363.48 216.555   9
  -1  23  -1 2024.04 290.013   8
  -1  23   0 983.762 215.441   1
  -1 -23   0 747.934 162.414   5
  -1 -23   0 1287.20 200.775   9
  -1  23   0 711.319 187.704   8
  -1  23   1 6115.08 474.213   1
  -1 -23   1 5828.61 417.216   5
  -1  23   1 6174.95 482.028   8
  -1 -23   1 6118.62 397.279   9
  -1  23   2 2304.36 315.722   1
  -1 -23   2 3704.36 332.861   5
  -1 -23   2 2612.56 264.197   9
  -1  23   2 3448.80 362.282   8
  -1 -23   3 5478.69 400.664   5
  -1 -23   3 5925.17 375.378   9
  -1 -23   4 5317.76 393.440   5
  -1 -23   4 5845.28 371.027   9
  -1 -23   5 5236.11 388.449   5
  -1 -23   6 6434.10 424.094   5
  -1 -23   7 672.157 184.975   5
   0   0 -21 103.000 114.997  10
   0   0 -20 220.282 108.577   6
   0   0 -20 120.590 114.794  10
   0   0 -19 148.484 86.9957   6
   0   0 -19 69.4824 95.9734  10
   0   0 -18 4160.87 297.859  10
   0   0 -18 4076.71 288.632   6
   0   0 -17 129.366 85.0646   6
   0   0 -17-125.468 99.3154  10
   0   0 -16 14626.1 534.062  10
   0   0 -16 14769.8 494.300  11
   0   0 -16 13954.2 528.435   6
   0   0 -15 196.880 84.0137   6
   0   0 -15 239.110 74.9776  11
   0   0 -15 132.915 89.8231  10
   0   0 -14 52419.1 1142.12  10
   0   0 -14 52964.0 1097.13  11
   0   0 -14 50907.3 1146.60   6
   0   0 -13 256.605 81.1465   6
   0   0 -13 90.2214 49.8132  11
   0   0 -13 33.9173 80.8618  10
   0   0 -12 192345. 3155.02  11
   0   0 -12 193597. 3197.75  10
   0   0 -12 191979. 3210.55   6
   0   0 -11 8.76021 45.6084   6
   0   0 -11-37.8422 45.0990  11
   0   0 -11 58.9903 71.9012  10
   0   0 -10 13630.1 399.715  10
   0   0 -10 12005.8 370.887  11
   0   0  -9 22.0803 38.7649  11
   0   0  -9 16.1176 51.6891  10
   0   0  -8 53629.9 1013.77  11
   0   0  -8 58056.7 1041.81  10
   0   0  -7 146.367 49.6609  11
   0   0  -7 187.202 37.1580   9
   0   0  -7 246.632 68.0504  10
   0   0  -6 48494.6 852.179  11
   0   0  -6 47291.3 860.039  10
   0   0  -6 47115.5 781.674   9
   0   0  -5 6.09706 26.4033   4
   0   0  -5-8.90905 30.1746  11
   0   0  -5 13.8493 22.9922   9
   0   0  -5 13.9981 34.7653  10
   0   0  -4 27185.4 500.038  11
   0   0  -4 26261.0 501.406  10
   0   0  -4 27507.3 453.675   9
   0   0  -3-3.30503 21.4148  11
   0   0  -3 23.0404 17.0989   9
   0   0  -3-21.9739 24.5190  10
   0   0   3-10.4158 25.6918   4
   0   0   3 1.53429 23.5081  11
   0   0   3 5.27259 14.0232   9
   0   0   3 12.2224 18.7433  10
   0   0   4 27236.9 487.813   4
   0   0   4 27233.1 498.784  11
   0   0   4 26733.0 498.345  10
   0   0   4 26049.5 442.382   9
   0   0   5 1.90660 36.5733   4
   0   0   5 36.9255 31.8935  11
   0   0   5 7.77715 17.7465   9
   0   0   5 17.4237 28.2277  10
   0   0   6 47570.6 840.236   4
   0   0   6 47106.3 855.634  11
   0   0   6 47710.3 862.247  10
   0   0   6 47038.6 770.630   9
   0   0   7 27.8630 52.5032   4
   0   0   7 167.974 48.7858  11
   0   0   7 125.349 28.9898   9
   0   0   7 152.881 48.1853  10
   0   0   8 52124.3 965.676   4
   0   0   8 52943.7 984.185  11
   0   0   8 52482.8 992.372  10
   0   0   8 52032.3 866.641   9
   0   0   9-34.7448 58.7338   4
   0   0   9 60.5289 42.6773  11
   0   0   9 15.6973 21.5327   9
   0   0   9-12.3983 38.6260  10
   0   0  10 13137.1 385.721   4
   0   0  10 13359.7 395.481  11
   0   0  10 13247.4 406.792  10
   0   0  10 12822.5 291.635   9
   0   0  11-19.2539 66.1906   4
   0   0  11 49.3468 46.3458  11
   0   0  11 30.8513 22.0447   9
   0   0  12 184237. 3084.84   4
   0   0  12 188833. 2906.43   9
   0   0  13 252.165 94.8203   4
   0   0  13 93.3534 51.3772  11
   0   0  13 115.505 33.2190   9
   0   0  14 52264.6 1118.46   4
   0   0  14 53646.6 932.937   9
   0   0  15 242.949 95.9736   4
   0   0  16 13931.9 498.045   4
   0   0  17 137.640 90.7138   4
   0   0  18 4116.78 280.941   4
   0   0  19 123.673 84.9222   4
   0   0  20 141.296 90.1709   4
   0   0  21 277.703 112.701   4
   0   2 -21 1410.86 220.958  10
   0   2 -20 1930.03 225.786   6
   0  -2 -20 1695.37 206.341   6
   0   2 -20 1651.54 218.345  10
   0  -2 -19 10399.9 476.828  10
   0   2 -19 10122.6 497.938  10
   0   2 -19 10510.7 500.996   6
   0  -2 -19 9984.95 490.490   6
   0   2 -18 11277.6 516.407  10
   0  -2 -18 11409.2 482.509  10
   0  -2 -18 11367.6 504.288   6
   0   2 -18 11677.8 508.276   6
   0   2 -17 15298.7 587.522  10
   0  -2 -17 16104.5 564.928  11
   0  -2 -17 14733.6 544.435  10
   0  -2 -17 15114.6 569.511   6
   0   2 -17 14532.0 564.378   6
   0  -2 -16 16657.4 558.616  10
   0   2 -16 16603.2 594.679  10
   0  -2 -16 16394.4 393.546  12
   0  -2 -16 16290.7 561.297  11
   0  -2 -16 16073.8 572.682   6
   0   2 -16 16095.6 579.140   6
   0  -2 -15 18482.7 431.989  12
   0  -2 -15 17747.3 564.183  10
   0   2 -15 18140.9 605.007  10
   0  -2 -15 17584.0 582.210  11
   0  -2 -15 18510.9 599.305   6
   0   2 -15 19221.7 608.223   6
   0  -2 -14 10077.0 391.877  10
   0   2 -14 10135.6 415.159  10
   0  -2 -14 9325.51 281.900  12
   0   2 -14 10395.8 345.818  11
   0  -2 -14 9934.66 397.898  11
   0  -2 -14 10383.8 412.666   6
   0   2 -14 10166.2 411.468   6
   0  -2 -13 9344.74 358.499  10
   0  -2 -13 8753.97 266.765  12
   0   2 -13 8870.17 376.213  10
   0   2 -13 9799.86 321.941  11
   0  -2 -13 9244.03 368.328  11
   0  -2 -13 8967.51 370.049   6
   0   2 -13 8484.77 362.171   6
   0   2 -12 12685.0 362.110  11
   0   2 -12 11888.1 423.662  10
   0  -2 -12 12707.1 407.875  10
   0  -2 -12 11828.1 315.607  12
   0  -2 -12 11878.5 415.956  11
   0   2 -12 11936.9 418.559   6
   0  -2 -12 11783.0 415.312   6
   0  -2 -11 4838.24 230.944  10
   0  -2 -11 4703.04 176.756  12
   0   2 -11 4821.58 244.163  10
   0   2 -11 4671.89 198.342  11
   0  -2 -11 4977.79 248.427  11
   0   2 -11 4840.97 239.955   6
   0  -2 -11 4667.21 239.831   6
   0  -2 -10 98697.0 1691.99   2
   0  -2 -10 100638. 1786.72  11
   0  -2 -10 103523. 1752.83  10
   0   2 -10 102325. 1787.48  10
   0   2 -10 97982.6 1690.50  11
   0   2 -10 102041. 1780.42   6
   0  -2 -10 101102. 1674.02   9
   0   2  -9 7512.93 260.698   4
   0  -2  -9 7534.95 286.625  11
   0  -2  -9 8313.23 277.839  10
   0   2  -9 7738.51 238.549  11
   0   2  -9 8066.73 289.724  10
   0  -2  -9 7718.00 336.564   8
   0  -2  -9 8013.31 241.410   9
   0   2  -8 7141.35 239.338   4
   0  -2  -8 7392.46 220.372   2
   0   2  -8 7301.36 265.694  10
   0  -2  -8 7009.75 269.191  11
   0  -2  -8 7834.27 253.733  10
   0   2  -8 7261.62 214.034  11
   0  -2  -8 7314.99 222.256   9
   0  -2  -8 7675.28 318.281   8
   0   2  -7 13266.2 338.525   4
   0  -2  -7 14263.5 320.516   2
   0   2  -7 13953.6 309.816  11
   0  -2  -7 13872.2 383.329  11
   0   2  -7 13548.4 364.859  10
   0  -2  -7 13601.5 343.767  10
   0  -2  -7 14026.1 303.194  12
   0  -2  -7 13719.2 427.253   8
   0  -2  -7 13812.6 325.025   9
   0   2  -6 245849. 3809.59   4
   0  -2  -6 244347. 3778.94   2
   0   2  -6 248196. 3760.16  11
   0  -2  -6 248733. 3875.35  11
   0   2  -6 248710. 3844.88  10
   0  -2  -6 250065. 3759.73  12
   0  -2  -6 247821. 3816.04  10
   0  -2  -6 253304. 3941.36   8
   0  -2  -6 247485. 3790.66   9
   0   2  -5 19066.8 396.354   4
   0  -2  -5 19368.5 375.456   2
   0   2  -5 19628.1 358.825  11
   0  -2  -5 19695.5 445.395  11
   0   2  -5 19439.1 425.014  10
   0  -2  -5 20016.9 367.508  12
   0  -2  -5 19174.1 396.499  10
   0  -2  -5 19486.9 476.072   8
   0  -2  -5 19208.4 416.417   6
   0  -2  -5 19345.4 391.266   9
   0   2  -4 143631. 2263.58   4
   0  -2  -4 143786. 2238.90   2
   0  -2  -4 151927. 2314.43   1
   0   2  -4 144775. 2213.51  11
   0  -2  -4 148648. 2324.57  11
   0  -2  -4 147722. 2259.19  10
   0  -2  -4 150553. 2234.14  12
   0   2  -4 141943. 2299.43  10
   0  -2  -4 148063. 2358.40   8
   0  -2  -4 151564. 2267.98   9
   0  -2  -4 143806. 2286.97   6
   0   2  -3 16195.9 324.076   4
   0  -2  -3 17387.2 306.588   2
   0  -2  -3 17392.7 364.754   1
   0  -2  -3 17767.1 373.783  11
   0   2  -3 17567.4 353.379  10
   0  -2  -3 18324.4 311.098  12
   0  -2  -3 17420.4 320.759  10
   0  -2  -3 17244.2 339.763   6
   0  -2  -3 17156.0 335.224   9
   0  -2  -3 17880.8 390.890   8
   0   2  -2 49461.4 792.443   4
   0   2  -2 47668.0 798.669   5
   0  -2  -2 49731.3 773.029   2
   0  -2  -2 52042.4 834.239   1
   0  -2  -2 51293.2 847.760  11
   0  -2  -2 50769.3 783.660  12
   0   2  -2 49352.9 818.089  10
   0  -2  -2 50366.6 802.122   6
   0  -2  -2 50064.5 810.188   9
   0  -2  -2 50891.8 808.738   7
   0  -2   2 50586.4 799.601   4
   0   2   2 48545.8 806.208   4
   0   2   2 50658.7 779.772   2
   0  -2   2 50607.9 809.491   3
   0   2   2 51967.1 797.835  12
   0   2   2 50917.3 790.234  10
   0   2   2 50683.9 818.952   9
   0   2   2 49719.8 812.624   6
   0  -2   3 16487.1 322.446   4
   0  -2   3 16856.0 325.791   5
   0   2   3 17332.6 331.071   4
   0   2   3 17226.1 373.285  11
   0   2   3 17415.2 322.614  10
   0   2   3 17658.1 316.149  12
   0   2   3 17340.8 342.162   6
   0   2   3 17387.5 334.608   9
   0  -2   4 145258. 2255.30   4
   0   2   4 149851. 2271.14   4
   0   2   4 146677. 2257.53  10
   0  -2   4 146719. 2210.10  11
   0   2   4 144822. 2287.63   6
   0   2   4 143842. 2257.23   9
   0   2   5 19076.4 403.640   4
   0  -2   5 18730.7 391.256   4
   0   2   5 19770.1 448.214  11
   0  -2   5 19119.9 359.083  11
   0   2   5 20213.9 400.513  10
   0   2   5 19451.3 421.975   6
   0   2   5 18827.1 382.576   9
   0   2   6 243932. 3818.96   4
   0  -2   6 249864. 3809.36   4
   0   2   6 250515. 3821.59  10
   0  -2   6 247528. 3773.93  11
   0   2   6 248870. 3858.72   6
   0   2   6 249182. 3789.48   9
   0   2   7 14176.3 346.925   4
   0  -2   7 13524.0 339.765   4
   0   2   7 13400.6 346.287  10
   0   2   7 13672.6 389.044  11
   0  -2   7 13642.9 314.279  11
   0   2   7 13955.1 317.231   9
   0  -2   8 7286.61 241.058   4
   0   2   8 7310.88 247.881   4
   0   2   8 7503.89 280.927  11
   0   2   8 7204.73 247.991  10
   0  -2   8 7146.25 218.607  11
   0   2   8 7122.95 212.581   9
   0  -2   9 7554.52 260.355   4
   0   2   9 8001.88 270.861   4
   0   2   9 7914.92 304.669  11
   0   2   9 7932.29 275.895  10
   0  -2   9 7632.38 242.653  11
   0  -2   9 7786.69 295.797  10
   0   2   9 7897.19 233.667   9
   0  -2  10 101921. 1743.02   4
   0   2  10 101896. 1760.41   4
   0   2  10 101818. 1773.78  10
   0  -2  10 100344. 1712.76  11
   0   2  10 102538. 1678.37   9
   0  -2  11 4706.10 220.934   4
   0   2  11 4883.18 231.987   4
   0   2  11 4892.89 257.200  11
   0  -2  11 4687.26 202.583  11
   0   2  11 4880.51 185.498   9
   0  -2  12 11610.1 386.109   4
   0   2  12 11691.8 397.571   4
   0  -2  12 12447.0 369.856  11
   0   2  12 12289.3 332.101   9
   0  -2  13 9251.54 348.948   4
   0   2  13 9067.60 356.340   4
   0  -2  13 8901.64 321.582  11
   0   2  13 9353.35 285.937   9
   0  -2  14 9780.46 378.616   4
   0   2  14 10002.7 394.167   4
   0   2  14 10380.1 310.081   9
   0  -2  15 17328.6 545.447   4
   0   2  15 17689.6 564.114   4
   0  -2  16 16389.5 545.518   4
   0   2  16 16117.6 550.069   4
   0  -2  17 14353.3 521.535   4
   0   2  17 14325.0 525.507   4
   0  -2  18 10934.0 462.170   4
   0   2  18 10628.1 470.735   4
   0   2  19 9937.24 467.574   4
   0  -2  19 10396.1 473.107   4
   0  -2  19 9396.80 458.524   5
   0  -2  20 1681.69 201.745   4
   0   2  20 1429.60 196.324   4
   0  -2  20 1291.21 175.783   5
   0  -2  21 1038.65 164.982   4
   0  -2  21 1337.68 193.245   5
   0  -2  22 1975.36 237.215   5
   0   4 -20 3506.82 329.667  10
   0  -4 -20 3723.60 307.303   6
   0   4 -20 3749.93 303.957   6
   0   4 -19 4150.80 333.498  10
   0   4 -19 3926.04 306.063   6
   0  -4 -19 3704.19 295.289   6
   0  -4 -18 2036.82 213.554  11
   0   4 -18 2262.98 242.658  10
   0  -4 -18 2066.25 211.669   6
   0   4 -18 2171.24 219.646   6
   0  -4 -17 7711.82 399.617  11
   0   4 -17 7038.50 399.575  10
   0   4 -17 7469.51 395.419   6
   0  -4 -17 7246.91 380.910   6
   0   4 -16 1202.45 159.868   6
   0  -4 -16 1218.41 152.782   6
   0  -4 -16 1046.95 146.184  11
   0   4 -16 1143.62 172.983  10
   0   4 -15 1303.66 160.667   6
   0  -4 -15 1744.07 92.0208  12
   0  -4 -15 1660.66 178.751  11
   0  -4 -15 1836.04 178.770   6
   0   4 -15 1834.71 199.115  10
   0  -4 -14 6673.48 198.390  12
   0   4 -14 6758.01 346.927  10
   0  -4 -14 6723.90 343.802  11
   0  -4 -14 7025.22 334.213   6
   0   4 -14 6319.18 320.060   6
   0  -4 -13 42625.5 996.271  11
   0  -4 -13 41333.1 746.742  12
   0  -4 -13 42710.2 911.678  10
   0   4 -13 40123.6 975.924  10
   0  -4 -13 41489.1 954.553   6
   0   4 -13 41088.3 954.256   6
   0  -4 -12 15586.5 349.168  12
   0  -4 -12 15419.1 451.011  10
   0   4 -12 15040.8 503.448  10
   0  -4 -12 15381.1 513.604  11
   0  -4 -12 16010.8 490.085   6
   0   4 -12 16383.2 501.148   6
   0  -4 -11 33215.3 683.456   2
   0  -4 -11 33818.1 824.248  11
   0  -4 -11 33573.9 621.982  12
   0  -4 -11 34727.5 736.801  10
   0   4 -11 32534.8 796.353  10
   0  -4 -11 32826.5 771.678   6
   0   4 -11 32950.4 777.689   6
   0  -4 -11 34039.1 724.072   9
   0  -4 -10 6925.13 307.211  11
   0   4 -10 7216.73 302.258  10
   0  -4 -10 6923.32 256.287  10
   0  -4 -10 7113.67 201.462  12
   0   4 -10 7130.88 284.823   6
   0  -4 -10 7450.33 289.755   6
   0  -4 -10 7398.37 264.363   9
   0   4  -9 7032.86 250.705   4
   0  -4  -9 6870.71 220.255   2
   0  -4  -9 7454.28 303.628  11
   0   4  -9 7184.32 282.604  10
   0  -4  -9 7272.50 199.115  12
   0  -4  -9 6479.25 238.690  10
   0   4  -9 7067.24 273.239   6
   0  -4  -9 7305.67 273.487   6
   0  -4  -9 7441.75 258.020   9
   0   4  -8 3780.67 168.455   4
   0  -4  -8 3642.76 143.548   2
   0  -4  -8 3555.92 201.177   1
   0  -4  -8 3621.94 205.318  11
   0   4  -8 3651.30 186.076  10
   0  -4  -8 3954.95 165.577  10
   0  -4  -8 3596.01 127.580  12
   0  -4  -8 3994.05 230.214   8
   0  -4  -8 3784.28 172.853   9
   0   4  -7 9114.67 268.307   4
   0  -4  -7 9609.07 325.186   1
   0  -4  -7 9307.86 238.091   2
   0  -4  -7 9815.39 327.657  11
   0   4  -7 9103.52 303.925  10
   0  -4  -7 9383.17 224.687  12
   0  -4  -7 9765.66 356.073   8
   0  -4  -7 9185.73 276.557   9
   0   4  -6 76976.1 1295.69   4
   0  -4  -6 77102.9 1249.62   2
   0  -4  -6 80092.3 1398.55   1
   0  -4  -6 78071.4 1395.41  11
   0   4  -6 74149.4 1351.68  10
   0  -4  -6 77938.8 1243.57  12
   0  -4  -6 77115.6 1430.53   8
   0  -4  -6 78377.8 1320.34   9
   0  -4  -6 78060.8 1323.42   6
   0   4  -5 72458.8 1222.72   4
   0  -4  -5 77522.8 1323.11   1
   0  -4  -5 74397.2 1181.89   2
   0  -4  -5 73653.8 1324.89  11
   0  -4  -5 74961.5 1187.36  12
   0   4  -5 75449.7 1282.17  10
   0  -4  -5 74005.4 1348.23   8
   0  -4  -5 73397.3 1256.40   9
   0  -4  -5 73849.2 1250.69   6
   0  -4  -5 74013.6 1254.36   7
   0   4  -4 27815.2 528.107   4
   0   4  -4 26249.7 534.512   5
   0  -4  -4 29018.8 547.600   4
   0  -4  -4 29715.6 494.512   2
   0  -4  -4 29877.8 606.751   1
   0  -4  -4 29605.8 615.030  11
   0  -4  -4 29534.8 507.251  12
   0   4  -4 29568.9 574.753  10
   0   4  -4 28786.2 466.908   9
   0  -4  -4 29989.4 548.179   6
   0  -4  -4 29705.9 626.860   8
   0  -4  -4 28610.8 562.757   9
   0  -4  -4 28319.7 556.775   7
   0   4  -3 11673.8 251.729   4
   0   4  -3 11630.6 259.536   5
   0  -4  -3 11529.4 266.819   4
   0  -4  -3 11961.8 222.903   2
   0  -4  -3 11969.1 305.341   1
   0  -4  -3 11783.2 318.626  11
   0  -4  -3 11611.1 244.501  12
   0   4  -3 11933.5 285.988  10
   0  -4  -3 11715.9 281.113   7
   0  -4  -3 11275.7 256.992   6
   0  -4  -3 12387.5 319.683   8
   0  -4  -3 11934.5 284.312   9
   0   4  -3 11561.3 222.198   9
   0   4  -2 22125.8 420.946   5
   0  -4  -2 23349.8 412.283   6
   0  -4  -2 23213.7 463.606   5
   0  -4  -2 21780.2 428.913   4
   0   4  -2 22340.1 432.519   3
   0  -4  -2 22798.5 384.510   2
   0  -4  -2 24827.7 477.066   1
   0  -4  -2 23315.9 480.871  11
   0   4  -2 23281.4 392.321  11
   0   4  -2 23206.6 441.893  10
   0  -4  -2 22721.0 413.621  12
   0  -4  -2 24343.7 467.421   7
   0  -4  -2 23374.4 481.482   8
   0  -4  -2 23726.5 452.169   9
   0   4  -2 22163.8 403.244   9
   0   4  -1 19271.2 370.118   5
   0  -4  -1 19765.9 342.959   6
   0  -4  -1 20065.2 393.660   5
   0   4  -1 19371.1 374.649   3
   0  -4  -1 19313.5 337.536   2
   0  -4  -1 19744.8 402.482  11
   0   4  -1 20016.3 363.670  11
   0   4  -1 20092.4 371.331  10
   0  -4  -1 20136.2 360.169  12
   0  -4  -1 19421.3 383.098   9
   0   4  -1 19330.4 360.202   9
   0   4   0 63708.0 1043.19   5
   0   4   0 63752.8 998.236   6
   0  -4   0 64151.5 1004.23   6
   0  -4   0 63636.3 1042.57   5
   0   4   0 62396.5 1009.29   2
   0   4   0 63513.7 1037.68   3
   0  -4   0 65056.1 1047.39  11
   0  -4   0 62826.6 1022.34  12
   0   4   0 62232.9 1027.72  12
   0  -4   0 63220.0 1020.17  10
   0   4   0 66445.8 1019.63  10
   0   4   0 66632.3 1103.20   7
   0   4   0 64254.2 1036.91   9
   0  -4   1 19767.0 378.343   5
   0   4   1 19186.3 349.450   6
   0   4   1 19603.4 392.722   5
   0   4   1 19473.8 365.939   4
   0   4   1 20165.3 336.209   2
   0  -4   1 19396.4 375.098   3
   0   4   1 22934.0 417.268   1
   0  -4   1 19512.8 361.600  11
   0   4   1 19812.8 412.797  11
   0   4   1 20082.4 369.237  12
   0   4   1 19348.9 407.265   7
   0  -4   1 20561.0 380.534  10
   0  -4   1 19844.4 366.349   9
   0   4   2 23515.7 426.633   4
   0  -4   2 23531.7 428.266   5
   0  -4   2 22484.4 434.798   3
   0   4   2 22912.1 383.570   2
   0   4   2 24420.4 470.670   1
   0   4   2 23019.2 424.267  12
   0  -4   2 22279.9 389.875  11
   0  -4   2 22905.6 445.234  10
   0   4   2 22212.8 450.875   7
   0   4   2 23348.6 418.738   6
   0  -4   2 23693.8 409.062   9
   0   4   3 11734.8 260.402   4
   0  -4   3 11174.1 254.992   5
   0   4   3 10955.6 219.448   2
   0  -4   3 11543.6 268.111   3
   0   4   3 12539.5 303.270   1
   0   4   3 11705.8 255.125  12
   0  -4   3 11690.7 283.138  10
   0   4   3 11735.6 262.313   6
   0  -4   3 11846.0 223.565   9
   0   4   3 12022.1 283.790   9
   0   4   4 28663.5 533.934   4
   0  -4   4 28109.0 524.955   5
   0   4   4 27351.5 484.379   2
   0   4   4 30372.6 579.699   1
   0  -4   4 28675.9 538.793   3
   0  -4   4 28639.3 564.599  10
   0   4   4 28785.6 507.476  10
   0   4   4 29285.0 518.503  12
   0  -4   4 26590.1 456.093   9
   0   4   4 29104.9 548.024   6
   0   4   4 29458.1 555.832   9
   0  -4   5 71251.4 1218.15   4
   0  -4   5 72636.6 1225.13   5
   0   4   5 73063.5 1236.37   4
   0   4   5 75857.5 1214.75  12
   0   4   5 75315.2 1211.85  10
   0   4   5 74149.0 1256.96   6
   0   4   5 76213.3 1254.15   9
   0  -4   6 76813.5 1288.51   4
   0   4   6 77149.3 1312.36   4
   0  -4   6 75071.1 1297.49   5
   0   4   6 79570.6 1290.08  10
   0   4   6 77685.9 1337.07   6
   0   4   6 77759.2 1311.45   9
   0  -4   7 9010.27 262.247   4
   0   4   7 8909.44 276.546   4
   0  -4   7 8793.24 265.130   5
   0   4   7 9349.94 262.992  10
   0   4   7 9048.36 330.889  11
   0  -4   7 9079.55 186.840  11
   0   4   7 9166.20 293.551   6
   0   4   7 9000.90 267.642   9
   0   4   8 4030.85 179.550   4
   0  -4   8 3577.71 161.757   4
   0  -4   8 3637.55 166.260   5
   0   4   8 3579.98 163.097  10
   0  -4   8 3564.32 112.174  11
   0   4   8 3735.23 189.049   6
   0   4   8 3731.00 165.766   9
   0   4   9 7273.27 262.222   4
   0  -4   9 7277.14 252.594   4
   0  -4   9 7104.52 257.550   5
   0   4   9 7259.11 254.238  10
   0   4   9 7456.45 317.330  11
   0  -4   9 6904.52 187.043  11
   0   4   9 7042.12 242.563   9
   0   4  10 7413.47 277.506   4
   0  -4  10 6565.31 254.675   4
   0  -4  10 6209.22 253.608   5
   0   4  10 6800.37 261.433  10
   0  -4  10 7192.03 200.663  11
   0  -4  11 32754.9 730.511   4
   0  -4  11 30309.7 719.404   5
   0   4  11 33682.8 749.337   4
   0   4  11 33549.9 742.421  10
   0  -4  11 33677.9 631.585  11
   0  -4  12 15418.0 458.304   4
   0  -4  12 14690.3 451.949   5
   0   4  12 15493.9 475.392   4
   0  -4  12 16229.6 379.984  11
   0  -4  13 39288.0 894.604   4
   0  -4  13 38424.0 896.940   5
   0   4  13 42178.4 929.520   4
   0  -4  13 42047.0 795.264  11
   0   4  13 41921.6 850.899   9
   0  -4  14 6457.72 301.323   4
   0  -4  14 6271.52 302.906   5
   0   4  14 6556.75 315.102   4
   0  -4  14 6818.34 240.965  11
   0   4  15 1630.76 176.612   4
   0  -4  15 1718.15 164.616   5
   0  -4  15 1719.01 162.762   4
   0  -4  16 1300.03 149.615   4
   0   4  16 1475.65 172.332   4
   0  -4  16 1250.76 152.698   5
   0  -4  17 7088.94 356.598   4
   0   4  17 6986.71 366.542   4
   0  -4  17 7232.63 367.241   5
   0   4  18 2325.62 223.794   4
   0  -4  18 1983.48 198.532   5
   0  -4  18 2096.75 201.536   4
   0  -4  19 4212.67 296.282   4
   0  -4  19 4287.07 302.070   5
   0   4  19 3998.48 299.388   4
   0  -4  20 3352.63 273.445   4
   0   4  20 3682.96 295.629   4
   0  -4  20 3895.72 295.410   5
   0  -4  21 1836.28 215.979   4
   0  -4  21 1570.99 200.812   5
   0  -4  22 2970.13 280.666   5
   0   6 -20 6556.97 446.238  10
   0  -6 -20 6763.35 409.001   6
   0   6 -20 6113.10 396.017   6
   0   6 -19 8616.18 489.619  10
   0  -6 -19 8395.45 469.848  11
   0  -6 -19 8173.40 442.944   6
   0   6 -19 8493.29 456.857   6
   0  -6 -19 8074.56 411.436   7
   0   6 -18 2011.86 217.967   6
   0  -6 -18 2532.56 247.800  11
   0  -6 -18 2444.83 231.411   6
   0   6 -18 2188.44 247.086  10
   0  -6 -18 2237.78 210.868   7
   0  -6 -17 2375.13 234.990  11
   0  -6 -17 1939.91 201.062   6
   0   6 -17 2280.79 221.644   6
   0   6 -17 2273.78 236.704  10
   0   6 -16 360.260 94.5003   6
   0  -6 -16 752.598 117.869   6
   0  -6 -16 736.164 143.577  11
   0   6 -16 720.747 145.429  10
   0   6 -15 581.289 111.915   6
   0  -6 -15 687.066 116.976   6
   0  -6 -15 630.112 133.018  11
   0   6 -15 699.897 138.718  10
   0  -6 -14 7293.49 193.877  12
   0   6 -14 6669.17 355.730  10
   0  -6 -14 7139.16 378.794  11
   0   6 -14 7224.70 344.766   6
   0  -6 -14 7023.87 339.911   6
   0  -6 -13 12110.2 277.848  12
   0   6 -13 11100.5 451.958  10
   0  -6 -13 12186.2 481.534  11
   0   6 -13 11310.4 430.569   6
   0  -6 -13 11394.0 394.642   9
   0  -6 -13 11678.6 434.422   6
   0   6 -12 3062.75 220.327  10
   0  -6 -12 3298.51 127.112  12
   0  -6 -12 3332.12 238.997  11
   0   6 -12 3109.95 209.394   6
   0  -6 -12 3498.16 206.561   9
   0  -6 -12 3582.04 217.155   6
   0  -6 -11 10764.3 308.521   2
   0  -6 -11 11139.0 434.240  11
   0   6 -11 11193.7 413.171  10
   0  -6 -11 11164.5 268.356  12
   0   6 -11 11070.5 386.872   6
   0  -6 -11 10945.9 383.971   6
   0  -6 -11 11403.1 376.427   9
   0  -6 -10 170.913 59.3612   6
   0  -6 -10 139.385 30.4243  12
   0  -6 -10 161.592 78.9656  11
   0  -6 -10 157.432 68.9831   9
   0   6 -10 85.6109 54.1916  10
   0  -6 -10 102.932 44.5468   7
   0   6  -9 5707.66 230.696   4
   0  -6  -9 5939.38 195.814   2
   0  -6  -9 6137.71 294.553  11
   0   6  -9 6041.23 270.345  10
   0  -6  -9 5831.61 176.380  12
   0  -6  -9 5997.13 246.700   6
   0  -6  -9 6013.29 255.640   9
   0  -6  -9 6004.20 248.415   7
   0   6  -8 17891.8 443.893   4
   0  -6  -8 18220.5 392.384   2
   0  -6  -8 18335.2 535.682  11
   0   6  -8 17985.1 499.068  10
   0  -6  -8 18799.6 383.738  12
   0  -6  -8 19027.3 472.335   6
   0  -6  -8 18199.7 474.610   9
   0  -6  -8 18705.1 475.148   7
   0   6  -7 53115.6 1004.23   4
   0  -6  -7 56382.1 947.925   2
   0  -6  -7 57685.8 1141.33   1
   0  -6  -7 58474.8 1147.51  11
   0  -6  -7 56480.6 951.287  12
   0   6  -7 58934.3 1095.50  10
   0  -6  -7 54393.2 1157.14   8
   0  -6  -7 56955.9 1064.25   9
   0  -6  -7 56106.7 1057.98   7
   0   6  -6 78807.6 1337.87   4
   0  -6  -6 81668.0 1469.05   1
   0  -6  -6 78716.6 1279.16   2
   0  -6  -6 83272.5 1481.65  11
   0  -6  -6 80152.7 1295.33  12
   0   6  -6 80809.8 1413.96  10
   0  -6  -6 86982.2 1511.18   8
   0  -6  -6 76646.6 1388.15   7
   0  -6  -6 75988.4 1393.47   9
   0  -6  -6 78992.1 1367.41   6
   0   6  -5 66167.2 1112.39   4
   0  -6  -5 65927.7 1142.57   4
   0   6  -5 62829.0 1123.54   5
   0  -6  -5 63537.4 1215.68   1
   0  -6  -5 65606.8 1051.57   2
   0  -6  -5 67063.7 1235.30  11
   0   6  -5 66312.1 1126.07  12
   0   6  -5 66697.8 1177.27  10
   0  -6  -5 63843.3 1079.22  12
   0   6  -5 64593.2 1037.47   9
   0  -6  -5 65695.6 1167.01   7
   0  -6  -5 65834.4 1169.67   9
   0  -6  -5 65972.6 1124.02   6
   0  -6  -5 66699.2 1246.48   8
   0  -6  -4 42711.7 759.097   6
   0   6  -4 42516.8 753.605   4
   0   6  -4 42030.1 765.192   5
   0  -6  -4 44240.4 853.523   1
   0  -6  -4 43074.8 700.943   2
   0  -6  -4 40988.1 780.032   4
   0   6  -4 41790.4 781.841   3
   0  -6  -4 42324.2 868.139  11
   0  -6  -4 42505.4 738.644  12
   0   6  -4 43260.9 809.761  10
   0  -6  -4 41522.6 814.426   7
   0  -6  -4 43446.3 869.550   8
   0  -6  -4 41842.9 806.523   9
   0   6  -4 41921.1 710.318   9
   0   6  -3 51393.6 910.112   5
   0  -6  -3 51701.4 891.420   6
   0  -6  -3 53471.7 988.207   1
   0   6  -3 52337.7 927.639   3
   0  -6  -3 53904.8 852.197   2
   0  -6  -3 53020.7 1004.00  11
   0   6  -3 53070.9 942.622  10
   0  -6  -3 52465.6 892.832  12
   0  -6  -3 54876.5 1005.58   8
   0  -6  -3 54554.2 977.939   7
   0  -6  -3 52883.0 952.207   9
   0   6  -3 51782.3 879.617   9
   0   6  -2 9174.48 243.405   5
   0  -6  -2 9010.02 216.873   6
   0  -6  -2 9612.17 274.832   5
   0  -6  -2 9262.58 203.296   2
   0   6  -2 9604.63 253.090   3
   0  -6  -2 9482.51 286.085  11
   0   6  -2 9402.96 229.017  11
   0   6  -2 9226.70 246.692  10
   0  -6  -2 9161.51 229.168  12
   0  -6  -2 9235.81 285.050   7
   0  -6  -2 8961.11 260.538   9
   0   6  -2 9222.15 228.374   9
   0   6  -1 4318.67 154.879   5
   0   6  -1 4227.40 131.115   6
   0  -6  -1 4359.83 128.396   6
   0  -6  -1 4163.78 165.753   5
   0  -6  -1 4516.16 160.210   3
   0   6  -1 4354.01 158.295   3
   0  -6  -1 4420.27 174.703  11
   0   6  -1 4331.35 156.160  11
   0  -6  -1 4303.46 143.961  12
   0   6  -1 4226.14 147.417  10
   0  -6  -1 4239.93 194.967   7
   0   6  -1 4481.91 201.609   7
   0  -6  -1 4109.53 158.586   9
   0   6  -1 4462.72 150.402   9
   0   6   0 28316.2 557.790   5
   0   6   0 28149.0 501.419   6
   0  -6   0 28850.9 562.014   5
   0   6   0 27891.8 551.496   3
   0   6   0 28168.9 517.092   2
   0  -6   0 28530.5 552.519   3
   0  -6   0 28433.3 563.148  11
   0   6   0 28346.7 571.308  11
   0   6   0 29096.6 545.537  12
   0  -6   0 27962.4 533.508  12
   0   6   0 28601.6 527.440  10
   0   6   0 29190.1 620.363   7
   0  -6   0 28756.2 552.575   9
   0   6   0 29075.3 552.194   9
   0  -6   1 4439.61 159.640   5
   0   6   1 4545.65 130.531   6
   0   6   1 4474.34 168.517   5
   0  -6   1 4335.98 156.613   3
   0   6   1 4211.10 158.314   3
   0   6   1 4542.83 125.612   2
   0   6   1 4497.29 183.342  11
   0   6   1 4503.82 154.713  12
   0  -6   1 4515.17 152.092  11
   0   6   1 4854.94 188.221   8
   0   6   1 4774.27 190.297   7
   0  -6   1 4453.41 152.946  10
   0   6   1 4371.96 132.877  10
   0  -6   1 4280.45 150.132   9
   0   6   1 4496.85 165.000   9
   0  -6   2 9293.05 247.215   5
   0   6   2 9036.15 268.679   5
   0   6   2 10110.2 286.521   1
   0   6   2 9337.57 193.306   2
   0  -6   2 9066.45 246.147   3
   0   6   2 9548.79 239.599   4
   0   6   2 8718.42 254.542   3
   0   6   2 9301.90 293.641  11
   0   6   2 9096.26 240.813  12
   0  -6   2 9074.31 219.288  11
   0   6   2 9386.29 223.375   6
   0   6   2 9334.75 277.312   7
   0  -6   2 9319.05 254.283  10
   0   6   2 9808.68 297.185   8
   0  -6   2 9209.52 229.932   9
   0  -6   3 52647.7 919.305   5
   0   6   3 53040.4 913.426   4
   0   6   3 52435.6 846.781   2
   0  -6   3 52611.9 931.396   3
   0   6   3 53959.8 986.297   1
   0   6   3 54611.5 918.998  12
   0  -6   3 53144.2 953.580  10
   0   6   3 52083.2 959.567   7
   0  -6   3 52038.0 884.099   9
   0   6   3 53824.6 906.069   6
   0  -6   4 43751.6 775.125   5
   0   6   4 42812.1 775.445   4
   0   6   4 41937.7 705.443   2
   0  -6   4 42773.2 789.819   3
   0   6   4 43657.3 849.199   1
   0   6   4 43620.5 774.808  12
   0  -6   4 43565.5 819.089  10
   0   6   4 42910.6 777.158   6
   0  -6   4 42377.2 722.613   9
   0   6   5 64920.0 1131.47   4
   0  -6   5 63279.7 1119.69   5
   0   6   5 65045.9 1057.06   2
   0   6   5 67794.8 1201.00   1
   0  -6   5 65431.6 1146.40   3
   0   6   5 67855.2 1124.86  12
   0   6   5 66503.7 1084.50  10
   0  -6   5 65482.1 1044.55   9
   0  -6   6 75222.9 1334.39   5
   0   6   6 79773.5 1358.01   4
   0  -6   6 77634.8 1363.28   3
   0   6   6 83784.0 1427.15   1
   0   6   6 79186.6 1309.99  10
   0   6   6 81377.3 1339.71  12
   0   6   6 79659.5 1380.40   6
   0  -6   7 55860.4 1018.11   5
   0   6   7 57894.5 1050.53   4
   0  -6   7 55275.9 1041.79   3
   0   6   7 58125.2 1012.96  12
   0   6   7 57066.7 999.736  10
   0   6   7 56727.7 1068.02   6
   0   6   8 18407.8 461.121   4
   0  -6   8 17439.4 437.804   5
   0  -6   8 17925.6 458.506   3
   0   6   8 18553.6 428.443  10
   0   6   8 17757.1 480.415   6
   0  -6   9 5655.80 224.706   4
   0   6   9 5867.39 246.340   4
   0  -6   9 5742.63 225.096   5
   0  -6   9 5480.77 234.221   3
   0   6   9 5946.40 224.087  10
   0   6   9 5859.65 239.780   9
   0   6  10 104.194 56.1731   4
   0  -6  10 133.434 51.4790   4
   0  -6  10 65.7698 53.6268   5
   0   6  10 51.6065 35.2279  10
   0   6  11 11355.8 381.450   4
   0  -6  11 10324.6 351.383   4
   0  -6  11 10995.8 363.084   5
   0   6  11 11484.9 360.853  10
   0  -6  12 3222.44 192.153   4
   0  -6  12 3300.57 194.164   5
   0   6  12 3352.60 209.947   4
   0  -6  13 11516.0 398.745   4
   0  -6  13 11228.4 401.105   5
   0   6  13 11551.7 418.751   4
   0  -6  14 6893.73 311.124   4
   0  -6  14 6638.70 307.372   5
   0   6  14 6806.78 328.476   4
   0   6  15 489.594 113.922   4
   0  -6  15 563.419 101.648   4
   0  -6  15 520.706 107.555   5
   0   6  16 720.006 139.484   4
   0  -6  16 554.528 100.068   4
   0  -6  16 689.254 114.695   5
   0   6  17 2355.14 227.373   4
   0  -6  17 2339.70 202.105   4
   0  -6  17 2384.67 211.343   5
   0   6  18 2030.34 223.666   4
   0  -6  18 2263.74 210.612   4
   0  -6  18 2358.16 211.286   5
   0  -6  19 7920.20 406.310   4
   0  -6  19 8228.81 417.035   5
   0   6  19 8127.89 439.467   4
   0  -6  20 6789.92 386.751   5
   0   6  20 6652.57 411.095   4
   0  -6  21 7036.24 422.228   3
   0  -6  21 6687.25 390.887   5
   0   8 -20 2215.65 253.839   6
   0   8 -19 1481.50 202.323   6
   0  -8 -19 1883.36 214.070   6
   0  -8 -19 1815.17 241.426  11
   0   8 -19 1823.62 246.018  10
   0   8 -18 1637.48 200.479   6
   0  -8 -18 1705.05 194.710   6
   0  -8 -18 1769.03 228.054  11
   0   8 -18 1742.08 230.205  10
   0  -8 -18 1658.82 182.551   7
   0   8 -17 1864.64 204.001   6
   0  -8 -17 1908.47 223.700  11
   0  -8 -17 2017.02 201.373   7
   0  -8 -17 2006.97 204.596   6
   0   8 -17 1872.58 228.515  10
   0   8 -16 16295.9 640.372  10
   0  -8 -16 16703.2 661.996  11
   0  -8 -16 16288.3 569.974   7
   0   8 -16 16007.1 592.246   6
   0  -8 -16 17112.1 599.495   6
   0   8 -15 727.749 123.080   6
   0  -8 -15 630.788 113.535   6
   0  -8 -15 475.574 114.943  11
   0   8 -15 647.990 130.284  10
   0  -8 -15 670.940 109.981   7
   0  -8 -14 2249.75 99.9904  12
   0  -8 -14 2350.62 226.907  11
   0   8 -14 2113.56 214.400  10
   0  -8 -14 2201.64 186.388   7
   0   8 -14 2353.04 202.896   6
   0  -8 -14 2169.32 185.155   6
   0   8 -13 2486.07 218.554  10
   0  -8 -13 2611.12 113.397  12
   0  -8 -13 2629.63 239.196  11
   0  -8 -13 2274.92 187.792   7
   0  -8 -13 2536.77 201.497   9
   0   8 -13 2485.73 198.557   6
   0  -8 -13 2621.29 195.458   6
   0   8 -12 1674.43 157.055   6
   0  -8 -12 1568.85 113.091   2
   0  -8 -12 1661.49 92.1544  12
   0  -8 -12 1551.77 178.348  11
   0  -8 -12 1514.10 149.613   7
   0  -8 -12 1596.30 153.743   9
   0  -8 -12 1648.66 149.184   6
   0   8 -12 1522.18 164.303  10
   0   8 -11 17428.4 558.692  10
   0  -8 -11 17311.5 382.317  12
   0  -8 -11 18199.9 604.893  11
   0  -8 -11 17141.7 521.931   7
   0  -8 -11 17437.4 522.711   9
   0  -8 -11 17521.3 509.538   6
   0  -8 -10 42366.5 1021.06  11
   0   8 -10 41278.3 948.271  10
   0  -8 -10 40926.3 752.730  12
   0  -8 -10 39935.6 908.218   7
   0  -8 -10 42353.5 893.303   6
   0  -8 -10 42939.1 922.183   9
   0  -8  -9 10395.7 275.447   2
   0  -8  -9 10863.4 433.437  11
   0   8  -9 10854.1 389.597  10
   0  -8  -9 10745.2 275.125  12
   0  -8  -9 10236.8 366.019   7
   0  -8  -9 10722.3 349.220   6
   0  -8  -9 10508.8 371.614   9
   0   8  -8 9067.27 293.029   4
   0  -8  -8 9607.83 249.004   2
   0  -8  -8 9700.45 393.322  11
   0   8  -8 9592.84 357.534  10
   0  -8  -8 9594.22 255.943  12
   0  -8  -8 9411.11 337.057   7
   0  -8  -8 9164.37 342.385   9
   0  -8  -8 9447.22 311.477   6
   0   8  -7 50410.6 940.688   4
   0  -8  -7 50704.8 866.711   2
   0  -8  -7 48806.3 1087.37  11
   0   8  -7 50084.3 961.370  12
   0  -8  -7 51379.1 892.931  12
   0   8  -7 51725.0 1030.71  10
   0  -8  -7 49939.0 1014.91   7
   0  -8  -7 50619.4 1016.62   9
   0   8  -6 60341.4 1097.90   4
   0   8  -6 59981.7 1121.74   5
   0  -8  -6 63419.5 1246.78   1
   0  -8  -6 58986.7 1138.01   4
   0  -8  -6 63305.9 1025.90   2
   0  -8  -6 61767.2 1248.75  11
   0  -8  -6 61851.6 1066.99  12
   0   8  -6 65597.4 1191.57  10
   0   8  -6 61508.9 1125.82  12
   0   8  -6 62706.6 1021.99   9
   0  -8  -6 60711.4 1184.11   7
   0  -8  -6 64376.4 1188.47   9
   0   8  -5 23059.1 492.165   4
   0   8  -5 22177.2 508.690   5
   0  -8  -5 22822.1 493.800   6
   0  -8  -5 23574.7 436.622   2
   0  -8  -5 24546.2 605.067   1
   0  -8  -5 23234.2 610.906  11
   0  -8  -5 23200.3 479.298  12
   0   8  -5 23264.7 552.090  10
   0   8  -5 23271.9 392.084  11
   0  -8  -5 23511.1 558.483   9
   0  -8  -5 21649.7 560.498   7
   0  -8  -5 24112.6 619.520   8
   0   8  -5 22593.3 451.114   9
   0  -8  -4 32842.1 642.973   6
   0   8  -4 31937.5 661.310   5
   0   8  -4 31767.5 676.620   3
   0  -8  -4 34602.0 594.215   2
   0  -8  -4 34556.5 768.029  11
   0   8  -4 33749.8 594.444  11
   0  -8  -4 34106.9 638.246  12
   0   8  -4 35181.1 709.506  10
   0  -8  -4 34367.7 746.349   7
   0  -8  -4 33791.0 713.975   9
   0   8  -4 33277.3 624.136   9
   0   8  -3 48961.9 911.945   5
   0  -8  -3 49584.7 878.479   6
   0  -8  -3 54565.3 858.299   2
   0   8  -3 49508.8 935.848   3
   0  -8  -3 51888.0 1015.61  11
   0   8  -3 52446.0 942.542  10
   0   8  -3 52005.4 882.725  11
   0  -8  -3 51223.4 896.724  12
   0  -8  -3 50523.9 1009.20   7
   0  -8  -3 50979.9 962.889   9
   0   8  -3 51104.9 892.344   9
   0   8  -2 53507.0 999.728   5
   0  -8  -2 55614.0 945.870   6
   0   8  -2 54053.9 956.035   6
   0  -8  -2 56135.0 1050.74   5
   0   8  -2 55805.5 1009.65   3
   0  -8  -2 57701.7 1070.19  11
   0   8  -2 56276.8 985.083  11
   0  -8  -2 55721.4 973.095  12
   0   8  -2 56421.1 997.009  10
   0  -8  -2 55643.3 1102.56   7
   0  -8  -2 57829.6 1039.76   9
   0   8  -2 54339.8 1140.42   7
   0   8  -2 56415.6 982.344   9
   0   8  -1 2340.29 128.913   5
   0   8  -1 2463.00 102.269   6
   0  -8  -1 2275.55 102.032   6
   0  -8  -1 2285.78 136.553   5
   0   8  -1 2338.58 117.827   2
   0  -8  -1 2384.05 132.927   3
   0   8  -1 2320.61 127.679   3
   0  -8  -1 2374.92 143.064  11
   0   8  -1 2562.92 136.379  11
   0   8  -1 2362.01 115.786  10
   0  -8  -1 2237.89 116.339  12
   0   8  -1 2436.51 166.472   7
   0  -8  -1 2457.90 136.497   9
   0   8  -1 2294.37 122.843   9
   0   8   0 26092.3 574.894   5
   0   8   0 26517.5 502.839   6
   0  -8   0 27593.3 582.660   5
   0   8   0 26500.7 567.208   3
   0  -8   0 26741.0 568.800   3
   0   8   0 27961.0 528.395   2
   0  -8   0 27896.4 584.391  11
   0   8   0 27722.1 599.285  11
   0   8   0 26965.1 535.826  10
   0   8   0 27257.3 647.520   7
   0  -8   0 26941.5 567.459   9
   0   8   0 26897.4 569.047   9
   0   8   1 2299.54 134.369   5
   0   8   1 2413.97 101.400   6
   0  -8   1 2445.80 134.680   5
   0  -8   1 2397.61 129.651   3
   0   8   1 2491.63 98.6859   2
   0   8   1 2320.08 147.670  11
   0   8   1 2321.56 125.111  12
   0  -8   1 2229.46 120.709  11
   0   8   1 2290.66 148.852   8
   0   8   1 2406.94 153.118   7
   0   8   1 2412.67 109.022  10
   0  -8   1 2207.25 118.755  10
   0  -8   1 2174.01 121.334   9
   0  -8   2 55796.7 997.621   5
   0   8   2 54533.1 1030.67   5
   0  -8   2 55555.5 997.071   3
   0   8   2 55632.6 975.347   4
   0   8   2 59922.4 1069.33   1
   0   8   2 54367.4 900.415   2
   0   8   2 56502.1 1081.06  11
   0   8   2 54259.1 985.816  12
   0  -8   2 54722.6 960.700  11
   0   8   2 54706.5 1061.18   7
   0   8   2 57998.1 1081.27   8
   0  -8   2 56414.9 1003.53  10
   0   8   2 52432.9 933.416  10
   0   8   2 54244.8 941.927   6
   0  -8   2 54660.6 975.157   9
   0   8   3 50791.0 912.820   4
   0  -8   3 50665.2 931.206   5
   0   8   3 52759.6 1004.96   1
   0  -8   3 51897.7 939.090   3
   0   8   3 51139.2 1038.22  11
   0   8   3 51374.6 931.289  12
   0   8   3 49507.7 978.506   7
   0   8   3 48906.9 893.060   6
   0  -8   3 50858.2 954.507  10
   0  -8   3 50494.5 898.639   9
   0  -8   4 33816.8 678.801   5
   0   8   4 34663.4 673.862   4
   0   8   4 34823.6 755.326   1
   0   8   4 33828.2 589.483   2
   0  -8   4 33683.8 692.018   3
   0   8   4 34738.5 682.213  12
   0  -8   4 34646.1 720.575  10
   0   8   4 34332.1 663.104   6
   0  -8   4 33924.2 638.566   9
   0   8   4 34186.4 727.037   7
   0  -8   5 23355.8 515.040   5
   0   8   5 22475.7 509.590   4
   0   8   5 23784.7 437.144   2
   0  -8   5 22747.5 528.591   3
   0   8   5 23813.5 587.532   1
   0   8   5 23592.6 519.354  12
   0  -8   5 23426.3 461.292   9
   0   8   5 23741.7 518.788   6
   0   8   6 62299.1 1121.10   4
   0  -8   6 54375.7 1091.40   5
   0   8   6 62707.5 1018.47   2
   0  -8   6 59585.3 1133.73   3
   0   8   6 63867.5 1202.76   1
   0  -8   6 62359.8 1186.58  10
   0   8   6 63063.1 1051.10  10
   0   8   6 64251.4 1124.52  12
   0  -8   6 60826.2 1016.96   9
   0   8   6 62633.3 1131.21   6
   0   8   6 63162.6 1172.47   9
   0  -8   7 50218.8 949.027   5
   0   8   7 50618.0 965.642   4
   0   8   7 50985.3 1034.82   1
   0  -8   7 49420.7 980.770   3
   0   8   7 51107.8 955.480  12
   0   8   7 49349.8 896.808  10
   0   8   7 50280.3 983.790   6
   0  -8   8 9821.38 305.988   5
   0   8   8 9404.44 316.565   4
   0  -8   8 9518.14 322.697   3
   0   8   8 9807.43 305.069  12
   0   8   8 9325.13 276.720  10
   0   8   8 9500.74 420.626   8
   0  -8   9 10402.9 333.512   5
   0   8   9 10796.9 358.131   4
   0   8   9 10941.4 316.171  10
   0  -8   9 10413.6 353.531   3
   0   8  10 40788.4 893.884   4
   0  -8  10 41665.8 853.703   5
   0   8  10 40970.2 823.914  10
   0  -8  10 40299.8 884.695   3
   0   8  11 17735.9 514.978   4
   0  -8  11 17186.9 478.342   5
   0   8  11 17369.3 461.567  10
   0  -8  11 16957.2 502.046   3
   0  -8  12 1571.08 136.007   5
   0  -8  12 1401.25 140.392   3
   0   8  12 1560.07 148.737   4
   0   8  13 2489.21 197.008   4
   0  -8  13 2293.12 169.824   5
   0  -8  13 2536.72 193.726   3
   0  -8  14 2232.72 174.580   5
   0   8  14 2089.88 191.201   4
   0  -8  14 1862.94 174.232   3
   0  -8  15 554.366 99.5235   5
   0   8  15 617.253 120.568   4
   0  -8  15 441.052 105.575   3
   0  -8  16 16681.5 550.694   5
   0   8  16 16818.2 591.216   4
   0  -8  16 16082.1 569.120   3
   0  -8  17 2184.02 193.335   5
   0  -8  17 1655.17 188.437   3
   0   8  17 1915.24 206.520   4
   0  -8  18 1954.13 187.785   5
   0  -8  18 1701.60 190.950   3
   0   8  18 1677.76 203.529   4
   0  -8  19 1412.29 174.234   5
   0  -8  19 1535.87 198.019   3
   0   8  19 1563.59 213.457   4
   0  -8  20 2217.23 221.834   5
   0  -8  20 2201.56 236.116   3
   0  10 -19 2141.78 236.130   6
   0 -10 -19 1874.22 211.577   6
   0 -10 -19 2053.75 254.499  11
   0  10 -18 1297.74 181.983   6
   0 -10 -18 1426.52 179.177   6
   0 -10 -18 1411.93 220.287  11
   0  10 -18 1322.01 215.632  10
   0  10 -17 68.5874 80.5755   6
   0 -10 -17 78.8639 67.1640   6
   0 -10 -17 56.0700 105.267  11
   0  10 -17 203.860 119.049  10
   0 -10 -17 259.389 95.7265   7
   0  10 -16 8291.20 457.776  10
   0 -10 -16 7836.29 456.537  11
   0 -10 -16 7752.60 390.122   7
   0 -10 -16 8388.06 403.660   6
   0  10 -16 7648.80 397.948   6
   0  10 -15 13888.0 579.795  10
   0 -10 -15 14964.8 639.582  11
   0 -10 -15 14424.4 529.378   6
   0 -10 -15 13732.5 526.188   7
   0  10 -15 13776.4 539.092   6
   0 -10 -14 7005.02 409.321  11
   0  10 -14 5908.89 360.860  10
   0 -10 -14 5664.71 323.172   7
   0  10 -14 6194.92 329.858   6
   0 -10 -14 5733.70 306.454   6
   0  10 -13 6644.51 362.716  10
   0 -10 -13 7010.39 210.858  12
   0 -10 -13 7358.18 409.112  11
   0 -10 -13 6837.42 340.789   7
   0  10 -13 6551.93 332.456   6
   0 -10 -13 6868.82 346.605   9
   0 -10 -13 6562.62 323.885   6
   0  10 -12 24353.1 733.615  10
   0 -10 -12 24914.7 510.058  12
   0 -10 -12 24704.0 794.335  11
   0 -10 -12 23093.4 682.537   7
   0 -10 -12 24955.0 665.421   6
   0 -10 -12 24358.8 695.421   9
   0 -10 -11 3197.11 201.503   6
   0  10 -11 3223.35 229.996  10
   0 -10 -11 3556.05 148.474  12
   0 -10 -11 3122.99 252.169  11
   0 -10 -11 3181.26 221.103   7
   0 -10 -11 3297.85 228.104   9
   0 -10 -10 9794.40 346.280   6
   0  10 -10 9832.31 396.357  10
   0 -10 -10 10456.0 445.428  11
   0 -10 -10 9490.64 381.469   7
   0 -10 -10 9697.56 389.533   9
   0 -10  -9 32865.3 734.318   6
   0 -10  -9 32217.8 626.142   2
   0  10  -9 33648.0 819.354  10
   0 -10  -9 33708.3 650.308  12
   0 -10  -9 32681.9 874.676  11
   0 -10  -9 31022.2 794.142   7
   0 -10  -9 30451.3 781.843   9
   0 -10  -8 3318.83 175.740   6
   0 -10  -8 3288.53 133.652   2
   0 -10  -8 3241.86 238.203  11
   0 -10  -8 3373.52 153.417  12
   0  10  -8 3201.80 208.287  10
   0 -10  -8 3109.45 205.033   7
   0 -10  -8 3043.74 205.916   9
   0  10  -7 42172.8 831.865   4
   0 -10  -7 42167.9 839.010   6
   0  10  -7 39399.9 851.553   5
   0 -10  -7 43476.3 753.234   2
   0 -10  -7 40316.5 982.022  11
   0  10  -7 42472.3 920.167  10
   0 -10  -7 41865.1 796.433  12
   0  10  -7 41770.4 752.123   9
   0 -10  -7 43238.0 954.606   7
   0 -10  -7 43039.7 932.533   9
   0  10  -6 9530.71 289.574   4
   0  10  -6 9102.66 302.619   5
   0 -10  -6 9291.19 236.684   2
   0 -10  -6 8994.93 384.790  11
   0 -10  -6 8985.62 269.312  12
   0  10  -6 9277.78 336.702  10
   0  10  -6 9105.73 253.634   9
   0 -10  -6 9338.86 362.941   7
   0 -10  -6 9191.35 344.770   9
   0  10  -5 2985.34 145.100   4
   0  10  -5 2439.27 147.158   5
   0 -10  -5 2792.58 116.504   2
   0  10  -5 2688.13 159.509   3
   0 -10  -5 3330.29 214.656  11
   0  10  -5 2951.67 111.093  11
   0  10  -5 2944.58 173.667  10
   0 -10  -5 2712.84 136.177  12
   0 -10  -5 3053.09 199.964   7
   0 -10  -5 2818.15 180.245   9
   0  10  -5 2633.02 127.632   9
   0  10  -4 3181.80 162.692   5
   0 -10  -4 3310.09 149.997   6
   0 -10  -4 3542.92 206.293   5
   0 -10  -4 3526.04 133.231   2
   0  10  -4 3334.69 175.672   3
   0 -10  -4 3753.60 218.213  11
   0  10  -4 3514.56 143.399  11
   0 -10  -4 3706.32 160.573  12
   0  10  -4 3684.50 187.174  10
   0 -10  -4 3655.75 220.345   7
   0 -10  -4 3399.17 195.892   9
   0  10  -4 3448.85 153.706   9
   0  10  -3 17761.6 452.544   5
   0 -10  -3 18304.6 413.496   6
   0  10  -3 18877.9 423.907   6
   0 -10  -3 18590.2 515.154   5
   0  10  -3 18700.8 474.637   3
   0 -10  -3 18882.8 527.219  11
   0  10  -3 19185.2 469.338  10
   0  10  -3 18726.7 435.729  11
   0 -10  -3 18631.7 434.824  12
   0 -10  -3 17900.5 550.287   7
   0 -10  -3 18558.0 495.352   9
   0  10  -3 18443.0 437.929   9
   0  10  -2 30207.7 663.308   5
   0 -10  -2 31190.5 608.831   6
   0  10  -2 30889.9 603.493   6
   0 -10  -2 31767.3 713.950   5
   0 -10  -2 32466.7 732.313  11
   0  10  -2 30932.7 662.750  11
   0 -10  -2 31451.4 639.507  12
   0  10  -2 31327.6 653.389  10
   0 -10  -2 31342.3 695.867   9
   0  10  -2 31493.2 802.481   7
   0  10  -2 31106.4 652.521   9
   0  10  -1 32973.7 705.728   5
   0  10  -1 33766.1 624.400   6
   0 -10  -1 33060.6 640.011   6
   0 -10  -1 34867.2 741.487   5
   0  10  -1 33615.5 664.852   2
   0  10  -1 33432.7 720.148  11
   0  10  -1 33337.9 668.482  10
   0 -10  -1 29657.7 715.084  11
   0  10  -1 34896.5 825.331   7
   0 -10  -1 34087.6 721.559   9
   0  10  -1 33118.1 696.995   9
   0  10   0 236152. 3852.89   5
   0  10   0 246746. 3741.02   6
   0 -10   0 245687. 3867.22   5
   0 -10   0 241786. 3844.59   3
   0  10   0 238398. 3768.12   2
   0  10   0 251384. 3900.27  11
   0  10   0 240621. 3838.17  12
   0  10   0 246972. 3789.63  10
   0 -10   0 248402. 3864.82  11
   0 -10   0 238284. 3846.67   9
   0  10   0 246118. 3848.57   9
   0  10   0 248837. 3987.89   7
   0  10   1 32101.9 722.777   5
   0  10   1 34896.6 631.748   6
   0 -10   1 34828.5 725.320   5
   0  10   1 33164.8 670.499   4
   0 -10   1 33879.6 709.660   3
   0  10   1 32516.5 709.684   3
   0  10   1 33641.1 621.996   2
   0  10   1 27720.2 728.912  11
   0  10   1 34255.1 708.153  12
   0 -10   1 34175.5 703.197  11
   0  10   1 31432.1 780.053   7
   0  10   1 35228.6 780.870   8
   0  10   1 34588.9 655.858  10
   0 -10   1 34035.1 704.059   9
   0  10   1 33804.6 722.910   9
   0  10   2 29060.0 688.812   5
   0 -10   2 27478.1 654.554   5
   0  10   2 31422.0 684.267   3
   0  10   2 31309.4 639.420   4
   0  10   2 30285.8 564.125   2
   0 -10   2 30928.5 667.563   3
   0  10   2 32682.9 739.228   1
   0  10   2 31322.5 744.590  11
   0 -10   2 32621.0 644.523  11
   0  10   2 30739.1 663.670  12
   0  10   2 31722.7 610.762  10
   0  10   2 31230.7 739.808   7
   0  10   2 32461.6 755.317   8
   0 -10   2 29741.4 658.822  10
   0  10   2 30964.4 604.285   6
   0 -10   2 32294.8 662.662   9
   0  10   2 31507.8 695.549   9
   0 -10   3 15260.3 441.747   5
   0  10   3 17958.1 439.108   4
   0  10   3 17543.8 498.830   5
   0  10   3 18751.1 366.895   2
   0  10   3 18924.6 488.134   3
   0  10   3 19608.9 528.783   1
   0 -10   3 17904.3 461.592   3
   0  10   3 15729.6 514.733  11
   0  10   3 19388.7 468.043  12
   0  10   3 18761.5 517.581   7
   0  10   3 19141.3 423.206   6
   0  10   3 17852.6 399.357  10
   0  10   3 19079.1 548.669   8
   0 -10   3 18799.4 443.267   9
   0 -10   4 3583.38 178.941   5
   0  10   4 3425.35 165.612   4
   0  10   4 3792.87 218.848   1
   0 -10   4 3431.62 177.900   3
   0  10   4 3535.17 121.067   2
   0  10   4 3619.10 177.445  12
   0  10   4 3226.81 193.198   7
   0  10   4 3617.84 231.049   8
   0  10   4 3665.07 161.234   6
   0 -10   4 3367.33 157.827   9
   0 -10   5 2888.41 160.111   5
   0  10   5 2661.88 150.576   4
   0  10   5 2684.46 106.299   2
   0  10   5 3013.35 199.481   1
   0 -10   5 2797.93 162.170   3
   0  10   5 3032.90 164.744  12
   0  10   5 2771.70 146.586   6
   0 -10   5 2862.94 176.223  10
   0  10   5 2635.77 210.140   8
   0 -10   5 2929.45 138.992   9
   0  10   5 2487.66 168.892   7
   0 -10   6 9272.28 306.580   5
   0  10   6 9365.53 305.607   4
   0  10   6 9833.43 371.562   1
   0 -10   6 8904.97 314.906   3
   0  10   6 9304.94 231.257   2
   0  10   6 9121.27 251.716  10
   0  10   6 9790.44 318.322  12
   0  10   6 9599.76 412.892   8
   0 -10   6 9232.88 257.020   9
   0  10   6 9464.31 308.182   6
   0 -10   7 41942.7 863.498   5
   0  10   7 41877.3 868.632   4
   0  10   7 43232.5 755.417   2
   0 -10   7 41715.5 885.701   3
   0  10   7 43306.1 960.301   1
   0  10   7 43220.7 791.223  10
   0  10   7 41927.0 873.320  12
   0  10   7 44146.6 1064.10   8
   0  10   7 41885.2 878.092   6
   0 -10   8 3200.14 178.837   5
   0  10   8 3122.43 182.921   4
   0 -10   8 3303.66 194.123   3
   0  10   8 3208.19 214.340   1
   0  10   8 3168.92 150.551  10
   0  10   8 3422.06 186.863  12
   0  10   8 3589.33 273.631   8
   0 -10   9 32072.2 726.926   5
   0  10   9 32451.8 752.395   4
   0 -10   9 32210.3 756.366   3
   0  10   9 32579.2 731.040  12
   0  10   9 32704.4 671.143  10
   0  10   9 32502.2 935.153   8
   0 -10  10 10186.7 348.685   5
   0  10  10 10152.8 369.239   4
   0  10  10 9322.26 301.908  10
   0 -10  10 9467.38 363.596   3
   0 -10  11 3242.93 195.600   5
   0  10  11 3481.20 221.962   4
   0  10  11 3230.13 175.739  10
   0 -10  11 3291.42 210.715   3
   0 -10  12 24272.6 666.461   3
   0  10  12 24546.8 672.457   4
   0 -10  12 23511.5 622.098   5
   0 -10  13 6574.74 322.214   3
   0  10  13 7042.02 338.027   4
   0 -10  13 6285.19 293.011   5
   0 -10  14 6270.32 323.156   3
   0  10  14 6479.20 333.787   4
   0 -10  14 5987.52 293.976   5
   0 -10  15 13939.0 523.489   3
   0 -10  15 14131.9 484.193   5
   0  10  15 14904.6 547.268   4
   0 -10  16 7851.78 392.268   3
   0 -10  16 7745.30 360.001   5
   0  10  16 7891.60 405.896   4
   0 -10  17 144.044 88.8084   3
   0  10  17 184.717 98.7799   4
   0 -10  17 32.6052 71.4237   5
   0  10  18 824.084 162.715   4
   0 -10  18 1030.23 162.337   3
   0 -10  18 1277.85 161.590   5
   0 -10  19 1915.23 218.006   3
   0 -10  20 2480.46 257.221   3
   0  12 -19 40033.8 1134.15   6
   0 -12 -18 3047.59 265.025   6
   0 -12 -18 3162.31 323.091  11
   0  12 -18 2595.15 258.297   6
   0 -12 -17 2367.09 223.167   6
   0  12 -17 2091.41 225.893   6
   0 -12 -17 2227.81 266.524  11
   0 -12 -17 2378.78 238.168   7
   0  12 -17 2402.84 273.851  10
   0 -12 -16 2933.20 241.656   6
   0  12 -16 2927.46 279.189  10
   0 -12 -16 3365.39 317.007  11
   0 -12 -16 2847.36 254.279   7
   0  12 -16 3372.39 266.839   6
   0  12 -15 103.684 84.0396   6
   0 -12 -15 239.712 81.1896   6
   0 -12 -15 11.4841 89.3326  11
   0  12 -15 224.434 123.083  10
   0 -12 -15 356.191 100.960   7
   0  12 -14 974.617 142.899   6
   0 -12 -14 962.492 135.974   6
   0 -12 -14 1068.54 190.404  11
   0  12 -14 873.063 160.330  10
   0 -12 -14 948.968 142.066   7
   0  12 -13 784.566 133.865   6
   0 -12 -13 776.037 119.679   6
   0 -12 -13 735.208 155.187  11
   0 -12 -13 1040.96 160.053   9
   0 -12 -13 1102.73 151.813   7
   0  12 -13 896.131 156.450  10
   0 -12 -12 10300.6 403.302   6
   0  12 -12 11127.1 477.039  10
   0 -12 -12 11137.3 310.827  12
   0 -12 -12 11117.0 521.585  11
   0 -12 -12 10696.0 463.432   7
   0 -12 -12 11330.2 467.279   9
   0 -12 -11 5446.51 269.115   6
   0  12 -11 5344.59 314.083  10
   0 -12 -11 5684.79 211.477  12
   0 -12 -11 5261.71 344.648  11
   0 -12 -11 5838.61 324.835   7
   0 -12 -11 5750.10 318.597   9
   0 -12 -10 9366.28 354.546   6
   0 -12 -10 9857.54 278.411   2
   0  12 -10 10146.1 425.907  10
   0 -12 -10 9560.11 292.374  12
   0 -12 -10 10378.7 472.743  11
   0 -12 -10 9774.21 429.155   7
   0 -12 -10 9492.91 417.227   9
   0 -12  -9 4176.58 217.982   6
   0 -12  -9 4646.64 170.233   2
   0  12  -9 4290.66 262.197  10
   0 -12  -9 4075.46 181.747  12
   0 -12  -9 4787.00 316.489  11
   0 -12  -9 4342.13 276.001   7
   0 -12  -9 4473.02 268.245   9
   0 -12  -8 16509.7 460.413   6
   0 -12  -8 17085.9 386.058   2
   0 -12  -8 16650.3 424.101  12
   0  12  -8 16540.5 532.962  10
   0 -12  -8 17187.6 601.441  11
   0 -12  -8 17264.9 575.718   7
   0 -12  -8 15801.1 531.287   9
   0 -12  -7 93757.7 1678.63   6
   0 -12  -7 95950.3 1580.43   2
   0 -12  -7 96191.4 1638.76  12
   0  12  -7 97582.5 1789.68  10
   0 -12  -7 97023.5 1905.66  11
   0  12  -7 96904.2 1609.70   9
   0 -12  -7 97253.5 1860.28   7
   0 -12  -7 95212.6 1812.11   9
   0  12  -6 31612.7 678.402   4
   0 -12  -6 30305.2 675.815   6
   0 -12  -6 31523.5 611.701   2
   0 -12  -6 31708.4 671.335  12
   0  12  -6 32965.5 568.160  11
   0  12  -6 31627.5 760.521  10
   0 -12  -6 31573.9 836.664  11
   0  12  -6 30843.9 650.342   9
   0 -12  -6 31140.1 832.758   7
   0 -12  -6 30861.9 783.898   9
   0  12  -5 76678.7 1473.48   5
   0 -12  -5 81767.3 1367.60   2
   0 -12  -5 82576.3 1440.04  12
   0  12  -5 84124.8 1377.11  11
   0  12  -5 84285.1 1531.02  10
   0 -12  -5 82765.6 1632.06  11
   0 -12  -5 80008.7 1646.85   7
   0 -12  -5 85438.4 1578.10   9
   0  12  -5 79586.6 1427.76   9
   0  12  -4 37592.6 813.712   5
   0  12  -4 38356.6 775.139   6
   0 -12  -4 41769.5 924.606   5
   0  12  -4 36385.0 759.930  11
   0 -12  -4 39631.3 791.228  12
   0  12  -4 40497.6 852.624  10
   0 -12  -4 39939.4 939.276  11
   0 -12  -4 41101.2 897.584   9
   0 -12  -4 39569.5 979.476   7
   0  12  -4 39629.4 794.047   9
   0  12  -3 42505.3 889.226   5
   0  12  -3 43697.5 824.425   6
   0 -12  -3 43506.4 970.261   5
   0  12  -3 45084.2 906.612  10
   0  12  -3 43368.5 871.826  11
   0 -12  -3 44479.0 988.790  11
   0 -12  -3 43069.8 944.203   9
   0  12  -3 43988.0 877.218   9
   0  12  -2 6503.11 269.676   5
   0  12  -2 6542.83 217.876   6
   0 -12  -2 6761.33 231.973   6
   0 -12  -2 7187.08 305.174   5
   0  12  -2 6914.04 256.704   2
   0  12  -2 7202.51 277.315  11
   0  12  -2 6858.42 256.742  10
   0 -12  -2 7306.66 309.942  11
   0 -12  -2 6511.36 287.406   9
   0  12  -2 7056.91 267.608   9
   0  12  -1 13443.9 415.957   5
   0  12  -1 13138.8 336.458   6
   0 -12  -1 15083.2 453.073   5
   0  12  -1 14061.6 371.907   2
   0  12  -1 14517.8 432.958  11
   0  12  -1 13951.0 381.525  10
   0 -12  -1 13890.9 440.602  11
   0 -12  -1 14143.3 436.021   9
   0  12   0 49898.7 914.106   6
   0 -12   0 51502.3 1046.06   5
   0 -12   0 49041.3 1021.33   3
   0  12   0 50428.5 935.277   2
   0  12   0 55247.8 975.162  10
   0  12   0 50017.4 1069.18  11
   0 -12   0 50560.2 1038.34  11
   0  12   0 53035.9 1101.41   8
   0 -12   0 50589.9 1028.90   9
   0  12   1 14566.4 353.231   6
   0 -12   1 14143.5 431.899   5
   0 -12   1 14467.2 428.348   3
   0  12   1 13974.3 391.032   4
   0  12   1 14935.3 480.252   1
   0  12   1 13900.4 341.676   2
   0  12   1 14995.9 478.177  11
   0 -12   1 16529.3 436.561  11
   0  12   1 13844.9 372.250  10
   0  12   1 14765.8 484.850   8
   0 -12   1 13927.1 420.786   9
   0 -12   2 6634.44 276.911   5
   0  12   2 7907.37 332.304   1
   0  12   2 6677.24 202.835   2
   0 -12   2 6689.38 273.586   3
   0  12   2 7815.05 266.489   4
   0 -12   2 7358.46 265.169  11
   0  12   2 7031.94 232.001  10
   0  12   2 7120.37 330.579   8
   0 -12   2 6894.02 268.983   9
   0  12   2 6840.05 228.207   6
   0  12   3 45127.7 993.850   1
   0  12   3 42660.6 763.601   2
   0 -12   3 42883.3 903.885   3
   0  12   3 43057.9 863.953   4
   0 -12   3 42582.7 906.804   5
   0  12   3 43411.2 831.723   6
   0  12   3 44597.4 818.752  10
   0 -12   3 41548.6 902.369  10
   0  12   3 45333.0 1029.15   8
   0 -12   3 43722.4 883.296   9
   0 -12   4 39456.8 846.935   3
   0  12   4 39817.1 936.193   1
   0  12   4 39016.2 698.576   2
   0 -12   4 39220.3 842.075   5
   0  12   4 38979.4 808.615   4
   0  12   4 38611.8 745.367  10
   0  12   4 40308.5 976.083   8
   0  12   4 39399.1 785.465   6
   0 -12   4 40831.6 809.957   9
   0  12   5 83205.0 1354.10   2
   0  12   5 87560.4 1648.91   1
   0 -12   5 83677.8 1527.24   3
   0 -12   5 82094.2 1515.88   5
   0  12   5 82017.6 1490.67   4
   0  12   5 83032.3 1469.75   6
   0  12   5 81477.9 1413.16  10
   0  12   5 87318.8 1718.37   8
   0 -12   5 84851.3 1462.89   9
   0  12   6 32388.9 594.077   2
   0  12   6 33907.3 838.596   1
   0 -12   6 31717.3 739.748   3
   0 -12   6 31163.5 722.221   5
   0  12   6 31092.2 711.212   4
   0  12   6 32484.5 893.949   8
   0 -12   6 31982.9 661.417   9
   0  12   6 31455.3 706.109   6
   0  12   7 95701.6 1719.64   4
   0 -12   7 94415.9 1723.31   5
   0  12   7 96071.4 1559.77   2
   0  12   7 99081.1 1850.90   1
   0 -12   7 96825.0 1747.58   3
   0  12   7 97199.3 1599.14  10
   0  12   7 96979.5 1971.88   8
   0 -12   8 16804.5 484.633   5
   0  12   8 16470.3 488.114   4
   0  12   8 17103.6 563.272   1
   0 -12   8 16415.4 502.706   3
   0  12   8 16923.6 411.143  10
   0  12   8 18103.2 507.869  12
   0  12   8 17303.4 650.395   8
   0 -12   9 4650.33 234.093   5
   0  12   9 4783.09 246.004   4
   0 -12   9 4491.24 246.854   3
   0  12   9 4934.30 250.630  12
   0  12   9 3899.10 182.622  10
   0  12   9 4400.33 332.655   8
   0 -12  10 9853.98 385.784   3
   0 -12  10 9961.34 365.257   5
   0  12  10 9861.89 378.173   4
   0  12  10 9936.75 514.830   8
   0 -12  11 5046.31 276.763   3
   0 -12  11 5327.59 265.944   5
   0  12  11 5766.94 293.282   4
   0 -12  12 11139.1 433.000   3
   0 -12  12 10911.6 404.841   5
   0  12  12 11764.0 446.962   4
   0  12  13 751.016 125.398   4
   0 -12  13 675.205 111.265   3
   0 -12  13 947.618 121.988   5
   0 -12  14 1205.93 145.429   3
   0  12  14 1081.57 145.089   4
   0 -12  14 1072.27 138.422   5
   0 -12  15 105.154 72.6747   3
   0  12  15 300.778 106.915   4
   0 -12  15 95.9719 73.0631   5
   0 -12  16 2608.29 233.008   3
   0 -12  16 3261.57 237.243   5
   0  12  16 3301.24 268.830   4
   0 -12  17 2026.67 215.352   3
   0  12  17 2210.19 234.534   4
   0 -12  17 2275.58 205.389   5
   0 -12  18 2656.84 251.913   3
   0 -12  19 37652.2 1076.20   3
   0 -14 -18 19711.9 704.147   6
   0  14 -18 19455.6 727.794   6
   0 -14 -17 4839.96 321.965   6
   0  14 -17 4540.44 326.599   6
   0  14 -16 1567.61 207.210   6
   0 -14 -16 1572.61 178.919   6
   0 -14 -16 1321.81 211.264  11
   0  14 -16 1143.00 203.691  10
   0 -14 -16 1561.59 203.478   7
   0 -14 -15 4312.34 283.596   6
   0 -14 -15 4681.11 372.346  11
   0  14 -15 3279.27 303.941  10
   0  14 -15 3817.34 282.472   6
   0 -14 -15 3984.86 315.197   7
   0 -14 -14 5712.51 321.555   6
   0  14 -14 5895.89 386.875  10
   0 -14 -14 6512.21 433.144  11
   0  14 -14 5893.78 335.402   6
   0 -14 -14 6284.23 385.150   7
   0 -14 -13 35897.3 907.739   6
   0  14 -13 35375.4 1018.21  10
   0 -14 -13 38095.8 1122.08  11
   0  14 -13 35604.4 921.457   6
   0 -14 -13 37055.6 1020.16   9
   0 -14 -13 36186.6 1025.66   7
   0 -14 -12 2095.83 179.842   6
   0  14 -12 2307.44 227.695  10
   0 -14 -12 2851.92 282.429  11
   0 -14 -12 2344.09 223.207   9
   0 -14 -12 2322.18 229.894   7
   0 -14 -11 8203.93 347.143   6
   0  14 -11 7706.74 396.917  10
   0 -14 -11 9549.30 483.738  11
   0 -14 -11 8460.05 431.018   7
   0 -14 -11 8861.69 424.764   9
   0 -14 -10 3305.34 205.119   6
   0  14 -10 3336.74 247.401  10
   0 -14 -10 3079.77 278.570  11
   0 -14 -10 3706.17 267.418   9
   0 -14 -10 3179.34 261.310   7
   0 -14  -9 10544.1 376.857   6
   0  14  -9 10553.2 442.431  10
   0 -14  -9 11250.1 506.226  11
   0 -14  -9 10688.5 480.767   7
   0 -14  -9 10680.2 457.760   9
   0 -14  -8 2472.84 165.467   6
   0  14  -8 2939.67 217.101  10
   0 -14  -8 2830.56 252.760  11
   0 -14  -8 2749.26 243.712   7
   0 -14  -8 2392.34 215.566   9
   0 -14  -7 9171.99 326.329   6
   0  14  -7 9285.34 385.191  10
   0 -14  -7 9702.10 444.960  11
   0  14  -7 9088.81 301.150   9
   0 -14  -7 9127.93 439.402   7
   0 -14  -7 9481.66 415.426   9
   0 -14  -6 33495.6 735.090   6
   0  14  -6 35534.1 649.248  11
   0  14  -6 32876.8 818.506  10
   0 -14  -6 33667.8 914.904  11
   0  14  -6 33466.9 731.024   9
   0 -14  -6 32997.0 860.292   9
   0 -14  -6 32169.8 943.555   7
   0 -14  -5 39109.6 810.383   6
   0  14  -5 39021.2 810.225   6
   0  14  -5 39170.4 895.616  10
   0  14  -5 40657.3 786.251  11
   0 -14  -5 39531.3 993.837  11
   0 -14  -5 39550.4 951.215   9
   0 -14  -5 36985.0 1026.79   7
   0  14  -4 5832.55 230.974   6
   0 -14  -4 6203.13 242.569   6
   0 -14  -4 5896.51 315.265   5
   0  14  -4 6510.10 280.949   2
   0  14  -4 6579.64 256.334  11
   0  14  -4 6254.45 280.590  10
   0 -14  -4 6163.27 329.096  11
   0 -14  -4 6362.90 318.558   9
   0  14  -3 11061.5 322.857   6
   0 -14  -3 11482.8 437.360   5
   0  14  -3 12171.6 386.432   2
   0  14  -3 11389.4 380.348  11
   0 -14  -3 11676.1 448.125  11
   0  14  -3 11705.8 387.347  10
   0 -14  -3 11574.8 427.657   9
   0 -14  -2 106.112 69.8042   5
   0  14  -2 197.098 42.5436   6
   0  14  -2 335.848 71.5266   2
   0  14  -2 233.153 68.6523  11
   0 -14  -2 55.4802 61.0868  11
   0 -14  -2 185.322 77.4099   9
   0  14  -2 282.360 60.5618  10
   0  14  -1 15616.2 392.147   6
   0 -14  -1 15467.6 507.703   5
   0  14  -1 16513.5 428.739   2
   0  14  -1 15823.5 502.141  11
   0  14  -1 15969.2 439.197  10
   0 -14  -1 16013.6 506.148  11
   0  14  -1 17296.1 554.040   8
   0 -14  -1 15580.5 494.145   9
   0 -14   0 477.636 99.9445   5
   0  14   0 382.213 55.8073   6
   0  14   0 435.202 61.0617   2
   0  14   0 425.243 72.9795   4
   0 -14   0 471.216 89.7660   3
   0 -14   0 779.078 114.555  11
   0 -14   0 544.579 99.5765   9
   0  14   0 419.566 65.8450  10
   0  14   0 485.914 104.993   8
   0  14   1 15301.3 393.008   6
   0 -14   1 16050.7 494.923   5
   0  14   1 16235.0 446.014   4
   0 -14   1 16027.8 486.160   3
   0  14   1 15511.8 384.722   2
   0  14   1 17087.2 558.256   1
   0  14   1 15229.6 411.382  10
   0 -14   1 15541.7 474.600  11
   0  14   1 17561.2 573.732   8
   0 -14   1 16462.2 492.167   9
   0  14   2 222.355 54.5394   4
   0  14   2 184.320 68.5733   1
   0  14   2 190.072 39.2976   2
   0 -14   2 161.387 59.1064   3
   0  14   2 213.088 47.1807   6
   0 -14   2 182.869 68.1779   5
   0 -14   2 246.513 80.5943   9
   0  14   2 257.837 49.6482  10
   0  14   2 177.087 101.964   8
   0  14   3 10735.6 356.017   4
   0 -14   3 11331.2 398.958   5
   0  14   3 11555.2 289.969   2
   0 -14   3 11613.8 400.476   3
   0  14   3 12375.0 467.539   1
   0  14   3 11420.8 326.556  10
   0  14   3 11526.7 336.939   6
   0  14   3 11340.5 474.484   8
   0 -14   3 12191.4 391.869   9
   0 -14   4 6181.23 282.925   3
   0  14   4 6202.72 190.215   2
   0  14   4 6256.51 331.809   1
   0  14   4 6064.80 256.159   4
   0 -14   4 6043.52 279.082   5
   0  14   4 5930.00 216.994  10
   0  14   4 5986.35 240.954   6
   0  14   4 6164.58 349.929   8
   0 -14   4 6310.04 267.984   9
   0  14   5 38848.4 713.025   2
   0  14   5 40831.8 1002.48   1
   0 -14   5 38958.9 889.540   3
   0 -14   5 39319.0 885.892   5
   0  14   5 38693.4 851.305   4
   0  14   5 39963.0 771.031  10
   0  14   5 41242.6 1059.97   8
   0 -14   5 39073.8 833.647   9
   0  14   6 33812.0 626.259   2
   0 -14   6 33096.4 799.856   3
   0  14   6 36005.7 914.760   1
   0 -14   6 33234.8 795.935   5
   0  14   6 32451.7 760.932   4
   0  14   6 32234.2 666.081  10
   0  14   6 35181.4 981.581   8
   0 -14   7 9068.75 354.914   5
   0  14   7 9215.84 347.108   4
   0  14   7 8907.66 242.228   2
   0 -14   7 9171.04 365.956   3
   0  14   7 9688.89 431.447   1
   0  14   7 9389.83 271.521  10
   0  14   7 9151.70 281.923  10
   0  14   7 9237.80 474.591   8
   0  14   8 2773.27 230.269   1
   0 -14   8 2673.47 196.052   3
   0 -14   8 2717.21 188.932   5
   0  14   8 2516.75 181.966   4
   0  14   8 2730.43 278.494   8
   0 -14   9 10084.9 398.224   3
   0  14   9 10306.1 457.611   1
   0 -14   9 10587.0 394.865   5
   0  14   9 10054.0 386.963   4
   0  14   9 10946.9 557.198   8
   0 -14  10 3020.85 219.791   3
   0 -14  10 3012.04 206.369   5
   0  14  10 3578.77 228.403   4
   0  14  10 2969.51 312.921   8
   0 -14  11 8220.49 374.523   3
   0 -14  11 8457.84 364.388   5
   0  14  11 9148.80 388.567   4
   0 -14  12 2159.85 195.537   3
   0  14  12 1886.66 183.193   4
   0 -14  12 2357.40 192.342   5
   0 -14  13 35469.5 938.421   3
   0 -14  13 36055.9 893.249   5
   0  14  13 37342.3 964.990   4
   0 -14  14 5334.09 322.716   3
   0  14  14 5618.65 333.391   4
   0 -14  14 6007.89 315.713   5
   0 -14  15 3530.69 270.596   3
   0  14  15 4076.26 297.424   4
   0 -14  15 4204.41 271.782   5
   0 -14  16 1208.87 171.318   3
   0  14  16 1300.64 183.322   4
   0 -14  17 4609.95 329.889   3
   0 -14  18 19177.0 710.742   3
   0 -16 -17 2764.72 249.719   6
   0 -16 -16 2713.44 242.355   6
   0 -16 -15 7368.61 382.731   6
   0 -16 -15 7833.03 513.394  11
   0  16 -15 7604.60 469.922  10
   0  16 -15 7630.43 402.441   6
   0 -16 -15 7479.25 463.169   7
   0  16 -14 498.975 128.336   6
   0 -16 -14 683.338 120.993   6
   0 -16 -14 500.642 147.723  11
   0 -16 -14 506.381 130.650   7
   0  16 -14 511.534 130.093  10
   0  16 -13 617.275 119.836   6
   0 -16 -13 950.463 135.849   6
   0 -16 -13 799.359 172.516  11
   0 -16 -13 851.977 165.209   7
   0  16 -13 555.313 128.308  10
   0 -16 -12 991.704 129.241   6
   0 -16 -12 1013.35 182.720  11
   0 -16 -12 736.177 144.217   7
   0 -16 -12 1125.66 181.160   9
   0  16 -12 658.304 134.971  10
   0 -16 -11 9106.90 379.837   6
   0  16 -11 9266.94 459.034  10
   0 -16 -11 10345.2 548.272  11
   0 -16 -11 9743.63 507.624   7
   0 -16 -11 9460.44 467.348   9
   0 -16 -10 6121.94 296.103   6
   0  16 -10 5910.81 353.058  10
   0 -16 -10 6333.96 406.903  11
   0 -16 -10 5641.30 356.743   9
   0 -16 -10 6097.75 399.483   7
   0 -16  -9 932.514 110.939   6
   0 -16  -9 661.434 157.640  11
   0 -16  -9 718.782 159.523   7
   0 -16  -9 1237.39 176.899   9
   0  16  -9 885.977 136.399  10
   0 -16  -8 745.991 97.2362   6
   0 -16  -8 774.490 151.139  11
   0 -16  -8 619.185 133.764   7
   0 -16  -8 999.053 160.296   9
   0  16  -8 610.513 111.833  10
   0 -16  -7 3819.63 211.023   6
   0  16  -7 3369.64 236.968  10
   0 -16  -7 4508.25 315.749  11
   0 -16  -7 3735.47 271.868   9
   0 -16  -7 2770.20 273.531   7
   0 -16  -6 10923.5 369.561   6
   0  16  -6 10776.1 432.355   2
   0  16  -6 11533.9 437.847  10
   0 -16  -6 11196.8 498.348  11
   0 -16  -6 11778.3 482.826   9
   0 -16  -5 7089.08 284.247   6
   0  16  -5 7217.37 327.938   2
   0  16  -5 7317.20 327.216  10
   0 -16  -5 7280.86 384.919  11
   0 -16  -5 7173.60 373.045   9
   0 -16  -4 16016.0 458.149   6
   0  16  -4 16457.8 509.056   2
   0  16  -4 16396.5 515.199  10
   0 -16  -4 17448.9 602.410  11
   0 -16  -4 17037.6 574.042   9
   0 -16  -3 1369.52 160.660   5
   0  16  -3 1704.61 144.159   2
   0 -16  -3 1431.92 165.130  11
   0  16  -3 1680.04 147.202  10
   0 -16  -3 1465.04 166.855   9
   0  16  -2 3043.20 159.324   6
   0 -16  -2 3692.12 248.259   5
   0  16  -2 3337.98 187.666   2
   0 -16  -2 3480.52 243.334  11
   0  16  -2 3286.07 198.156  10
   0  16  -2 3326.41 249.308   8
   0 -16  -2 3638.30 242.352   9
   0  16  -1 1237.47 98.6948   6
   0 -16  -1 1518.97 162.849   5
   0  16  -1 1242.16 108.065   2
   0  16  -1 1365.13 118.382  10
   0 -16  -1 1109.39 136.267  11
   0 -16  -1 1526.65 167.149   9
   0  16  -1 1408.75 167.564   8
   0  16   0 6851.31 245.503   6
   0 -16   0 7102.78 340.337   5
   0  16   0 6892.56 282.586   4
   0  16   0 7604.56 379.245   1
   0  16   0 7200.77 253.967   2
   0  16   0 7078.90 275.882  10
   0 -16   0 6727.00 319.917  11
   0  16   0 6807.85 368.449   8
   0 -16   0 6896.66 325.706   9
   0 -16   1 1610.52 161.205   5
   0  16   1 1413.85 104.121   2
   0  16   1 1522.25 128.982   4
   0  16   1 1425.82 173.027   1
   0 -16   1 1406.86 151.884   3
   0  16   1 1391.81 114.455  10
   0 -16   1 1306.39 142.000   9
   0  16   1 1450.54 175.474   8
   0  16   1 1378.78 108.259   6
   0  16   2 3256.72 191.067   4
   0 -16   2 3330.65 228.428   5
   0  16   2 3577.47 264.230   1
   0  16   2 3108.93 145.312   2
   0 -16   2 3416.90 222.569   3
   0  16   2 3321.01 173.911  10
   0  16   2 3691.46 275.269   8
   0 -16   2 2958.09 211.459   9
   0 -16   3 1668.83 158.037   5
   0  16   3 1594.82 134.060   4
   0  16   3 1598.45 99.1994   2
   0  16   3 1981.06 203.350   1
   0 -16   3 1708.18 158.658   3
   0  16   3 1656.86 117.802  10
   0 -16   3 1678.47 159.658   9
   0  16   3 1688.15 206.120   8
   0  16   4 16306.3 484.285   4
   0 -16   4 16515.7 530.828   5
   0  16   4 16800.4 612.060   1
   0  16   4 16000.7 374.812   2
   0 -16   4 16400.6 528.467   3
   0  16   4 16800.3 427.973  10
   0  16   4 16710.9 644.533   8
   0 -16   4 16611.9 507.479   9
   0  16   5 7026.18 299.909   4
   0 -16   5 6901.62 325.025   5
   0  16   5 7277.53 220.289   2
   0  16   5 7131.52 386.922   1
   0 -16   5 7009.34 330.846   3
   0  16   5 7526.82 256.044  10
   0  16   5 7458.43 441.405   8
   0 -16   5 7539.45 313.719   9
   0  16   6 11733.2 292.490   2
   0  16   6 11973.0 519.882   1
   0 -16   6 11110.3 431.176   3
   0  16   6 11074.9 399.793   4
   0 -16   6 11008.2 421.847   5
   0  16   6 11591.9 330.796  10
   0  16   6 11829.6 564.376   8
   0  16   7 3913.15 293.461   1
   0  16   7 3987.39 151.166   2
   0 -16   7 3856.01 246.601   3
   0 -16   7 3684.34 235.130   5
   0  16   7 4059.10 232.911   4
   0  16   7 4133.56 179.841  10
   0  16   7 4208.41 344.563   8
   0 -16   8 685.568 115.536   3
   0  16   8 799.964 141.544   1
   0  16   8 710.125 106.930   4
   0 -16   8 747.846 117.336   5
   0  16   8 409.209 156.966   8
   0  16   9 790.479 148.459   1
   0  16   9 870.867 126.589   4
   0 -16   9 695.440 116.408   3
   0 -16   9 934.283 127.353   5
   0  16   9 1245.38 221.576   8
   0 -16  10 6087.83 328.496   3
   0 -16  10 6614.49 323.684   5
   0  16  10 6168.42 322.886   4
   0  16  10 6623.32 473.013   8
   0 -16  11 9311.42 422.731   3
   0 -16  11 10184.9 415.309   5
   0  16  11 9979.41 435.792   4
   0  16  11 9145.75 587.539   8
   0 -16  12 847.903 140.296   3
   0  16  12 857.054 138.258   4
   0 -16  12 1005.68 143.898   5
   0 -16  13 646.092 125.512   3
   0  16  13 786.220 132.727   4
   0 -16  13 755.307 124.076   5
   0  16  14 628.267 135.617   4
   0 -16  14 393.412 106.978   3
   0 -16  15 6417.45 381.116   3
   0  16  15 7723.51 416.611   4
   0 -16  16 2409.03 238.815   3
   0 -16  17 2799.70 267.916   3
   0 -18 -15 1168.14 161.221   6
   0 -18 -14 5978.59 341.409   6
   0  18 -14 5484.55 400.909  10
   0 -18 -14 5727.88 428.745   7
   0 -18 -13 7759.73 379.047   6
   0  18 -13 8263.80 473.455  10
   0 -18 -13 8274.91 529.877  11
   0 -18 -13 7467.72 495.442   7
   0 -18 -12 5230.51 303.458   6
   0  18 -12 5033.54 361.565  10
   0 -18 -12 5745.17 430.627  11
   0 -18 -12 4879.80 405.028   7
   0 -18 -11 3141.36 232.274   6
   0  18 -11 2669.95 252.160  10
   0 -18 -11 2951.65 298.859  11
   0 -18 -11 2204.33 289.154   7
   0 -18 -11 2980.37 288.838   9
   0 -18 -10 3308.71 221.499   6
   0  18 -10 3073.46 261.764  10
   0 -18 -10 2966.25 294.031  11
   0 -18 -10 3171.45 288.756   9
   0 -18  -9 7475.56 337.921   6
   0  18  -9 7772.73 413.731  10
   0 -18  -9 8085.32 472.206  11
   0 -18  -9 7367.59 431.213   9
   0 -18  -8 3141.46 205.893   6
   0  18  -8 3252.59 254.702   2
   0  18  -8 2728.73 237.155  10
   0 -18  -8 3449.33 303.229  11
   0 -18  -8 2925.04 269.166   9
   0 -18  -7 4505.15 246.376   6
   0  18  -7 4639.89 293.301   2
   0  18  -7 4405.14 291.131  10
   0 -18  -7 4558.22 340.256  11
   0 -18  -7 4613.17 324.142   9
   0 -18  -6 8317.54 334.145   6
   0  18  -6 7649.20 370.693   2
   0  18  -6 7952.21 381.094  10
   0 -18  -6 8423.83 449.073  11
   0 -18  -6 8318.06 424.361   9
   0  18  -5 5674.63 302.106   2
   0  18  -5 5389.99 298.703  10
   0 -18  -5 6011.96 375.008  11
   0 -18  -5 5915.37 353.458   9
   0  18  -4 8373.44 352.130   2
   0  18  -4 8401.02 365.216  10
   0 -18  -4 8346.56 430.224  11
   0 -18  -4 8400.58 417.238   9
   0 -18  -3 8053.98 405.160   5
   0  18  -3 7721.16 323.817   2
   0  18  -3 8228.27 348.886  10
   0 -18  -3 7958.15 409.512  11
   0  18  -3 8380.77 424.870   8
   0 -18  -3 8129.29 403.604   9
   0 -18  -2 2800.29 237.085   5
   0  18  -2 2295.83 164.442   2
   0  18  -2 2681.40 190.423  10
   0 -18  -2 2513.59 223.606  11
   0  18  -2 2687.21 242.281   8
   0 -18  -2 2683.32 234.342   9
   0 -18  -1 7549.26 387.901   5
   0  18  -1 6721.34 299.369   4
   0  18  -1 6804.54 274.698   2
   0 -18  -1 7578.28 370.784  11
   0  18  -1 7405.11 312.158  10
   0  18  -1 8011.53 426.014   8
   0 -18  -1 7348.39 368.511   9
   0 -18   0 61244.8 1364.18   5
   0  18   0 62198.8 1441.05   1
   0  18   0 60272.7 1143.33   2
   0  18   0 59719.5 1220.25   4
   0  18   0 61643.8 1212.18  10
   0  18   0 61484.7 1447.16   8
   0 -18   0 61190.8 1340.57   9
   0  18   1 7249.01 308.520   4
   0 -18   1 7394.23 366.223   5
   0  18   1 8261.81 433.256   1
   0  18   1 7149.75 254.114   2
   0  18   1 7383.85 290.915  10
   0  18   1 7774.45 428.157   8
   0 -18   1 7184.28 360.694   9
   0  18   2 2435.78 177.514   4
   0 -18   2 2319.76 208.113   5
   0 -18   2 2377.85 204.471   3
   0  18   2 3051.97 266.019   1
   0  18   2 2422.79 133.844   2
   0  18   2 2428.30 155.848  10
   0 -18   2 2195.06 196.325   9
   0  18   2 2442.11 251.613   8
   0  18   3 6816.39 310.762   4
   0 -18   3 7911.05 374.860   5
   0  18   3 7528.25 421.670   1
   0  18   3 8275.28 254.665   2
   0 -18   3 7485.83 363.585   3
   0  18   3 8499.26 294.863  10
   0  18   3 7797.20 452.607   8
   0 -18   3 7529.19 355.950   9
   0  18   4 9025.59 462.732   1
   0 -18   4 8699.81 391.979   3
   0  18   4 8386.01 343.463   4
   0 -18   4 8169.45 382.811   5
   0  18   4 8630.34 481.756   8
   0  18   5 5491.34 369.229   1
   0 -18   5 6025.89 325.950   3
   0  18   5 5640.21 285.201   4
   0 -18   5 6985.59 346.880   5
   0  18   5 6507.53 431.903   8
   0 -18   6 8093.65 380.768   3
   0  18   6 8660.52 469.045   1
   0  18   6 8097.65 351.887   4
   0 -18   6 8154.74 376.946   5
   0  18   6 8525.74 506.843   8
   0 -18   7 4556.75 285.822   3
   0  18   7 4476.28 332.539   1
   0  18   7 4133.80 252.064   4
   0 -18   7 4058.11 266.075   5
   0  18   7 5140.96 408.574   8
   0  18   8 3052.12 279.264   1
   0 -18   8 2923.36 230.845   3
   0  18   8 2958.06 218.753   4
   0 -18   8 3178.89 234.861   5
   0  18   8 3055.32 324.005   8
   0 -18   9 8729.58 411.039   3
   0  18   9 8043.40 449.979   1
   0  18   9 8037.08 377.934   4
   0 -18   9 7755.93 374.613   5
   0  18   9 8108.41 542.550   8
   0 -18  10 3069.19 246.809   3
   0 -18  10 3366.38 248.132   5
   0  18  10 3276.11 244.854   4
   0  18  10 3353.90 363.471   8
   0 -18  11 2627.27 230.334   3
   0 -18  11 2704.08 223.347   5
   0  18  11 2561.44 224.102   4
   0  18  11 2320.31 327.436   8
   0  18  12 5506.22 341.833   4
   0 -18  12 4872.74 325.434   3
   0  18  13 7979.59 423.200   4
   0 -18  13 7450.91 408.097   3
   0  18  14 6559.41 392.691   4
   0 -18  14 6405.18 380.957   3
   0 -18  15 1514.51 200.619   3
   0  20 -12 4572.71 355.048   2
   0  20 -12 4334.69 344.931  10
   0  20 -11 2948.70 276.992   2
   0  20 -11 3095.95 286.809  10
   0  20 -10 8035.25 447.173   2
   0  20 -10 7175.71 419.359  10
   0 -20 -10 7311.82 484.589  11
   0  20  -9 15094.4 613.433   2
   0  20  -9 15684.7 621.232  10
   0 -20  -9 16266.6 721.276  11
   0 -20  -9 16232.7 674.723   9
   0  20  -8 10701.6 491.288   2
   0  20  -8 12563.9 527.657  10
   0 -20  -8 11287.2 586.335  11
   0 -20  -8 11601.2 555.918   9
   0  20  -7 260.184 88.9927   2
   0 -20  -7 134.027 88.1484  11
   0 -20  -7 376.977 137.909   9
   0  20  -7 303.195 104.132  10
   0  20  -6 6368.68 340.916   2
   0  20  -6 6515.02 359.939  10
   0 -20  -6 6762.51 427.317  11
   0 -20  -6 7151.98 418.529   9
   0  20  -5 4274.95 263.730   2
   0  20  -5 4197.02 274.173  10
   0 -20  -5 4491.96 330.170  11
   0 -20  -5 4210.50 322.423   9
   0  20  -4 57.3783 49.1303   2
   0 -20  -4 19.7093 98.3926  11
   0 -20  -4 93.2629 105.719   9
   0  20  -4 99.1511 77.9910  10
   0  20  -4 23.6364 97.6653   8
   0  20  -3 4931.03 265.577   4
   0  20  -3 5059.67 263.550   2
   0  20  -3 5290.10 294.280  10
   0  20  -3 5314.46 365.820   8
   0 -20  -3 5532.75 356.347   9
   0  20  -2 721.095 100.869   4
   0  20  -2 471.634 81.8608   2
   0 -20  -2 678.291 141.109   5
   0 -20  -2 710.169 138.412   9
   0  20  -2 600.225 102.319  10
   0  20  -2 1035.23 178.090   8
   0 -20  -1 7188.73 397.257   5
   0  20  -1 6045.13 295.365   4
   0  20  -1 7028.74 426.227   1
   0  20  -1 6566.10 274.427   2
   0  20  -1 6596.01 306.412  10
   0  20  -1 7696.99 446.079   8
   0 -20  -1 6856.26 381.426   9
   0  20   0 4882.90 355.990   1
   0  20   0 4634.42 259.203   4
   0 -20   0 4639.76 315.615   5
   0  20   0 4283.11 340.340   8
   0 -20   0 5037.60 322.804   9
   0  20   1 7062.82 429.775   1
   0  20   1 5945.71 291.700   4
   0 -20   1 6018.27 356.524   5
   0  20   1 6969.14 439.775   8
   0 -20   1 6159.33 352.367   9
   0  20   2 852.973 114.064   4
   0  20   2 1087.04 177.405   1
   0 -20   2 710.706 137.685   5
   0  20   2 614.121 160.616   8
   0  20   3 4788.69 355.078   1
   0 -20   3 5220.10 318.346   3
   0 -20   3 5368.89 326.490   5
   0  20   3 4986.37 268.084   4
   0  20   3 5338.48 393.277   8
   0  20   4 8.70614 98.4039   1
   0  20   4-21.0789 46.4201   4
   0 -20   4 36.0909 79.2447   3
   0 -20   4 48.5955 79.6309   5
   0  20   4-50.6408 119.848   8
   0 -20   5 4886.93 311.607   3
   0  20   5 4245.31 345.162   1
   0  20   5 4515.31 263.121   4
   0 -20   5 3782.39 272.498   5
   0  20   5 4921.08 408.461   8
   0 -20   6 6898.17 373.035   3
   0  20   6 6469.88 427.442   1
   0  20   6 6492.75 326.668   4
   0 -20   6 6877.61 365.861   5
   0  20   6 7056.31 488.624   8
   0  20   7 472.253 138.897   1
   0  20   7 330.812 87.8005   4
   0 -20   7 305.878 112.041   3
   0 -20   7 501.907 113.988   5
   0  20   7 322.938 135.708   8
   0  20   8 11778.9 578.783   1
   0 -20   8 12149.9 516.883   3
   0  20   8 11583.8 465.971   4
   0 -20   8 12270.9 499.061   5
   0  20   8 10492.4 637.354   8
   0 -20   9 15769.9 604.778   3
   0  20   9 16020.3 685.461   1
   0  20   9 15658.3 572.011   4
   0 -20   9 16044.5 587.929   5
   0  20   9 15519.0 797.963   8
   0 -20  10 7932.11 423.188   3
   0  20  10 7801.60 399.520   4
   0  20  10 8413.63 589.080   8
   0 -20  11 2862.08 258.334   3
   0  20  11 2886.56 251.834   4
   0  20  11 3121.75 391.006   8
   0 -20  12 4255.67 314.501   3
   0  20  12 4506.50 317.173   4
   0 -20  13 485.854 133.387   3
   0  22 -10 2982.80 281.053   2
   0  22 -10 2867.39 279.644  10
   0  22  -9 2055.43 227.157   2
   0  22  -9 2166.32 244.466  10
   0  22  -8 3523.07 276.062   2
   0  22  -8 3059.42 274.523  10
   0  22  -7 19959.6 679.070   2
   0  22  -7 19198.1 691.865  10
   0  22  -6 544.522 114.415   2
   0  22  -6 446.206 120.375   8
   0  22  -5 9004.45 513.886   8
   0  22  -4 3460.55 321.355   8
   0 -22  -4 3741.89 307.194   9
   0  22  -3 5313.20 394.530   1
   0  22  -3 5311.22 393.655   8
   0  22  -2 7213.74 464.423   1
   0  22  -2 7246.80 460.200   8
   0  22  -1 945.097 183.117   1
   0 -22  -1 1241.11 186.430   5
   0  22  -1 1309.96 216.276   8
   0  22   0 156.231 65.6559   4
   0  22   0 184.044 107.930   1
   0 -22   0 175.952 100.266   5
   0  22   0 90.0640 146.672   8
   0  22   1 1351.69 210.497   1
   0  22   1 1020.53 131.230   4
   0 -22   1 1411.18 185.141   5
   0  22   1 907.144 193.409   8
   0  22   2 7389.72 466.267   1
   0 -22   2 7049.37 411.782   5
   0  22   2 6897.60 331.899   4
   0  22   2 7380.47 494.882   8
   0  22   3 4763.78 382.373   1
   0  22   3 5112.74 287.382   4
   0 -22   3 5052.73 341.410   5
   0  22   3 5503.76 441.914   8
   0  22   4 3288.59 323.557   1
   0  22   4 3141.61 227.652   4
   0 -22   4 3246.83 272.795   5
   0  22   4 3182.91 351.280   8
   0 -22   5 8757.80 448.555   3
   0  22   5 8095.74 507.222   1
   0  22   5 8198.32 382.652   4
   0 -22   5 8089.00 429.739   5
   0  22   5 8281.99 560.120   8
   0  22   6 426.533 154.168   1
   0  22   6 418.236 98.7289   4
   0 -22   6 433.546 121.074   3
   0 -22   6 696.081 138.819   5
   0  22   6 354.469 176.694   8
   0 -22   7 18941.3 702.105   3
   0  22   7 20503.6 821.587   1
   0 -22   7 19709.9 695.080   5
   0  22   7 20613.1 661.847   4
   0  22   7 21138.9 935.393   8
   0  22   8 3404.56 329.124   1
   0 -22   8 2913.44 265.101   3
   0  22   8 3350.32 260.904   4
   0  22   8 4010.01 421.440   8
   0  22   9 2028.61 265.942   1
   0 -22   9 2278.19 233.270   3
   0  22   9 2279.70 218.929   4
   0 -22  10 3248.74 282.833   3
   0  22  10 3422.50 277.476   4
   0  24  -4 601.258 174.613   1
   0  24  -3 15801.5 745.424   1
   0  24  -3 15863.8 737.535   8
   0  24  -2 3897.00 367.796   1
   0  24  -2 3618.49 359.851   8
   0  24  -1 2995.85 322.928   1
   0  24  -1 2888.08 314.723   8
   0  24   0 14121.2 702.457   1
   0  24   0 13607.7 703.863   8
   0  24   1 3055.05 325.392   1
   0 -24   1 3086.65 293.026   5
   0  24   1 3460.99 365.595   8
   0  24   2 3167.64 330.231   1
   0 -24   2 3798.04 320.933   5
   0  24   2 4524.62 427.266   8
   0  24   3 15762.2 746.015   1
   0 -24   3 14999.2 644.287   5
   0  24   3 14323.8 759.281   8
   0  24   4 676.507 168.301   1
   0 -24   4 768.142 169.568   5
   0  24   4 705.549 219.698   8
   0  24   5 336.528 163.824   1
   1   1 -20 7318.35 441.676   6
   1  -1 -20 6556.85 418.150   6
   1   1 -19 5501.44 369.898   6
   1  -1 -19 4592.61 333.408   6
   1   1 -18 1413.92 195.704   6
   1  -1 -18 1702.38 201.416   6
   1  -1 -18 1581.83 176.823  12
   1  -1 -17 17946.0 598.271  12
   1   1 -17 18341.3 667.596   6
   1  -1 -17 19616.5 672.310   6
   1   1 -16 5279.45 326.092   6
   1  -1 -16 5454.23 327.712   6
   1   1 -15 1605.64 176.804   6
   1  -1 -15 1455.09 162.840   6
   1   1 -14 8365.79 379.228  10
   1   1 -14 8940.39 398.578   6
   1  -1 -14 8993.48 392.051   6
   1   1 -13 6896.82 329.528  10
   1   1 -13 6816.51 328.645   6
   1  -1 -13 7091.57 334.711   6
   1   1 -12 34976.7 837.437  10
   1  -1 -12 34327.3 837.270   6
   1   1 -11 22939.5 621.093  10
   1  -1 -11 24689.0 634.370   6
   1   1 -11 23169.5 627.567   8
   1   1 -10 32039.4 741.752  10
   1  -1 -10 30467.5 747.917   8
   1   1 -10 30991.4 733.305   8
   1   1  -9 6480.17 265.743  10
   1  -1  -9 6273.91 269.195   8
   1   1  -9 6256.06 256.396   8
   1  -1  -8 11104.7 370.162   1
   1   1  -8 10825.9 349.544  10
   1  -1  -8 11040.0 351.086   8
   1   1  -8 10593.4 330.868   8
   1  -1  -7 57601.3 1099.95   1
   1  -1  -7 57641.2 1070.50   8
   1   1  -7 56945.1 1034.81   8
   1  -1  -6 38235.4 799.855   1
   1  -1  -6 41039.2 761.867   4
   1  -1  -6 40132.6 773.265   8
   1   1  -6 39035.4 733.985   8
   1  -1  -5 12286.7 348.713   1
   1  -1  -5 12404.2 311.595   4
   1  -1  -5 12920.4 322.170   8
   1   1  -5 12108.9 285.455   8
   1   1  -4 21606.9 442.106   4
   1  -1  -4 21258.8 426.598   4
   1  -1  -4 20609.9 414.362   2
   1   1  -4 20435.8 440.770   2
   1  -1  -4 20104.2 464.775   1
   1   1  -4 21182.1 434.919   1
   1   1  -3 1343.20 80.4617   4
   1  -1  -3 1234.06 72.1545   4
   1  -1  -3 1219.78 69.2007   2
   1   1  -3 1287.80 81.7725   2
   1   1  -3 1326.86 78.3620   1
   1  -1  -3 1268.38 87.0825   1
   1  -1  -2 42866.0 729.017   4
   1   1  -2 43709.6 777.580   5
   1  -1  -2 43571.1 716.310   2
   1  -1  -2 42733.6 765.859   1
   1  -1  -2 43592.3 711.828   3
   1   1  -2 42303.1 726.936   1
   1   1  -2 44056.2 750.876   2
   1   1  -1 97951.6 1581.66   5
   1   1  -1 97441.3 1589.33   6
   1  -1  -1 100176. 1530.36   3
   1  -1  -1 98957.7 1532.94   2
   1   1  -1 98314.7 1558.90   2
   1   1   0 139438. 2132.63   5
   1  -1   0 137298. 2110.22   6
   1   1   0 139989. 2142.18   6
   1  -1   0 134448. 2102.17   2
   1   1   0 134498. 2118.46   2
   1  -1   0 139205. 2104.75   3
   1  -1   0 134673. 2190.64  12
   1   1   1 93419.2 1481.35   5
   1  -1   1 91378.7 1463.99   6
   1   1   1 94589.2 1493.20   6
   1  -1   1 92761.5 1441.44   5
   1  -1   1 93917.2 1474.37   3
   1  -1   1 93148.8 1469.19   2
   1   1   1 93933.3 1481.82   2
   1  -1   1 96322.4 1533.05  12
   1  -1   1 93337.9 1468.58   7
   1   1   2 153797. 2409.27   5
   1  -1   2 157643. 2355.70   5
   1  -1   2 152726. 2400.72   6
   1   1   2 155990. 2427.44   6
   1  -1   2 154164. 2372.82   4
   1  -1   2 156718. 2410.18   2
   1   1   2 156265. 2414.54   2
   1  -1   2 152703. 2429.82  12
   1  -1   2 162177. 2391.01   7
   1   1   3 9041.65 225.219   5
   1  -1   3 8498.25 183.832   5
   1  -1   3 9148.27 199.985   4
   1  -1   3 9174.86 227.777   2
   1   1   3 8713.03 229.789   2
   1   1   3 9196.97 225.084   4
   1  -1   3 8821.72 219.202  12
   1   1   3 9279.03 218.604  12
   1   1   3 8535.87 278.934  11
   1  -1   3 8760.50 224.779   6
   1   1   3 9420.03 241.787   6
   1  -1   4 3410.11 115.883   4
   1   1   4 3355.70 129.518   4
   1  -1   4 3495.07 107.434   5
   1   1   4 3303.83 130.623   5
   1  -1   4 3733.45 140.388   2
   1   1   4 3668.98 141.155   2
   1  -1   4 3465.93 114.654  12
   1   1   4 3398.12 105.865  12
   1   1   4 3631.60 177.492  11
   1  -1   4 3461.62 136.384   6
   1  -1   4 3632.18 155.613  10
   1   1   4 3307.04 135.337  10
   1   1   4 3559.54 145.393   6
   1   1   5 17367.9 373.662   4
   1  -1   5 17575.3 360.698   4
   1  -1   5 16679.9 347.697   5
   1   1   5 16674.1 381.646   5
   1   1   5 17418.2 389.064   2
   1   1   5 17899.7 305.946  12
   1  -1   5 17695.2 333.300  12
   1   1   5 17160.7 449.820  11
   1  -1   5 17239.3 436.291  11
   1   1   5 16409.8 382.811  10
   1  -1   5 16800.2 411.035  10
   1   1   5 17258.0 407.666   6
   1  -1   5 17235.9 398.846   6
   1  -1   6 3768.52 145.216   4
   1  -1   6 3823.96 141.560   5
   1   1   6 3640.21 158.768   5
   1   1   6 3670.74 149.843   4
   1   1   6 4053.89 168.233   2
   1  -1   6 3964.22 112.283  12
   1   1   6 3881.61 196.040  11
   1  -1   6 3781.09 185.254  11
   1   1   6 3622.29 82.2139  12
   1   1   6 3486.01 166.535   6
   1   1   6 3909.25 164.871  10
   1  -1   6 3779.49 177.243  10
   1  -1   6 3536.23 163.193   6
   1  -1   7 38988.1 705.487   4
   1  -1   7 37435.7 701.592   5
   1   1   7 38732.9 737.136   5
   1   1   7 36599.8 798.985  11
   1  -1   7 37179.7 778.109  11
   1   1   7 36979.0 730.023  10
   1  -1   7 38128.9 767.854  10
   1  -1   7 37909.4 758.043   6
   1   1   7 37363.1 766.049   6
   1  -1   8 32525.8 618.284   4
   1   1   8 29752.9 623.502   4
   1  -1   8 29047.7 614.674   5
   1   1   8 29747.8 645.000   5
   1  -1   8 29154.9 675.012  11
   1  -1   8 29147.2 663.044  10
   1  -1   8 29233.8 664.302   6
   1   1   8 29706.7 643.032  10
   1   1   8 30012.8 678.270   6
   1   1   9 2288.51 140.116   4
   1  -1   9 1966.99 128.382   5
   1   1   9 2050.71 142.516   5
   1  -1   9 1977.74 126.002   4
   1   1   9 2034.54 137.751  10
   1  -1   9 2032.67 146.017  11
   1  -1   9 2030.86 147.361  10
   1   1  10 40124.5 818.899   4
   1  -1  10 40330.2 820.235   5
   1  -1  10 40576.3 806.806   4
   1   1  10 39583.4 841.228  10
   1   1  10 37706.2 892.081  11
   1   1  11 21035.4 530.903   4
   1   1  11 20666.2 557.661   5
   1  -1  11 19824.9 517.189   4
   1  -1  12 67566.4 1299.41   5
   1  -1  12 67992.4 1273.52   4
   1   1  12 69222.4 1289.56   4
   1  -1  12 62721.0 1318.05  11
   1  -1  13 1537.45 142.798   4
   1   1  13 1585.19 148.096   4
   1  -1  14 5820.69 287.929   4
   1   1  14 6242.89 299.395   4
   1   1  15 1931.74 180.717   4
   1  -1  15 2101.23 186.792   4
   1  -1  16 17141.2 561.654   4
   1   1  16 17404.0 569.062   4
   1  -1  17 20659.1 650.433   4
   1   1  17 21846.8 671.797   4
   1  -1  18 3872.54 270.342   4
   1   1  18 4359.29 294.055   4
   1  -1  19 1861.75 198.145   4
   1   1  19 1903.60 206.838   4
   1  -1  20 4052.26 295.101   4
   1   1  20 3696.26 293.715   4
   1  -1  21 2587.43 248.510   4
   1  -3 -20 6826.40 418.695   6
   1   3 -20 6552.80 419.681   6
   1   3 -19 2853.38 270.492   6
   1  -3 -19 2713.49 263.085   6
   1   3 -18 11587.0 522.884  10
   1   3 -18 10712.5 514.487   6
   1  -3 -18 10606.1 496.926   6
   1   3 -17 715.650 143.248   6
   1  -3 -17 587.670 120.702   6
   1  -3 -17 701.307 113.593  12
   1   3 -17 621.938 142.364  10
   1   3 -16 13127.3 532.848  10
   1  -3 -16 13854.6 488.442  12
   1   3 -16 14343.3 556.910   6
   1  -3 -16 13893.1 537.770   6
   1   3 -15 3773.79 267.850  10
   1  -3 -15 3486.58 229.511  12
   1   3 -15 3049.84 239.931   6
   1  -3 -15 3470.72 248.161   6
   1   3 -14 16107.7 556.660  10
   1  -3 -14 15686.4 508.069  12
   1  -3 -14 16974.7 553.839   6
   1   3 -13 56783.3 1225.90  10
   1  -3 -13 54196.8 1173.75  12
   1  -3 -13 58925.4 1220.89   6
   1   3 -12 22886.6 636.437  10
   1  -3 -12 21195.4 605.750  12
   1  -3 -12 23625.7 633.365   6
   1   3 -12 21181.4 611.751   8
   1   3 -11 4754.03 260.965  10
   1  -3 -11 5192.06 255.697  12
   1  -3 -11 5729.23 267.251   6
   1   3 -11 4962.65 253.248   8
   1   3 -10 10739.8 383.387  10
   1  -3 -10 10986.5 381.032  12
   1  -3 -10 11258.7 374.038   6
   1   3 -10 9793.47 345.953   8
   1   3  -9 16086.8 467.689  10
   1  -3  -9 15768.7 464.045  12
   1  -3  -9 16743.8 453.632   6
   1  -3  -9 15868.3 484.257   8
   1   3  -9 15141.8 421.659   8
   1  -3  -8 2138.76 133.702   4
   1  -3  -8 2159.56 167.793   1
   1   3  -8 2339.12 158.900  10
   1  -3  -8 2067.70 147.954  12
   1  -3  -8 2001.65 152.572   8
   1   3  -8 2085.14 130.199   8
   1  -3  -7 35463.6 804.422   1
   1   3  -7 36006.2 749.596  10
   1  -3  -7 35950.8 770.977  12
   1  -3  -7 36018.5 771.959   8
   1   3  -7 34301.7 678.424   8
   1  -3  -6 229826. 3534.05   4
   1  -3  -6 221512. 3650.56   1
   1   3  -6 227194. 3586.57  10
   1  -3  -6 227248. 3632.36  12
   1  -3  -6 232723. 3621.05   8
   1   3  -6 225737. 3491.76   8
   1  -3  -5 6844.32 202.198   4
   1  -3  -5 5745.81 166.400   2
   1  -3  -5 6007.63 245.523   1
   1  -3  -5 6549.37 250.404  12
   1   3  -5 6145.11 221.622  10
   1   3  -5 6219.44 161.219   8
   1   3  -4 2509.39 145.987  10
   1  -3  -4 3292.06 187.943  12
   1  -3  -4 1708.83 152.756   1
   1   3  -4 1346.93 127.286   2
   1  -3  -3 12823.5 277.295   4
   1  -3  -3 13303.8 361.463  12
   1   3  -3 13440.5 324.993   2
   1  -3  -3 12634.2 240.851   2
   1  -3  -3 12875.0 346.832   1
   1  -3  -2 147984. 2310.54   4
   1   3  -2 152873. 2383.07   2
   1  -3  -2 151322. 2283.59   2
   1  -3  -2 155406. 2358.69   3
   1  -3  -2 150870. 2435.56  12
   1   3  -1 163025. 2571.04   5
   1   3  -1 161369. 2580.91   6
   1  -3  -1 164353. 2470.95   4
   1  -3  -1 165325. 2539.40   3
   1  -3  -1 165219. 2474.87   2
   1   3  -1 161614. 2549.48   2
   1  -3  -1 161177. 2608.38  12
   1  -3  -1 165249. 2583.61   7
   1   3   0 304358. 4593.61   5
   1  -3   0 298824. 4469.02   4
   1  -3   0 297996. 4491.03   6
   1   3   0 299804. 4589.05   6
   1   3   0 306924. 4565.34   2
   1  -3   0 304602. 4563.82   3
   1  -3   0 300731. 4509.71   2
   1  -3   0 297915. 4614.07  12
   1   3   0 298108. 4648.78  11
   1  -3   0 310470. 4596.70   7
   1   3   1 127006. 2011.51   5
   1  -3   1 124665. 1912.71   6
   1   3   1 128842. 2002.04   6
   1  -3   1 126684. 1944.73   2
   1  -3   1 124590. 1990.21   3
   1   3   1 122960. 1975.08   2
   1  -3   1 125857. 2014.70  12
   1   3   1 127958. 2074.91  11
   1  -3   1 125983. 2008.82   7
   1   3   2 115196. 1979.70   5
   1   3   2 125843. 1982.66   6
   1  -3   2 124472. 1860.51   4
   1  -3   2 128231. 1937.05   2
   1  -3   2 122425. 1978.72   3
   1   3   2 125681. 1956.93   2
   1  -3   2 121028. 1973.54  12
   1  -3   2 132704. 2006.56   7
   1  -3   2 121272. 1906.19   6
   1   3   3 5640.06 194.356   5
   1  -3   3 5818.12 128.348   4
   1   3   3 5751.56 192.118   6
   1   3   3 5595.55 175.620   2
   1   3   3 6012.22 192.898   4
   1  -3   3 5611.33 191.444   3
   1  -3   3 5577.14 178.661  12
   1   3   3 5397.73 120.932   7
   1  -3   3 5742.65 160.469   6
   1   3   4 74163.5 1297.75   5
   1   3   4 77545.2 1281.12   4
   1  -3   4 74703.5 1193.50   4
   1  -3   4 78549.4 1302.89   3
   1   3   4 76923.5 1264.71   2
   1  -3   4 76060.0 1244.22  12
   1  -3   4 75601.9 1247.93   6
   1   3   4 75114.8 1297.41   6
   1   3   5 3026.05 139.395   4
   1  -3   5 3007.12 91.1612   5
   1  -3   5 3175.23 112.219   4
   1   3   5 3063.85 151.554   5
   1   3   5 3128.53 138.346   2
   1  -3   5 3124.96 120.425  12
   1   3   5 3173.12 153.093   6
   1  -3   5 3259.79 138.448   6
   1   3   5 2942.34 116.144  10
   1   3   6 234100. 3451.80   4
   1  -3   6 218954. 3381.25   4
   1   3   6 218160. 3479.90   5
   1   3   6 217188. 3431.36   2
   1  -3   6 222004. 3377.33  12
   1  -3   6 222456. 3449.07   6
   1   3   6 217464. 3403.39  10
   1  -3   6 213401. 3509.29  10
   1   3   6 220757. 3492.86   6
   1   3   7 32995.2 667.151   2
   1   3   7 33145.6 669.152   4
   1  -3   7 32761.3 625.413   4
   1   3   7 33664.9 703.837   5
   1   3   7 32974.3 711.676   6
   1  -3   7 32959.0 680.066   6
   1   3   7 32054.3 638.886  10
   1  -3   7 32396.6 727.504  10
   1   3   8 1234.01 102.487   4
   1   3   8 1283.95 102.389   2
   1  -3   8 1044.23 88.2133   4
   1   3   8 1138.79 123.330  11
   1   3   8 1125.78 89.8248  10
   1  -3   8 1104.34 112.001  10
   1   3   9 1073.81 116.469   5
   1   3   9 755.680 83.7686  10
   1  -3   9 764.231 86.3493   4
   1   3   9 994.058 97.4837   4
   1   3  10 6279.47 259.044   4
   1  -3  10 6286.19 239.460   4
   1   3  10 6320.97 246.017  10
   1   3  11 904.776 102.714  10
   1  -3  11 952.868 105.971  11
   1  -3  11 813.962 100.285   4
   1   3  11 856.503 103.284   4
   1   3  12 24611.5 625.783   4
   1  -3  12 24032.5 599.807   4
   1   3  13 28163.1 705.424   4
   1  -3  13 27457.1 671.722   4
   1  -3  14 2402.66 177.897   4
   1   3  14 2307.47 185.255   4
   1  -3  15 5350.13 275.965   4
   1   3  15 5223.87 290.245   4
   1  -3  16 7419.53 341.528   4
   1   3  16 7425.34 358.158   4
   1   3  17 616.977 129.538   4
   1  -3  17 478.673 104.634   4
   1   3  18 2066.02 216.432   4
   1  -3  18 2068.22 202.721   4
   1  -3  18 2207.14 193.498   5
   1  -3  19 4086.04 286.376   4
   1  -3  19 4311.23 277.581   5
   1   3  19 4331.79 315.618   4
   1  -3  20 3722.77 290.489   4
   1   3  20 4589.08 334.685   4
   1  -3  21 2348.76 240.485   4
   1   5 -20 4506.82 353.816  10
   1  -5 -20 4304.80 332.464   6
   1   5 -20 4949.65 370.184   6
   1   5 -19 217.364 112.018   6
   1  -5 -19 260.254 100.265   6
   1   5 -19 464.747 140.288  10
   1   5 -18 2204.85 240.866   6
   1  -5 -18 2273.36 229.763   6
   1   5 -18 2515.71 254.375  10
   1  -5 -17 3946.29 233.855  12
   1   5 -17 4055.92 308.266  10
   1   5 -17 3738.94 297.251   6
   1  -5 -17 4353.01 295.621   6
   1   5 -16 4186.71 304.268  10
   1  -5 -16 4352.72 247.224  12
   1   5 -16 4271.03 301.472   6
   1  -5 -16 3984.34 279.766   6
   1  -5 -15 49.4795 63.1851   6
   1  -5 -15 219.653 76.7820  12
   1   5 -15 291.860 115.783  10
   1   5 -14 7702.19 383.236  10
   1  -5 -14 7502.74 325.257  12
   1  -5 -14 8421.87 375.131   6
   1  -5 -13 4845.93 202.180   2
   1   5 -13 5180.74 301.461  10
   1  -5 -13 4983.14 255.216  12
   1  -5 -13 5059.59 272.249   6
   1  -5 -12 34676.6 801.555  12
   1   5 -12 34841.9 868.262  10
   1  -5 -12 36581.0 840.649   6
   1   5 -12 32123.0 802.508   8
   1   5 -11 5901.13 303.483  10
   1  -5 -11 6580.63 285.241  12
   1  -5 -11 6877.26 293.116   6
   1   5 -11 6076.21 273.181   8
   1   5 -10 24095.8 640.168  10
   1  -5 -10 24404.1 610.436  12
   1  -5 -10 23961.0 601.145   6
   1   5 -10 22794.1 575.350   8
   1   5  -9 8120.06 329.376  10
   1  -5  -9 8428.90 313.091  12
   1  -5  -9 8375.64 303.662   6
   1  -5  -8 7681.56 263.781   4
   1   5  -8 7497.93 298.742  10
   1  -5  -8 7934.17 292.992  12
   1  -5  -8 7312.72 314.528   8
   1  -5  -7 7752.96 335.578   1
   1   5  -7 7122.02 290.094  10
   1  -5  -7 8863.53 312.282  12
   1  -5  -6 178817. 2682.44   4
   1  -5  -6 176789. 2848.64   1
   1   5  -6 173863. 2754.04  10
   1  -5  -6 176949. 2695.30   6
   1  -5  -5 13441.4 320.962   4
   1  -5  -5 13211.2 245.721   2
   1  -5  -5 13872.2 425.529   1
   1   5  -5 13601.5 368.341  10
   1  -5  -5 13479.1 385.505  12
   1  -5  -5 12743.8 321.755   6
   1  -5  -4 152834. 2355.09   4
   1   5  -4 152342. 2459.28   2
   1  -5  -4 151312. 2252.16   2
   1  -5  -4 146511. 2504.15   1
   1  -5  -4 151679. 2467.30  12
   1   5  -4 150596. 2417.28  10
   1  -5  -4 148417. 2353.19   6
   1  -5  -3 13893.5 295.339   4
   1   5  -3 15377.2 375.858   2
   1   5  -3 14650.5 346.121  10
   1  -5  -3 14425.2 385.881  12
   1  -5  -3 13604.8 292.596   6
   1  -5  -2 23325.4 421.980   4
   1   5  -2 24336.7 474.190  10
   1  -5  -2 24457.9 544.471  12
   1   5  -2 23632.8 509.365   2
   1  -5  -2 23527.9 499.940   3
   1   5  -2 23734.5 415.040   3
   1   5  -1 35708.1 695.668   6
   1  -5  -1 35264.9 572.989   4
   1  -5  -1 35791.8 681.140   3
   1   5  -1 35143.8 596.033   3
   1   5  -1 35586.2 675.336   2
   1  -5  -1 36335.8 710.795  12
   1   5  -1 35557.8 716.331  11
   1   5   0 36785.5 694.107   6
   1   5   0 36723.3 668.769   2
   1   5   0 34941.0 593.143   1
   1   5   0 35000.1 614.929   3
   1  -5   0 37015.7 689.247   3
   1  -5   0 35838.6 702.520  12
   1   5   0 35368.8 730.875  11
   1  -5   0 35957.7 727.126   7
   1   5   1 6710.05 215.441   6
   1   5   1 5814.85 150.048   1
   1   5   1 6556.33 197.478   2
   1  -5   1 6662.16 217.576   3
   1  -5   1 7289.40 230.006  12
   1   5   1 6794.59 252.187  11
   1  -5   1 6939.94 245.232   7
   1   5   2 49884.9 878.115   6
   1   5   2 48934.5 844.937   2
   1  -5   2 49516.6 879.486   3
   1  -5   2 48667.9 867.649  12
   1  -5   2 51496.6 952.058   7
   1   5   3 28431.1 617.759   5
   1   5   3 28573.5 596.489   6
   1   5   3 28900.3 601.489   4
   1  -5   3 29393.2 604.591   3
   1   5   3 29114.4 563.881   2
   1  -5   3 29366.1 581.151  12
   1   5   3 29363.4 546.049   7
   1   5   4 124004. 1980.04   5
   1  -5   4 122978. 1796.98   4
   1   5   4 123303. 1896.99   2
   1  -5   4 123814. 1906.72  12
   1   5   4 122706. 1839.10   7
   1   5   4 125661. 1955.03   6
   1  -5   5 24124.8 392.545   5
   1   5   5 23962.7 528.911   4
   1  -5   5 23645.6 435.295   4
   1   5   5 23902.9 504.710   2
   1  -5   5 23770.1 546.192   3
   1   5   5 24023.9 418.788  12
   1  -5   5 24338.0 497.726  12
   1   5   5 23355.0 546.376   6
   1  -5   6 108225. 1639.41   5
   1  -5   6 107324. 1689.91   4
   1   5   6 108326. 1791.83   4
   1   5   6 107858. 1762.08   2
   1  -5   6 109663. 1831.39   3
   1   5   6 103920. 1629.39  12
   1  -5   6 107489. 1738.72  12
   1   5   6 106193. 1677.38  10
   1   5   6 106297. 1834.75   6
   1  -5   7 32846.1 605.070   4
   1  -5   7 32720.0 563.171   5
   1   5   7 31772.6 678.494   4
   1   5   7 31917.5 726.252   5
   1   5   7 32149.4 654.473   2
   1  -5   7 32116.2 711.298   3
   1   5   7 30384.3 782.193  11
   1   5   7 31748.9 596.627  10
   1  -5   8 354.945 79.9624   3
   1  -5   8 358.854 54.2192   4
   1   5   8 306.091 60.8085   2
   1   5   8 348.769 64.1721   4
   1  -5   8 349.805 42.8054   5
   1   5   8 310.423 71.1044   5
   1   5   8 390.660 72.6067   9
   1   5   8 349.687 51.9392  10
   1  -5   9 2257.08 126.914   4
   1  -5   9 2566.92 120.052   5
   1   5   9 2576.02 160.034   4
   1   5   9 2487.09 146.433   2
   1   5   9 2293.32 127.675  10
   1   5   9 2432.68 157.439   9
   1  -5  10 40127.3 800.425   4
   1  -5  10 41612.7 770.546   5
   1   5  10 41480.6 870.342   4
   1   5  10 38351.3 794.024  10
   1  -5  11 3256.86 170.930   4
   1   5  11 3500.41 202.642   4
   1  -5  11 3260.22 159.165   5
   1   5  11 3213.58 173.790  10
   1   5  12 11930.2 417.598   4
   1  -5  12 11827.4 365.869   4
   1  -5  12 11154.9 340.241   5
   1   5  12 11633.1 370.743  10
   1   5  13 3905.89 234.847   4
   1  -5  13 4113.71 215.235   4
   1  -5  13 4258.10 205.327   5
   1   5  14 8800.54 371.879   4
   1  -5  14 8948.61 341.235   4
   1  -5  14 8756.00 318.959   5
   1   5  15 3440.80 238.667   4
   1  -5  15 3777.52 223.423   4
   1  -5  15 3133.35 195.383   5
   1  -5  16 12644.8 454.434   4
   1  -5  16 13094.8 442.446   5
   1   5  16 12942.9 497.537   4
   1  -5  17 6484.44 318.960   4
   1  -5  17 6664.27 302.791   5
   1  -5  18 3797.16 264.531   4
   1   5  18 4222.62 300.084   4
   1  -5  19 3318.94 255.312   4
   1   5  19 3831.85 300.337   4
   1  -5  20 1507.06 188.291   4
   1  -5  21 2863.18 262.925   4
   1  -7 -21 1114.00 208.022   7
   1  -7 -20 763.123 154.731   6
   1  -7 -20 310.227 109.822   7
   1   7 -19 2351.58 257.137   6
   1   7 -19 1857.77 243.422  10
   1  -7 -19 2193.21 231.019   6
   1  -7 -19 2256.36 242.963   7
   1   7 -18 3115.65 297.570  10
   1   7 -18 3594.47 304.904   6
   1  -7 -18 3730.04 286.320   6
   1   7 -17 1986.55 227.903   6
   1  -7 -17 2569.29 224.514   6
   1   7 -17 2431.24 248.572  10
   1  -7 -16 6125.84 280.423  12
   1   7 -16 5902.37 368.916  10
   1  -7 -16 6100.94 339.042   6
   1   7 -15 6143.33 367.712  10
   1  -7 -15 6301.17 285.448  12
   1  -7 -15 6171.25 327.333   6
   1   7 -14 3532.63 274.826  10
   1  -7 -14 3908.76 221.774  12
   1  -7 -14 3746.37 242.115   6
   1  -7 -13 51040.8 1056.10  12
   1   7 -13 49578.6 1170.05  10
   1  -7 -13 50971.5 1111.40   6
   1  -7 -12 5391.09 188.456   2
   1   7 -12 5142.00 302.479  10
   1  -7 -12 5565.36 259.140  12
   1  -7 -12 5622.92 273.639   6
   1  -7 -11 1149.14 124.281   6
   1  -7 -11 1066.89 74.0506   2
   1  -7 -11 1314.73 129.314  12
   1   7 -11 1466.68 172.982  10
   1  -7 -10 10434.0 251.564   2
   1  -7 -10 10772.1 365.380  12
   1   7 -10 9895.17 398.597  10
   1  -7 -10 10156.5 355.018   6
   1  -7  -9 7598.22 188.819   2
   1  -7  -9 7635.78 294.206  12
   1   7  -9 7138.78 312.405  10
   1  -7  -9 7464.47 278.980   6
   1  -7  -9 7512.74 331.080   7
   1  -7  -8 16714.2 314.070   2
   1  -7  -8 16738.5 465.507  12
   1   7  -8 16174.2 483.488  10
   1  -7  -8 17428.2 518.836   7
   1  -7  -7 3643.11 167.893   4
   1  -7  -7 3497.58 89.1522   2
   1  -7  -7 3671.31 194.712  12
   1   7  -7 3597.92 205.247  10
   1  -7  -7 3811.40 215.278   7
   1  -7  -6 2934.91 170.300  12
   1   7  -6 2780.99 169.037  10
   1  -7  -6 2797.77 135.483   6
   1   7  -5 1281.46 119.386   5
   1  -7  -5 1236.06 87.3360   4
   1   7  -5 1601.83 131.535   2
   1  -7  -5 1976.75 175.278   1
   1  -7  -5 1665.89 129.449  12
   1   7  -5 1401.98 124.842  10
   1  -7  -5 1423.38 90.2930   6
   1  -7  -4 15114.0 342.114   4
   1   7  -4 15735.3 426.998   2
   1  -7  -4 15882.6 424.644  12
   1   7  -4 15795.5 399.444  10
   1  -7  -4 15041.3 326.269   6
   1  -7  -3 41834.2 715.171   4
   1   7  -3 40705.7 816.260   2
   1   7  -3 40998.9 714.388   3
   1  -7  -3 39640.8 812.129  12
   1   7  -3 38802.3 763.520  10
   1  -7  -3 41968.9 685.743   6
   1   7  -3 39814.3 695.901   8
   1   7  -2 53982.8 1029.69   6
   1   7  -2 55493.4 1017.56   2
   1  -7  -2 54146.2 909.170   4
   1  -7  -2 58409.7 1035.69   3
   1   7  -2 55506.2 929.070   3
   1  -7  -2 56323.6 1033.78  12
   1   7  -2 54686.2 956.774  10
   1   7  -2 54636.4 1024.94  11
   1   7  -2 54830.5 928.351   8
   1  -7  -2 55162.2 862.210   6
   1   7  -1 90477.0 1459.35   6
   1   7  -1 88987.9 1437.20   2
   1   7  -1 88222.6 1363.89   3
   1   7  -1 87806.8 1352.68  10
   1  -7  -1 89513.9 1465.37  12
   1   7  -1 89640.5 1486.98  11
   1   7   0 179670. 2863.65   6
   1  -7   0 171739. 2867.56   3
   1   7   0 180636. 2839.15   2
   1   7   0 178861. 2792.98   3
   1  -7   0 183311. 2877.63  12
   1   7   0 179726. 2925.69  11
   1   7   0 186723. 2844.08   8
   1   7   1 38134.0 760.432   6
   1   7   1 41612.7 715.166   1
   1   7   1 37845.6 733.324   2
   1  -7   1 37819.3 777.303   3
   1   7   1 37684.0 719.251   3
   1   7   1 39354.4 831.494  11
   1  -7   1 40576.1 781.531  12
   1   7   1 41390.9 781.517   8
   1   7   2 26908.0 588.788   6
   1   7   2 26831.0 554.437   2
   1   7   2 26761.7 536.478   1
   1  -7   2 29273.7 610.765   3
   1  -7   2 28173.6 592.424  12
   1   7   2 28767.3 668.146  11
   1   7   2 28345.2 609.089   7
   1   7   3 3333.83 165.832   6
   1  -7   3 3536.31 116.368   5
   1   7   3 3306.51 149.048   1
   1   7   3 3550.99 177.687   4
   1   7   3 3276.34 152.941   2
   1  -7   3 3145.96 165.093   3
   1  -7   3 3561.18 164.919  12
   1   7   3 3222.73 152.566   7
   1   7   4 34261.3 720.604   6
   1  -7   4 33649.4 576.673   5
   1   7   4 34712.5 723.440   4
   1   7   4 35233.6 670.368   2
   1  -7   4 35599.8 733.356   3
   1   7   4 35451.7 626.680  12
   1  -7   4 34638.3 692.846  12
   1   7   4 34133.3 667.823   7
   1   7   5 12619.7 393.561   5
   1   7   5 11960.6 354.362   4
   1  -7   5 12075.8 242.693   5
   1   7   5 12182.8 319.749   2
   1  -7   5 12328.0 370.646   3
   1  -7   5 12207.4 331.436  12
   1   7   5 12134.2 274.433  12
   1   7   5 11919.9 363.578   6
   1   7   5 11927.3 303.832   7
   1  -7   6 6156.52 156.657   5
   1   7   6 6644.51 249.509   4
   1   7   6 6161.22 216.749   2
   1  -7   6 6285.59 259.182   3
   1  -7   6 6259.72 223.335  12
   1   7   6 6521.98 172.822  12
   1  -7   7 9683.00 225.385   5
   1   7   7 10030.8 323.498   4
   1   7   7 8684.22 281.877   2
   1  -7   7 9872.41 341.635   3
   1   7   7 9744.81 220.566  12
   1   7   7 9687.90 213.343  10
   1  -7   8 10894.9 290.849   4
   1  -7   8 11470.9 263.786   5
   1   7   8 11412.2 363.943   4
   1   7   8 10940.8 326.037   2
   1  -7   8 11419.9 388.063   3
   1   7   8 10985.1 229.129  12
   1   7   8 10839.9 260.103  10
   1  -7   9 1098.10 88.6081   4
   1  -7   9 1083.21 74.1407   5
   1   7   9 1172.65 82.1038  10
   1   7   9 1233.55 107.871   2
   1   7   9 1101.77 116.604   4
   1  -7   9 1341.58 137.915   3
   1  -7  10 19889.6 475.040   4
   1  -7  10 21467.6 447.069   5
   1   7  10 19991.7 549.077   4
   1   7  10 19699.4 454.290  10
   1  -7  10 19904.0 577.422   3
   1  -7  11 6342.31 244.949   4
   1  -7  11 6826.50 222.401   5
   1   7  11 6477.51 293.473   4
   1   7  11 6073.74 229.644  10
   1  -7  11 6097.48 307.247   3
   1  -7  12 7979.23 294.917   4
   1  -7  12 9018.78 277.501   5
   1   7  12 8903.12 357.608   4
   1   7  12 8123.76 289.751  10
   1  -7  12 8123.91 366.632   3
   1  -7  13 50279.0 1158.23   3
   1  -7  13 50593.8 1037.03   4
   1   7  13 53629.1 1150.41   4
   1  -7  13 51543.9 988.651   5
   1  -7  14 4626.78 292.505   3
   1  -7  14 5131.45 252.118   4
   1   7  14 5364.19 295.158   4
   1  -7  14 5014.05 224.526   5
   1  -7  15 5321.13 323.658   3
   1   7  15 5824.32 324.226   4
   1  -7  15 5935.09 282.218   4
   1  -7  15 5977.18 256.380   5
   1  -7  16 3114.86 256.896   3
   1   7  16 3362.43 248.626   4
   1  -7  16 2687.16 198.057   4
   1  -7  16 3360.95 200.846   5
   1  -7  17 1309.22 186.857   3
   1  -7  17 1180.19 144.027   4
   1   7  17 950.920 144.271   4
   1  -7  18 647.594 129.300   3
   1  -7  18 654.764 123.605   4
   1   7  18 667.686 144.992   4
   1   7  19 2318.65 244.385   4
   1  -7  19 2532.63 255.918   3
   1  -7  19 2025.33 201.299   4
   1  -7  20 533.798 122.994   4
   1  -9 -20 4940.11 373.752   7
   1  -9 -19 27429.1 877.206   6
   1   9 -19 27053.3 925.707   6
   1  -9 -19 26692.5 917.362   7
   1   9 -18 702.117 164.682   6
   1  -9 -18 730.123 133.304   6
   1   9 -18 829.492 177.227  10
   1  -9 -18 520.733 133.059   7
   1   9 -17 8738.35 480.793  10
   1   9 -17 8585.86 461.435   6
   1  -9 -17 8928.42 434.422   6
   1  -9 -17 8624.26 466.666   7
   1  -9 -16 232.640 81.6571   6
   1  -9 -16 398.396 78.5530  12
   1   9 -16 29.9504 114.454  10
   1  -9 -16 147.058 78.6396   7
   1   9 -15 3560.18 297.255  10
   1  -9 -15 3970.73 217.954  12
   1  -9 -15 3646.67 251.309   6
   1  -9 -15 3401.84 272.203   7
   1  -9 -14 3233.17 196.393  12
   1   9 -14 2904.10 254.120  10
   1  -9 -14 2870.91 216.627   6
   1  -9 -14 3122.37 252.527   7
   1  -9 -13 7035.64 291.745  12
   1   9 -13 6364.60 356.847  10
   1  -9 -13 6776.31 316.732   6
   1  -9 -13 6902.48 370.689   7
   1  -9 -12 2953.10 190.247  12
   1   9 -12 2871.29 233.011  10
   1  -9 -12 2751.95 195.185   6
   1  -9 -12 2666.76 222.011   7
   1  -9 -11 11808.2 259.947   2
   1  -9 -11 11386.4 382.016  12
   1   9 -11 10753.2 438.116  10
   1  -9 -11 10930.2 386.878   6
   1  -9 -11 11254.0 466.921   7
   1  -9 -10 7739.77 179.471   2
   1  -9 -10 7723.86 304.272  12
   1   9 -10 7039.69 335.974  10
   1  -9 -10 6886.66 351.261   7
   1  -9 -10 7364.06 292.045   6
   1  -9  -9 21781.8 372.281   2
   1  -9  -9 22691.5 572.589  12
   1   9  -9 20372.0 600.913  10
   1  -9  -9 20939.8 640.200   7
   1  -9  -9 21025.9 531.663   6
   1  -9  -8 14493.1 428.146  12
   1   9  -8 13912.1 454.220  10
   1  -9  -8 14932.5 506.646   7
   1  -9  -7 13142.0 370.735   4
   1  -9  -7 13714.6 405.463  12
   1   9  -7 12927.8 417.180  10
   1  -9  -7 13084.6 461.599   7
   1   9  -6 6815.13 296.034   2
   1  -9  -6 7101.42 275.013  12
   1   9  -6 6532.15 269.458  10
   1  -9  -6 7057.63 223.516   6
   1  -9  -6 7155.76 322.635   7
   1  -9  -5 2000.90 115.234   4
   1   9  -5 2330.14 161.677   2
   1  -9  -5 2105.60 143.534  12
   1   9  -5 2027.01 141.152  10
   1  -9  -5 2079.41 169.016   7
   1  -9  -5 1835.74 98.6327   6
   1   9  -4 1036.96 114.039   2
   1  -9  -4 1128.56 83.9460   4
   1   9  -4 1103.38 83.1222   3
   1  -9  -4 1419.92 121.028  12
   1   9  -4 1244.74 114.486  10
   1  -9  -4 1122.77 67.7538   6
   1  -9  -3 43656.2 723.155   6
   1   9  -3 44424.9 902.892   6
   1   9  -3 44884.8 895.486   2
   1  -9  -3 43497.4 785.264   4
   1   9  -3 44519.6 805.622   3
   1  -9  -3 44429.0 885.886  12
   1   9  -3 41027.5 827.013  10
   1   9  -3 43069.6 864.103  11
   1   9  -3 45371.4 804.822   8
   1  -9  -2 12923.3 234.446   6
   1   9  -2 12873.9 378.268   6
   1  -9  -2 13191.5 389.798   3
   1   9  -2 12570.9 323.997   3
   1   9  -2 14311.3 388.967   2
   1  -9  -2 12532.6 374.717  12
   1   9  -2 12424.9 378.884  11
   1   9  -2 13064.0 330.147  10
   1   9  -2 13842.0 340.126   8
   1   9  -1 23825.9 575.212   6
   1   9  -1 23028.2 506.350   3
   1  -9  -1 24867.9 583.032   3
   1   9  -1 23998.4 559.826   2
   1  -9  -1 26098.0 583.868  12
   1   9  -1 23026.5 594.874  11
   1   9  -1 26129.7 498.303  10
   1   9  -1 23713.8 586.237   9
   1   9  -1 26978.0 555.055   8
   1   9   0 17703.6 445.408   6
   1   9   0 17308.3 428.451   2
   1  -9   0 18714.2 471.053   3
   1   9   0 16770.3 406.044   3
   1  -9   0 17461.1 456.219  12
   1   9   0 18403.8 353.745  10
   1   9   0 16577.6 482.573  11
   1   9   0 16467.9 461.787   9
   1   9   0 17836.2 447.301   8
   1   9   1 83600.9 1444.64   6
   1   9   1 81834.3 1406.53   3
   1   9   1 83860.2 1415.65   1
   1  -9   1 84332.5 1476.59   3
   1   9   1 83017.4 1407.19   2
   1  -9   1 81382.9 1454.48  12
   1   9   1 80438.3 1525.29  11
   1   9   1 78595.7 1478.21   9
   1   9   1 82929.9 1472.79   8
   1   9   1 79681.8 1533.26   7
   1  -9   1 85573.8 1613.03   7
   1   9   2 24450.9 561.091   6
   1   9   2 23001.8 523.411   1
   1   9   2 23784.8 537.547   3
   1   9   2 24096.2 521.070   2
   1  -9   2 23914.0 578.816   3
   1   9   2 24367.1 518.274  12
   1  -9   2 23856.7 559.368  12
   1   9   2 24357.1 637.983  11
   1   9   2 25526.7 603.465   7
   1   9   2 23505.5 593.856   8
   1   9   3 33375.6 706.925   6
   1  -9   3 32433.2 609.994   5
   1   9   3 32341.3 712.250   4
   1   9   3 31270.9 649.302   2
   1  -9   3 31426.0 721.517   3
   1   9   3 31359.6 662.665   1
   1   9   3 33151.7 645.292  12
   1   9   3 32060.2 797.213  11
   1  -9   3 34598.0 706.182  12
   1   9   3 34014.5 720.571   7
   1   9   3 32591.4 768.943   8
   1  -9   4 5921.88 176.970   5
   1   9   4 5947.05 223.565   1
   1   9   4 6185.04 252.041   4
   1   9   4 5924.57 212.055   2
   1  -9   4 5877.69 257.105   3
   1  -9   4 6078.03 234.634  12
   1   9   4 6414.41 204.079  12
   1   9   4 6098.18 237.674   7
   1   9   5 5797.05 249.447   4
   1  -9   5 6048.45 175.168   5
   1   9   5 5757.87 212.405   2
   1  -9   5 6254.24 268.432   3
   1  -9   5 5915.55 231.767  12
   1   9   5 6065.45 199.453  12
   1   9   5 6031.45 228.787   7
   1  -9   6 332.037 47.0862   5
   1  -9   6 212.779 70.7496   3
   1   9   6 320.098 61.1385   2
   1   9   6 288.344 62.5106   4
   1   9   6 337.305 50.1763  12
   1   9   6 245.861 50.9249   7
   1  -9   7 16330.4 345.683   5
   1   9   7 16060.3 460.217   4
   1   9   7 15530.1 358.249  12
   1   9   7 15470.7 408.085   2
   1  -9   7 15981.9 486.546   3
   1  -9   8 3317.57 134.108   5
   1   9   8 3547.52 201.710   4
   1   9   8 3457.23 172.661   2
   1  -9   8 3336.40 214.169   3
   1   9   8 3429.76 135.917  12
   1  -9   9 32845.5 623.562   5
   1   9   9 32278.6 762.715   4
   1   9   9 31405.7 699.645   2
   1  -9   9 32602.8 805.399   3
   1   9   9 32284.6 597.392  12
   1   9   9 33075.9 577.740  10
   1  -9  10 8670.30 255.294   5
   1   9  10 8645.33 347.910   4
   1   9  10 9270.11 240.100  10
   1   9  10 8951.87 312.951   2
   1  -9  10 8356.22 364.042   3
   1  -9  11 302.348 91.0192   3
   1   9  11 423.097 90.7701   4
   1  -9  11 299.571 53.6884   5
   1  -9  12 9934.28 419.342   3
   1  -9  12 9602.88 294.079   5
   1   9  12 9861.10 398.571   4
   1  -9  13 1409.20 164.292   3
   1   9  13 1186.52 148.645   4
   1  -9  13 1316.21 106.800   5
   1  -9  14 4516.58 295.652   3
   1  -9  14 4563.59 209.293   5
   1   9  14 4962.00 297.347   4
   1  -9  15 5984.91 353.840   3
   1   9  15 5908.08 336.015   4
   1  -9  16 3356.94 272.963   3
   1   9  16 2954.20 245.638   4
   1  -9  17 5888.61 375.922   3
   1   9  17 6402.75 373.842   4
   1  -9  18 715.214 153.344   3
   1   9  18 802.841 158.656   4
   1 -11 -19 5715.85 414.066   7
   1 -11 -19 6365.33 384.306   6
   1 -11 -18 6675.67 382.236   6
   1 -11 -18 6618.10 428.204   7
   1  11 -18 7554.64 452.445   6
   1 -11 -17 1185.81 165.150   6
   1  11 -17 1454.66 232.658  10
   1 -11 -17 1120.67 169.636   7
   1 -11 -16 2578.19 255.937   7
   1  11 -16 2439.18 263.532  10
   1 -11 -16 2731.75 223.437   6
   1 -11 -15 1997.36 156.111  12
   1  11 -15 1704.69 221.955  10
   1 -11 -15 1745.27 174.510   6
   1 -11 -15 1910.77 211.675   7
   1 -11 -14 5515.06 261.149  12
   1  11 -14 5288.97 348.494  10
   1 -11 -14 5190.84 341.939   7
   1 -11 -14 5247.29 292.751   6
   1 -11 -13 220.520 73.6995   6
   1 -11 -13 238.825 68.2929  12
   1  11 -13 92.0968 115.586  10
   1 -11 -13 144.548 86.0481   7
   1 -11 -12 3434.31 203.079  12
   1  11 -12 3412.28 259.876  10
   1 -11 -12 3231.69 258.098   7
   1 -11 -12 3219.11 206.738   6
   1 -11 -11 12575.3 411.156  12
   1  11 -11 11479.6 471.106  10
   1 -11 -11 12364.5 509.396   7
   1 -11 -11 12255.8 406.561   6
   1 -11 -10 13141.0 418.147  12
   1  11 -10 11960.1 470.306  10
   1 -11 -10 12513.2 506.161   7
   1 -11 -10 13029.1 400.130   6
   1 -11  -9 25529.2 644.135  12
   1  11  -9 25025.9 694.598  10
   1 -11  -9 26226.1 608.491   6
   1 -11  -9 25938.3 763.087   7
   1 -11  -8 3499.96 201.520  12
   1  11  -8 3500.43 225.223  10
   1 -11  -8 3227.71 240.373   7
   1 -11  -8 3524.90 171.775   6
   1  11  -7 45635.0 1034.13   2
   1 -11  -7 46469.6 968.174  12
   1  11  -7 46018.2 993.113  10
   1 -11  -7 47689.6 1110.97   7
   1 -11  -6 43240.0 787.537   6
   1  11  -6 42117.6 953.740   2
   1 -11  -6 41498.4 846.574   4
   1 -11  -6 42102.4 894.522  12
   1  11  -6 39976.1 889.762  10
   1 -11  -6 42911.5 1023.27   7
   1 -11  -5 4515.36 157.144   6
   1  11  -5 4758.55 245.430   2
   1 -11  -5 4641.48 227.216  12
   1  11  -5 4462.08 224.927  10
   1 -11  -5 4232.00 270.113   7
   1 -11  -4 3298.65 116.381   6
   1  11  -4 2726.98 179.731   2
   1 -11  -4 3136.88 184.323  12
   1  11  -4 2967.28 161.031  11
   1  11  -4 2901.02 165.155  10
   1  11  -4 2948.15 154.335   8
   1 -11  -4 2859.97 218.145   7
   1 -11  -3 1666.87 70.9836   6
   1  11  -3 1615.19 133.193   2
   1 -11  -3 1631.57 133.613  12
   1  11  -3 1525.82 122.888  11
   1  11  -3 1514.19 116.440  10
   1  11  -3 1440.82 112.471   8
   1 -11  -3 1667.14 165.528   7
   1 -11  -2 5907.48 266.315   3
   1  11  -2 5580.78 240.012   2
   1 -11  -2 6148.58 257.702  12
   1  11  -2 5641.55 252.613  11
   1  11  -2 5728.88 209.003  10
   1  11  -2 5653.11 228.490   8
   1 -11  -2 6613.19 334.311   7
   1 -11  -1 16653.2 481.239   3
   1  11  -1 16704.3 443.913   2
   1 -11  -1 16607.3 463.482  12
   1  11  -1 15601.2 473.306  11
   1  11  -1 16386.4 374.229  10
   1  11  -1 16426.5 450.452   8
   1 -11  -1 16241.8 567.675   7
   1  11   0 24647.3 581.229   1
   1 -11   0 24941.9 625.606   3
   1  11   0 25614.9 571.288   2
   1 -11   0 24191.9 598.859  12
   1  11   0 24115.6 642.745  11
   1  11   0 24239.7 473.781  10
   1  11   0 25641.4 614.754   8
   1 -11   0 24527.1 732.084   7
   1  11   1 15481.5 431.730   1
   1  11   1 15311.2 398.299   2
   1 -11   1 14319.4 442.452   3
   1 -11   1 14608.7 424.336  12
   1  11   1 15229.7 294.298  10
   1  11   1 14558.2 486.688  11
   1  11   1 14949.9 496.331   7
   1  11   1 13830.4 448.700   8
   1 -11   2 4963.90 195.784   5
   1  11   2 4893.42 221.434   1
   1 -11   2 5014.46 244.921   3
   1  11   2 4746.83 213.997   3
   1  11   2 5258.12 207.405   2
   1  11   2 5168.15 211.930  12
   1 -11   2 4934.13 228.680  12
   1  11   2 5119.61 260.311   7
   1  11   2 5489.16 273.515   8
   1 -11   3 2812.19 138.323   5
   1  11   3 2761.92 169.090   1
   1 -11   3 2624.17 176.443   3
   1  11   3 2697.12 143.835   2
   1  11   3 2654.62 172.207   4
   1 -11   3 2636.83 166.279  12
   1  11   3 2706.65 146.732  12
   1  11   3 2553.90 172.826   7
   1  11   3 2890.32 210.918   8
   1 -11   4 2198.86 119.918   5
   1  11   4 2355.27 159.354   1
   1  11   4 2251.05 129.584   2
   1  11   4 2115.30 156.361   4
   1 -11   4 2180.85 166.062   3
   1 -11   4 1980.45 142.483  12
   1  11   4 1948.29 125.548  12
   1  11   4 2188.90 155.478   7
   1  11   4 2515.58 202.552   8
   1 -11   5 14461.3 348.073   5
   1  11   5 14509.5 444.027   4
   1  11   5 14206.9 383.813   2
   1  11   5 13974.3 417.698   1
   1 -11   5 14912.9 466.440   3
   1 -11   5 14836.7 431.516  12
   1  11   5 14989.4 386.892  12
   1  11   5 14550.5 432.453   7
   1  11   6 39253.6 865.663   4
   1 -11   6 39684.8 730.044   5
   1  11   6 39020.1 785.139   2
   1 -11   6 38650.3 900.134   3
   1  11   6 39436.4 770.179  12
   1  11   6 37424.3 832.114   7
   1  11   7 53087.2 1092.70   4
   1 -11   7 52601.2 933.522   5
   1  11   7 52753.4 973.743  12
   1  11   7 53316.2 1001.22   2
   1 -11   7 50949.4 1120.25   3
   1 -11   8 3812.68 156.602   5
   1  11   8 4006.08 227.927   4
   1  11   8 4033.51 175.265  12
   1  11   8 3988.75 190.563   2
   1 -11   8 4166.70 249.499   3
   1 -11   9 5984.90 207.532   5
   1  11   9 5926.18 286.285   4
   1  11   9 6027.27 214.159  12
   1  11   9 6384.53 254.413   2
   1 -11   9 6378.08 320.959   3
   1  11  10 16295.5 458.450   2
   1 -11  10 15883.6 547.281   3
   1  11  10 17445.3 536.645   4
   1 -11  10 16868.7 403.283   5
   1  11  11 15980.5 459.682   2
   1 -11  11 15418.0 549.521   3
   1 -11  11 16657.2 407.724   5
   1  11  11 15834.8 528.484   4
   1 -11  12 110.589 78.3103   3
   1  11  12 138.919 71.5716   4
   1 -11  12 92.4074 36.1646   5
   1 -11  13 3479.04 260.074   3
   1  11  13 3339.89 240.519   4
   1 -11  14 3537.54 272.849   3
   1  11  14 3909.83 274.548   4
   1 -11  15 880.245 156.983   3
   1  11  15 952.635 148.717   4
   1 -11  16 644.492 146.989   3
   1  11  16 707.194 145.245   4
   1 -11  17 9253.00 481.661   3
   1  11  17 8989.03 458.909   4
   1 -11  18 6328.85 408.225   3
   1 -13 -18 755.365 135.297   6
   1 -13 -18 503.671 138.950   7
   1  13 -17 6288.52 441.896  10
   1 -13 -17 6804.26 369.479   6
   1 -13 -17 6758.42 447.344   7
   1 -13 -16 2406.03 210.959   6
   1  13 -16 2424.84 271.054  10
   1 -13 -16 2263.68 255.769   7
   1  13 -15 5034.00 365.252  10
   1 -13 -15 4884.56 365.427   7
   1 -13 -15 5590.60 311.566   6
   1 -13 -14 583.536 101.513   6
   1 -13 -14 661.782 100.074  12
   1  13 -14 753.027 158.170  10
   1 -13 -14 728.526 147.823   7
   1 -13 -13 2442.51 177.288  12
   1 -13 -13 2324.74 240.595   7
   1 -13 -13 2286.17 181.386   6
   1  13 -13 2465.03 249.585  10
   1 -13 -12 1727.33 148.755   6
   1 -13 -12 1634.47 143.768  12
   1  13 -12 1824.40 199.571  10
   1 -13 -12 1820.05 214.500   7
   1 -13 -11 10057.7 362.552   6
   1 -13 -11 10851.5 384.769  12
   1  13 -11 9476.05 434.817  10
   1 -13 -11 10256.5 492.933   7
   1 -13 -10 13270.7 414.724   6
   1 -13 -10 13996.7 448.530  12
   1  13 -10 13653.0 515.643  10
   1 -13 -10 13676.8 568.386   7
   1 -13  -9 46882.6 920.952   6
   1  13  -9 42793.3 1090.09   2
   1 -13  -9 47240.0 989.714  12
   1  13  -9 44212.7 1048.26  10
   1 -13  -9 44663.5 1160.07   7
   1 -13  -8 1895.54 125.552   6
   1  13  -8 2121.87 196.910   2
   1 -13  -8 2100.18 165.238  12
   1  13  -8 1935.09 180.200  10
   1 -13  -8 1832.41 198.580   7
   1  13  -7 21649.6 657.351   2
   1 -13  -7 22473.6 596.876  12
   1  13  -7 21070.3 617.884  10
   1 -13  -7 23440.3 740.092   7
   1 -13  -6 19202.8 431.673   6
   1  13  -6 18942.1 578.014   2
   1 -13  -6 19266.8 540.151  12
   1  13  -6 18423.6 536.332  10
   1 -13  -6 19604.7 671.854   7
   1 -13  -5 6809.44 204.969   6
   1  13  -5 6742.29 309.035   2
   1 -13  -5 7155.17 300.038  12
   1  13  -5 6385.32 275.757  10
   1  13  -5 7099.98 271.651   8
   1 -13  -5 6569.28 365.066   7
   1 -13  -4 11762.1 273.319   6
   1  13  -4 11973.1 417.148   2
   1  13  -4 11544.7 364.997   3
   1 -13  -4 11456.6 397.641  12
   1  13  -4 12134.6 376.474  11
   1  13  -4 11481.1 369.679  10
   1  13  -4 11918.7 376.630   8
   1 -13  -4 11828.7 500.831   7
   1  13  -3 8475.36 328.947   2
   1  13  -3 8342.21 299.836   3
   1 -13  -3 8161.42 323.910  12
   1  13  -3 8538.33 321.500  11
   1  13  -3 7731.82 279.484  10
   1  13  -3 8749.85 314.658   8
   1 -13  -3 8199.55 414.878   7
   1 -13  -2 4188.12 244.352   3
   1  13  -2 4594.93 214.732   3
   1  13  -2 4523.46 226.957   2
   1 -13  -2 4468.77 230.405  12
   1  13  -2 4259.86 231.042  11
   1  13  -2 4042.27 184.668  10
   1  13  -2 4474.97 229.354   8
   1 -13  -2 4697.68 312.756   7
   1 -13  -1 25804.6 680.854   3
   1  13  -1 27626.9 630.948   2
   1 -13  -1 26025.1 645.210  12
   1  13  -1 24874.6 672.862  11
   1  13  -1 25131.1 538.978  10
   1  13  -1 25935.2 652.852   8
   1 -13  -1 26891.7 820.087   7
   1 -13   0 9000.74 357.862   3
   1  13   0 8733.85 308.292   2
   1  13   0 9860.74 351.394   1
   1 -13   0 8912.21 335.962  12
   1  13   0 9023.60 243.924  10
   1  13   0 8860.22 353.138   8
   1  13   1 4898.64 253.555   1
   1  13   1 3532.27 185.324   2
   1 -13   1 3525.66 222.668   3
   1 -13   1 3449.75 211.220  12
   1  13   1 3483.74 124.275  10
   1  13   1 3978.14 249.932   8
   1 -13   2 2439.19 153.526   5
   1 -13   2 2468.09 185.233   3
   1  13   2 2746.41 181.485   1
   1  13   2 2576.99 149.074   2
   1 -13   2 2292.73 168.728  12
   1  13   2 2219.17 197.035   8
   1 -13   3 3812.43 186.707   5
   1  13   3 3803.09 223.969   4
   1 -13   3 4352.76 248.919   3
   1  13   3 4082.00 188.740   2
   1  13   3 3899.83 222.218   1
   1 -13   3 3877.07 216.335  12
   1  13   3 4188.03 273.803   8
   1 -13   4 12214.1 346.531   5
   1  13   4 11902.5 416.200   4
   1  13   4 12105.2 352.437   2
   1 -13   4 11421.0 421.436   3
   1  13   4 11323.7 398.706   1
   1 -13   4 12198.0 404.359  12
   1  13   4 11710.9 482.582   8
   1  13   5 3448.68 209.782   1
   1  13   5 3360.40 173.584   2
   1 -13   5 3580.86 229.823   3
   1  13   5 3252.44 206.012   4
   1 -13   5 3292.52 161.840   5
   1  13   5 3218.48 273.327   8
   1  13   6 8375.76 290.314   2
   1  13   6 8915.21 345.890   1
   1 -13   6 9017.02 378.856   3
   1  13   6 8407.79 345.254   4
   1 -13   6 8185.09 268.032   5
   1  13   7 58046.6 1114.42   2
   1 -13   7 60306.1 1263.43   3
   1  13   7 59985.3 1227.56   4
   1 -13   7 59003.1 1067.94   5
   1  13   8 4173.88 202.961   2
   1 -13   8 4716.55 278.669   3
   1  13   8 4328.24 251.443   4
   1 -13   8 4383.42 183.452   5
   1  13   9 22542.8 560.388   2
   1 -13   9 22869.3 688.900   3
   1  13   9 23031.7 658.255   4
   1 -13   9 22616.8 513.500   5
   1  13  10 16307.7 461.711   2
   1 -13  10 15730.1 562.273   3
   1  13  10 16867.4 550.473   4
   1 -13  10 17078.7 422.172   5
   1 -13  11 1215.97 164.367   3
   1  13  11 1056.47 140.768   4
   1  13  11 1100.88 116.840   2
   1 -13  11 1239.85 106.254   5
   1 -13  12 415.245 114.522   3
   1  13  12 764.048 128.844   4
   1 -13  13 8270.53 419.756   3
   1  13  13 7938.76 396.103   4
   1 -13  14 1161.30 177.493   3
   1  13  14 1076.14 153.052   4
   1 -13  15 3077.37 272.233   3
   1  13  15 3390.69 275.447   4
   1 -13  16 2211.97 233.304   3
   1  13  16 2243.28 237.758   4
   1 -13  17 5586.45 388.936   3
   1 -15 -17 1804.75 247.653   7
   1 -15 -16 1722.69 184.038   6
   1  15 -16 1693.18 244.597  10
   1 -15 -16 1713.34 236.843   7
   1 -15 -15 887.297 124.790   6
   1  15 -15 1461.70 232.687  10
   1 -15 -15 916.090 174.038   7
   1 -15 -14 633.914 107.781   6
   1  15 -14 546.371 165.139  10
   1 -15 -14 601.585 140.257   7
   1 -15 -13 10078.3 396.956   6
   1  15 -13 8634.77 488.849   2
   1 -15 -13 10041.8 382.710  12
   1  15 -13 10026.0 497.616  10
   1 -15 -13 9826.82 530.525   7
   1 -15 -12 8532.06 343.453   6
   1  15 -12 7370.97 428.134   2
   1 -15 -12 7998.11 340.404  12
   1  15 -12 7265.56 409.127  10
   1 -15 -12 7962.91 473.844   7
   1 -15 -11 8303.17 326.504   6
   1  15 -11 7609.14 423.647   2
   1 -15 -11 8370.08 347.631  12
   1  15 -11 7296.26 401.544  10
   1 -15 -11 8547.84 480.213   7
   1 -15 -10 1097.37 107.798   6
   1  15 -10 1261.74 175.945   2
   1 -15 -10 1340.16 137.983  12
   1  15 -10 1132.82 160.601  10
   1 -15 -10 1206.78 176.799   7
   1 -15  -9 2712.93 163.757   6
   1  15  -9 2500.02 222.734   2
   1 -15  -9 2416.58 182.164  12
   1 -15  -9 2437.94 248.985   7
   1  15  -9 2116.50 205.776  10
   1 -15  -8 2141.04 136.866   6
   1  15  -8 2061.81 194.013   2
   1 -15  -8 1860.04 161.712  12
   1  15  -8 1761.48 177.983  10
   1 -15  -8 2200.49 232.461   7
   1  15  -7 9196.53 404.504   2
   1 -15  -7 9015.95 365.135  12
   1  15  -7 8793.73 376.899  10
   1 -15  -7 9489.07 483.337   7
   1 -15  -6 103818. 1725.65   6
   1  15  -6 102679. 1977.24   2
   1 -15  -6 105036. 1914.08  12
   1  15  -6 99448.6 1904.06  10
   1  15  -6 109722. 1888.98   8
   1 -15  -6 105816. 2177.09   7
   1 -15  -5 23512.3 490.370   6
   1  15  -5 23488.6 673.411   2
   1 -15  -5 22965.6 633.472  12
   1  15  -5 22940.2 612.674  10
   1  15  -5 25269.2 636.049   8
   1 -15  -5 23471.8 808.628   7
   1  15  -4 1373.00 154.058   2
   1 -15  -4 1732.86 166.672  12
   1  15  -4 1711.94 161.726  10
   1 -15  -4 1223.32 184.068   7
   1  15  -4 2249.67 188.150   8
   1  15  -3 33510.3 784.906   2
   1 -15  -3 32072.7 782.213  12
   1  15  -3 28770.5 693.723  10
   1  15  -3 34319.4 793.761   8
   1 -15  -3 31891.1 985.465   7
   1  15  -2 6239.88 278.625   2
   1 -15  -2 6046.90 290.204  12
   1  15  -2 5702.86 235.928  10
   1  15  -2 6367.45 306.925   8
   1 -15  -2 5226.80 364.227   7
   1 -15  -1 3885.39 246.735   3
   1  15  -1 5652.80 286.426   1
   1  15  -1 4735.16 238.091   2
   1 -15  -1 4319.61 244.189  12
   1  15  -1 4406.65 194.723  10
   1  15  -1 5165.40 289.572   8
   1  15   0 15133.6 443.757   2
   1 -15   0 14142.9 505.274   3
   1  15   0 15320.9 503.394   1
   1 -15   0 14501.0 477.138  12
   1  15   0 15037.6 357.032  10
   1  15   0 15021.9 522.127   8
   1  15   1 19652.0 587.059   1
   1 -15   1 19924.3 604.163   3
   1  15   1 19755.1 515.878   2
   1 -15   1 19541.8 565.376  12
   1  15   1 19603.6 396.186  10
   1  15   1 19098.4 615.751   8
   1  15   2 8932.79 366.788   1
   1  15   2 8324.22 349.768   4
   1 -15   2 8849.63 374.920   3
   1  15   2 8801.01 301.929   2
   1  15   2 7545.50 164.020  10
   1 -15   2 8324.71 343.708  12
   1  15   2 8850.06 404.345   8
   1  15   3 34866.4 853.994   4
   1  15   3 36640.2 874.030   1
   1  15   3 34420.2 756.135   2
   1 -15   3 35706.2 890.317   3
   1 -15   3 36014.9 784.485   5
   1  15   3 35555.4 946.701   8
   1  15   4 19330.4 499.361   2
   1  15   4 19821.9 586.969   4
   1 -15   4 20058.8 613.877   3
   1  15   4 19321.4 588.770   1
   1 -15   4 19923.4 511.560   5
   1  15   4 18846.1 665.320   8
   1  15   5 18276.6 564.338   1
   1  15   5 17273.5 468.599   2
   1 -15   5 17593.1 580.454   3
   1  15   5 18402.8 563.699   4
   1 -15   5 17844.0 475.360   5
   1  15   5 18490.9 675.372   8
   1  15   6 95336.6 1678.90   2
   1 -15   6 95832.8 1865.13   3
   1  15   6 98967.6 1818.94   1
   1  15   6 95403.6 1816.41   4
   1 -15   6 95300.2 1667.50   5
   1  15   6 92834.9 2002.74   8
   1  15   7 9736.93 329.435   2
   1 -15   7 10400.2 437.738   3
   1  15   7 9656.25 401.031   4
   1 -15   7 10545.0 328.909   5
   1 -15   8 709.919 121.044   3
   1  15   8 655.376 86.0191   2
   1  15   8 675.374 111.266   4
   1 -15   8 582.301 81.6510   5
   1  15   9 3680.07 197.836   2
   1 -15   9 3265.44 250.709   3
   1  15   9 3044.88 225.964   4
   1 -15   9 3484.33 177.652   5
   1 -15  10 245.493 88.2620   3
   1  15  10 357.628 97.1627   4
   1  15  10 384.236 77.5999   2
   1  15  11 5302.06 254.496   2
   1 -15  11 5431.74 331.467   3
   1  15  11 5313.64 311.816   4
   1 -15  12 4663.19 319.521   3
   1  15  12 5395.44 327.448   4
   1 -15  13 4182.73 309.764   3
   1  15  13 4245.77 300.842   4
   1 -15  14 957.449 155.107   3
   1  15  14 769.550 149.166   4
   1 -15  15 1947.33 223.008   3
   1  15  15 2317.94 240.416   4
   1 -17 -15 4475.34 389.762   7
   1  17 -14 6036.16 417.197  10
   1 -17 -14 6680.44 464.158   7
   1  17 -13 6111.47 412.257   2
   1  17 -13 5203.61 371.743  10
   1 -17 -13 5148.54 408.058   7
   1  17 -12 19786.1 756.666   2
   1 -17 -12 21062.7 618.621  12
   1  17 -12 20207.4 730.983  10
   1 -17 -12 19190.3 815.769   7
   1  17 -11 593.259 131.728   2
   1 -17 -11 682.700 111.526  12
   1  17 -11 684.282 143.218  10
   1 -17 -11 759.488 164.702   7
   1  17 -10 2822.79 263.689   2
   1 -17 -10 2822.68 205.196  12
   1  17 -10 2481.78 238.519  10
   1 -17 -10 2347.47 272.464   7
   1  17  -9 3358.99 269.204   2
   1 -17  -9 3593.42 229.177  12
   1  17  -9 3171.16 254.169  10
   1 -17  -9 3520.86 327.299   7
   1  17  -8 73.3136 74.0017   2
   1 -17  -8 100.387 66.7536  12
   1 -17  -8 259.021 110.831   7
   1  17  -8 91.0137 93.9501  10
   1  17  -7 5146.85 316.199   2
   1 -17  -7 5483.24 287.803  12
   1  17  -7 4368.55 279.530  10
   1  17  -7 5591.70 285.845   8
   1 -17  -7 4806.06 380.653   7
   1  17  -6 9149.11 409.627   2
   1 -17  -6 8715.37 372.709  12
   1  17  -6 8020.82 366.231  10
   1  17  -6 9857.60 388.772   8
   1 -17  -6 9587.87 533.177   7
   1  17  -5 518.992 100.098   2
   1 -17  -5 665.546 109.102  12
   1 -17  -5 499.856 139.832   7
   1  17  -5 539.649 108.691  10
   1  17  -5 698.668 122.892   8
   1  17  -4 5137.14 280.851   2
   1 -17  -4 5123.50 280.517  12
   1  17  -4 5002.22 251.047  10
   1  17  -4 5512.59 289.259   8
   1 -17  -4 5132.38 392.580   7
   1  17  -3 17001.1 532.804   2
   1 -17  -3 15841.5 520.109  12
   1  17  -3 15351.9 453.220  10
   1  17  -3 15690.8 532.202   8
   1  17  -2 13346.2 442.882   2
   1 -17  -2 13034.1 463.863  12
   1  17  -2 12305.7 377.959  10
   1  17  -2 12251.3 476.569   8
   1  17  -1 7533.70 316.128   2
   1  17  -1 7847.75 373.506   1
   1 -17  -1 7553.29 341.704  12
   1  17  -1 7464.55 259.720  10
   1  17  -1 7116.29 362.800   8
   1  17   0 25242.8 724.652   1
   1 -17   0 24220.2 727.422   3
   1  17   0 23161.0 609.565   2
   1 -17   0 23031.5 664.370  12
   1  17   0 24192.1 514.204  10
   1  17   0 24440.0 741.069   8
   1  17   1 3136.25 241.399   1
   1  17   1 2609.69 203.923   4
   1 -17   1 2953.03 233.120   3
   1  17   1 2686.95 175.848   2
   1  17   1 3452.22 270.072   8
   1  17   2 2177.50 190.294   4
   1  17   2 2507.09 217.073   1
   1  17   2 1806.51 142.486   2
   1 -17   2 1837.84 183.358   3
   1  17   2 2570.57 249.066   8
   1  17   3 4154.60 275.575   1
   1  17   3 3057.74 181.986   2
   1 -17   3 3440.97 247.701   3
   1  17   3 3251.62 227.609   4
   1  17   3 3473.78 296.145   8
   1  17   4 2101.67 149.526   2
   1  17   4 2192.38 207.627   1
   1 -17   4 2114.54 198.186   3
   1  17   4 2133.86 187.268   4
   1 -17   4 1918.15 156.688   5
   1  17   4 2033.35 234.313   8
   1  17   5 2870.96 224.846   1
   1  17   5 2986.34 176.362   2
   1 -17   5 3052.91 238.677   3
   1  17   5 2930.18 220.009   4
   1 -17   5 2950.58 185.956   5
   1  17   5 2998.93 281.164   8
   1 -17   6 1703.48 192.751   3
   1  17   6 2058.33 192.378   1
   1  17   6 1527.37 129.191   2
   1  17   6 1524.15 164.706   4
   1 -17   6 1208.60 125.390   5
   1  17   6 1505.36 228.006   8
   1  17   7 7609.94 298.073   2
   1 -17   7 7754.88 396.938   3
   1  17   7 7417.62 369.488   1
   1 -17   7 8029.18 304.124   5
   1  17   7 7622.62 369.499   4
   1 -17   8 842.141 143.255   3
   1  17   8 888.414 101.030   2
   1  17   8 816.408 122.889   4
   1 -17   9 592.874 129.803   3
   1  17   9 470.392 78.4230   2
   1  17   9 428.948 107.831   4
   1 -17  10 5530.25 348.519   3
   1  17  10 6154.05 344.755   4
   1 -17  11 2857.46 256.526   3
   1  17  11 3030.15 252.276   4
   1 -17  12 30464.7 928.523   3
   1  17  12 30737.3 902.255   4
   1 -17  13 8214.78 449.027   3
   1  17  13 8065.31 431.291   4
   1 -17  14 277.810 131.603   3
   1  19 -13 1804.07 249.705  10
   1  19 -12 1040.84 186.797   2
   1 -19 -12 1022.60 205.060   7
   1  19 -12 1078.71 204.049  10
   1  19 -11 1522.83 204.397   2
   1 -19 -11 1500.55 160.817  12
   1 -19 -11 1326.09 240.333   7
   1  19 -11 1281.58 197.774  10
   1  19 -10 238.516 98.4720   2
   1 -19 -10 345.558 92.4747  12
   1 -19 -10 183.424 118.862   7
   1  19 -10 449.606 133.328  10
   1  19  -9 4161.09 309.264   2
   1 -19  -9 4548.66 277.567  12
   1  19  -9 3558.03 283.776  10
   1 -19  -9 4369.81 391.554   7
   1  19  -8 6748.10 389.835   2
   1 -19  -8 6739.05 340.246  12
   1  19  -8 6995.08 377.434  10
   1 -19  -8 6313.27 487.126   7
   1  19  -7 2822.68 241.843   2
   1 -19  -7 2690.29 217.549  12
   1  19  -7 2760.99 235.608  10
   1 -19  -7 2494.36 302.124   7
   1  19  -6 8375.28 402.405   2
   1 -19  -6 8039.29 375.779  12
   1  19  -6 7658.83 363.099  10
   1  19  -5 1137.47 146.308   2
   1 -19  -5 1137.29 143.459  12
   1  19  -5 1164.94 145.040  10
   1  19  -4 1620.75 171.789   2
   1 -19  -4 1578.87 167.811  12
   1  19  -4 1487.19 177.597   8
   1  19  -3 4672.89 270.784   2
   1 -19  -3 4231.13 269.185  12
   1  19  -3 5227.79 323.618   8
   1  19  -2 2161.90 179.182   2
   1  19  -2 2573.02 239.184   1
   1  19  -2 2426.03 230.542   8
   1  19  -1 1927.66 205.158   1
   1  19  -1 1524.60 151.285   2
   1  19  -1 1879.91 213.444   8
   1  19   0 3784.84 260.725   4
   1  19   0 4425.21 297.790   1
   1  19   0 3654.82 219.418   2
   1  19   0 3566.65 283.879   8
   1  19   1 3240.50 258.228   1
   1  19   1 3443.32 245.341   4
   1 -19   1 3280.74 261.469   3
   1  19   1 3597.65 208.942   2
   1  19   1 2825.08 268.272   8
   1  19   2 5351.34 310.782   4
   1  19   2 5584.78 333.713   1
   1 -19   2 5959.26 352.910   3
   1  19   2 5851.61 266.944   2
   1  19   2 5807.70 377.281   8
   1  19   3 9977.97 463.225   1
   1  19   3 10288.5 361.160   2
   1 -19   3 10123.8 462.429   3
   1  19   3 9936.83 432.087   4
   1  19   3 10174.6 515.539   8
   1  19   4 5674.45 260.480   2
   1 -19   4 5593.46 345.195   3
   1  19   4 6142.93 352.970   1
   1  19   4 5744.76 321.905   4
   1  19   4 5752.19 401.391   8
   1  19   5 2423.48 222.001   1
   1  19   5 2372.09 161.638   2
   1 -19   5 2167.81 220.120   3
   1  19   5 2041.37 194.140   4
   1  19   5 1902.31 253.247   8
   1  19   6 2794.66 180.993   2
   1  19   6 3288.57 261.499   1
   1 -19   6 2638.01 247.932   3
   1  19   6 2559.59 216.753   4
   1  19   6 2942.31 330.114   8
   1  19   7 5219.78 324.331   1
   1 -19   7 4952.13 332.557   3
   1  19   7 5305.57 316.393   4
   1 -19   8 6790.32 395.920   3
   1  19   8 6684.12 360.602   4
   1 -19   9 1437.60 193.999   3
   1  19   9 1741.03 190.358   4
   1 -19  10 559.926 132.837   3
   1  19  10 804.662 137.560   4
   1 -19  11 248.487 120.395   3
   1  19  11 140.932 72.9251   4
   1  21 -10 353.255 126.997   2
   1  21  -9 2598.34 253.765   2
   1  21  -8 3583.50 292.144   2
   1  21  -7 2102.61 216.284   2
   1  21  -6 3640.72 270.875   2
   1  21  -5 327.963 96.9885   2
   1  21  -4 1236.49 151.293   2
   1  21  -3 1602.99 164.110   2
   1  21  -3 2096.59 234.089   1
   1  21  -2 4922.82 279.988   2
   1  21  -2 5914.63 375.573   1
   1  21  -1 3464.35 286.997   1
   1  21  -1 2604.59 227.741   4
   1  21  -1 2637.68 197.711   2
   1  21  -1 2786.72 273.026   8
   1  21   0 22516.2 756.637   1
   1  21   0 19128.8 663.486   4
   1  21   0 19845.2 581.118   2
   1  21   0 19620.5 746.822   8
   1  21   1 1706.20 183.740   4
   1  21   1 1779.25 156.610   2
   1  21   1 2173.74 234.490   1
   1  21   1 2001.59 251.801   8
   1  21   2 5156.41 319.457   4
   1  21   2 5241.21 356.900   1
   1 -21   2 4907.42 342.089   3
   1  21   2 5138.76 258.687   2
   1  21   2 5458.83 408.205   8
   1  21   3 1341.98 194.762   1
   1  21   3 794.662 130.661   4
   1 -21   3 917.212 151.173   3
   1  21   3 755.625 179.779   8
   1  21   4 604.431 126.340   4
   1  21   4 800.546 153.190   1
   1 -21   4 802.137 167.734   3
   1  21   4 962.482 218.619   8
   1  21   5 4840.34 327.571   1
   1 -21   5 4328.66 319.183   3
   1  21   5 4404.36 298.754   4
   1  21   5 4069.63 374.898   8
   1  21   6 754.164 137.295   4
   1 -21   6 1153.59 187.072   3
   1  21   6 1169.70 180.689   1
   1  21   6 485.422 188.820   8
   1 -21   7 4094.11 316.996   3
   1  21   7 4074.25 293.919   4
   1 -21   8 3054.86 282.288   3
   1  21   8 2785.08 249.467   4
   1  21   9 1342.45 178.799   4
   1  23  -7 144.708 101.935   2
   1  23  -6 6744.45 377.200   2
   1  23  -5 4996.56 318.053   2
   1  23  -4 5788.98 337.603   2
   1  23  -3 4671.45 322.302   4
   1  23  -2 2830.65 250.026   4
   1  23  -1 5535.81 347.853   4
   1  23   0 1046.74 166.410   4
   1  23   1 1367.99 170.798   4
   1  23   2 5092.75 331.130   4
   1  23   3 2568.74 235.575   4
   1  23   4 2307.89 230.657   4
   1  23   4 1907.71 297.151   8
   1  23   5 2149.77 220.502   4
   1  23   5 2107.17 316.259   8
   2   0 -20 2113.98 222.861   2
   2   0 -19-46.7362 123.440   6
   2   0 -19-14.5761 73.5720   2
   2   0 -19-70.1640 124.727  12
   2   0 -18 34643.3 953.984   2
   2   0 -18 34267.2 1056.48  12
   2   0 -18 35844.1 1060.12   6
   2   0 -17 25.1467 57.0058   2
   2   0 -17 40.7243 84.7829   6
   2   0 -16 17498.1 601.834   2
   2   0 -16 19755.7 696.378   6
   2   0 -15 6.46646 51.8248   2
   2   0 -14 8708.76 371.355   2
   2   0 -13-38.4169 47.9099   2
   2   0 -12 31056.1 757.044   2
   2   0 -11-26.6962 44.5337   2
   2   0 -10 20661.4 545.776   2
   2   0  -9 12.0540 38.1007   2
   2   0  -8 18871.2 484.712   2
   2   0  -7-11.5605 33.6018   2
   2   0  -7-19.8486 57.1762   1
   2   0  -6 62298.5 1137.49   4
   2   0  -6 57259.5 1154.84   1
   2   0  -6 62424.6 1110.28   2
   2   0  -5 50.4873 44.3248   1
   2   0  -5 135.268 51.1434   4
   2   0  -5 85.2660 38.5352   2
   2   0  -4 3595.29 155.263   2
   2   0  -4 3558.28 169.325   1
   2   0  -3-15.3250 31.2749   2
   2   0  -3 0.99799 30.9376   4
   2   0  -2 155388. 2572.34   6
   2   0  -2 155455. 2432.70   3
   2   0  -1 76.4777 39.1566   6
   2   0  -1 18.0697 27.9201   3
   2   0  -1 49.4072 33.5145   2
   2   0   0 369328. 5654.38   6
   2   0   0 363591. 5643.88   5
   2   0   0 359597. 5627.01   2
   2   0   0 379730. 5573.75   3
   2   0   1 23.5314 38.7510   5
   2   0   1 27.1818 29.3736   6
   2   0   1 60.6238 35.2254   3
   2   0   1 76.6366 38.6312   2
   2   0   1-36.0458 53.4212  12
   2   0   2 22229.2 498.710   6
   2   0   2 21834.7 468.212   5
   2   0   2 22551.6 496.715   2
   2   0   2 22346.0 473.937   3
   2   0   2 21044.7 550.273  12
   2   0   2 22362.7 448.148   7
   2   0   3 0.52189 27.7048   6
   2   0   3 55.5484 32.9823   5
   2   0   3-7.48260 33.7789   3
   2   0   3-6.02676 29.2179   4
   2   0   3-26.2367 35.8439   2
   2   0   3-16.5332 49.2834  12
   2   0   3 24.9949 22.6205   7
   2   0   4 37148.4 693.950   5
   2   0   4 37255.7 713.173   4
   2   0   4 37415.1 755.735   2
   2   0   4 37388.1 764.792  12
   2   0   4 37997.7 761.167   6
   2   0   5 77.7915 46.0458   6
   2   0   5 47.3568 30.1787   5
   2   0   5-7.43340 35.9023  12
   2   0   5-1.11551 37.8318   2
   2   0   5 37.0896 31.5511   4
   2   0   6 121539. 1966.30   5
   2   0   6 122623. 1987.67   4
   2   0   6 121694. 1982.63  12
   2   0   6 123126. 2056.10   2
   2   0   7 9.01968 28.8574   5
   2   0   7 32.1734 29.7767  12
   2   0   7 50.0716 46.3651   2
   2   0   7 34.7531 35.3183   4
   2   0   8 1570.28 104.929   5
   2   0   8 1610.47 117.604   4
   2   0   8 1563.29 87.1533  12
   2   0   8 1427.99 128.455   2
   2   0   9-38.3326 40.9660   5
   2   0   9 14.4212 19.7667  12
   2   0   9-32.9888 47.7839   4
   2   0  10 56660.4 1079.27   5
   2   0  10 60736.0 1126.24   4
   2   0  11 100.437 57.2751   4
   2   0  12 14058.1 436.986   4
   2   0  13-9.50397 54.3503   4
   2   0  14 188.424 78.2448   4
   2   0  15 6.62453 80.1892   4
   2   0  16 2702.29 217.370   4
   2   0  17-27.9223 79.3042   4
   2   0  18 5998.59 349.197   4
   2   0  19 47.4476 102.131   4
   2   0  20 4603.10 327.163   4
   2   2 -20 113.473 79.9602   2
   2   2 -19 2153.81 257.434   6
   2  -2 -19 2341.38 247.450   6
   2   2 -19 2081.68 222.383   2
   2  -2 -19 2166.71 244.817  12
   2  -2 -18 2750.40 222.527   2
   2   2 -18 2530.38 235.347   2
   2  -2 -18 2753.83 270.598  12
   2   2 -18 2712.96 276.521   6
   2  -2 -18 3073.16 275.027   6
   2  -2 -17 11755.1 464.541   2
   2   2 -17 11287.7 496.185   2
   2  -2 -17 11477.9 551.041  12
   2   2 -17 11659.8 550.453   6
   2  -2 -17 12425.9 547.254   6
   2  -2 -16 445.873 118.412   6
   2  -2 -16 335.630 88.9752   2
   2   2 -16 388.461 94.5079   2
   2  -2 -16 415.394 131.798  12
   2  -2 -15 6548.02 312.601   2
   2   2 -15 6701.18 349.440   2
   2  -2 -15 6312.16 386.865  12
   2  -2 -15 6666.92 369.880   6
   2  -2 -14 440.145 109.166   6
   2  -2 -14 359.934 115.204  12
   2  -2 -14 409.449 81.0360   2
   2   2 -14 274.977 77.5702   2
   2  -2 -13 4359.17 312.567  12
   2  -2 -13 4486.49 239.442   2
   2   2 -13 5045.64 280.952   2
   2  -2 -12 45695.4 1168.24  12
   2  -2 -12 48818.1 997.534   2
   2   2 -12 48343.2 1065.39   2
   2  -2 -11 872.321 98.2554   2
   2   2 -11 704.965 99.2113   2
   2  -2 -10 10064.9 329.697   2
   2   2 -10 10470.3 373.875   2
   2  -2  -9 2902.08 156.838   2
   2   2  -9 2958.09 183.523   2
   2   2  -8 33393.1 749.727   2
   2   2  -8 32458.4 760.789   1
   2  -2  -8 33536.2 683.501   2
   2   2  -7 807.662 97.2260   1
   2  -2  -7 851.447 111.885   1
   2   2  -7 733.186 87.6949   2
   2  -2  -7 820.357 77.6133   2
   2  -2  -6 63409.9 1136.59   4
   2  -2  -6 62000.3 1315.75  12
   2  -2  -6 61226.2 1212.79   1
   2   2  -6 58701.2 1144.18   1
   2  -2  -6 62649.0 1082.00   2
   2   2  -6 62485.6 1156.54   2
   2  -2  -5 30262.5 782.991  12
   2   2  -5 27833.7 620.319   1
   2  -2  -5 30264.4 589.958   2
   2   2  -5 32086.0 657.566   2
   2  -2  -5 29952.7 691.964   1
   2   2  -4 56316.1 1039.48   4
   2  -2  -4 54990.2 989.367   4
   2  -2  -4 55207.2 1168.77  12
   2   2  -4 52530.2 975.859   1
   2  -2  -4 55146.4 956.183   2
   2   2  -4 55763.6 1019.69   2
   2   2  -3 488.524 80.9330   5
   2   2  -3 638.387 84.7412   6
   2  -2  -3 440.083 97.6483  12
   2  -2  -3 498.969 59.5911   4
   2  -2  -3 590.715 57.0694   2
   2   2  -3 534.135 68.0693   2
   2   2  -3 609.274 58.5796   1
   2  -2  -2 10447.4 275.314   4
   2   2  -2 10678.0 338.389   6
   2  -2  -2 11113.7 305.058   6
   2  -2  -2 10237.7 387.218  12
   2  -2  -2 10224.7 265.336   3
   2  -2  -2 10746.6 274.283   2
   2   2  -2 10567.8 302.846   2
   2  -2  -1 18447.8 390.019   4
   2  -2  -1 18758.2 421.086   6
   2   2  -1 17846.6 458.228   6
   2  -2  -1 18111.9 402.162   2
   2   2  -1 17750.7 427.637   2
   2  -2  -1 18028.9 399.088   3
   2   2  -1 18921.4 330.233   3
   2  -2  -1 18538.3 534.298  12
   2  -2   0 114102. 1888.04   6
   2   2   0 119046. 1951.16   5
   2   2   0 117046. 1953.15   6
   2  -2   0 114658. 1885.03   2
   2   2   0 115901. 1919.34   2
   2   2   0 118089. 1815.25   3
   2  -2   0 118862. 2057.21  12
   2  -2   0 116826. 1936.44   7
   2   2   1 59293.5 1062.55   5
   2  -2   1 57463.4 1018.66   6
   2   2   1 58590.1 1075.12   6
   2  -2   1 57317.4 1025.31   2
   2   2   1 55933.0 1046.84   2
   2  -2   1 59744.4 1032.82   3
   2   2   1 58681.6 975.859   3
   2  -2   1 57312.1 1137.10  12
   2  -2   1 59311.9 1052.01   7
   2   2   2 18884.3 453.218   5
   2  -2   2 19503.6 434.896   6
   2   2   2 19787.1 479.140   6
   2  -2   2 19719.8 450.405   2
   2   2   2 19388.7 462.386   2
   2  -2   2 20234.0 458.615   3
   2  -2   2 20236.9 517.965  12
   2  -2   2 19867.3 449.650   7
   2   2   3 4055.99 175.099   5
   2   2   3 4063.29 187.393   6
   2  -2   3 4210.95 133.501   5
   2  -2   3 4062.61 140.468   4
   2  -2   3 4039.56 174.355   2
   2   2   3 4123.78 183.571   2
   2  -2   3 4515.05 189.829   3
   2  -2   3 3790.22 192.994  12
   2  -2   3 4053.96 166.083   7
   2  -2   3 3954.94 166.502   6
   2   2   3 4201.28 117.933   7
   2   2   4 26362.9 567.831   5
   2  -2   4 26901.3 476.292   5
   2  -2   4 24908.5 497.244   4
   2  -2   4 26471.2 571.703   2
   2   2   4 26121.3 582.974   2
   2   2   4 25318.5 569.311   4
   2  -2   4 26740.1 591.720   3
   2  -2   4 25471.1 587.607  12
   2   2   4 25431.5 587.150  12
   2  -2   4 26341.8 562.214   6
   2   2   5 8273.14 270.978   5
   2  -2   5 8273.09 227.829   4
   2   2   5 8612.33 276.188   4
   2  -2   5 8723.08 198.919   5
   2  -2   5 8421.35 281.897   2
   2   2   5 8743.82 293.073   2
   2  -2   5 8652.23 299.961   3
   2  -2   5 8306.12 272.579  12
   2   2   5 8310.11 269.728  12
   2  -2   5 8382.39 276.492   6
   2   2   6 13383.9 368.856   5
   2  -2   6 14015.6 283.524   5
   2   2   6 13196.4 370.189   4
   2  -2   6 13507.9 327.932   4
   2  -2   6 13633.8 388.816   2
   2   2   6 14001.9 397.850   2
   2  -2   6 14278.4 412.023   3
   2  -2   6 13540.2 355.869  12
   2   2   6 12920.9 338.645  12
   2  -2   6 13620.9 385.115   6
   2   2   7 1271.23 104.158   5
   2  -2   7 1193.34 67.6963   5
   2  -2   7 1396.98 92.5609   4
   2   2   7 1194.33 103.456   4
   2  -2   7 1214.23 89.6904  12
   2   2   7 1301.58 83.1578  12
   2   2   7 1319.14 115.754   2
   2  -2   8 4670.35 153.891   5
   2   2   8 4572.07 207.230   4
   2  -2   8 5020.48 195.603   4
   2  -2   8 4949.24 178.320  12
   2   2   8 4778.06 141.417  12
   2   2   8 4735.04 227.570   2
   2  -2   9 6849.70 207.272   5
   2  -2   9 7624.34 254.419   4
   2   2   9 6983.34 270.314   4
   2   2   9 6879.33 149.016  12
   2  -2   9 6972.09 209.917  12
   2   2   9 6924.67 291.105   2
   2   2  10 17654.9 484.588   5
   2  -2  10 17293.5 400.942   5
   2  -2  10 17578.3 455.527   4
   2   2  10 17814.5 490.881   4
   2  -2  11 4095.15 172.831   5
   2   2  11 3988.95 217.654   4
   2  -2  11 4488.86 211.112   4
   2   2  12 19807.9 554.922   4
   2  -2  12 18184.2 504.518   4
   2   2  13 22533.8 625.111   4
   2  -2  13 22000.7 590.478   4
   2   2  14 15299.0 505.097   4
   2  -2  14 15051.5 484.870   4
   2  -2  15 12997.9 459.834   4
   2   2  15 12845.1 471.872   4
   2  -2  16 8096.19 367.485   4
   2   2  16 9165.98 407.255   4
   2  -2  17 14107.8 519.135   4
   2   2  17 13798.0 535.117   4
   2  -2  18 2532.14 223.322   4
   2   2  18 2837.66 248.450   4
   2   2  19 1082.23 183.202   4
   2  -2  19 1192.69 163.820   4
   2  -2  20 125.936 104.502   4
   2   4 -20 4742.85 356.859   2
   2  -4 -19 1844.36 224.675   6
   2   4 -19 1916.60 227.068   2
   2   4 -18 867.287 167.909   6
   2  -4 -18 1124.45 185.230   6
   2  -4 -18 719.989 143.636  12
   2   4 -18 748.172 141.874   2
   2  -4 -17 717.673 141.498   6
   2   4 -17 786.059 141.180   2
   2  -4 -17 668.967 144.411  12
   2  -4 -16 2898.38 197.838   2
   2   4 -16 2735.15 242.319   2
   2  -4 -16 2132.89 226.681  12
   2  -4 -16 2640.20 238.655   6
   2  -4 -15 2692.18 186.632   2
   2   4 -15 2420.77 221.390   2
   2  -4 -15 2243.87 225.756  12
   2  -4 -15 2614.18 231.343   6
   2  -4 -14 7127.84 295.722   2
   2   4 -14 7014.54 364.790   2
   2  -4 -14 7373.90 402.554  12
   2  -4 -14 7335.52 365.478   6
   2  -4 -13 10829.5 357.856   2
   2   4 -13 10291.2 433.274   2
   2  -4 -13 10590.4 478.562  12
   2  -4 -13 11149.0 444.263   6
   2  -4 -12 51817.7 1018.49   2
   2   4 -12 52659.4 1164.97   2
   2  -4 -12 50449.5 1234.47  12
   2  -4 -12 53856.7 1158.67   6
   2  -4 -11 10723.4 468.649  12
   2  -4 -11 10882.2 329.749   2
   2   4 -11 10592.3 412.492   2
   2  -4 -10 5647.80 330.981  12
   2  -4 -10 5991.83 223.018   2
   2   4 -10 6246.96 293.339   2
   2  -4  -9 4888.21 302.836  12
   2   4  -9 6020.11 279.760   2
   2  -4  -9 6038.72 211.108   2
   2  -4  -8 371.881 107.899  12
   2   4  -8 432.004 72.2596   1
   2  -4  -8 575.701 60.9807   2
   2   4  -8 547.100 82.5017   2
   2  -4  -7 6728.76 249.636   4
   2  -4  -7 6638.36 332.384  12
   2   4  -7 6969.37 287.137   2
   2   4  -7 6320.89 251.147   1
   2  -4  -7 6622.27 202.001   2
   2  -4  -6 9101.16 390.920  12
   2   4  -6 8383.78 276.518   1
   2  -4  -6 8917.04 233.159   2
   2   4  -6 8926.64 316.881   2
   2  -4  -5 3368.88 154.623   4
   2  -4  -5 3478.10 234.279  12
   2  -4  -5 3519.01 129.035   2
   2   4  -5 3363.67 152.379   1
   2   4  -5 3409.75 182.571   2
   2  -4  -4 5104.33 181.003   4
   2  -4  -4 4616.00 260.815  12
   2   4  -4 4731.55 166.964   1
   2  -4  -4 4962.84 158.428   2
   2   4  -4 4920.10 213.573   2
   2  -4  -3 22395.6 457.625   4
   2  -4  -3 22648.0 619.192  12
   2   4  -3 21392.8 417.951   1
   2  -4  -3 22801.3 443.572   2
   2  -4  -3 22429.3 496.125   3
   2   4  -3 22613.3 529.379   2
   2   4  -2 30785.4 713.437   5
   2  -4  -2 32706.4 619.911   6
   2  -4  -2 31750.3 583.301   4
   2  -4  -2 30710.7 759.740  12
   2  -4  -2 31818.2 590.363   2
   2  -4  -2 32523.6 643.981   3
   2   4  -2 30318.4 661.429   2
   2   4  -1 2530.34 157.364   5
   2  -4  -1 2622.33 98.6826   4
   2  -4  -1 2502.64 112.145   6
   2  -4  -1 2461.80 175.439  12
   2  -4  -1 2437.05 112.332   2
   2  -4  -1 2601.49 137.539   3
   2   4  -1 2524.37 141.104   2
   2   4  -1 2317.87 62.4425   3
   2  -4   0 75564.7 1177.80   4
   2  -4   0 73973.1 1222.48   6
   2  -4   0 72807.4 1242.30   2
   2   4   0 71443.9 1303.20   2
   2  -4   0 75377.3 1295.17   3
   2  -4   0 72795.3 1395.21  12
   2  -4   1 4005.33 113.245   4
   2  -4   1 4067.87 142.137   6
   2  -4   1 3907.74 156.063   2
   2   4   1 4035.11 181.458   2
   2  -4   1 4129.75 183.231   3
   2  -4   1 2914.91 188.563  12
   2  -4   1 3891.01 188.654   7
   2  -4   2 23867.6 422.574   4
   2  -4   2 24479.2 513.161   2
   2   4   2 24079.2 547.459   2
   2  -4   2 24218.1 552.672   3
   2  -4   2 24373.8 597.787  12
   2  -4   2 25389.1 573.179   7
   2  -4   2 23951.9 484.100   6
   2  -4   3 5928.60 145.102   4
   2  -4   3 6195.09 217.009   2
   2   4   3 6113.69 231.930   2
   2  -4   3 6259.20 245.186   3
   2  -4   3 5860.05 245.101  12
   2  -4   3 5996.20 194.796   6
   2  -4   3 6320.75 246.320   7
   2  -4   4 46245.6 760.302   4
   2  -4   4 46014.5 874.863   2
   2   4   4 45551.2 901.277   2
   2   4   4 45148.2 909.672   4
   2  -4   4 47181.3 927.981   3
   2  -4   4 45483.7 907.801  12
   2  -4   4 44840.1 842.452   6
   2  -4   5 3873.25 127.056   4
   2   4   5 3504.53 181.682   2
   2   4   5 3833.61 189.870   4
   2  -4   5 3813.06 201.206   3
   2  -4   5 3672.84 179.400  12
   2  -4   5 3577.79 164.098   6
   2  -4   6 29514.4 543.880   4
   2   4   6 29240.3 669.431   5
   2   4   6 28989.3 656.200   4
   2   4   6 28878.6 660.367   2
   2  -4   6 29015.3 688.662   3
   2  -4   6 28090.9 617.833  12
   2   4   6 28283.2 595.359  12
   2  -4   6 29313.0 631.024   6
   2   4   7 7878.00 301.216   5
   2   4   7 7956.55 292.895   4
   2  -4   7 8408.53 231.841   4
   2   4   7 8005.55 300.570   2
   2  -4   7 8052.38 324.505   3
   2  -4   7 8332.71 268.832  12
   2   4   7 8311.98 229.154  12
   2  -4   7 8139.80 289.314   6
   2   4   8 4036.99 207.091   4
   2  -4   8 4501.79 171.903   4
   2  -4   8 4466.80 183.932  12
   2   4   8 4127.97 124.607  12
   2   4   8 4553.99 222.439   2
   2  -4   8 4413.03 241.193   3
   2  -4   9 1196.93 46.2180   5
   2  -4   9 1316.29 46.9197   5
   2  -4   9 1106.51 90.1748  12
   2  -4   9 1256.11 139.993   3
   2   4   9 1293.08 122.110   2
   2  -4   9 1091.00 90.3510   4
   2   4   9 1128.69 112.866   4
   2  -4  10 2221.00 83.4226   5
   2  -4  10 2245.98 83.9552   5
   2  -4  10 2255.33 137.858   4
   2   4  10 2303.07 166.631   4
   2   4  10 2442.69 176.675   2
   2  -4  10 2185.10 184.216   3
   2  -4  11 29541.2 539.193   5
   2  -4  11 29494.1 652.445   4
   2   4  11 28662.0 719.306   4
   2  -4  11 29548.5 785.866   3
   2   4  12 24636.7 658.343   4
   2  -4  12 24321.0 485.157   5
   2  -4  12 23990.8 589.823   4
   2  -4  12 23942.9 710.749   3
   2   4  13 8330.58 357.532   4
   2  -4  13 7633.10 306.883   4
   2   4  14 7964.93 364.475   4
   2  -4  14 7872.00 322.414   4
   2  -4  15 612.378 106.312   4
   2   4  15 481.060 110.107   4
   2   4  16 2496.67 214.933   4
   2  -4  16 2312.41 188.216   4
   2  -4  17 3047.03 222.592   4
   2   4  17 3619.04 267.832   4
   2  -4  18 1160.78 186.056   3
   2  -4  18 1363.27 161.019   4
   2   4  18 1184.54 179.916   4
   2  -4  19 3528.51 260.353   4
   2   4  19 3453.72 287.304   4
   2  -6 -19 2323.62 243.784   6
   2   6 -19 2060.67 246.606   2
   2  -6 -18 1427.19 191.136   6
   2   6 -18 1389.19 200.697   2
   2  -6 -18 1381.22 183.522  12
   2   6 -17 4552.88 332.666   2
   2  -6 -17 4132.14 303.859  12
   2  -6 -17 4161.54 305.114   6
   2   6 -16 3406.62 280.857   2
   2  -6 -16 2835.66 247.947  12
   2  -6 -16 3199.11 251.307   6
   2  -6 -15 1198.41 157.358   6
   2   6 -15 1264.81 167.415   2
   2  -6 -15 1044.05 161.705  12
   2  -6 -14 1839.79 129.211   2
   2   6 -14 1906.70 198.680   2
   2  -6 -14 1764.94 196.309  12
   2  -6 -14 2095.54 195.223   6
   2  -6 -13 17619.7 445.747   2
   2   6 -13 18007.3 616.172   2
   2  -6 -13 17020.0 612.210  12
   2  -6 -13 18305.6 578.049   6
   2  -6 -12 1562.15 157.177   6
   2  -6 -12 1660.46 109.241   2
   2   6 -12 1591.15 169.032   2
   2  -6 -12 1593.87 180.831  12
   2   6 -11 10159.9 417.835   2
   2  -6 -11 10410.3 285.650   2
   2  -6 -11 10156.0 441.224  12
   2  -6 -11 10629.3 393.531   6
   2   6 -10 10902.2 424.773   2
   2  -6 -10 11550.7 286.869   2
   2  -6 -10 11151.6 458.247  12
   2  -6 -10 11604.3 396.377   6
   2  -6  -9 312.231 74.6853   6
   2  -6  -9 414.071 44.8079   2
   2   6  -9 501.390 96.4226   2
   2  -6  -9 475.554 107.003  12
   2   6  -8 3742.41 222.596   2
   2  -6  -8 3571.57 123.564   2
   2  -6  -8 3389.07 241.633  12
   2  -6  -7 451.168 64.1580   4
   2  -6  -7 505.004 42.3893   2
   2   6  -7 452.235 81.8343   2
   2  -6  -7 423.525 106.745  12
   2  -6  -6 18907.6 359.304   2
   2   6  -6 17490.9 515.191   2
   2  -6  -6 18079.2 579.158  12
   2  -6  -6 19659.3 584.284   7
   2  -6  -5 17122.7 395.555   4
   2  -6  -5 16574.4 325.452   2
   2   6  -5 15809.9 463.789   2
   2  -6  -5 16636.5 528.124  12
   2  -6  -5 16662.3 524.378   7
   2  -6  -4 3741.35 146.513   4
   2  -6  -4 3736.89 119.037   2
   2   6  -4 3309.81 128.106   1
   2   6  -4 3898.19 202.054   2
   2  -6  -4 4003.09 238.231  12
   2  -6  -4 3906.63 229.079   7
   2  -6  -3 14958.8 324.443   4
   2  -6  -3 15313.8 307.658   2
   2  -6  -3 14356.3 400.265   3
   2   6  -3 13368.9 283.927   1
   2   6  -3 15314.5 420.582   2
   2  -6  -3 14746.7 482.265  12
   2  -6  -3 15504.6 478.648   7
   2  -6  -2 14618.9 295.475   4
   2  -6  -2 13975.3 309.956   6
   2  -6  -2 14289.5 305.996   2
   2  -6  -2 14404.0 394.632   3
   2   6  -2 13714.3 397.514   2
   2  -6  -2 13875.9 454.330  12
   2  -6  -2 12854.8 432.229   7
   2  -6  -1 12671.2 242.249   4
   2  -6  -1 12049.9 262.585   6
   2  -6  -1 12171.5 283.403   2
   2  -6  -1 12453.2 360.036   3
   2   6  -1 11461.0 230.300   3
   2   6  -1 12409.3 363.331   2
   2  -6  -1 12317.6 413.687  12
   2  -6  -1 12371.3 405.549   7
   2  -6   0 1576.78 72.8209   6
   2  -6   0 1678.61 48.9509   4
   2  -6   0 1640.00 90.0906   2
   2   6   0 1479.62 112.908   2
   2  -6   0 1645.95 123.039   3
   2  -6   0 1715.50 148.091  12
   2  -6   0 1460.30 129.098   7
   2   6   1 5794.69 233.329   2
   2  -6   1 5754.79 236.661   3
   2  -6   1 5804.20 262.340  12
   2  -6   1 6031.66 161.033   6
   2  -6   2 48.7497 21.5199   6
   2  -6   2 104.936 56.4348   3
   2   6   2 97.8294 45.9412   2
   2  -6   2 79.5947 47.8546  12
   2   6   3 41025.0 841.432   2
   2  -6   3 42207.6 875.596   3
   2  -6   3 42021.9 872.450  12
   2  -6   3 41679.2 739.501   6
   2   6   4 34255.7 731.286   2
   2   6   4 33096.8 752.770   4
   2  -6   4 35483.4 774.009   3
   2  -6   4 33901.3 738.525  12
   2   6   4 32927.1 601.780   7
   2  -6   4 34076.5 641.275   6
   2  -6   5 10790.8 199.943   4
   2   6   5 10255.2 353.425   4
   2   6   5 10059.5 337.222   2
   2  -6   5 10974.3 374.086   3
   2  -6   5 10091.0 335.365  12
   2  -6   5 10233.1 288.474   6
   2   6   6 46273.4 954.191   4
   2  -6   6 46056.0 753.358   4
   2   6   6 45519.1 935.195   2
   2  -6   6 45365.8 985.525   3
   2  -6   6 45535.7 909.988  12
   2  -6   6 45509.6 870.636   6
   2  -6   7 14480.2 306.556   4
   2   6   7 14342.3 436.252   4
   2   6   7 14613.5 431.924   2
   2  -6   7 14302.8 468.518   3
   2  -6   7 14298.9 400.808  12
   2  -6   7 14241.8 393.020   6
   2  -6   8 5713.48 178.963   4
   2   6   8 5352.21 254.970   4
   2  -6   8 5679.26 224.809  12
   2   6   8 5313.82 161.193  12
   2   6   8 5626.54 257.964   2
   2  -6   8 5672.43 283.466   3
   2  -6   9 682.359 80.0932  12
   2  -6   9 726.011 115.116   3
   2   6   9 684.096 99.2128   2
   2  -6   9 545.362 59.6364   4
   2   6   9 706.816 99.1898   4
   2   6  10 5202.00 263.040   2
   2  -6  10 5231.14 297.103   3
   2   6  10 5901.71 278.709   4
   2  -6  10 5732.27 205.533   4
   2  -6  11 1202.40 151.358   3
   2   6  11 959.793 124.004   2
   2   6  11 844.478 114.016   4
   2  -6  11 922.420 88.4368   4
   2  -6  12 7629.67 383.377   3
   2  -6  12 8667.14 291.894   4
   2   6  12 8403.00 359.958   4
   2  -6  13 6357.59 354.196   3
   2  -6  13 6603.93 264.814   4
   2   6  13 5812.23 309.509   4
   2  -6  14 508.878 122.955   3
   2  -6  14 582.388 88.7069   4
   2   6  14 473.950 102.076   4
   2  -6  15 433.093 117.302   3
   2  -6  15 467.933 90.8824   4
   2   6  15 290.764 84.0894   4
   2  -6  16 541.064 126.207   3
   2  -6  16 615.568 106.255   4
   2   6  16 759.590 143.879   4
   2  -6  17 5241.86 365.995   3
   2   6  17 5806.94 342.769   4
   2   6  18 1936.99 215.750   4
   2  -8 -19 11399.6 541.304   6
   2   8 -18 1986.57 245.997   2
   2  -8 -18 1825.57 207.216   6
   2  -8 -18 1592.35 233.704   7
   2   8 -17 2328.09 253.556   2
   2  -8 -17 2533.32 234.006  12
   2  -8 -17 2356.95 272.198   7
   2  -8 -17 2178.92 220.323   6
   2  -8 -16 1676.23 183.854   6
   2   8 -16 1828.43 217.175   2
   2  -8 -16 1645.61 189.405  12
   2  -8 -16 1879.39 228.707   7
   2  -8 -15 1370.67 164.809   6
   2   8 -15 1480.61 191.664   2
   2  -8 -15 1297.94 166.304  12
   2  -8 -15 1292.40 195.609   7
   2  -8 -14 991.223 139.998   6
   2   8 -14 966.645 159.171   2
   2  -8 -14 931.037 143.073  12
   2  -8 -14 1061.31 173.751   7
   2   8 -13 1971.58 203.712   2
   2  -8 -13 1858.35 188.521  12
   2  -8 -13 1720.36 165.734   6
   2  -8 -13 1956.00 215.476   7
   2   8 -12 6928.77 367.188   2
   2  -8 -12 6301.27 344.306  12
   2  -8 -12 7036.07 318.685   6
   2  -8 -12 7086.11 397.706   7
   2   8 -11 5489.78 312.581   2
   2  -8 -11 5576.24 148.403   2
   2  -8 -11 5294.13 309.716  12
   2  -8 -11 5126.65 264.589   6
   2  -8 -11 5356.71 339.804   7
   2   8 -10 11452.3 456.466   2
   2  -8 -10 12007.3 233.744   2
   2  -8 -10 11517.0 461.384  12
   2  -8 -10 11319.9 389.500   6
   2  -8 -10 12238.5 509.502   7
   2   8  -9 1694.92 164.867   2
   2  -8  -9 1918.86 58.7134   2
   2  -8  -9 1941.07 59.2243   2
   2  -8  -9 1726.33 177.148  12
   2  -8  -9 1835.56 141.429   6
   2  -8  -9 1793.75 183.568   7
   2   8  -8 4061.25 246.969   2
   2  -8  -8 3844.60 256.307  12
   2  -8  -8 3992.44 198.393   6
   2  -8  -8 3849.98 261.648   7
   2  -8  -7 92401.3 1569.77   4
   2   8  -7 92286.7 1724.71   2
   2  -8  -7 87776.3 1758.02  12
   2  -8  -7 93005.4 1820.67   7
   2   8  -6 30921.0 746.576   2
   2  -8  -6 31132.4 798.650  12
   2  -8  -6 31911.5 831.540   7
   2  -8  -6 28450.0 615.741   6
   2  -8  -5 1362.17 90.1059   4
   2   8  -5 1564.40 137.700   2
   2  -8  -5 1598.73 156.533  12
   2  -8  -5 1612.64 158.965   7
   2  -8  -5 1264.45 87.1856   6
   2  -8  -4 5480.47 173.853   4
   2   8  -4 5144.31 248.887   2
   2  -8  -4 5108.32 276.408  12
   2  -8  -4 5472.02 290.859   7
   2  -8  -4 5474.22 171.834   6
   2  -8  -3 12973.6 283.965   4
   2  -8  -3 12931.7 279.572   6
   2  -8  -3 13196.5 404.916   3
   2   8  -3 12969.7 407.299   2
   2  -8  -3 12818.9 445.850  12
   2  -8  -3 12803.9 279.430   6
   2  -8  -3 12888.8 461.749   7
   2  -8  -2 4331.87 122.795   4
   2  -8  -2 4266.75 112.853   6
   2  -8  -2 4023.55 208.691   3
   2   8  -2 4185.34 212.183   2
   2   8  -2 4469.24 118.701   3
   2  -8  -2 4346.04 244.031  12
   2  -8  -2 4549.37 259.597   7
   2  -8  -1 1817.74 137.406   3
   2   8  -1 1748.37 79.7509   3
   2   8  -1 1862.48 134.767   2
   2  -8  -1 1821.71 155.552  12
   2  -8  -1 1632.78 51.2362   6
   2  -8  -1 1715.70 157.612   7
   2   8   0 22759.3 453.884   3
   2  -8   0 24069.4 587.125   3
   2   8   0 22085.5 555.760   2
   2  -8   0 23176.4 614.861  12
   2  -8   0 24287.4 660.915   7
   2   8   1 6160.50 201.690   3
   2   8   1 6416.26 256.512   2
   2  -8   1 6661.86 274.024   3
   2  -8   1 6068.77 277.095  12
   2  -8   1 6489.96 308.494   7
   2   8   2 6852.18 267.639   2
   2  -8   2 7234.87 293.247   3
   2  -8   2 7142.36 296.774  12
   2  -8   2 7340.19 340.182   7
   2   8   3 7166.32 272.430   2
   2  -8   3 6774.69 292.208   3
   2  -8   3 7123.60 290.539  12
   2   8   3 6422.76 246.417   7
   2  -8   3 7722.06 357.279   7
   2   8   4 18363.8 530.209   4
   2   8   4 19415.5 504.029   2
   2  -8   4 19220.2 547.945   3
   2  -8   4 19125.0 519.510  12
   2   8   4 19406.1 439.861   7
   2  -8   5 1560.81 147.485   3
   2   8   5 1630.05 134.345   2
   2   8   5 1809.10 148.443   4
   2  -8   5 1775.11 141.441  12
   2   8   5 1689.82 91.1583   7
   2   8   6 6999.34 301.919   4
   2  -8   6 6639.81 274.215  12
   2   8   6 7065.85 285.658   2
   2  -8   6 7708.82 331.704   3
   2   8   7 25581.2 666.249   4
   2  -8   7 26303.1 621.458  12
   2   8   7 25497.8 636.007   2
   2  -8   7 25531.2 694.617   3
   2   8   8 13004.8 437.985   4
   2  -8   8 12809.7 395.208  12
   2   8   8 13172.6 283.461  12
   2   8   8 12615.9 417.282   2
   2  -8   8 12938.7 474.783   3
   2   8   9 15701.1 490.841   4
   2  -8   9 16709.7 446.240  12
   2   8   9 13834.5 282.409  12
   2   8   9 16401.6 482.564   2
   2  -8   9 15410.1 532.715   3
   2   8  10 6131.17 286.519   2
   2  -8  10 6156.81 332.808   3
   2  -8  10 6126.96 202.278   4
   2   8  10 6196.22 299.792   4
   2   8  11 2947.00 201.754   2
   2  -8  11 2996.31 230.209   3
   2   8  11 2927.43 210.442   4
   2  -8  11 2972.56 145.450   4
   2  -8  12 1146.64 153.311   3
   2   8  12 1177.11 138.423   2
   2   8  12 1160.47 139.491   4
   2  -8  12 1143.82 101.301   4
   2  -8  13 411.816 111.681   3
   2  -8  13 554.910 79.2480   4
   2   8  13 626.417 116.765   4
   2  -8  14 4336.06 309.903   3
   2   8  14 4415.79 283.341   4
   2  -8  15 1877.62 216.234   3
   2   8  15 1970.20 202.177   4
   2  -8  16 10301.1 512.640   3
   2   8  16 10415.2 481.442   4
   2  -8  17 1567.89 215.914   3
   2   8  17 1049.37 171.052   4
   2 -10 -18 4088.01 305.352   6
   2  10 -17 9567.03 527.929   2
   2 -10 -17 10461.4 578.445   7
   2 -10 -17 9367.24 452.531   6
   2  10 -16 7751.76 457.723   2
   2 -10 -16 7941.41 400.751  12
   2 -10 -16 8349.51 498.498   7
   2 -10 -16 7643.55 390.172   6
   2  10 -15 5194.41 363.767   2
   2 -10 -15 5360.21 326.648  12
   2 -10 -15 5841.86 404.176   7
   2 -10 -15 5258.96 305.277   6
   2 -10 -14 1275.92 147.581   6
   2  10 -14 1056.74 167.020   2
   2 -10 -14 1152.00 156.496  12
   2 -10 -14 1668.58 209.861   7
   2 -10 -13 1229.40 138.881   6
   2  10 -13 1170.93 166.285   2
   2 -10 -13 1407.13 174.375  12
   2 -10 -13 1132.45 179.830   7
   2  10 -12 4397.85 302.664   2
   2 -10 -12 4147.77 274.431  12
   2 -10 -12 4528.89 331.299   7
   2 -10 -12 4197.82 237.838   6
   2  10 -11 2895.73 237.123   2
   2 -10 -11 3035.39 233.433  12
   2 -10 -11 3210.08 197.600   6
   2 -10 -11 3651.91 292.798   7
   2  10 -10 4871.71 295.734   2
   2 -10 -10 5019.16 296.356  12
   2 -10 -10 4980.42 333.016   7
   2 -10 -10 4538.29 228.021   6
   2  10  -9 16470.6 566.502   2
   2 -10  -9 16639.1 571.117  12
   2 -10  -9 17846.8 647.930   7
   2 -10  -9 17333.1 461.918   6
   2  10  -8 1112.80 136.090   2
   2 -10  -8 1030.20 144.893  12
   2 -10  -8 1063.84 149.552   7
   2  10  -7 57494.8 1229.04   2
   2 -10  -7 55860.3 1236.76  12
   2 -10  -7 58071.4 1328.14   7
   2  10  -6 29411.2 766.385   2
   2 -10  -6 30388.2 800.432  12
   2 -10  -6 31007.2 601.579   6
   2 -10  -6 30461.7 861.639   7
   2 -10  -5 27071.5 551.268   4
   2  10  -5 25210.3 679.273   2
   2 -10  -5 26817.6 725.957  12
   2 -10  -5 26420.2 507.242   6
   2 -10  -5 26513.7 777.557   7
   2 -10  -4 80.4966 24.6897   6
   2 -10  -4 82.7198 27.0680   4
   2  10  -4 48.1319 53.6715   2
   2 -10  -4 73.6583 62.9437  12
   2 -10  -4 82.9204 70.6167   7
   2 -10  -3 16788.1 347.466   4
   2 -10  -3 15829.5 491.257   3
   2  10  -3 15188.1 476.183   2
   2  10  -3 17517.1 343.462   3
   2 -10  -3 15666.6 513.530  12
   2 -10  -3 15390.6 561.869   7
   2 -10  -2 32503.5 774.552   3
   2  10  -2 32240.1 757.894   2
   2  10  -2 34395.0 608.464   3
   2  10  -2 31866.0 589.732   1
   2 -10  -2 31771.9 797.872  12
   2 -10  -2 34164.2 885.859   7
   2  10  -1 7668.63 181.015   1
   2 -10  -1 8007.47 325.110   3
   2  10  -1 8203.21 227.380   3
   2  10  -1 7911.65 308.062   2
   2 -10  -1 8204.14 337.436  12
   2 -10  -1 8387.49 389.870   7
   2 -10   0 33948.6 781.244   3
   2  10   0 31236.5 629.728   3
   2  10   0 32484.8 737.919   2
   2 -10   0 31603.1 779.767  12
   2 -10   0 34575.6 888.455   7
   2  10   1 9967.85 289.768   3
   2  10   1 10021.6 347.456   2
   2 -10   1 10188.5 374.057   3
   2 -10   1 9985.14 375.350  12
   2 -10   1 10364.7 442.356   7
   2  10   2 14675.7 434.843   2
   2 -10   2 14929.8 472.570   3
   2 -10   2 14709.5 460.055  12
   2  10   2 13241.0 448.672   7
   2 -10   2 14826.1 550.173   7
   2  10   3 9222.43 332.397   2
   2 -10   3 9525.08 372.221   3
   2 -10   3 9551.21 356.012  12
   2  10   3 9296.76 330.674   7
   2  10   4 10008.1 386.968   4
   2  10   4 10346.3 353.774   2
   2 -10   4 10195.1 390.607   3
   2 -10   4 10315.9 370.676  12
   2  10   4 10258.7 327.893   7
   2  10   5 3770.54 230.052   4
   2  10   5 3678.41 204.534   2
   2 -10   5 3829.32 242.275   3
   2 -10   5 3805.67 216.002  12
   2  10   5 3704.84 170.087   7
   2  10   6 44589.8 993.097   4
   2  10   6 41647.3 921.686   2
   2 -10   6 42724.5 1009.00   3
   2  10   6 44118.9 823.520  12
   2 -10   6 42406.6 927.488  12
   2  10   6 44226.9 814.425   7
   2  10   7 49837.8 1084.14   4
   2 -10   7 49053.8 1023.00  12
   2  10   7 49067.4 1026.82   2
   2 -10   7 48889.6 1120.89   3
   2  10   8 9426.53 382.886   4
   2 -10   8 10179.3 360.068  12
   2  10   8 8966.69 351.707   2
   2 -10   8 9034.45 401.505   3
   2 -10   9 1148.67 152.714   3
   2  10   9 988.238 119.090   2
   2  10   9 825.213 115.967   4
   2  10  10 14303.4 471.165   2
   2 -10  10 14338.0 544.629   3
   2  10  10 14156.5 499.734   4
   2 -10  11 759.803 138.536   3
   2  10  11 767.771 118.015   2
   2  10  11 810.857 120.507   4
   2  10  12 2250.63 191.235   2
   2 -10  12 2122.32 227.506   3
   2  10  12 2284.57 202.200   4
   2 -10  13 1819.97 205.346   3
   2  10  13 1852.71 186.711   4
   2 -10  14-0.42309 94.8954   3
   2  10  14 114.137 65.7261   4
   2 -10  15 5973.52 390.517   3
   2  10  15 6541.52 374.177   4
   2 -10  16 4178.09 340.711   3
   2  10  16 4702.65 328.581   4
   2 -12 -16 1530.84 180.840  12
   2 -12 -16 1829.66 246.076   7
   2 -12 -15 1410.22 162.073   6
   2  12 -15 1186.85 189.123   2
   2 -12 -15 1337.51 167.498  12
   2 -12 -15 1443.33 215.259   7
   2  12 -14 1592.51 202.202   2
   2 -12 -14 1571.82 176.670  12
   2 -12 -14 1630.97 159.335   6
   2 -12 -14 1889.55 240.572   7
   2  12 -13 20018.1 737.494   2
   2 -12 -13 21123.1 679.890  12
   2 -12 -13 21008.0 806.965   7
   2 -12 -13 21290.9 609.659   6
   2  12 -12 11228.8 510.124   2
   2 -12 -12 10762.6 456.827  12
   2 -12 -12 10554.9 546.288   7
   2 -12 -12 11208.1 396.669   6
   2  12 -11 2609.28 234.457   2
   2 -12 -11 3225.78 243.084  12
   2 -12 -11 3231.76 288.524   7
   2 -12 -11 3151.99 187.931   6
   2 -12 -10 528.551 75.3595   6
   2  12 -10 556.051 122.454   2
   2 -12 -10 377.011 90.9648  12
   2 -12 -10 366.884 109.486   7
   2  12  -9 5611.18 327.696   2
   2 -12  -9 5906.62 322.737  12
   2 -12  -9 5687.15 228.542   6
   2 -12  -9 5811.10 376.843   7
   2  12  -8 7029.48 356.003   2
   2 -12  -8 6944.42 347.862  12
   2 -12  -8 7215.10 412.680   7
   2  12  -7 6362.70 334.125   2
   2 -12  -7 6422.37 333.856  12
   2 -12  -7 6718.36 388.097   7
   2 -12  -7 7128.42 220.265   6
   2  12  -6 15255.3 522.545   2
   2 -12  -6 14977.6 524.975  12
   2 -12  -6 15297.4 605.542   7
   2 -12  -6 15443.8 333.458   6
   2 -12  -5 18977.5 343.588   6
   2 -12  -5 18653.4 437.178   4
   2  12  -5 17904.3 561.154   2
   2 -12  -5 17514.1 579.041  12
   2 -12  -5 19236.1 682.364   7
   2  12  -4 11298.1 415.763   2
   2 -12  -4 10887.2 428.408  12
   2 -12  -4 12142.1 519.714   7
   2  12  -3 9366.99 370.051   2
   2  12  -3 9786.80 268.299   3
   2 -12  -3 9262.99 387.737  12
   2 -12  -3 10225.5 477.092   7
   2 -12  -2 8497.98 359.663   3
   2  12  -2 7796.72 325.141   2
   2  12  -2 8452.59 252.522   3
   2  12  -2 8171.80 248.859   1
   2 -12  -2 7506.84 346.597  12
   2 -12  -2 8511.79 424.840   7
   2  12  -1 549.030 68.6023   3
   2  12  -1 791.185 76.8983   1
   2  12  -1 734.465 112.451   2
   2 -12  -1 649.478 123.699   3
   2 -12  -1 581.762 106.088  12
   2 -12  -1 824.518 139.738   7
   2 -12   0 27106.9 715.305   3
   2  12   0 26333.1 665.531   2
   2  12   0 26813.3 518.501   1
   2 -12   0 26698.3 706.384  12
   2 -12   0 26188.6 829.503   7
   2  12   1 51541.1 1072.31   2
   2 -12   1 53927.6 1147.52   3
   2 -12   1 50859.3 1121.37  12
   2 -12   1 56456.8 1330.63   7
   2  12   2 3414.19 202.916   2
   2  12   2 3425.94 181.365   3
   2 -12   2 3444.24 232.822   3
   2 -12   2 3290.42 217.227  12
   2  12   3 38452.6 866.039   2
   2 -12   3 38529.2 936.545   3
   2 -12   3 39134.4 907.451  12
   2  12   3 41121.8 908.327   7
   2  12   4 14236.3 496.343   4
   2  12   4 13507.8 438.232   2
   2 -12   4 15058.7 514.811   3
   2 -12   4 14341.2 469.876  12
   2  12   4 13861.7 437.979   7
   2 -12   5 292.419 95.8451   3
   2  12   5 405.809 81.1846   2
   2  12   5 355.155 94.2918   4
   2 -12   5 239.285 68.4666  12
   2  12   5 328.485 65.4536   7
   2  12   6 21174.9 636.327   4
   2 -12   6 20911.2 594.544  12
   2  12   6 21621.0 588.308   2
   2 -12   6 22519.0 670.491   3
   2  12   7 6975.07 337.804   4
   2 -12   7 6539.43 302.719  12
   2  12   7 6891.20 304.783   2
   2 -12   7 7119.95 355.755   3
   2  12   8 3875.42 251.021   4
   2 -12   8 3549.37 220.841  12
   2  12   8 3473.06 215.024   2
   2 -12   8 4081.60 279.044   3
   2  12   9 11077.4 443.047   4
   2  12   9 10351.6 400.798   2
   2 -12   9 11472.9 483.933   3
   2  12  10 10115.4 429.898   4
   2  12  10 9471.31 385.654   2
   2 -12  10 9933.24 461.917   3
   2  12  11 4574.10 291.784   4
   2  12  11 4388.58 261.668   2
   2 -12  11 4515.95 318.854   3
   2  12  12 6923.56 371.462   4
   2  12  12 7026.02 343.649   2
   2 -12  12 7060.19 407.050   3
   2  12  13 9500.83 445.587   4
   2  12  13 9145.83 406.478   2
   2 -12  13 9386.46 477.213   3
   2 -12  14 1126.08 180.302   3
   2  12  14 1283.41 168.315   4
   2 -12  15 318.749 128.292   3
   2  12  15 534.503 146.614   4
   2 -14 -15 3000.80 243.002  12
   2  14 -14 1858.51 221.298   2
   2 -14 -14 1910.91 196.220  12
   2 -14 -14 1646.63 244.435   7
   2  14 -13 10981.1 545.269   2
   2  14 -13 10624.7 503.060  10
   2 -14 -13 11460.3 480.750  12
   2 -14 -13 11368.3 605.110   7
   2  14 -12 6984.01 415.745   2
   2  14 -12 6617.67 380.977  10
   2 -14 -12 6865.52 362.801  12
   2 -14 -12 6358.45 443.089   7
   2  14 -11 1091.74 174.582   2
   2 -14 -11 992.445 140.942  12
   2  14 -11 978.183 153.441  10
   2 -14 -11 972.676 189.070   7
   2  14 -10 1635.32 187.560   2
   2 -14 -10 1268.55 158.317  12
   2  14 -10 1264.37 169.439  10
   2 -14 -10 1572.09 218.799   7
   2  14  -9 1935.39 199.317   2
   2 -14  -9 2135.22 197.617  12
   2 -14  -9 2195.87 247.163   7
   2  14  -8 11962.9 493.856   2
   2 -14  -8 11177.7 461.491  12
   2 -14  -8 11883.4 578.151   7
   2  14  -7 6938.80 360.256   2
   2 -14  -7 6994.48 352.548  12
   2 -14  -7 7253.50 435.444   7
   2  14  -6 5472.08 303.918   2
   2 -14  -6 4898.76 293.836  12
   2 -14  -6 5555.61 378.900   7
   2  14  -5 3072.34 220.155   2
   2 -14  -5 3256.66 234.231  12
   2 -14  -5 3286.02 290.699   7
   2  14  -4 5466.80 289.544   2
   2 -14  -4 5138.80 295.130  12
   2 -14  -4 5451.44 373.485   7
   2  14  -3 18867.0 573.497   2
   2 -14  -3 18544.0 597.469  12
   2 -14  -3 18278.9 707.948   7
   2  14  -2 1100.71 101.371   1
   2  14  -2 993.836 122.441   2
   2 -14  -2 1164.42 144.933   3
   2 -14  -2 1075.96 140.464  12
   2 -14  -2 754.006 148.938   7
   2  14  -1 4766.50 196.975   1
   2 -14  -1 4923.94 287.301   3
   2  14  -1 4393.21 246.134   2
   2 -14  -1 4785.77 273.457  12
   2 -14  -1 4686.32 347.084   7
   2 -14   0 7496.62 367.164   3
   2  14   0 7813.79 331.257   2
   2  14   0 8110.51 260.096   1
   2 -14   0 7748.63 361.288  12
   2 -14   0 8121.89 463.057   7
   2 -14   1 1789.05 172.090  12
   2  14   1 2106.70 121.409   1
   2  14   1 1979.80 162.509   2
   2 -14   1 2073.19 194.026   3
   2 -14   2-8.55911 54.1569  12
   2 -14   2 7.33613 74.0602   3
   2  14   2 0.35054 40.7295   2
   2 -14   3 2222.05 188.082  12
   2 -14   3 1977.06 190.562   3
   2  14   3 2489.48 206.134   4
   2  14   3 2053.52 163.368   2
   2 -14   4 3655.49 238.006  12
   2  14   4 3930.19 260.567   4
   2  14   4 3468.81 212.814   2
   2 -14   4 3934.54 267.179   3
   2 -14   5 4569.52 265.328  12
   2  14   5 4350.76 276.927   4
   2  14   5 4018.29 233.318   2
   2 -14   5 4252.68 278.959   3
   2  14   6 17687.2 593.127   4
   2 -14   6 17914.2 558.795  12
   2  14   6 16977.8 526.057   2
   2 -14   6 17197.7 608.504   3
   2  14   7 4068.68 267.866   4
   2 -14   7 4040.66 248.985  12
   2  14   7 3702.70 225.602   2
   2 -14   7 3802.32 276.987   3
   2  14   8 5505.00 317.697   4
   2  14   8 5357.98 278.149   2
   2 -14   8 6334.20 361.967   3
   2 -14   9 374.453 121.213   3
   2  14   9 240.317 79.7645   4
   2  14   9 312.641 76.0296   2
   2 -14  10 744.936 144.593   3
   2  14  10 856.540 120.496   2
   2  14  10 716.804 127.293   4
   2  14  11 15241.9 576.549   4
   2  14  11 14982.6 515.554   2
   2 -14  11 15048.6 623.055   3
   2  14  12 2584.98 236.001   4
   2 -14  12 2525.15 254.450   3
   2  14  12 2494.23 206.947   2
   2  14  13 11249.7 510.774   4
   2  14  13 11098.3 455.496   2
   2 -14  13 11748.0 556.511   3
   2 -16 -14 625.000 134.221  12
   2 -16 -13 2337.80 213.115  12
   2  16 -13 1918.75 229.880  10
   2  16 -12 2895.05 271.535   2
   2  16 -12 2717.64 257.617  10
   2 -16 -12 2599.75 228.739  12
   2 -16 -12 3035.11 325.736   7
   2  16 -11 8252.55 453.015   2
   2  16 -11 7710.76 408.793  10
   2 -16 -11 7879.54 400.022  12
   2 -16 -11 8583.81 530.014   7
   2  16 -10 2376.14 239.601   2
   2 -16 -10 2572.13 220.395  12
   2  16 -10 2097.61 214.245  10
   2 -16 -10 2563.94 290.393   7
   2  16  -9 453.075 115.074   2
   2 -16  -9 206.420 81.0683  12
   2 -16  -9 540.725 151.802   7
   2  16  -8 2142.93 213.692   2
   2 -16  -8 2097.66 203.928  12
   2 -16  -8 2181.75 258.532   7
   2  16  -7 14656.2 556.223   2
   2 -16  -7 14421.5 544.063  12
   2 -16  -7 14564.1 684.457   7
   2  16  -6 1486.16 168.768   2
   2 -16  -6 1352.83 166.154  12
   2 -16  -6 1290.83 202.127   7
   2  16  -5 10570.8 447.720   2
   2 -16  -5 10656.9 453.696  12
   2 -16  -5 11080.9 587.163   7
   2  16  -4 17185.5 580.065   2
   2 -16  -4 17187.8 592.750  12
   2 -16  -4 17824.2 748.296   7
   2  16  -3 4551.52 274.711   2
   2 -16  -3 4149.22 274.612  12
   2 -16  -3 4376.78 361.009   7
   2  16  -2 1504.57 154.119   2
   2 -16  -2 1562.39 169.693  12
   2 -16  -2 1597.33 228.271   7
   2  16  -1 216.966 64.9335   2
   2 -16  -1 317.636 109.316   3
   2 -16  -1 351.922 96.3685  12
   2 -16  -1 288.709 115.314   7
   2 -16   0 3983.01 262.357  12
   2 -16   0 4307.68 287.540   3
   2  16   0 4515.94 255.880   2
   2 -16   1 1857.35 182.280  12
   2  16   1 1642.95 157.579   2
   2 -16   1 1567.47 180.353   3
   2 -16   2 4915.67 290.261  12
   2  16   2 4561.84 254.770   2
   2 -16   2 4945.69 312.897   3
   2 -16   3 965.914 138.252  12
   2  16   3 1058.96 127.194   2
   2  16   3 910.287 133.327   4
   2 -16   3 829.907 146.278   3
   2 -16   4 7080.27 351.302  12
   2  16   4 7189.21 378.616   4
   2  16   4 7288.86 330.631   2
   2 -16   4 7920.85 404.325   3
   2 -16   5 11594.0 459.676  12
   2  16   5 11363.9 483.271   4
   2  16   5 11008.4 420.577   2
   2 -16   5 12769.4 525.261   3
   2  16   6 4683.04 297.825   4
   2 -16   6 4938.01 294.218  12
   2  16   6 4492.04 256.339   2
   2 -16   6 4914.96 325.552   3
   2  16   7 7135.15 378.443   4
   2  16   7 7760.58 345.912   2
   2 -16   7 8188.80 432.236   3
   2  16   8 2431.78 223.793   4
   2 -16   8 2225.06 229.649   3
   2  16   8 2405.53 192.089   2
   2  16   9 2374.94 222.205   4
   2 -16   9 2138.63 229.591   3
   2  16   9 2220.34 188.411   2
   2  16  10 2698.15 240.190   4
   2  16  10 2434.54 200.783   2
   2 -16  10 3061.03 276.115   3
   2  16  11 3037.60 260.070   4
   2 -16  11 2585.38 260.984   3
   2  16  11 2921.30 223.135   2
   2  16  12 181.546 84.3105   2
   2  16  13 1101.89 152.308   2
   2 -18 -13 2714.88 242.934  12
   2 -18 -12 1274.79 173.414  12
   2 -18 -11 1465.89 180.761  12
   2  18 -10 8950.40 480.777   2
   2 -18 -10 9557.54 450.146  12
   2 -18 -10 9443.68 590.079   7
   2  18  -9 412.178 114.156   2
   2 -18  -9 645.927 139.857  12
   2 -18  -9 289.653 120.295   7
   2  18  -8 102.035 74.3350   2
   2 -18  -8-11.8326 83.8299  12
   2 -18  -8 196.819 111.158   7
   2  18  -7 22434.7 746.596   2
   2 -18  -7 22079.7 720.362  12
   2 -18  -7 22896.6 941.868   7
   2  18  -6 9275.25 443.514   2
   2 -18  -6 9712.10 443.281  12
   2 -18  -6 8585.12 554.860   7
   2  18  -5 916.835 140.655   2
   2 -18  -5 647.201 127.848  12
   2 -18  -5 675.164 164.484   7
   2  18  -4 951.215 137.862   2
   2 -18  -4 1170.29 161.487  12
   2 -18  -4 1044.62 205.672   7
   2  18  -3 10008.4 434.159   2
   2 -18  -3 10835.3 470.019  12
   2 -18  -3 10160.5 606.387   7
   2 -18  -2 8899.15 421.316  12
   2  18  -2 8137.19 383.099   2
   2 -18  -1 539.316 124.579  12
   2  18  -1 556.845 113.848   2
   2 -18  -1 807.910 155.451   3
   2 -18   0 13209.2 522.424  12
   2 -18   0 13155.4 559.770   3
   2  18   0 13525.7 487.111   2
   2 -18   1 6141.74 343.520  12
   2 -18   1 6161.73 370.165   3
   2  18   1 5824.02 306.413   2
   2 -18   2 875.344 137.972  12
   2  18   2 991.730 128.114   2
   2  18   2 773.677 139.383   4
   2 -18   2 886.144 146.780   3
   2 -18   3 4377.98 289.408  12
   2  18   3 4419.59 309.667   4
   2  18   3 4009.52 252.635   2
   2 -18   3 4189.87 314.244   3
   2 -18   4 8423.14 407.104  12
   2  18   4 8182.41 423.687   4
   2  18   4 8750.38 378.559   2
   2 -18   4 8877.57 456.090   3
   2  18   5 3828.26 286.406   4
   2  18   5 3903.61 247.127   2
   2 -18   5 3765.15 298.584   3
   2  18   6 16848.0 637.690   4
   2  18   6 16565.8 550.691   2
   2 -18   6 17582.0 671.652   3
   2  18   7 5870.06 360.544   4
   2  18   7 6007.01 311.138   2
   2 -18   7 5745.28 373.730   3
   2 -18   8-7.30006 86.3519   3
   2  18   8 13.8270 61.8757   2
   2  18   8-27.4795 66.2006   4
   2  18   9 11123.6 516.548   4
   2  18   9 11680.1 456.488   2
   2 -18   9 11475.1 552.548   3
   2  18  10 3516.69 247.509   2
   2 -20  -8 4180.18 300.377  12
   2  20  -7 1367.91 186.981   2
   2 -20  -7 1229.56 167.136  12
   2  20  -6 8252.67 429.976   2
   2 -20  -6 7944.05 416.813  12
   2 -20  -6 7720.41 569.383   7
   2  20  -5 1513.85 180.637   2
   2 -20  -5 1366.03 172.759  12
   2 -20  -5 1102.25 226.524   7
   2  20  -4 987.421 150.791   2
   2 -20  -4 971.285 151.469  12
   2  20  -3 2504.76 222.593   2
   2 -20  -3 2441.79 229.383  12
   2  20  -2 1155.80 153.168   2
   2 -20  -2 1156.82 159.731  12
   2  20  -1 6386.48 341.437   2
   2 -20  -1 6759.34 378.431  12
   2 -20   0 10050.1 505.966   3
   2  20   0 10252.0 440.999   2
   2 -20   0 11351.0 498.802  12
   2  20   1 1066.71 142.032   2
   2  20   1 1302.33 180.108   4
   2 -20   1 1204.29 195.074   3
   2 -20   1 1039.87 154.203  12
   2  20   2 193.748 74.6821   2
   2  20   2 292.149 102.304   4
   2 -20   2 81.1856 106.015   3
   2 -20   2-7.80932 79.2663  12
   2  20   3 2256.70 231.423   4
   2  20   3 2288.53 197.538   2
   2 -20   3 2261.27 249.090   3
   2  20   4 40.7531 60.4604   2
   2  20   4 174.487 84.3384   4
   2 -20   4 12.8142 104.532   3
   2  20   5 687.869 121.493   2
   2  20   5 830.597 148.249   4
   2 -20   5 659.702 151.592   3
   2  20   6 742.018 124.737   2
   2  20   6 647.448 130.329   4
   2  22  -4 557.452 123.527   2
   2  22  -3 3815.23 277.237   2
   2  22  -2 5481.72 336.391   2
   2  22  -1 4718.25 307.212   2
   2  22   0 5465.11 322.365   2
   2  22   1 9406.83 427.192   2
   2  22   2 4301.28 282.451   2
   3   1 -17 6977.45 368.909   2
   3  -1 -17 6653.40 482.679  12
   3   1 -17 6423.22 488.996  12
   3  -1 -17 7027.82 439.608   6
   3  -1 -16-10.7362 108.798  12
   3   1 -16 140.759 80.6482   2
   3  -1 -15 119.755 119.957  12
   3  -1 -15-16.6222 49.9619   2
   3   1 -15-8.30880 56.0194   2
   3  -1 -14 3767.64 346.307  12
   3  -1 -14 4043.16 238.444   2
   3   1 -14 3941.44 254.814   2
   3  -1 -13 5088.35 398.220  12
   3  -1 -13 5985.17 287.208   2
   3   1 -13 6011.96 304.699   2
   3  -1 -12 668.667 153.874  12
   3  -1 -12 795.410 105.547   2
   3   1 -12 748.671 107.136   2
   3  -1 -11 2778.87 284.515  12
   3  -1 -11 3090.63 193.732   2
   3   1 -11 2989.54 200.580   2
   3  -1 -10 5301.10 378.315  12
   3  -1 -10 5098.92 238.046   2
   3   1 -10 5308.02 261.836   2
   3  -1  -9 5347.07 375.131  12
   3  -1  -9 5107.13 238.516   2
   3   1  -9 5602.26 263.217   2
   3  -1  -8 4820.92 347.789  12
   3  -1  -8 4694.82 221.394   2
   3   1  -8 5045.14 241.598   2
   3  -1  -7 4783.40 339.742  12
   3  -1  -7 4889.98 217.436   2
   3   1  -7 4551.69 225.803   2
   3  -1  -6 42020.2 1136.88  12
   3  -1  -6 42181.9 868.147   2
   3   1  -6 44143.0 902.370   2
   3  -1  -5 191.506 101.714  12
   3  -1  -5 330.056 66.2643   2
   3   1  -5 384.166 70.6260   2
   3  -1  -4 741.430 154.759  12
   3  -1  -4 562.536 78.6738   2
   3   1  -4 576.219 79.6171   2
   3  -1  -3 2514.99 234.285  12
   3  -1  -3 2431.51 152.554   2
   3   1  -3 2689.06 164.117   2
   3  -1  -2 3034.63 167.133   4
   3  -1  -2 2777.21 162.404   2
   3   1  -2 2895.44 170.462   2
   3  -1  -2 3171.07 135.069   3
   3  -1  -2 2634.27 230.186  12
   3  -1  -1 3466.71 182.419   2
   3   1  -1 3550.37 189.103   2
   3   1  -1 3277.76 124.763   3
   3  -1  -1 3567.19 149.939   3
   3  -1  -1 3404.76 254.391  12
   3   1  -1 3376.46 253.948  12
   3  -1   0 3769.90 193.867   2
   3   1   0 3976.73 202.942   2
   3  -1   0 4040.02 171.653   3
   3   1   0 4249.76 155.265   3
   3  -1   0 3870.60 264.459  12
   3   1   0 3664.57 259.065  12
   3  -1   0 4029.17 207.671   7
   3   1   1 993.660 106.841   5
   3  -1   1 959.738 91.1296   3
   3   1   1 909.192 80.3631   3
   3  -1   1 1081.02 109.508   2
   3   1   1 954.577 104.400   2
   3  -1   1 1070.48 147.375  12
   3   1   1 737.855 127.508  12
   3   1   2 18141.2 500.791   5
   3  -1   2 18471.3 498.647   2
   3   1   2 18173.7 506.864   2
   3  -1   2 18949.0 471.403   3
   3   1   2 21102.9 467.536   3
   3  -1   2 17945.1 579.457  12
   3   1   2 17374.6 582.115  12
   3   1   2 17851.6 441.523   7
   3  -1   2 18513.6 471.640   7
   3  -1   3 4743.50 231.466   2
   3   1   3 4541.25 229.535   2
   3  -1   3 4757.33 197.994   4
   3   1   3 4617.05 216.031   4
   3  -1   3 4957.61 220.849   3
   3   1   3 4641.13 203.237   3
   3  -1   3 4704.81 269.149  12
   3   1   3 4726.41 269.188  12
   3   1   3 4135.88 168.916   7
   3  -1   3 4870.72 202.320   7
   3  -1   4 2889.35 148.885   4
   3  -1   4 2708.48 180.117   2
   3   1   4 2922.32 185.701   2
   3   1   4 3089.76 173.304   4
   3  -1   4 2720.63 173.335   3
   3   1   4 2932.95 169.937   3
   3  -1   4 2826.01 197.199  12
   3   1   4 2897.02 201.851  12
   3   1   4 3344.59 127.108   7
   3  -1   4 2435.64 139.735   7
   3  -1   5 6025.11 225.155   4
   3  -1   5 6176.25 215.126   5
   3   1   5 6195.27 252.108   4
   3  -1   5 5683.44 276.382  12
   3   1   5 5796.16 278.749  12
   3  -1   5 6417.86 283.252   2
   3   1   5 6033.39 279.017   2
   3  -1   5 6120.69 271.097   3
   3   1   5 5878.12 255.670   3
   3   1   6 2556.75 159.109   4
   3  -1   6 2289.54 135.329   4
   3  -1   6 2382.75 170.354  12
   3   1   6 2613.22 175.488  12
   3  -1   6 2454.55 173.857   2
   3   1   6 2536.76 180.184   2
   3  -1   6 2421.44 175.570   3
   3   1   6 2295.54 168.292   3
   3  -1   7 2036.49 132.955   4
   3   1   7 1997.34 142.581   4
   3  -1   7 2265.64 155.744  12
   3   1   7 1833.21 137.988  12
   3  -1   7 2108.78 169.980   2
   3   1   7 2029.74 169.237   2
   3  -1   7 2269.82 177.931   3
   3   1   7 1856.42 151.468   3
   3   1   8 24088.6 597.383   4
   3  -1   8 23934.7 569.640   4
   3  -1   8 23702.9 574.795  12
   3   1   8 25759.9 578.895  12
   3  -1   8 25082.3 672.804   2
   3   1   8 24691.3 675.700   2
   3  -1   8 23139.8 660.452   3
   3  -1   9 2443.12 157.308   4
   3   1   9 2434.89 164.929   4
   3  -1   9 2630.28 148.055  12
   3   1   9 2643.25 139.775  12
   3   1   9 2445.66 198.623   2
   3  -1   9 2458.82 197.060   3
   3  -1  10 5131.28 239.746   4
   3   1  10 5217.13 250.486   4
   3  -1  10 4726.05 284.673   3
   3  -1  11 2888.62 183.140   4
   3   1  11 2847.57 190.518   4
   3  -1  11 2633.82 219.487   3
   3  -1  12 3692.18 218.123   4
   3   1  12 3952.89 235.758   4
   3  -1  12 3667.77 268.698   3
   3   1  13 1794.96 169.431   4
   3  -1  13 1379.14 173.571   3
   3  -1  13 1474.91 144.403   4
   3  -1  14 847.651 152.910   3
   3  -1  14 1189.36 139.996   4
   3   1  14 1167.60 141.674   4
   3   1  15 2578.99 213.399   4
   3  -1  15 2252.73 189.823   4
   3  -1  15 2343.89 243.768   3
   3   1  16 3364.55 252.441   4
   3  -1  16 3299.04 288.007   3
   3   1  17 7613.22 395.037   4
   3   3 -18 5413.98 352.426   2
   3  -3 -17 188.877 108.266   6
   3   3 -17 282.577 111.364   2
   3  -3 -17-64.6369 121.247  12
   3   3 -16 12508.4 520.681   2
   3  -3 -16 12617.8 650.422  12
   3  -3 -16 13097.4 579.851   6
   3  -3 -15 707.749 176.235  12
   3   3 -15 956.529 141.508   2
   3  -3 -14 2905.07 298.041  12
   3   3 -14 2707.21 216.968   2
   3  -3 -13 10755.7 579.097  12
   3  -3 -13 12438.0 396.406   2
   3   3 -13 12465.7 477.844   2
   3  -3 -12 4268.80 356.872  12
   3  -3 -12 5276.58 236.517   2
   3   3 -12 4878.62 282.729   2
   3  -3 -11 2900.56 285.462  12
   3  -3 -11 2807.08 168.001   2
   3   3 -11 2660.50 203.852   2
   3  -3 -10 16165.2 676.856  12
   3  -3 -10 16193.2 437.361   2
   3   3 -10 15584.8 511.114   2
   3  -3  -9 2554.61 258.340  12
   3  -3  -9 3052.87 162.789   2
   3   3  -9 2825.40 195.563   2
   3  -3  -8 1871.06 217.554  12
   3  -3  -8 1824.47 126.789   2
   3   3  -8 2096.63 164.511   2
   3  -3  -7 6280.93 385.492  12
   3  -3  -7 6381.70 241.789   2
   3   3  -7 6575.06 288.926   2
   3  -3  -6 14231.0 596.466  12
   3  -3  -6 16127.9 411.712   2
   3   3  -6 15145.4 462.832   2
   3  -3  -5 2645.20 250.632  12
   3  -3  -5 2797.25 152.508   2
   3   3  -5 2516.78 168.602   2
   3  -3  -4 3651.59 181.025   4
   3  -3  -4 3484.93 168.235   2
   3   3  -4 3377.46 192.373   2
   3  -3  -4 3368.51 273.096  12
   3  -3  -3 9907.69 307.750   4
   3  -3  -3 9882.79 308.419   2
   3   3  -3 9880.07 348.534   2
   3  -3  -3 9684.89 447.643  12
   3  -3  -3 11007.8 410.133   7
   3  -3  -2 28132.9 616.542   2
   3   3  -2 27453.7 662.490   2
   3  -3  -2 28493.8 603.105   3
   3  -3  -2 26454.0 794.449  12
   3  -3  -2 27765.8 716.819   7
   3  -3  -1 5117.34 197.621   4
   3  -3  -1 5916.37 233.763   2
   3   3  -1 5693.95 255.170   2
   3   3  -1 4949.95 115.859   3
   3  -3  -1 6151.31 227.548   3
   3  -3  -1 5850.85 329.606  12
   3  -3  -1 5775.73 274.372   7
   3  -3   0 43269.7 795.958   4
   3  -3   0 41496.4 852.891   2
   3   3   0 42705.4 898.339   2
   3  -3   0 43211.6 846.672   3
   3   3   0 41867.7 723.836   3
   3  -3   0 39887.0 1012.75  12
   3  -3   0 40007.5 906.884   7
   3  -3   1 3109.12 175.186   2
   3   3   1 2966.34 184.701   2
   3  -3   1 3134.56 173.605   3
   3   3   1 2859.16 126.364   3
   3  -3   1 2655.83 216.445  12
   3  -3   1 2866.76 182.547   7
   3  -3   2 2492.70 158.434   2
   3  -3   2 2232.40 117.780   4
   3   3   2 2316.48 164.174   2
   3  -3   2 2448.31 159.867   3
   3   3   2 2430.83 127.540   3
   3  -3   2 2689.18 219.067  12
   3   3   2 2350.90 207.672  12
   3  -3   3 2881.36 131.261   4
   3  -3   3 3240.82 186.872   2
   3   3   3 3182.27 197.119   2
   3  -3   3 2773.66 177.561   3
   3   3   3 2997.90 153.060   3
   3  -3   3 2952.11 211.310  12
   3   3   3 3097.07 223.506  12
   3   3   3 2718.48 119.628   7
   3  -3   4 50651.9 831.626   4
   3  -3   4 51690.3 975.748   2
   3   3   4 51427.5 1007.02   2
   3   3   4 51528.7 984.464   4
   3  -3   4 52241.2 993.316   3
   3   3   4 52146.5 915.815   3
   3  -3   4 51462.8 1043.73  12
   3   3   4 48943.1 1040.11  12
   3  -3   4 55968.4 985.618   7
   3  -3   5 736.506 67.5292   4
   3  -3   5 548.593 97.8775  12
   3   3   5 548.023 98.8876  12
   3  -3   5 572.678 96.9867   3
   3  -3   5 682.237 98.9981   2
   3   3   5 646.972 106.825   2
   3   3   5 593.202 88.8730   4
   3   3   6 25095.3 633.763   4
   3  -3   6 25573.4 530.671   4
   3  -3   6 25783.6 648.660  12
   3   3   6 24421.6 630.802  12
   3  -3   6 25075.0 651.499   2
   3   3   6 24290.8 659.500   2
   3  -3   6 26073.0 678.363   3
   3   3   7 3815.11 211.562   4
   3  -3   7 4147.46 171.476   4
   3  -3   7 3786.99 206.417  12
   3   3   7 3972.77 203.409  12
   3   3   7 3546.50 226.845   2
   3  -3   7 3977.44 241.248   3
   3  -3   8 3740.05 170.597   4
   3   3   8 3437.81 201.749   4
   3  -3   8 3218.36 184.671  12
   3   3   8 3099.67 164.131  12
   3   3   8 3029.42 212.254   2
   3  -3   8 3073.38 219.704   3
   3  -3   9 931.956 97.8159  12
   3  -3   9 811.748 125.264   3
   3   3   9 1102.11 137.316   2
   3  -3   9 995.990 99.0698   4
   3   3   9 1114.72 119.160   4
   3   3  10 13557.3 457.386   4
   3  -3  10 14557.3 405.333   4
   3  -3  10 14785.5 401.657  12
   3   3  10 14127.9 509.895   2
   3  -3  10 13408.7 514.568   3
   3   3  11 2051.77 173.858   4
   3  -3  11 2242.58 152.346   4
   3   3  11 2370.07 203.827   2
   3  -3  11 2099.95 202.480   3
   3   3  12 7571.26 348.607   4
   3  -3  12 8471.79 314.610   4
   3  -3  12 8096.43 412.079   3
   3  -3  13 624.064 132.334   3
   3   3  13 743.592 119.007   4
   3   3  14 5536.81 316.085   4
   3  -3  14 5218.32 349.652   3
   3   3  15 2966.64 234.825   4
   3  -3  15 3484.33 295.303   3
   3   3  16 7329.60 384.529   4
   3   3  17 254.356 104.405   4
   3  -5 -17 157.354 113.904   6
   3  -5 -17 234.049 135.006  12
   3   5 -17 109.266 72.2944   2
   3  -5 -16 220.647 105.569   6
   3  -5 -16 97.5415 111.331  12
   3   5 -16 162.477 83.2265   2
   3  -5 -15 1040.93 166.058   6
   3   5 -15 870.814 145.590   2
   3  -5 -15 844.592 177.416  12
   3   5 -14 2967.76 245.141   2
   3  -5 -14 2572.23 276.620  12
   3  -5 -14 3129.69 253.566   6
   3   5 -13 7569.98 383.037   2
   3  -5 -13 7144.08 452.568  12
   3  -5 -13 7956.93 393.812   6
   3   5 -12 29207.5 810.263   2
   3  -5 -12 27983.3 940.618  12
   3   5 -11 10290.0 427.579   2
   3  -5 -11 9123.25 498.510  12
   3  -5 -10 2588.13 139.035   2
   3   5 -10 2797.85 210.157   2
   3  -5 -10 2750.58 265.400  12
   3  -5  -9 1413.16 102.170   2
   3   5  -9 1098.85 136.939   2
   3  -5  -9 1176.60 183.077  12
   3  -5  -8 6250.72 218.332   2
   3   5  -8 5963.35 293.444   2
   3  -5  -8 6392.96 389.323  12
   3  -5  -7 1624.16 107.264   2
   3   5  -7 1495.69 141.346   2
   3  -5  -7 1676.00 198.908  12
   3  -5  -6 36350.7 710.895   2
   3   5  -6 35366.8 837.850   2
   3  -5  -6 34523.7 989.289  12
   3  -5  -6 36634.6 955.582   7
   3  -5  -5 5857.90 212.528   2
   3   5  -5 5836.67 277.746   2
   3  -5  -5 5964.50 358.388  12
   3  -5  -5 5531.17 317.329   7
   3  -5  -4 12807.3 342.633   2
   3   5  -4 11839.3 407.507   2
   3  -5  -4 12196.2 518.821  12
   3  -5  -4 12354.9 471.480   7
   3  -5  -3 831.299 86.4535   6
   3  -5  -3 1298.73 103.438   4
   3  -5  -3 887.677 84.2314   2
   3   5  -3 1012.24 115.247   2
   3  -5  -3 1049.37 108.273   3
   3  -5  -3 957.850 156.176  12
   3  -5  -3 873.839 122.603   7
   3  -5  -2 3774.54 175.667   6
   3  -5  -2 3748.01 156.155   4
   3  -5  -2 3940.13 178.837   2
   3  -5  -2 3891.86 195.539   3
   3   5  -2 3856.99 214.911   2
   3  -5  -2 3488.80 259.713  12
   3  -5  -2 3837.90 242.085   7
   3  -5  -1 11705.4 337.482   6
   3  -5  -1 12813.7 303.911   4
   3  -5  -1 13022.7 363.063   2
   3   5  -1 12094.5 407.814   2
   3  -5  -1 12435.8 383.513   3
   3  -5  -1 11929.1 488.071  12
   3  -5  -1 12250.7 444.663   7
   3  -5   0 98999.0 1669.01   6
   3  -5   0 106643. 1593.35   4
   3  -5   0 96502.6 1702.94   2
   3   5   0 95836.7 1778.90   2
   3  -5   0 101084. 1755.04   3
   3   5   0 96289.1 1525.16   3
   3  -5   0 97027.8 1921.37  12
   3  -5   0 98439.5 1844.40   7
   3  -5   1 3303.72 160.163   6
   3  -5   1 3552.49 121.080   4
   3  -5   1 3243.90 173.294   2
   3  -5   1 3115.33 118.982   4
   3   5   1 3120.24 196.612   2
   3  -5   1 3217.74 191.871   3
   3   5   1 3250.73 128.021   3
   3  -5   1 3363.74 237.389  12
   3  -5   1 3294.62 213.330   7
   3  -5   2 6989.86 177.165   4
   3  -5   2 7435.02 181.532   4
   3  -5   2 6827.47 264.744   2
   3   5   2 6459.37 290.551   2
   3  -5   2 7052.71 292.694   3
   3   5   2 6887.64 218.524   3
   3  -5   2 6548.59 327.211  12
   3  -5   2 6734.18 308.952   7
   3  -5   2 6516.54 239.778   6
   3  -5   3 7363.91 181.156   4
   3  -5   3 7928.24 187.452   4
   3  -5   3 7178.57 281.248   2
   3   5   3 7047.80 308.310   2
   3  -5   3 7301.43 309.241   3
   3  -5   3 7061.29 331.568  12
   3  -5   3 6893.02 253.842   6
   3  -5   3 7520.10 325.598   7
   3  -5   4 10232.0 223.272   4
   3  -5   4 9698.94 343.844   2
   3   5   4 9618.27 369.111   2
   3   5   4 9231.22 365.559   4
   3  -5   4 9666.56 371.257   3
   3  -5   4 9307.40 379.598  12
   3  -5   4 9627.34 317.851   6
   3  -5   5 1656.61 84.1663   4
   3  -5   5 1333.21 139.202  12
   3   5   5 1160.69 131.463  12
   3  -5   5 1483.03 148.196   3
   3   5   5 1518.07 150.319   2
   3   5   5 1484.87 144.710   4
   3   5   6 5643.83 277.076   4
   3  -5   6 6154.31 171.323   4
   3  -5   6 5560.32 270.216  12
   3   5   6 5078.69 257.609  12
   3   5   6 5518.66 283.836   2
   3  -5   6 5696.67 292.827   3
   3   5   7 4334.99 242.628   4
   3  -5   7 4840.57 159.622   4
   3  -5   7 4887.41 244.537  12
   3   5   7 4481.09 220.336  12
   3   5   7 4428.02 256.118   2
   3  -5   7 4625.81 272.450   3
   3  -5   8 451.542 84.1967  12
   3  -5   8 390.807 86.1925   3
   3   5   8 364.685 84.4873   2
   3  -5   8 509.626 61.4421   4
   3   5   8 238.273 59.4184   4
   3   5   9 1773.26 154.559   4
   3  -5   9 1739.22 138.108  12
   3  -5   9 1698.47 182.816   3
   3   5   9 1694.96 161.677   2
   3   5  10 7075.36 326.908   4
   3  -5  10 7283.79 280.730  12
   3   5  10 6882.75 346.302   2
   3  -5  10 6931.42 366.060   3
   3   5  11 2477.52 202.748   4
   3   5  11 2335.53 210.351   2
   3  -5  11 2227.35 227.759   3
   3   5  12 14238.2 506.759   4
   3   5  12 13733.0 530.903   2
   3  -5  12 12966.4 549.073   3
   3   5  13 3239.00 237.655   4
   3  -5  13 3587.04 287.159   3
   3   5  14 20115.2 660.081   4
   3  -5  14 19976.8 730.631   3
   3   5  15 2994.61 249.288   4
   3  -5  15 2442.20 259.090   3
   3   5  16 5238.99 334.138   4
   3  -7 -17 280.776 101.457   6
   3  -7 -17 684.529 177.220  12
   3   7 -16 5066.15 350.420   2
   3  -7 -16 4282.78 358.074  12
   3  -7 -16 4605.37 323.708   6
   3  -7 -15 1410.86 180.633   6
   3   7 -15 1436.86 186.622   2
   3  -7 -15 1241.63 209.208  12
   3  -7 -15 1267.96 213.499   7
   3   7 -14 6595.76 380.353   2
   3  -7 -14 5830.86 407.851  12
   3  -7 -14 6808.48 365.200   6
   3  -7 -14 6663.66 454.114   7
   3   7 -13 15017.6 577.943   2
   3  -7 -13 13567.3 630.700  12
   3  -7 -13 15575.7 557.603   6
   3  -7 -13 15781.2 694.316   7
   3  -7 -12 1322.87 155.771   6
   3   7 -12 1245.30 163.271   2
   3  -7 -12 1161.74 186.282  12
   3  -7 -12 1401.06 202.949   7
   3   7 -11 4213.92 284.054   2
   3  -7 -11 4174.42 328.850  12
   3  -7 -11 4637.93 268.929   6
   3  -7 -11 4614.75 349.913   7
   3   7 -10 6931.24 353.494   2
   3  -7 -10 6465.42 405.674  12
   3  -7 -10 7548.99 435.846   7
   3   7  -9 1486.81 158.908   2
   3  -7  -9 1531.92 200.384  12
   3  -7  -9 1708.36 203.073   7
   3   7  -8 3249.50 228.822   2
   3  -7  -8 2999.40 268.817  12
   3  -7  -8 3227.63 270.319   7
   3  -7  -7 14807.8 338.772   2
   3   7  -7 13790.2 485.924   2
   3  -7  -7 14197.4 585.154  12
   3  -7  -7 14308.3 574.160   7
   3  -7  -6 17072.6 378.875   2
   3   7  -6 16076.4 521.893   2
   3  -7  -6 16123.6 619.219  12
   3  -7  -6 15884.8 600.320   7
   3   7  -5 18133.2 533.999   2
   3  -7  -5 19494.6 663.347  12
   3  -7  -5 17908.9 621.821   7
   3  -7  -4 1982.53 123.478   6
   3  -7  -4 2132.76 113.328   2
   3   7  -4 1851.88 158.247   2
   3  -7  -4 1904.42 206.678  12
   3  -7  -4 2207.56 204.867   7
   3  -7  -3 19399.2 449.389   6
   3  -7  -3 19886.6 447.760   2
   3  -7  -3 19907.1 541.980   3
   3   7  -3 19797.0 565.290   2
   3  -7  -3 20247.5 675.647  12
   3  -7  -3 19797.5 643.128   7
   3  -7  -2 19888.0 441.001   6
   3  -7  -2 19860.6 459.318   2
   3  -7  -2 20212.4 547.999   3
   3   7  -2 18864.4 556.085   2
   3  -7  -2 19580.9 658.894  12
   3  -7  -2 20693.5 649.326   7
   3  -7  -1 14042.4 275.645   4
   3  -7  -1 13877.7 337.231   6
   3  -7  -1 13982.7 371.332   2
   3   7  -1 13411.7 449.699   2
   3  -7  -1 14202.9 442.218   3
   3  -7  -1 13115.3 517.095  12
   3  -7  -1 13424.7 503.043   7
   3  -7   0 10385.5 298.656   2
   3   7   0 10158.6 364.814   2
   3  -7   0 10463.6 359.184   3
   3  -7   0 10952.8 440.713  12
   3  -7   0 9583.79 401.632   7
   3  -7   0 10417.0 257.416   6
   3   7   1 3855.52 228.047   2
   3  -7   1 4197.50 232.995   3
   3  -7   1 3954.09 261.984  12
   3  -7   1 4201.10 263.756   7
   3  -7   1 4259.25 167.105   6
   3  -7   2 1208.44 129.725   3
   3   7   2 1015.00 130.916   2
   3  -7   2 1097.06 145.225  12
   3  -7   2 1164.79 138.741   7
   3  -7   2 1202.26 90.0385   6
   3  -7   3 1227.93 136.619   3
   3   7   3 1265.32 137.848   2
   3  -7   3 1285.78 146.495  12
   3  -7   3 1735.78 168.911   7
   3  -7   4 14515.3 496.742  12
   3   7   4 13965.3 477.705   2
   3   7   4 14868.0 500.436   4
   3  -7   4 15362.3 502.345   3
   3  -7   5 16925.6 535.617  12
   3   7   5 17680.8 547.810   2
   3   7   5 17710.7 554.921   4
   3  -7   5 18360.0 575.875   3
   3   7   6 8801.37 374.178   4
   3  -7   6 8648.81 356.212  12
   3   7   6 8507.97 364.800   2
   3  -7   6 8905.59 389.270   3
   3   7   7 10836.9 416.406   4
   3  -7   7 10284.7 385.114  12
   3   7   7 10133.0 362.595  12
   3   7   7 10247.7 411.870   2
   3  -7   7 10714.5 440.143   3
   3  -7   8 546.555 96.4980  12
   3  -7   8 504.828 117.422   3
   3   7   8 401.766 93.7280   2
   3   7   8 558.254 101.712   4
   3  -7   9 909.260 112.905  12
   3  -7   9 1030.08 152.074   3
   3   7   9 944.936 135.853   2
   3   7   9 886.391 122.054   4
   3   7  10 15893.5 547.524   4
   3  -7  10 17673.4 499.971  12
   3   7  10 15842.1 558.379   2
   3  -7  10 15785.4 597.992   3
   3   7  11 5495.14 310.561   4
   3   7  11 5914.83 328.449   2
   3  -7  11 5916.24 356.424   3
   3  -7  12 337.334 116.538   3
   3   7  12 506.609 116.008   2
   3   7  12 607.309 122.643   4
   3   7  13 9100.30 425.380   4
   3  -7  13 9642.51 482.520   3
   3  -7  14 321.825 102.639   3
   3   7  14 237.754 91.8164   4
   3   7  15 2664.80 242.574   4
   3  -9 -16 154.009 98.8460  12
   3  -9 -15 2594.30 275.376  12
   3   9 -14 807.870 143.658   2
   3  -9 -14 1045.19 180.129  12
   3  -9 -14 958.197 182.130   7
   3   9 -13 8363.59 440.006   2
   3  -9 -13 6912.25 437.440  12
   3  -9 -13 8562.32 516.406   7
   3  -9 -12 139.423 65.0473   6
   3   9 -12 64.7463 68.1705   2
   3  -9 -12 57.4379 93.7642  12
   3  -9 -12 40.4838 82.7012   7
   3   9 -11 2630.71 224.760   2
   3  -9 -11 2615.99 262.668  12
   3  -9 -11 2893.73 199.723   6
   3  -9 -11 2249.83 256.190   7
   3  -9 -10 981.009 113.017   6
   3   9 -10 1312.12 163.906   2
   3  -9 -10 695.887 140.374  12
   3  -9 -10 1081.58 183.000   7
   3   9  -9 9478.63 429.559   2
   3  -9  -9 9719.72 490.306  12
   3  -9  -9 10213.8 521.620   7
   3  -9  -9 10090.5 358.311   6
   3   9  -8 4384.96 276.150   2
   3  -9  -8 4756.84 327.300  12
   3  -9  -8 4801.17 341.197   7
   3  -9  -8 4915.31 229.872   6
   3   9  -7 5971.05 317.389   2
   3  -9  -7 5278.11 348.654  12
   3  -9  -7 6227.91 379.095   7
   3  -9  -7 6085.34 244.868   6
   3   9  -6 7247.18 345.650   2
   3  -9  -6 7440.93 410.213  12
   3  -9  -6 8165.00 432.411   7
   3   9  -5 12969.2 474.392   2
   3  -9  -5 13691.3 562.551  12
   3  -9  -5 14363.5 576.601   7
   3   9  -4 456.010 97.2995   2
   3  -9  -4 616.654 123.734  12
   3  -9  -4 466.787 123.013   7
   3  -9  -3 7126.11 321.371   3
   3   9  -3 6793.50 321.254   2
   3  -9  -3 7287.11 384.578  12
   3  -9  -3 7600.36 398.857   7
   3  -9  -2 2041.15 179.364   3
   3   9  -2 1870.40 171.918   2
   3  -9  -2 1651.98 188.192  12
   3  -9  -2 1941.57 202.978   7
   3   9  -1 654.110 106.802   2
   3  -9  -1 1023.14 128.321   3
   3  -9  -1 681.623 128.844  12
   3  -9  -1 707.880 119.959   7
   3   9   0 879.057 127.066   2
   3  -9   0 803.705 117.336   3
   3  -9   0 745.479 127.682  12
   3  -9   0 880.933 140.230   7
   3   9   1 25488.2 689.180   2
   3  -9   1 26277.7 701.276   3
   3  -9   1 25037.8 740.392  12
   3  -9   1 26519.9 789.988   7
   3   9   2 4405.06 252.820   2
   3  -9   2 4400.86 257.133   3
   3  -9   2 4120.21 266.392  12
   3  -9   2 4636.13 303.538   7
   3   9   3 10111.2 397.737   2
   3  -9   3 10669.2 423.246   3
   3  -9   3 10681.5 430.643  12
   3  -9   3 10756.3 493.876   7
   3  -9   4 3132.90 224.873  12
   3   9   4 2841.32 221.020   4
   3   9   4 2999.73 211.550   2
   3  -9   4 3166.65 229.789   3
   3  -9   5 26896.2 729.787  12
   3   9   5 25665.9 713.711   2
   3   9   5 26339.3 749.739   4
   3  -9   5 27562.6 759.364   3
   3  -9   6 2521.34 198.182  12
   3   9   6 2606.92 203.215   2
   3   9   6 2621.31 211.166   4
   3  -9   6 2932.36 231.208   3
   3   9   7 13077.9 492.841   4
   3  -9   7 13055.6 461.328  12
   3   9   7 12814.8 480.063   2
   3  -9   7 13881.1 526.837   3
   3   9   8 3678.61 253.208   4
   3  -9   8 3769.33 233.421  12
   3   9   8 3398.58 242.866   2
   3  -9   8 4117.62 287.798   3
   3   9   9 14462.5 535.562   4
   3  -9   9 15875.2 499.825  12
   3   9   9 14753.6 537.356   2
   3  -9   9 15500.2 589.644   3
   3  -9  10 1217.37 130.999  12
   3  -9  10 1313.06 179.124   3
   3   9  10 1126.92 151.743   2
   3   9  10 1144.98 151.133   4
   3   9  11 2824.34 232.341   4
   3  -9  11 3121.69 203.191  12
   3   9  11 2567.26 225.313   2
   3  -9  11 2591.83 251.626   3
   3  -9  12 862.394 151.230   3
   3   9  12 1023.02 153.553   2
   3   9  12 798.183 140.675   4
   3   9  13 3116.55 257.459   4
   3   9  13 3332.72 267.652   2
   3  -9  13 3359.40 295.192   3
   3   9  14 1421.45 180.408   4
   3 -11 -14 922.993 169.028  12
   3  11 -13 1913.40 219.868   2
   3 -11 -13 1906.96 229.457  12
   3 -11 -13 1670.34 241.741   7
   3  11 -12 551.908 124.441   2
   3 -11 -12 830.841 169.088  12
   3 -11 -12 655.512 160.836   7
   3  11 -11 708.260 139.109   2
   3 -11 -11 496.680 124.912  12
   3 -11 -11 798.307 164.286   7
   3  11 -10 1690.86 187.042   2
   3 -11 -10 1770.53 217.439  12
   3 -11 -10 1451.77 209.515   7
   3  11  -9 5791.05 338.123   2
   3 -11  -9 6178.95 383.275  12
   3 -11  -9 6006.39 415.335   7
   3  11  -8 724.212 129.433   2
   3 -11  -8 696.988 140.442  12
   3 -11  -8 835.539 163.620   7
   3  11  -7 4569.89 291.302   2
   3 -11  -7 5352.28 348.898  12
   3 -11  -7 5464.50 378.150   7
   3  11  -6 9261.35 409.349   2
   3 -11  -6 9659.52 475.400  12
   3 -11  -6 8859.27 484.781   7
   3  11  -5 2799.12 214.765   2
   3 -11  -5 2765.56 245.112  12
   3 -11  -5 3104.03 284.847   7
   3  11  -4 779.789 120.415   2
   3 -11  -4 915.655 156.367  12
   3 -11  -4 953.896 162.445   7
   3  11  -3 823.271 120.198   2
   3 -11  -3 954.643 145.057  12
   3 -11  -3 1109.75 164.413   7
   3 -11  -2 4459.51 266.726   3
   3  11  -2 3925.72 249.182   2
   3 -11  -2 4117.01 285.268  12
   3 -11  -2 4315.49 314.132   7
   3 -11  -1 5564.38 301.540   3
   3  11  -1 5287.57 289.848   2
   3 -11  -1 5320.07 324.105  12
   3 -11  -1 5979.71 374.688   7
   3  11   0 500.168 96.5575   2
   3 -11   0 697.828 119.875   3
   3 -11   0 434.135 107.457  12
   3 -11   0 505.128 126.709   7
   3  11   1 172.547 80.0611   2
   3 -11   1 364.121 97.5911   3
   3 -11   1 12.1521 67.6253  12
   3 -11   1 110.633 90.8918   7
   3 -11   2 394.576 113.329   3
   3  11   2 538.992 102.747   2
   3 -11   2 436.969 101.587  12
   3 -11   2 399.865 121.668   7
   3 -11   3 1261.47 149.470  12
   3 -11   3 1516.37 167.559   3
   3  11   3 1487.60 154.443   2
   3 -11   4 1186.92 144.555  12
   3 -11   4 1553.49 177.694   3
   3  11   4 1413.72 153.197   2
   3  11   4 1488.75 170.230   4
   3 -11   5 347.272 88.7332  12
   3 -11   5 548.919 121.503   3
   3  11   5 366.640 102.412   2
   3  11   5 463.228 110.920   4
   3 -11   6 8688.05 384.209  12
   3  11   6 8902.52 395.310   2
   3  11   6 9013.49 420.076   4
   3 -11   6 9467.30 435.734   3
   3 -11   7 1424.96 158.245  12
   3 -11   7 1677.58 193.524   3
   3  11   7 1577.88 164.848   2
   3  11   7 1558.21 175.810   4
   3  11   8 3442.95 257.647   4
   3 -11   8 3365.11 229.433  12
   3  11   8 3320.89 244.426   2
   3 -11   8 3687.47 284.547   3
   3  11   9 6212.88 350.675   4
   3 -11   9 6237.68 316.514  12
   3  11   9 6300.10 346.231   2
   3 -11   9 6727.89 390.352   3
   3  11  10 4932.99 314.083   4
   3 -11  10 5019.90 279.321  12
   3  11  10 4654.14 301.708   2
   3 -11  10 4972.88 343.317   3
   3  11  11 2740.50 236.943   4
   3 -11  11 2473.71 250.727   3
   3  11  11 2226.92 213.986   2
   3 -11  12 1632.41 209.943   3
   3  11  12 1840.81 195.834   2
   3  11  12 1795.93 207.660   4
   3  11  13 4522.51 314.233   2
   3 -13 -12 280.621 111.384  12
   3  13 -11 24494.9 815.056   2
   3 -13 -11 24062.8 835.713  12
   3 -13 -11 25372.0 969.412   7
   3  13 -10 4825.91 330.593   2
   3 -13 -10 4681.73 341.156  12
   3 -13 -10 5321.52 417.354   7
   3  13  -9 12197.9 525.548   2
   3 -13  -9 11542.8 542.701  12
   3 -13  -9 12726.5 649.948   7
   3  13  -8 5939.68 351.141   2
   3 -13  -8 5885.38 372.690  12
   3 -13  -8 5572.71 415.697   7
   3  13  -7 2944.72 240.662   2
   3 -13  -7 2746.75 254.908  12
   3 -13  -7 3154.91 309.758   7
   3  13  -6 7377.70 378.299   2
   3 -13  -6 6599.17 394.269  12
   3 -13  -6 6802.05 451.291   7
   3  13  -5 1983.34 192.901   2
   3 -13  -5 1654.00 202.908  12
   3 -13  -5 2014.29 243.324   7
   3  13  -4 594.675 117.355   2
   3 -13  -4 768.996 138.544  12
   3 -13  -4 970.068 170.146   7
   3  13  -3 5706.41 313.495   2
   3 -13  -3 5631.76 347.240  12
   3 -13  -3 5944.32 405.286   7
   3  13  -2 1910.16 179.125   2
   3 -13  -2 2090.27 199.287   3
   3 -13  -2 2161.07 217.016  12
   3 -13  -2 2898.08 283.998   7
   3 -13  -1 6419.53 350.883   3
   3  13  -1 6504.05 335.596   2
   3 -13  -1 6672.82 370.007  12
   3 -13  -1 7040.51 441.303   7
   3  13   0 3766.09 253.043   2
   3 -13   0 3979.94 270.815   3
   3 -13   0 3962.35 282.714  12
   3 -13   0 4011.07 337.983   7
   3  13   1 9479.34 410.449   2
   3 -13   1 10495.7 450.026   3
   3 -13   1 9475.37 439.035  12
   3 -13   1 9537.58 531.499   7
   3 -13   2 484.520 112.081  12
   3  13   2 681.046 113.469   2
   3 -13   2 741.396 134.611   3
   3 -13   3 3660.47 259.166  12
   3  13   3 3578.42 272.398   4
   3  13   3 3857.52 257.520   2
   3 -13   3 3768.81 275.047   3
   3 -13   4 9365.32 422.160  12
   3  13   4 9013.85 439.836   4
   3  13   4 8896.05 400.265   2
   3 -13   4 9694.99 452.209   3
   3 -13   5 679.583 117.998  12
   3 -13   5 547.342 127.074   3
   3  13   5 729.108 122.252   2
   3  13   5 688.753 139.100   4
   3 -13   6 1525.23 168.364  12
   3 -13   6 1602.04 193.160   3
   3  13   6 1879.96 187.451   2
   3  13   6 1802.86 192.316   4
   3  13   7 4447.95 302.371   4
   3 -13   7 3779.00 259.128  12
   3  13   7 3984.12 273.271   2
   3 -13   7 3991.38 296.522   3
   3  13   8 3851.76 284.721   4
   3 -13   8 3194.64 235.965  12
   3  13   8 2968.89 239.645   2
   3 -13   8 3332.93 282.230   3
   3  13   9 2478.20 232.873   4
   3 -13   9 2453.02 205.332  12
   3  13   9 2232.98 214.013   2
   3 -13   9 3011.65 276.048   3
   3  13  10 3568.21 288.264   4
   3  13  10 3106.93 253.801   2
   3 -13  10 2774.50 273.925   3
   3  13  11 940.549 141.865   2
   3 -15 -10 805.931 147.579  12
   3 -15  -9 5849.45 381.182  12
   3 -15  -9 6792.31 495.533   7
   3  15  -8-2.20723 62.5007   2
   3 -15  -8 26.1331 75.6808  12
   3 -15  -8 61.8701 108.371   7
   3  15  -7 113.700 75.9839   2
   3 -15  -7-1.70768 97.5137  12
   3 -15  -7-4.11120 89.0457   7
   3  15  -6 12977.2 536.554   2
   3 -15  -6 13599.4 585.382  12
   3 -15  -6 14842.4 719.347   7
   3  15  -5 14180.4 552.344   2
   3 -15  -5 14176.2 594.492  12
   3 -15  -5 14826.9 714.176   7
   3  15  -4 287.870 97.0886   2
   3 -15  -4 345.340 102.850  12
   3 -15  -4 749.963 180.949   7
   3  15  -3 3321.48 252.564   2
   3 -15  -3 3496.85 280.935  12
   3 -15  -3 3680.27 354.713   7
   3  15  -2 2195.33 206.807   2
   3 -15  -2 2019.98 217.465  12
   3 -15  -2 2104.23 273.691   7
   3 -15  -1 2703.66 241.968   3
   3  15  -1 2285.90 213.350   2
   3 -15  -1 2252.56 220.656  12
   3 -15  -1 1900.89 255.189   7
   3  15   0 11948.8 485.269   2
   3 -15   0 12182.9 521.983   3
   3 -15   0 11613.6 507.105  12
   3 -15   0 11829.9 634.237   7
   3 -15   1 4433.20 304.651  12
   3  15   1 4326.38 281.682   2
   3 -15   1 4358.41 303.983   3
   3 -15   2 1497.04 180.934  12
   3  15   2 1811.87 185.979   2
   3 -15   2 1847.14 215.685   3
   3 -15   3 11521.1 498.934  12
   3  15   3 11425.9 520.991   4
   3  15   3 11726.4 485.194   2
   3 -15   3 13085.5 546.415   3
   3 -15   4 12046.8 504.731  12
   3  15   4 12665.2 548.417   4
   3  15   4 11924.1 486.547   2
   3 -15   4 11053.8 518.356   3
   3 -15   5 4449.71 300.002  12
   3  15   5 4682.34 330.400   4
   3  15   5 4519.44 295.472   2
   3 -15   5 4482.31 326.193   3
   3  15   6 12096.3 542.077   4
   3 -15   6 11773.5 497.254  12
   3  15   6 11971.9 499.173   2
   3 -15   6 13180.2 572.149   3
   3  15   7 6253.34 379.285   4
   3 -15   7 6290.43 352.430  12
   3  15   7 6145.67 348.833   2
   3 -15   7 7164.23 416.864   3
   3  15   8 5323.24 355.076   4
   3  15   8 5039.40 321.557   2
   3 -15   8 4802.61 349.534   3
   3 -15   8 5061.22 315.642  12
   3  15   9 5745.73 345.345   2
   3  15  10 1511.34 182.965   2
   3 -17  -6 5968.56 477.433   7
   3  17  -5 17563.8 653.837   2
   3 -17  -5 17748.2 681.610  12
   3 -17  -5 17708.0 839.570   7
   3  17  -4 1094.09 157.405   2
   3 -17  -4 985.375 165.292  12
   3 -17  -4 972.894 200.828   7
   3  17  -3 2873.39 247.994   2
   3 -17  -3 2718.67 252.173  12
   3 -17  -3 2983.18 338.496   7
   3  17  -2 8150.03 418.573   2
   3 -17  -2 8797.92 457.108  12
   3 -17  -2 8797.58 580.406   7
   3  17  -1 2056.18 211.177   2
   3 -17  -1 2033.31 230.621   3
   3 -17  -1 1911.97 209.856  12
   3  17   0 4513.96 300.468   2
   3 -17   0 4975.73 346.722   3
   3 -17   0 4967.82 334.265  12
   3  17   1 30.3682 69.8938   2
   3 -17   1 79.5822 86.6048   3
   3 -17   1 229.890 99.5971  12
   3  17   2 3336.54 289.101   4
   3  17   2 3784.54 269.870   2
   3 -17   2 3508.43 289.364   3
   3 -17   2 3046.06 261.987  12
   3  17   3 802.839 144.649   2
   3  17   3 828.068 147.105   4
   3 -17   3 968.695 181.274   3
   3 -17   3 908.165 152.214  12
   3  17   4 1086.79 160.562   2
   3  17   4 1095.41 179.229   4
   3 -17   4 1202.51 194.946   3
   3 -17   4 1076.62 159.517  12
   3  17   5 12181.4 517.705   2
   3 -17   5 13674.7 605.263   3
   3 -17   5 12127.9 528.801  12
   3  17   6 684.063 135.267   2
   3 -17   6 727.716 139.138  12
   3  17   7 17859.1 644.178   2
   3 -17   7 17841.4 652.580  12
   4   0 -11 445.746 99.2771   2
   4   0 -11 481.602 196.541  12
   4   0 -10 4101.97 243.530   2
   4   0 -10 3174.08 347.843  12
   4   0  -9-48.3017 48.2868   2
   4   0  -9 33.6636 105.919  12
   4   0  -8 1075.58 129.640   2
   4   0  -8 1240.59 226.325  12
   4   0  -7 205.727 73.9395   2
   4   0  -7 205.056 137.414  12
   4   0  -6 6931.03 312.279   2
   4   0  -6 7346.33 482.714  12
   4   0  -5 232.251 77.5061   2
   4   0  -5 210.518 130.637  12
   4   0  -4 2604.79 186.467   2
   4   0  -4 2337.81 266.387  12
   4   0  -3 198.990 62.9240   2
   4   0  -3 14.3667 102.036  12
   4   0  -2 12295.6 435.682   2
   4   0  -2 11302.3 567.875  12
   4   0  -2 12018.3 457.377   7
   4   0  -1 505.011 115.866   2
   4   0  -1 474.460 155.526  12
   4   0  -1 207.876 74.7749   7
   4   0   0 22022.3 629.641   2
   4   0   0 22072.1 778.418  12
   4   0   0 22841.8 628.394   7
   4   0   1 656.150 145.937  12
   4   0   1 317.220 80.4251   2
   4   0   2 8968.47 450.873  12
   4   0   2 9343.16 390.947   2
   4   0   2 8908.76 339.595   4
   4   0   3 37.1897 69.6724  12
   4   0   3 120.681 73.4733   2
   4   0   3 72.0588 46.4173   4
   4   0   4 12066.0 394.754   4
   4   0   4 11166.6 448.505   2
   4   0   4 12446.5 411.851   3
   4   0   4 12242.9 505.321  12
   4   0   5 17.6643 56.0390   3
   4   0   5 185.607 86.2408   2
   4   0   5 364.718 72.7713   4
   4   0   5 186.260 89.7371  12
   4   0   6 10370.4 443.394   2
   4   0   6 10301.7 402.389   3
   4   0   6 10250.7 429.504  12
   4   0   7-33.0797 64.5295   3
   4   0   7-0.99196 68.5529   2
   4   0   8 89.2925 74.8141   3
   4   0   8 176.534 88.9744   2
   4   0   9 18.1527 68.6735   3
   4   0   9 123.569 75.3216   2
   4   0  10 18158.7 631.895   3
   4   0  11 227.563 89.8841   3
   4   0  12 3954.30 299.329   3
   4   0  13-41.3333 94.9732   3
   4   2 -13 5878.63 325.446   2
   4   2 -12 1506.18 162.900   2
   4   2 -11 1522.09 162.150   2
   4  -2 -11 1821.46 276.626  12
   4   2 -11 1425.62 248.668  12
   4   2 -10 1280.62 150.671   2
   4  -2 -10 998.022 196.125  12
   4   2 -10 809.857 209.522  12
   4  -2  -9 53.6285 49.5810   2
   4   2  -9 36.8500 51.6230   2
   4  -2  -9 63.5401 114.660  12
   4   2  -9 185.125 98.3799  12
   4  -2  -8 6177.72 282.270   2
   4   2  -8 6121.56 312.683   2
   4  -2  -8 5680.59 440.276  12
   4   2  -8 5702.84 442.934  12
   4  -2  -7 1745.44 150.319   2
   4   2  -7 1831.76 173.073   2
   4  -2  -7 1691.12 251.487  12
   4   2  -7 1897.66 253.955  12
   4  -2  -6 16846.2 498.641   2
   4   2  -6 16491.9 532.642   2
   4  -2  -6 15416.4 702.823  12
   4   2  -6 16029.8 727.301  12
   4  -2  -5 9151.64 354.213   2
   4   2  -5 8895.06 375.552   2
   4  -2  -5 10035.1 542.998  12
   4   2  -5 8715.21 522.079  12
   4  -2  -5 9066.74 443.233   7
   4  -2  -4 4407.65 237.537   2
   4   2  -4 4638.03 260.824   2
   4  -2  -4 4435.28 358.520  12
   4   2  -4 4509.13 368.735  12
   4  -2  -4 4196.85 287.057   7
   4  -2  -3 188.248 63.5934   2
   4   2  -3 296.721 79.1757   2
   4  -2  -3 330.882 120.297  12
   4   2  -3 371.883 140.874  12
   4  -2  -3 192.403 83.8186   7
   4  -2  -2 11741.2 420.042   2
   4   2  -2 12594.5 453.253   2
   4  -2  -2 12439.1 578.630  12
   4   2  -2 12408.7 596.472  12
   4  -2  -2 12337.3 484.582   7
   4  -2  -1 6700.19 305.433   2
   4   2  -1 6459.10 317.117   2
   4  -2  -1 6409.16 407.192  12
   4   2  -1 6665.99 418.981  12
   4  -2  -1 6090.53 318.116   7
   4  -2   0 8701.19 357.723   2
   4   2   0 8705.31 372.306   2
   4  -2   0 8910.42 469.061  12
   4   2   0 8041.19 454.672  12
   4  -2   0 8859.00 377.412   7
   4  -2   1 11209.3 415.486   2
   4   2   1 11154.0 434.656   2
   4  -2   1 11396.6 521.140  12
   4   2   1 11395.3 532.539  12
   4  -2   1 10587.6 408.905   7
   4  -2   2 2113.91 218.359  12
   4   2   2 1791.48 207.338  12
   4  -2   2 1852.98 169.576   2
   4   2   2 1777.17 169.933   2
   4   2   2 2149.31 170.192   4
   4  -2   2 2047.84 153.768   3
   4  -2   3 1568.70 193.513  12
   4   2   3 1650.59 196.920  12
   4  -2   3 1908.32 173.553   2
   4   2   3 1601.21 168.715   2
   4   2   3 1671.39 157.097   4
   4  -2   3 1621.95 146.995   3
   4   2   4 3591.17 221.091   4
   4  -2   4 3255.17 256.556  12
   4   2   4 3438.11 261.878  12
   4  -2   4 3132.35 222.511   2
   4   2   4 3434.26 244.784   2
   4  -2   4 3513.40 219.919   3
   4   2   5 2528.82 184.455   4
   4  -2   5 2301.33 211.449  12
   4   2   5 2638.76 222.961  12
   4  -2   5 2420.10 204.583   2
   4   2   5 2299.52 209.083   2
   4  -2   5 2257.21 187.767   3
   4   2   6 4426.62 241.738   4
   4  -2   6 3960.19 263.564  12
   4  -2   6 4311.61 275.720   2
   4   2   6 4377.40 281.099   2
   4  -2   6 4349.68 261.522   3
   4  -2   7 2259.58 205.375   2
   4   2   7 2218.93 208.508   2
   4  -2   7 2620.24 214.540   3
   4   2   7 2410.05 192.575   3
   4   2   7 2592.20 188.807   4
   4  -2   8 1214.66 155.853   3
   4   2   8 1456.94 159.005   3
   4   2   8 1098.33 157.466   2
   4   2   8 1437.39 140.811   4
   4  -2   9 630.428 131.761   3
   4   2   9 481.864 115.006   3
   4   2   9 602.620 126.883   2
   4   2  10 2839.52 254.915   2
   4  -2  10 3237.83 263.062   3
   4   2  10 3026.25 243.122   3
   4  -2  11 1613.57 203.794   3
   4   2  11 1717.95 191.193   3
   4  -2  12 868.328 160.385   3
   4   2  12 437.033 114.811   3
   4   2  13 4010.08 310.078   3
   4   4 -13 998.043 152.865   2
   4   4 -12 10671.6 463.326   2
   4   4 -11 432.893 98.1886   2
   4   4 -10 1252.65 150.333   2
   4  -4 -10 1279.50 223.666  12
   4  -4 -10 1340.86 206.986   7
   4   4  -9 2067.65 193.572   2
   4  -4  -9 2008.98 265.990  12
   4  -4  -9 1774.84 222.333   7
   4   4  -8 2543.64 210.326   2
   4  -4  -8 2499.16 289.492  12
   4  -4  -8 2334.51 250.876   7
   4   4  -7 203.934 64.3029   2
   4  -4  -7 357.082 145.764  12
   4  -4  -7 179.632 103.240   7
   4  -4  -6 3975.56 211.510   2
   4   4  -6 3961.63 252.307   2
   4  -4  -6 3863.09 343.350  12
   4  -4  -6 3935.54 302.854   7
   4  -4  -5 1122.30 122.508   2
   4   4  -5 992.892 135.412   2
   4  -4  -5 1088.58 194.829  12
   4  -4  -5 937.964 155.898   7
   4  -4  -4 5425.86 253.808   2
   4   4  -4 5105.78 286.186   2
   4  -4  -4 4989.89 379.850  12
   4  -4  -4 4630.82 314.628   7
   4  -4  -3 6339.49 280.239   2
   4   4  -3 6031.42 314.417   2
   4  -4  -3 6187.79 412.757  12
   4  -4  -3 6439.96 360.003   7
   4  -4  -2 1443.24 133.288   2
   4   4  -2 1493.59 158.045   2
   4  -4  -2 1502.41 211.533  12
   4  -4  -2 1434.21 165.298   7
   4  -4  -1 509.707 90.7327   2
   4   4  -1 469.663 97.9685   2
   4  -4  -1 317.611 107.963  12
   4   4  -1 403.310 133.188  12
   4  -4  -1 470.367 104.036   7
   4  -4   0 3006.53 198.635   2
   4   4   0 2619.54 208.975   2
   4  -4   0 2984.13 186.564   3
   4  -4   0 2715.39 257.295  12
   4   4   0 2600.66 264.109  12
   4  -4   0 2992.09 227.306   7
   4  -4   1 1751.74 154.906   2
   4   4   1 1862.81 174.641   2
   4  -4   1 2207.56 166.312   3
   4  -4   1 2027.05 219.334  12
   4   4   1 2031.48 233.295  12
   4  -4   1 2478.80 201.487   7
   4  -4   2 2346.28 226.814  12
   4   4   2 2206.58 233.247  12
   4  -4   2 2358.64 184.720   2
   4   4   2 2315.85 200.041   2
   4  -4   2 2478.42 185.084   3
   4  -4   3 1728.67 194.729  12
   4   4   3 1453.78 189.118  12
   4  -4   3 1542.20 150.539   3
   4  -4   3 1466.00 150.064   2
   4   4   3 1453.11 160.874   4
   4   4   3 1267.38 152.536   2
   4  -4   4 9025.33 428.756  12
   4   4   4 8590.63 428.090  12
   4  -4   4 8764.20 382.860   2
   4   4   4 8673.72 400.140   2
   4   4   4 8881.80 387.163   4
   4  -4   4 9256.04 380.441   3
   4  -4   5 809.759 135.096  12
   4   4   5 887.757 140.514  12
   4  -4   5 909.930 130.906   3
   4  -4   5 759.385 124.179   2
   4   4   5 1063.28 147.777   2
   4   4   5 835.914 123.614   4
   4  -4   6 1376.64 160.859  12
   4  -4   6 1604.57 175.776   3
   4   4   6 1726.99 187.781   2
   4   4   6 1411.91 151.626   4
   4  -4   7 958.481 136.267  12
   4  -4   7 1028.27 147.702   3
   4   4   7 817.962 136.098   2
   4   4   7 986.397 131.270   4
   4  -4   8 525.791 108.992   3
   4   4   8 433.172 118.730   2
   4   4   8 573.784 107.845   4
   4  -4   9 385.909 112.394   3
   4   4   9 356.310 110.881   2
   4   4   9 477.837 102.112   4
   4  -4  10 4490.11 311.822   3
   4   4  10 4234.49 267.051   4
   4  -4  11 4514.24 326.703   3
   4   4  11 4564.36 282.797   4
   4  -4  12 8349.36 456.928   3
   4   4  12 8055.19 415.257   3
   4   6 -12 6897.47 386.332   2
   4   6 -11 6930.86 375.662   2
   4  -6 -11 6881.36 475.720   7
   4   6 -10 3547.59 265.238   2
   4  -6 -10 3038.88 329.995  12
   4  -6 -10 3691.96 333.194   7
   4   6  -9 2124.21 202.565   2
   4  -6  -9 1831.99 244.102  12
   4  -6  -9 2390.61 264.575   7
   4   6  -8 2828.41 230.811   2
   4  -6  -8 3192.36 333.974  12
   4  -6  -8 2536.64 273.870   7
   4   6  -7 7575.02 374.277   2
   4  -6  -7 7787.99 495.535  12
   4  -6  -7 7114.56 439.531   7
   4   6  -6 6306.51 336.242   2
   4  -6  -6 6214.99 424.462  12
   4  -6  -6 5964.09 387.539   7
   4   6  -5 11543.4 467.957   2
   4  -6  -5 12253.0 598.455  12
   4  -6  -5 11656.3 535.579   7
   4   6  -4 4612.16 284.228   2
   4  -6  -4 4731.31 362.712  12
   4  -6  -4 4638.60 329.128   7
   4  -6  -3 333.081 77.5857   2
   4   6  -3 249.118 92.5536   2
   4  -6  -3 173.547 115.302  12
   4  -6  -3 224.296 98.3037   7
   4  -6  -2 111.955 51.1438   2
   4   6  -2 339.759 92.5548   2
   4  -6  -2 308.477 123.478  12
   4  -6  -2 48.3314 72.2373   7
   4  -6  -1 5204.43 253.653   2
   4   6  -1 5334.21 304.775   2
   4  -6  -1 6021.21 281.139   3
   4  -6  -1 4840.97 353.688  12
   4  -6  -1 4951.07 319.791   7
   4  -6   0 6524.97 290.279   2
   4   6   0 5928.01 322.098   2
   4  -6   0 6343.30 298.507   3
   4  -6   0 5867.05 373.871  12
   4  -6   0 6693.32 366.924   7
   4  -6   1 6606.54 302.325   2
   4   6   1 6155.25 332.714   2
   4  -6   1 6640.44 312.328   3
   4  -6   1 6090.33 379.004  12
   4  -6   1 6430.55 354.110   7
   4  -6   2 6685.30 313.032   2
   4   6   2 5986.44 334.003   2
   4  -6   2 7683.84 343.288   3
   4  -6   2 6731.89 387.672  12
   4   6   2 5802.53 382.772  12
   4  -6   2 7310.16 375.110   7
   4  -6   3 4940.99 325.648  12
   4   6   3 4566.08 327.542  12
   4   6   3 5525.58 318.250   2
   4   6   3 5147.76 307.459   4
   4  -6   3 5407.76 294.142   3
   4  -6   4 5263.62 327.268  12
   4   6   4 5815.37 354.206  12
   4   6   4 6028.19 338.501   2
   4   6   4 5589.43 323.048   4
   4  -6   4 5756.62 314.757   3
   4   6   5 5251.58 308.102   4
   4  -6   5 4906.86 312.401  12
   4   6   5 5439.13 325.037   2
   4  -6   5 5937.95 323.382   3
   4   6   6 10582.8 444.923   4
   4  -6   6 10921.0 456.911  12
   4   6   6 10452.3 466.747   2
   4  -6   6 11475.3 473.624   3
   4   6   7 15481.8 553.513   4
   4  -6   7 16405.7 564.385  12
   4   6   7 15471.5 587.853   2
   4  -6   7 16342.3 596.305   3
   4  -6   8 1074.18 163.682   3
   4   6   8 926.646 144.123   2
   4   6   8 1010.38 142.909   4
   4  -6   9 1149.47 166.658   3
   4   6   9 1068.30 146.538   4
   4  -6  10 5626.14 363.603   3
   4   6  10 5536.33 324.477   4
   4  -6  11 3048.88 280.016   3
   4   6  11 3111.89 248.691   4
   4   6  12 2504.91 234.134   4
   4   8 -10 3417.28 270.054   2
   4  -8 -10 3291.08 332.294   7
   4   8  -9 8011.39 407.599   2
   4  -8  -9 8153.90 504.204   7
   4   8  -8 1889.27 198.430   2
   4  -8  -8 1923.54 263.774  12
   4  -8  -8 1671.15 235.406   7
   4   8  -7 4032.46 282.482   2
   4  -8  -7 4194.37 363.887  12
   4  -8  -7 4401.48 355.104   7
   4   8  -6 7730.48 394.572   2
   4  -8  -6 8082.00 481.932  12
   4  -8  -6 7983.24 473.290   7
   4   8  -5 2737.12 232.884   2
   4  -8  -5 2753.32 289.106  12
   4  -8  -5 2718.40 270.417   7
   4   8  -4 199.486 85.3266   2
   4  -8  -4 400.179 125.819  12
   4  -8  -4 150.791 87.5377   7
   4   8  -3 213.014 82.4566   2
   4  -8  -3 187.333 97.9864  12
   4  -8  -3 174.985 89.1156   7
   4   8  -2 3699.51 260.608   2
   4  -8  -2 3676.17 309.473  12
   4  -8  -2 4113.59 316.731   7
   4   8  -1 6805.85 358.223   2
   4  -8  -1 7052.44 335.540   3
   4  -8  -1 6022.63 393.281  12
   4  -8  -1 6997.37 410.206   7
   4   8   0 8570.78 411.150   2
   4  -8   0 9797.68 404.116   3
   4  -8   0 9016.67 479.587  12
   4  -8   0 8837.68 459.165   7
   4   8   1 2253.24 208.640   2
   4  -8   1 2426.41 203.927   3
   4  -8   1 2564.80 248.520  12
   4  -8   1 2413.26 235.960   7
   4  -8   2 1627.41 172.970   3
   4   8   2 1505.55 173.078   2
   4  -8   2 1768.30 205.431  12
   4  -8   2 1909.34 213.117   7
   4  -8   3 2225.21 221.332  12
   4   8   3 2144.57 205.171   2
   4   8   3 2310.14 214.877   4
   4  -8   3 3297.38 243.749   3
   4  -8   4 5706.93 346.541  12
   4   8   4 5561.64 332.487   2
   4   8   4 5071.15 324.838   4
   4  -8   4 5403.76 318.133   3
   4  -8   5 818.239 140.288  12
   4  -8   5 1365.05 176.352   3
   4   8   5 1020.87 158.484   2
   4   8   5 1189.35 163.145   4
   4   8   6 5302.75 325.925   4
   4  -8   6 5242.11 317.770  12
   4   8   6 5335.65 337.014   2
   4  -8   6 5057.07 324.616   3
   4   8   7 8565.59 417.204   4
   4  -8   7 8703.37 404.403  12
   4   8   7 7869.82 417.028   2
   4  -8   7 8456.85 431.518   3
   4  -8   8 4429.42 317.497   3
   4   8   8 4248.96 290.735   4
   4  -8   9 2925.85 271.115   3
   4   8   9 3222.24 258.591   4
   4  -8  10 538.620 134.965   3
   4   8  10 396.752 114.117   4
   4 -10  -8 255.407 117.441   7
   4  10  -7 3081.99 262.461   2
   4 -10  -7 3344.61 328.361   7
   4  10  -6 19387.5 667.464   2
   4 -10  -6 18567.6 767.956  12
   4 -10  -6 18679.8 789.714   7
   4  10  -5 3201.44 254.878   2
   4 -10  -5 2879.89 293.147  12
   4 -10  -5 3068.28 301.874   7
   4  10  -4 984.608 152.421   2
   4 -10  -4 691.800 169.567  12
   4 -10  -4 630.551 141.487   7
   4  10  -3 3612.70 269.450   2
   4 -10  -3 3484.76 306.749  12
   4 -10  -3 4116.61 339.971   7
   4  10  -2 5042.84 318.490   2
   4 -10  -2 5013.36 365.207  12
   4 -10  -2 4662.15 361.526   7
   4  10  -1 2832.85 239.674   2
   4 -10  -1 3532.23 249.545   3
   4 -10  -1 3676.67 304.010  12
   4 -10  -1 3606.00 314.752   7
   4  10   0 1396.96 170.969   2
   4 -10   0 1521.41 175.444   3
   4 -10   0 1466.39 202.353  12
   4 -10   0 1483.02 208.238   7
   4  10   1 2801.95 240.405   2
   4 -10   1 2777.72 229.509   3
   4 -10   1 2885.94 266.443  12
   4 -10   1 2897.87 282.447   7
   4  10   2 1321.19 168.959   2
   4 -10   2 1688.26 193.909   3
   4 -10   2 1700.06 208.083  12
   4 -10   2 1417.08 201.412   7
   4 -10   3 4312.52 311.310  12
   4  10   3 3881.98 282.323   2
   4  10   3 4036.66 301.137   4
   4 -10   3 4372.89 297.170   3
   4 -10   4 4569.07 319.260  12
   4  10   4 4313.44 302.648   2
   4  10   4 4804.27 326.333   4
   4 -10   4 4728.83 318.238   3
   4 -10   5 1922.46 213.357  12
   4 -10   5 1794.46 214.996   3
   4  10   5 2100.67 223.432   4
   4  10   5 1727.97 196.497   2
   4  10   6 12380.7 538.996   4
   4 -10   6 12237.2 517.246  12
   4 -10   6 13269.2 558.964   3
   4 -10   7 235.072 85.6515  12
   4 -10   7 346.750 144.907   3
   4  10   7 198.603 84.8727   4
   4 -10   8 4395.29 328.148   3
   4  10   8 5384.45 343.487   4
   4 -12  -6 796.141 183.693   7
   4 -12  -5 2318.66 283.088   7
   4 -12  -4 3623.04 350.085   7
   4 -12  -3 581.737 147.783   7
   4 -12  -2 4746.17 354.711  12
   4 -12  -2 4427.73 370.003   7
   4  12  -1 944.445 152.715   2
   4 -12  -1 566.113 119.201   3
   4 -12  -1 901.189 170.212  12
   4 -12  -1 824.161 176.217   7
   4  12   0 5010.96 329.600   2
   4 -12   0 5489.54 340.841   3
   4 -12   0 5544.31 376.906  12
   4 -12   0 5085.28 404.280   7
   4 -12   1 11460.4 506.852   3
   4 -12   1 10875.8 533.118  12
   4 -12   1 12390.6 637.757   7
   4  12   2 1494.13 192.443   4
   4 -12   2 1972.07 214.837   3
   4 -12   2 1451.06 200.144  12
   4  12   3 4969.08 350.918   4
   4 -12   3 5242.32 344.966   3
   4 -12   3 4523.17 336.127  12
   4  12   4 3031.78 274.311   4
   4 -12   4 3178.73 270.974   3
   4 -12   4 3299.29 273.724  12
   4 -12   5 1146.26 171.156   3
   4 -12   5 597.370 132.635  12
   4 -12   6 1798.31 227.930   3
   4 -12   6 1500.37 186.930  12
   4 -12   7 5458.62 347.120  12
   4 -14  -3 8960.01 579.506   7
   4 -14  -2 2052.85 276.154   7
   4 -14  -1 1037.86 212.782   7
   4 -14   0 3738.25 298.898   3
   4 -14   0 3229.78 354.459   7
   4 -14   1 2724.59 258.645   3
   4 -14   2 330.111 129.247   3
   4 -14   3 1200.29 198.307   3
   5   1  -4 228.251 104.847   2
   5   1  -3 1446.76 177.625   2
   5  -1  -2 3672.10 263.484   2
   5  -1  -1 477.932 118.469   2
   5  -1   0 1807.84 191.846   2
   5  -1   1 780.017 151.261   2
   5  -1   1 944.662 201.064  12
   5   1   1 1126.47 206.574  12
   0   0   0    0.00    0.00   0

TITL rwJ14new in Cc
REM Cc (#9 in standard setting)
CELL 0.71073   3.421872  16.968933  15.198823  90.0000  91.5902  90.0000
ZERR    4.00   0.000075   0.000353   0.000361   0.0000   0.0021   0.0000
LATT -7
SYMM  x,-y, z+1/2
SFAC C H N O Ce
UNIT 80.00 80.00 8.00 8.00 4.00
REM  CrysAlisPro recorded range (K): Min=150.0; max=150.1; aver:150.0
TEMP -123
TREF
HKLF 4
END
;
_shelx_hkl_checksum              31538
_olex2_submission_special_instructions 'No special instructions were received'
_oxdiff_exptl_absorpt_empirical_details
;
Empirical correction (ABSPACK) includes:
- Absorption correction using spherical harmonics
- Frame scaling
;
_oxdiff_exptl_absorpt_empirical_full_max 1.510
_oxdiff_exptl_absorpt_empirical_full_min 0.703
loop_
_space_group_symop_operation_xyz
'x, y, z'
'x, -y, z+1/2'
'x+1/2, y+1/2, z'
'x+1/2, -y+1/2, z+1/2'
loop_
_atom_site_label
_atom_site_type_symbol
_atom_site_fract_x
_atom_site_fract_y
_atom_site_fract_z
_atom_site_U_iso_or_equiv
_atom_site_adp_type
_atom_site_occupancy
_atom_site_site_symmetry_order
_atom_site_calc_flag
_atom_site_refinement_flags_posn
_atom_site_refinement_flags_adp
_atom_site_refinement_flags_occupancy
_atom_site_disorder_assembly
_atom_site_disorder_group
Na3 Na -0.0049(2) 0.31009(5) 0.40109(5) 0.01138(15) Uani 1 1 d . . . . .
Na2 Na 0.3767(2) 0.52206(4) 0.25754(6) 0.01298(16) Uani 1 1 d . . . . .
Na4 Na 0.9523(2) 0.69834(4) 0.20894(5) 0.01101(15) Uani 1 1 d . . . . .
O9A O 0.4121(4) 0.37790(8) 0.63688(9) 0.0116(2) Uani 1 1 d . . . . .
O1B O 1.0115(4) 0.71156(8) 0.38835(9) 0.0121(3) Uani 1 1 d . . . . .
O8A O 0.9487(5) 0.59058(8) 0.78578(9) 0.0158(3) Uani 1 1 d . . . . .
O1A O 0.8891(4) 0.59851(8) 0.31825(9) 0.0119(3) Uani 1 1 d . . . . .
O8B O 0.9659(4) 0.70940(8) 0.72351(9) 0.0116(2) Uani 1 1 d . . . . .
O9B O 0.4978(4) 0.36220(8) 0.49229(10) 0.0127(3) Uani 1 1 d . . . . .
N5 N 0.7245(4) 0.52351(9) 0.63276(10) 0.0090(3) Uani 1 1 d . . . . .
C1 C 0.9233(5) 0.63997(10) 0.38696(11) 0.0077(3) Uani 1 1 d . . . . .
C8 C 0.9261(5) 0.63608(10) 0.72074(11) 0.0088(3) Uani 1 1 d . . . . .
C9 C 0.5126(5) 0.40115(10) 0.56218(12) 0.0087(3) Uani 1 1 d . . . . .
C2 C 0.8513(5) 0.59916(10) 0.47366(12) 0.0081(3) Uani 1 1 d . . . . .
C4 C 0.6647(5) 0.48555(10) 0.55633(12) 0.0083(3) Uani 1 1 d . . . . .
C3 C 0.7355(5) 0.52059(10) 0.47564(12) 0.0089(3) Uani 1 1 d . . . . .
H3 H 0.705297 0.491311 0.422610 0.011 Uiso 1 1 calc R U . . .
C7 C 0.9026(5) 0.63964(10) 0.55314(12) 0.0083(3) Uani 1 1 d . . . . .
H7 H 0.974576 0.693712 0.554003 0.010 Uiso 1 1 calc R U . . .
C6 C 0.8456(5) 0.59867(10) 0.63104(11) 0.0083(3) Uani 1 1 d . . . . .
loop_
_atom_site_aniso_label
_atom_site_aniso_U_11
_atom_site_aniso_U_22
_atom_site_aniso_U_33
_atom_site_aniso_U_23
_atom_site_aniso_U_13
_atom_site_aniso_U_12
Na3 0.0134(3) 0.0091(3) 0.0115(3) -0.0004(3) -0.0002(3) -0.0008(3)
Na2 0.0161(4) 0.0109(3) 0.0120(3) -0.0032(3) 0.0031(3) -0.0010(3)
Na4 0.0128(3) 0.0076(3) 0.0127(3) 0.0001(3) 0.0017(3) 0.0010(3)
O9A 0.0147(6) 0.0094(6) 0.0108(6) 0.0017(5) 0.0016(4) -0.0017(5)
O1B 0.0174(6) 0.0072(5) 0.0117(6) 0.0004(5) 0.0011(5) -0.0030(5)
O8A 0.0313(8) 0.0083(6) 0.0076(6) 0.0007(4) -0.0009(5) 0.0004(5)
O1A 0.0181(6) 0.0100(6) 0.0078(6) -0.0016(5) 0.0011(5) -0.0010(5)
O8B 0.0153(6) 0.0074(5) 0.0122(6) -0.0019(5) 0.0001(5) -0.0020(5)
O9B 0.0171(6) 0.0090(5) 0.0120(6) -0.0039(5) 0.0012(5) -0.0021(5)
N5 0.0103(7) 0.0079(6) 0.0090(6) 0.0002(5) 0.0005(5) -0.0003(5)
C1 0.0082(7) 0.0069(7) 0.0083(7) 0.0013(6) 0.0009(5) -0.0001(5)
C8 0.0087(7) 0.0089(7) 0.0088(8) -0.0013(6) 0.0007(6) -0.0002(5)
C9 0.0079(7) 0.0066(6) 0.0117(8) 0.0000(6) -0.0003(5) -0.0005(5)
C2 0.0089(7) 0.0081(7) 0.0075(7) 0.0009(5) 0.0009(5) 0.0001(5)
C4 0.0089(8) 0.0068(7) 0.0095(7) -0.0002(6) 0.0009(6) -0.0004(5)
C3 0.0103(7) 0.0082(7) 0.0083(7) -0.0001(5) 0.0002(6) -0.0004(5)
C7 0.0099(7) 0.0065(6) 0.0084(7) -0.0001(6) 0.0007(6) -0.0011(5)
C6 0.0099(7) 0.0076(7) 0.0074(7) -0.0008(5) 0.0001(5) -0.0005(5)
loop_
_atom_type_symbol
_atom_type_description
_atom_type_scat_dispersion_real
_atom_type_scat_dispersion_imag
_atom_type_scat_source
C C 0.0033 0.0016 'International Tables Vol C Tables 4.2.6.8 and 6.1.1.4'
H H 0.0000 0.0000 'International Tables Vol C Tables 4.2.6.8 and 6.1.1.4'
N N 0.0061 0.0033 'International Tables Vol C Tables 4.2.6.8 and 6.1.1.4'
Na Na 0.0362 0.0249 'International Tables Vol C Tables 4.2.6.8 and 6.1.1.4'
O O 0.0106 0.0060 'International Tables Vol C Tables 4.2.6.8 and 6.1.1.4'
loop_
_geom_angle_atom_site_label_1
_geom_angle_atom_site_label_2
_geom_angle_atom_site_label_3
_geom_angle
_geom_angle_site_symmetry_1
_geom_angle_site_symmetry_3
_geom_angle_publ_flag
Na3 Na3 Na3 180.0 1_655 1_455 ?
Na3 Na3 Na4 62.968(15) 1_455 3_345 ?
Na3 Na3 Na4 117.032(15) 1_655 3_345 ?
Na3 Na3 Na4 64.698(15) 1_655 3_445 ?
Na3 Na3 Na4 115.303(15) 1_455 3_445 ?
Na4 Na3 Na4 52.335(13) 3_445 3_345 ?
O1B Na3 Na3 43.52(4) 3_445 1_655 ?
O1B Na3 Na3 45.58(4) 3_345 1_455 ?
O1B Na3 Na3 134.42(4) 3_345 1_655 ?
O1B Na3 Na3 136.48(4) 3_445 1_455 ?
O1B Na3 Na4 83.54(4) 3_345 3_445 ?
O1B Na3 Na4 45.02(4) 3_445 3_445 ?
O1B Na3 Na4 86.48(4) 3_445 3_345 ?
O1B Na3 Na4 43.64(4) 3_345 3_345 ?
O1B Na3 O1B 90.90(5) 3_345 3_445 ?
O1B Na3 O8A 113.62(6) 3_345 2_464 ?
O1B Na3 O8B 79.97(5) 3_345 2_464 ?
O1B Na3 O8B 81.08(5) 3_445 2_464 ?
O1B Na3 O9B 78.51(5) 3_345 1_455 ?
O1B Na3 C8 100.44(5) 3_445 2_464 ?
O1B Na3 C8 96.17(5) 3_345 2_464 ?
O8A Na3 Na3 87.41(4) 2_464 1_455 ?
O8A Na3 Na3 92.59(4) 2_464 1_655 ?
O8A Na3 Na4 79.32(4) 2_464 3_445 ?
O8A Na3 Na4 77.16(4) 2_464 3_345 ?
O8A Na3 O1B 116.72(6) 2_464 3_445 ?
O8A Na3 O8B 50.90(4) 2_464 2_464 ?
O8A Na3 C8 25.43(5) 2_464 2_464 ?
O8B Na3 Na3 90.53(4) 2_464 1_655 ?
O8B Na3 Na3 89.47(4) 2_464 1_455 ?
O8B Na3 Na4 36.43(3) 2_464 3_345 ?
O8B Na3 Na4 36.05(3) 2_464 3_445 ?
O8B Na3 C8 25.55(4) 2_464 2_464 ?
O9B Na3 Na3 136.63(4) 1_455 1_655 ?
O9B Na3 Na3 43.37(4) 1_455 1_455 ?
O9B Na3 Na3 135.66(4) . 1_455 ?
O9B Na3 Na3 44.34(4) . 1_655 ?
O9B Na3 Na4 161.37(5) . 3_345 ?
O9B Na3 Na4 158.67(4) 1_455 3_445 ?
O9B Na3 Na4 106.33(4) 1_455 3_345 ?
O9B Na3 Na4 109.04(4) . 3_445 ?
O9B Na3 O1B 145.65(6) 1_455 3_445 ?
O9B Na3 O1B 144.66(6) . 3_345 ?
O9B Na3 O1B 77.60(5) . 3_445 ?
O9B Na3 O8A 101.31(6) . 2_464 ?
O9B Na3 O8A 97.35(6) 1_455 2_464 ?
O9B Na3 O8B 127.79(5) 1_455 2_464 ?
O9B Na3 O8B 129.58(6) . 2_464 ?
O9B Na3 O9B 92.29(6) . 1_455 ?
O9B Na3 C8 118.62(6) . 2_464 ?
O9B Na3 C8 113.05(6) 1_455 2_464 ?
C8 Na3 Na3 93.17(4) 2_464 1_655 ?
C8 Na3 Na3 86.83(4) 2_464 1_455 ?
C8 Na3 Na4 57.39(4) 2_464 3_445 ?
C8 Na3 Na4 54.59(4) 2_464 3_345 ?
Na2 Na2 Na2 180.0 1_455 1_655 ?
Na2 Na2 Na4 57.140(17) 1_655 . ?
Na2 Na2 Na4 122.862(17) 1_455 . ?
Na4 Na2 Na2 65.077(18) 1_455 1_455 ?
Na4 Na2 Na2 114.924(18) 1_455 1_655 ?
Na4 Na2 Na4 57.784(17) 1_455 . ?
O9A Na2 Na2 86.06(4) 2_564 1_655 ?
O9A Na2 Na2 93.94(4) 2_564 1_455 ?
O9A Na2 Na4 42.49(4) 2_564 . ?
O9A Na2 Na4 43.37(4) 2_564 1_455 ?
O9A Na2 O8A 122.32(5) 2_564 2_564 ?
O9A Na2 N5 76.19(5) 2_564 2_464 ?
O8A Na2 Na2 134.80(4) 2_564 1_455 ?
O8A Na2 Na2 127.01(4) 2_464 1_655 ?
O8A Na2 Na2 52.99(4) 2_464 1_455 ?
O8A Na2 Na2 45.20(4) 2_564 1_655 ?
O8A Na2 Na4 175.74(5) 2_464 . ?
O8A Na2 Na4 118.06(5) 2_464 1_455 ?
O8A Na2 Na4 102.33(4) 2_564 . ?
O8A Na2 Na4 160.10(4) 2_564 1_455 ?
O8A Na2 O9A 134.23(6) 2_464 2_564 ?
O8A Na2 O8A 81.81(5) 2_464 2_564 ?
O8A Na2 N5 115.66(5) 2_564 2_464 ?
O8A Na2 N5 58.04(5) 2_464 2_464 ?
O1A Na2 Na2 136.78(4) 1_455 1_655 ?
O1A Na2 Na2 42.65(4) . 1_655 ?
O1A Na2 Na2 137.35(4) . 1_455 ?
O1A Na2 Na2 43.22(4) 1_455 1_455 ?
O1A Na2 Na4 44.58(4) 1_455 1_455 ?
O1A Na2 Na4 84.78(4) . 1_455 ?
O1A Na2 Na4 91.16(4) 1_455 . ?
O1A Na2 Na4 39.61(4) . . ?
O1A Na2 O9A 87.84(5) 1_455 2_564 ?
O1A Na2 O9A 82.10(5) . 2_564 ?
O1A Na2 O8A 146.95(6) 1_455 2_564 ?
O1A Na2 O8A 78.64(5) . 2_564 ?
O1A Na2 O8A 143.54(6) . 2_464 ?
O1A Na2 O8A 85.80(6) 1_455 2_464 ?
O1A Na2 O1A 94.13(5) 1_455 . ?
O1A Na2 N5 96.17(6) . 2_564 ?
O1A Na2 N5 150.74(6) 1_455 2_564 ?
O1A Na2 N5 82.23(5) 1_455 2_464 ?
O1A Na2 N5 158.09(6) . 2_464 ?
N5 Na2 Na2 43.21(3) 2_464 1_455 ?
N5 Na2 Na2 58.74(4) 2_564 1_655 ?
N5 Na2 Na2 121.25(4) 2_564 1_455 ?
N5 Na2 Na2 136.78(3) 2_464 1_655 ?
N5 Na2 Na4 79.77(4) 2_564 . ?
N5 Na2 Na4 118.60(4) 2_464 . ?
N5 Na2 Na4 109.32(5) 2_564 1_455 ?
N5 Na2 Na4 77.46(4) 2_464 1_455 ?
N5 Na2 O9A 66.66(5) 2_564 2_564 ?
N5 Na2 O8A 62.22(5) 2_564 2_564 ?
N5 Na2 O8A 101.49(5) 2_564 2_464 ?
N5 Na2 N5 78.04(5) 2_564 2_464 ?
Na2 Na4 Na3 116.68(3) 1_655 3 ?
Na2 Na4 Na3 90.98(2) . 3 ?
Na2 Na4 Na2 57.784(17) 1_655 . ?
Na2 Na4 Na4 114.924(18) 1_655 1_455 ?
Na2 Na4 Na4 65.077(18) 1_655 1_655 ?
Na4 Na4 Na3 64.697(15) 1_455 3 ?
Na4 Na4 Na3 115.303(15) 1_655 3 ?
Na4 Na4 Na2 57.140(17) 1_455 . ?
Na4 Na4 Na2 122.861(17) 1_655 . ?
Na4 Na4 Na4 180.0 1_655 1_455 ?
O9A Na4 Na3 106.12(4) 2_564 3 ?
O9A Na4 Na3 157.31(4) 2_664 3 ?
O9A Na4 Na2 86.89(4) 2_564 1_655 ?
O9A Na4 Na2 90.87(4) 2_664 . ?
O9A Na4 Na2 47.48(4) 2_664 1_655 ?
O9A Na4 Na2 42.89(4) 2_564 . ?
O9A Na4 Na4 133.42(4) 2_664 1_455 ?
O9A Na4 Na4 46.58(4) 2_664 1_655 ?
O9A Na4 Na4 42.99(4) 2_564 1_455 ?
O9A Na4 Na4 137.01(4) 2_564 1_655 ?
O9A Na4 O9A 90.43(5) 2_664 2_564 ?
O9A Na4 O1B 118.74(5) 2_664 . ?
O9A Na4 O1B 121.00(5) 2_564 . ?
O9A Na4 O1A 90.49(5) 2_664 . ?
O9A Na4 O8B 84.37(5) 2_664 4_564 ?
O9A Na4 C1 106.92(5) 2_664 . ?
O9A Na4 C1 100.95(5) 2_564 . ?
O1B Na4 Na3 39.16(3) . 3 ?
O1B Na4 Na2 80.58(4) . 1_655 ?
O1B Na4 Na2 83.77(4) . . ?
O1B Na4 Na4 87.35(3) . 1_655 ?
O1B Na4 Na4 92.65(3) . 1_455 ?
O1B Na4 C1 25.55(4) . . ?
O1A Na4 Na3 77.00(4) . 3 ?
O1A Na4 Na2 38.88(4) . . ?
O1A Na4 Na2 43.13(4) . 1_655 ?
O1A Na4 Na4 96.31(4) . 1_655 ?
O1A Na4 Na4 83.69(4) . 1_455 ?
O1A Na4 O9A 81.76(5) . 2_564 ?
O1A Na4 O1B 50.99(5) . . ?
O1A Na4 C1 25.52(5) . . ?
O8B Na4 Na3 44.06(4) 4_464 3 ?
O8B Na4 Na3 85.37(4) 4_564 3 ?
O8B Na4 Na2 152.18(5) 4_464 1_655 ?
O8B Na4 Na2 98.14(4) 4_464 . ?
O8B Na4 Na2 157.67(5) 4_564 . ?
O8B Na4 Na2 104.54(4) 4_564 1_655 ?
O8B Na4 Na4 137.92(4) 4_564 1_455 ?
O8B Na4 Na4 42.08(4) 4_564 1_655 ?
O8B Na4 Na4 43.42(4) 4_464 1_455 ?
O8B Na4 Na4 136.58(4) 4_464 1_655 ?
O8B Na4 O9A 157.18(6) 4_464 2_664 ?
O8B Na4 O9A 82.26(5) 4_464 2_564 ?
O8B Na4 O9A 158.38(6) 4_564 2_564 ?
O8B Na4 O1B 83.22(5) 4_464 . ?
O8B Na4 O1B 79.51(5) 4_564 . ?
O8B Na4 O1A 119.16(6) 4_564 . ?
O8B Na4 O1A 109.65(6) 4_464 . ?
O8B Na4 O8B 94.49(5) 4_464 4_564 ?
O8B Na4 C1 95.71(5) 4_464 . ?
O8B Na4 C1 100.64(5) 4_564 . ?
C1 Na4 Na3 55.43(4) . 3 ?
C1 Na4 Na2 59.91(4) . . ?
C1 Na4 Na2 61.29(4) . 1_655 ?
C1 Na4 Na4 93.47(4) . 1_655 ?
C1 Na4 Na4 86.53(4) . 1_455 ?
Na4 O9A Na2 94.62(5) 2_565 2_565 ?
Na4 O9A Na2 89.15(5) 2_465 2_565 ?
Na4 O9A Na4 90.43(5) 2_465 2_565 ?
C9 O9A Na2 117.90(11) . 2_565 ?
C9 O9A Na4 110.00(11) . 2_565 ?
C9 O9A Na4 143.31(12) . 2_465 ?
Na3 O1B Na3 90.90(5) 3_655 3 ?
Na3 O1B Na4 95.82(5) 3 . ?
Na3 O1B Na4 99.92(5) 3_655 . ?
C1 O1B Na3 149.13(13) . 3_655 ?
C1 O1B Na3 119.38(12) . 3 ?
C1 O1B Na4 83.83(10) . . ?
Na3 O8A Na2 129.67(7) 2_665 2_665 ?
Na3 O8A Na2 128.56(7) 2_665 2_565 ?
Na2 O8A Na2 81.81(5) 2_665 2_565 ?
C8 O8A Na3 98.20(11) . 2_665 ?
C8 O8A Na2 106.00(12) . 2_565 ?
C8 O8A Na2 111.44(12) . 2_665 ?
Na2 O1A Na2 94.13(5) 1_655 . ?
Na2 O1A Na4 92.29(6) 1_655 . ?
Na2 O1A Na4 101.51(6) . . ?
C1 O1A Na2 126.06(12) . 1_655 ?
C1 O1A Na2 133.14(12) . . ?
C1 O1A Na4 99.92(11) . . ?
Na4 O8B Na3 100.41(6) 4_465 2_665 ?
Na4 O8B Na3 99.88(5) 4_565 2_665 ?
Na4 O8B Na4 94.50(5) 4_565 4_465 ?
C8 O8B Na3 85.04(10) . 2_665 ?
C8 O8B Na4 138.70(13) . 4_565 ?
C8 O8B Na4 125.18(12) . 4_465 ?
Na3 O9B Na3 92.29(6) . 1_655 ?
C9 O9B Na3 135.32(12) . . ?
C9 O9B Na3 132.39(12) . 1_655 ?
Na2 N5 Na2 78.04(5) 2_565 2_665 ?
C4 N5 Na2 117.67(11) . 2_565 ?
C4 N5 Na2 121.27(11) . 2_665 ?
C4 N5 C6 118.70(15) . . ?
C6 N5 Na2 91.87(10) . 2_665 ?
C6 N5 Na2 118.88(12) . 2_565 ?
O1B C1 Na4 70.62(10) . . ?
O1B C1 O1A 124.86(16) . . ?
O1B C1 C2 118.29(15) . . ?
O1A C1 Na4 54.56(9) . . ?
O1A C1 C2 116.85(15) . . ?
C2 C1 Na4 169.50(12) . . ?
O8A C8 Na3 56.37(9) . 2_665 ?
O8A C8 C6 117.04(15) . . ?
O8B C8 Na3 69.42(10) . 2_665 ?
O8B C8 O8A 125.48(16) . . ?
O8B C8 C6 117.48(15) . . ?
C6 C8 Na3 171.28(12) . 2_665 ?
O9A C9 C4 116.65(15) . . ?
O9B C9 O9A 126.48(16) . . ?
O9B C9 C4 116.87(16) . . ?
C3 C2 C1 120.67(15) . . ?
C3 C2 C7 118.79(16) . . ?
C7 C2 C1 120.54(15) . . ?
N5 C4 C9 116.40(15) . . ?
N5 C4 C3 122.24(15) . . ?
C3 C4 C9 121.36(15) . . ?
C2 C3 H3 120.5 . . ?
C4 C3 C2 119.05(15) . . ?
C4 C3 H3 120.5 . . ?
C2 C7 H7 120.9 . . ?
C6 C7 C2 118.23(15) . . ?
C6 C7 H7 120.9 . . ?
N5 C6 C8 115.30(15) . . ?
N5 C6 C7 122.84(15) . . ?
C7 C6 C8 121.84(15) . . ?
loop_
_geom_bond_atom_site_label_1
_geom_bond_atom_site_label_2
_geom_bond_distance
_geom_bond_site_symmetry_2
_geom_bond_publ_flag
Na3 Na3 3.42186(8) 1_655 ?
Na3 Na3 3.42189(8) 1_455 ?
Na3 Na4 3.8505(10) 3_445 ?
Na3 Na4 3.9080(10) 3_345 ?
Na3 O1B 2.4442(16) 3_445 ?
Na3 O1B 2.3565(16) 3_345 ?
Na3 O8A 2.4335(16) 2_464 ?
Na3 O8B 2.7182(16) 2_464 ?
Na3 O9B 2.3936(16) 1_455 ?
Na3 O9B 2.3517(16) . ?
Na3 C8 2.8926(19) 2_464 ?
Na2 Na2 3.42187(8) 1_455 ?
Na2 Na2 3.42188(7) 1_655 ?
Na2 Na4 3.3974(10) 1_455 ?
Na2 Na4 3.6679(11) . ?
Na2 O9A 2.5043(15) 2_564 ?
Na2 O8A 2.7608(17) 2_564 ?
Na2 O8A 2.4532(17) 2_464 ?
Na2 O1A 2.3246(16) 1_455 ?
Na2 O1A 2.3493(16) . ?
Na2 N5 2.3951(17) 2_564 ?
Na2 N5 2.9901(17) 2_464 ?
Na4 Na4 3.42188(8) 1_455 ?
Na4 Na4 3.42186(7) 1_655 ?
Na4 O9A 2.4856(16) 2_564 ?
Na4 O9A 2.3333(16) 2_664 ?
Na4 O1B 2.7379(15) . ?
Na4 O1A 2.3867(15) . ?
Na4 O8B 2.3004(15) 4_464 ?
Na4 O8B 2.3594(16) 4_564 ?
Na4 C1 2.8856(19) . ?
O9A C9 1.259(2) . ?
O1B C1 1.252(2) . ?
O8A C8 1.255(2) . ?
O1A C1 1.262(2) . ?
O8B C8 1.252(2) . ?
O9B C9 1.251(2) . ?
N5 C4 1.339(2) . ?
N5 C6 1.342(2) . ?
C1 C2 1.515(2) . ?
C8 C6 1.522(2) . ?
C9 C4 1.527(2) . ?
C2 C3 1.391(2) . ?
C2 C7 1.396(2) . ?
C4 C3 1.390(2) . ?
C3 H3 0.9500 . ?
C7 H7 0.9500 . ?
C7 C6 1.391(2) . ?
loop_
_geom_torsion_atom_site_label_1
_geom_torsion_atom_site_label_2
_geom_torsion_atom_site_label_3
_geom_torsion_atom_site_label_4
_geom_torsion
_geom_torsion_site_symmetry_1
_geom_torsion_site_symmetry_2
_geom_torsion_site_symmetry_3
_geom_torsion_site_symmetry_4
_geom_torsion_publ_flag
Na3 O1B C1 Na4 93.22(9) 3 . . . ?
Na3 O1B C1 Na4 -99.0(2) 3_655 . . . ?
Na3 O1B C1 O1A 99.33(18) 3 . . . ?
Na3 O1B C1 O1A -92.9(3) 3_655 . . . ?
Na3 O1B C1 C2 87.1(3) 3_655 . . . ?
Na3 O1B C1 C2 -80.69(16) 3 . . . ?
Na3 O8A C8 O8B 7.0(2) 2_665 . . . ?
Na3 O8A C8 C6 -173.38(12) 2_665 . . . ?
Na3 O8B C8 O8A -6.19(19) 2_665 . . . ?
Na3 O8B C8 C6 174.15(14) 2_665 . . . ?
Na3 O9B C9 O9A -111.97(19) 1_655 . . . ?
Na3 O9B C9 O9A 66.8(3) . . . . ?
Na3 O9B C9 C4 68.6(2) 1_655 . . . ?
Na3 O9B C9 C4 -112.68(17) . . . . ?
Na2 O9A C9 O9B -170.15(14) 2_565 . . . ?
Na2 O9A C9 C4 9.33(19) 2_565 . . . ?
Na2 O8A C8 Na3 134.14(10) 2_565 . . 2_665 ?
Na2 O8A C8 Na3 -138.54(12) 2_665 . . 2_665 ?
Na2 O8A C8 O8B 141.10(17) 2_565 . . . ?
Na2 O8A C8 O8B -131.58(16) 2_665 . . . ?
Na2 O8A C8 C6 -39.24(17) 2_565 . . . ?
Na2 O8A C8 C6 48.08(18) 2_665 . . . ?
Na2 O1A C1 Na4 -116.21(15) . . . . ?
Na2 O1A C1 Na4 100.22(13) 1_655 . . . ?
Na2 O1A C1 O1B 93.15(19) 1_655 . . . ?
Na2 O1A C1 O1B -123.29(18) . . . . ?
Na2 O1A C1 C2 -86.83(18) 1_655 . . . ?
Na2 O1A C1 C2 56.7(2) . . . . ?
Na2 N5 C4 C9 -22.48(18) 2_565 . . . ?
Na2 N5 C4 C9 70.09(17) 2_665 . . . ?
Na2 N5 C4 C3 -110.06(16) 2_665 . . . ?
Na2 N5 C4 C3 157.38(13) 2_565 . . . ?
Na2 N5 C6 C8 27.91(19) 2_565 . . . ?
Na2 N5 C6 C8 -49.45(14) 2_665 . . . ?
Na2 N5 C6 C7 -153.37(13) 2_565 . . . ?
Na2 N5 C6 C7 129.26(15) 2_665 . . . ?
Na4 O9A C9 O9B -37.1(3) 2_465 . . . ?
Na4 O9A C9 O9B 83.01(19) 2_565 . . . ?
Na4 O9A C9 C4 142.37(16) 2_465 . . . ?
Na4 O9A C9 C4 -97.52(14) 2_565 . . . ?
Na4 O1B C1 O1A 6.11(17) . . . . ?
Na4 O1B C1 C2 -173.91(14) . . . . ?
Na4 O1A C1 O1B -7.1(2) . . . . ?
Na4 O1A C1 C2 172.94(12) . . . . ?
Na4 O8B C8 Na3 99.34(16) 4_565 . . 2_665 ?
Na4 O8B C8 Na3 -99.25(11) 4_465 . . 2_665 ?
Na4 O8B C8 O8A -105.4(2) 4_465 . . . ?
Na4 O8B C8 O8A 93.1(2) 4_565 . . . ?
Na4 O8B C8 C6 -86.5(2) 4_565 . . . ?
Na4 O8B C8 C6 74.90(18) 4_465 . . . ?
Na4 C1 C2 C3 30.4(7) . . . . ?
Na4 C1 C2 C7 -150.0(6) . . . . ?
O9A C9 C4 N5 8.3(2) . . . . ?
O9A C9 C4 C3 -171.54(16) . . . . ?
O1B C1 C2 C3 177.13(17) . . . . ?
O1B C1 C2 C7 -3.3(2) . . . . ?
O8A C8 C6 N5 13.8(2) . . . . ?
O8A C8 C6 C7 -164.98(17) . . . . ?
O1A C1 C2 C3 -2.9(2) . . . . ?
O1A C1 C2 C7 176.68(16) . . . . ?
O8B C8 C6 N5 -166.56(16) . . . . ?
O8B C8 C6 C7 14.7(2) . . . . ?
O9B C9 C4 N5 -172.15(15) . . . . ?
O9B C9 C4 C3 8.0(2) . . . . ?
N5 C4 C3 C2 -3.7(3) . . . . ?
C1 C2 C3 C4 -178.74(15) . . . . ?
C1 C2 C7 C6 -177.84(15) . . . . ?
C9 C4 C3 C2 176.14(16) . . . . ?
C2 C7 C6 N5 -3.5(2) . . . . ?
C2 C7 C6 C8 175.09(15) . . . . ?
C4 N5 C6 C8 -177.04(14) . . . . ?
C4 N5 C6 C7 1.7(2) . . . . ?
C3 C2 C7 C6 1.7(2) . . . . ?
C7 C2 C3 C4 1.7(2) . . . . ?
C6 N5 C4 C9 -177.82(15) . . . . ?
C6 N5 C4 C3 2.0(3) . . . . ?
