#------------------------------------------------------------------------------
#$Date: 2022-02-04 21:31:48 +0200 (Fri, 04 Feb 2022) $
#$Revision: 272651 $
#$URL: file:///home/coder/svn-repositories/cod/cif/7/70/90/7709040.cif $
#------------------------------------------------------------------------------
#
# This file is available in the Crystallography Open Database (COD),
# http://www.crystallography.net/
#
# All data on this site have been placed in the public domain by the
# contributors.
#
data_7709040
loop_
_publ_author_name
'Fonseca de Lima, Juliana'
'Moreno, Fernanda V. S.'
'Menezes, Bruno A. T.'
'da Silva Barbosa, Jader'
'Waddington, Matthew C.'
'Franklin, Si\^an A'
'Clarkson, Guy J.'
'Walker, Marc'
'Serra, Osvaldo A.'
'Walton, Richard I.'
_publ_section_title
;
 Investigation of the preparation and reactivity of metal-organic
 frameworks of cerium and pyridine-2,4,6-tricarboxylate.
;
_journal_issue                   1
_journal_name_full
'Dalton transactions (Cambridge, England : 2003)'
_journal_page_first              145
_journal_page_last               155
_journal_paper_doi               10.1039/d1dt03514b
_journal_volume                  51
_journal_year                    2021
_chemical_formula_moiety         'C8 H6 Ce N O8, 1.5(O)'
_chemical_formula_sum            'C8 H6 Ce N O9.5'
_chemical_formula_weight         408.26
_space_group_crystal_system      monoclinic
_space_group_IT_number           14
_space_group_name_Hall           '-P 2ybc'
_space_group_name_H-M_alt        'P 1 21/c 1'
_atom_sites_solution_hydrogens   mixed
_atom_sites_solution_primary     direct
_audit_creation_date             2016-09-02
_audit_creation_method
;
Olex2 1.2
(compiled 2016.02.19 svn.r3266 for OlexSys, GUI svn.r5155)
;
_audit_update_record
;
2021-09-20 deposited with the CCDC.	2021-11-29 downloaded from the CCDC.
;
_cell_angle_alpha                90
_cell_angle_beta                 100.334(2)
_cell_angle_gamma                90
_cell_formula_units_Z            4
_cell_length_a                   6.79808(15)
_cell_length_b                   12.0497(3)
_cell_length_c                   13.5329(3)
_cell_measurement_reflns_used    13456
_cell_measurement_temperature    150(2)
_cell_measurement_theta_max      31.3170
_cell_measurement_theta_min      3.0320
_cell_volume                     1090.56(4)
_computing_cell_refinement       'CrysAlisPro 1.171.38.43d (Rigaku OD, 2015)'
_computing_data_collection       'CrysAlisPro 1.171.38.43d (Rigaku OD, 2015)'
_computing_data_reduction        'CrysAlisPro 1.171.38.43d (Rigaku OD, 2015)'
_computing_molecular_graphics    'Olex2 (Dolomanov et al., 2009)'
_computing_publication_material  'Olex2 (Dolomanov et al., 2009)'
_computing_structure_refinement  'ShelXL (Sheldrick, 2015)'
_computing_structure_solution    'ShelXT (Sheldrick, 2015)'
_diffrn_ambient_environment      N~2~
_diffrn_ambient_temperature      150(2)
_diffrn_detector                 'CCD plate'
_diffrn_detector_area_resol_mean 10.2833
_diffrn_detector_type            Ruby
_diffrn_measured_fraction_theta_full 0.995
_diffrn_measured_fraction_theta_max 0.936
_diffrn_measurement_details
;
List of Runs (angles in degrees, time in seconds):

  # Type    Start    End  Width  t~exp~   \w     \q     \k     \f   Frames
#--------------------------------------------------------------------------
  1  \w     35.00 104.00   1.00   11.50    --   15.10 178.00 -90.00   69
  2  \w    -25.00  25.00   1.00   11.50    --  -16.04 -99.00-150.00   50
  3  \w   -104.00  66.00   1.00   11.50    --  -16.04   0.00 -90.00  170
  4  \w    -99.00  72.00   1.00   11.50    --  -16.04   0.00 120.00  171
  5  \w    -25.00  25.00   1.00   11.50    --  -16.04 -99.00  90.00   50
  6  \w   -103.00 -53.00   1.00   11.50    --  -16.04 178.00 -30.00   50
  7  \w    -25.00  20.00   1.00   11.50    --  -16.04 -99.00 -30.00   45
  8  \w    -98.00 -53.00   1.00   11.50    --  -16.04 178.00 -90.00   45
  9  \w    -25.00  25.00   1.00   11.50    --  -16.04 -99.00 150.00   50
 10  \w    -44.00  54.00   1.00   11.50    --  -16.04  57.00 -60.00   98
 11  \w    -22.00  56.00   1.00   11.50    --   15.10 -99.00-150.00   78
 12  \w    -25.00  13.00   1.00   11.50    --  -16.04 -99.00 -90.00   38
;
_diffrn_measurement_device       'four-circle diffractometer'
_diffrn_measurement_device_type  'Xcalibur, Ruby, Gemini'
_diffrn_measurement_method       '\w scans'
_diffrn_orient_matrix_type
'CrysAlisPro convention (1999,Acta A55,543-557)'
_diffrn_orient_matrix_UB_11      -0.0687312000
_diffrn_orient_matrix_UB_12      -0.0253234000
_diffrn_orient_matrix_UB_13      0.0267485000
_diffrn_orient_matrix_UB_21      0.0805955000
_diffrn_orient_matrix_UB_22      -0.0189301000
_diffrn_orient_matrix_UB_23      0.0368259000
_diffrn_orient_matrix_UB_31      -0.0042770000
_diffrn_orient_matrix_UB_32      0.0497232000
_diffrn_orient_matrix_UB_33      0.0276330000
_diffrn_radiation_monochromator  graphite
_diffrn_radiation_probe          x-ray
_diffrn_radiation_type           MoK\a
_diffrn_radiation_wavelength     0.71073
_diffrn_reflns_av_R_equivalents  0.0457
_diffrn_reflns_av_unetI/netI     0.0354
_diffrn_reflns_Laue_measured_fraction_full 0.995
_diffrn_reflns_Laue_measured_fraction_max 0.936
_diffrn_reflns_limit_h_max       9
_diffrn_reflns_limit_h_min       -9
_diffrn_reflns_limit_k_max       17
_diffrn_reflns_limit_k_min       -17
_diffrn_reflns_limit_l_max       19
_diffrn_reflns_limit_l_min       -19
_diffrn_reflns_number            17555
_diffrn_reflns_point_group_measured_fraction_full 0.995
_diffrn_reflns_point_group_measured_fraction_max 0.936
_diffrn_reflns_theta_full        25.242
_diffrn_reflns_theta_max         31.408
_diffrn_reflns_theta_min         3.046
_diffrn_source                   'fine-focus sealed X-ray tube'
_diffrn_source_type              'Enhance (Mo) X-ray Source'
_exptl_absorpt_coefficient_mu    4.227
_exptl_absorpt_correction_T_max  0.765
_exptl_absorpt_correction_T_min  0.649
_exptl_absorpt_correction_type   analytical
_exptl_absorpt_process_details
;
CrysAlisPro 1.171.38.43d (Rigaku Oxford Diffraction, 2015)
Analytical numeric absorption correction using a multifaceted crystal
			model based on expressions derived by R.C. Clark & J.S. Reid.
(Clark, R. C. & Reid, J. S. (1995). Acta Cryst. A51, 887-897)
Empirical absorption correction using spherical harmonics,
 implemented in SCALE3 ABSPACK scaling algorithm.
;
_exptl_crystal_colour            yellow
_exptl_crystal_colour_primary    yellow
_exptl_crystal_density_diffrn    2.487
_exptl_crystal_description       block
_exptl_crystal_F_000             780
_exptl_crystal_size_max          0.124
_exptl_crystal_size_mid          0.116
_exptl_crystal_size_min          0.074
_refine_diff_density_max         2.037
_refine_diff_density_min         -2.323
_refine_diff_density_rms         0.215
_refine_ls_extinction_method     none
_refine_ls_goodness_of_fit_ref   1.335
_refine_ls_hydrogen_treatment    mixed
_refine_ls_matrix_type           full
_refine_ls_number_parameters     202
_refine_ls_number_reflns         3369
_refine_ls_number_restraints     6
_refine_ls_restrained_S_all      1.334
_refine_ls_R_factor_all          0.0540
_refine_ls_R_factor_gt           0.0467
_refine_ls_shift/su_max          0.001
_refine_ls_shift/su_mean         0.000
_refine_ls_structure_factor_coef Fsqd
_refine_ls_weighting_details
'w=1/[\s^2^(Fo^2^)+10.9530P] where P=(Fo^2^+2Fc^2^)/3'
_refine_ls_weighting_scheme      calc
_refine_ls_wR_factor_gt          0.0892
_refine_ls_wR_factor_ref         0.0914
_reflns_Friedel_coverage         0.000
_reflns_number_gt                3061
_reflns_number_total             3369
_reflns_threshold_expression     'I > 2\s(I)'
_cod_data_source_file            d1dt03514b2.cif
_cod_data_source_block           rwj13
_cod_depositor_comments
'Adding full bibliography for 7709038--7709041.cif.'
_cod_original_cell_volume        1090.56(5)
_cod_original_formula_sum        'C8 H6 Ce N O9.50'
_cod_database_code               7709040
_chemical_oxdiff_formula         'C8 H6 N O9.5 Ce'
_shelx_space_group_comment
;
The symmetry employed for this shelxl refinement is uniquely defined
by the following loop, which should always be used as a source of
symmetry information in preference to the above space-group names.
They are only intended as comments.
;
_reflns_odcompleteness_completeness 99.28
_reflns_odcompleteness_iscentric 1
_reflns_odcompleteness_theta     28.98
_olex2_refinement_description
;

There are three molecules of water in a void in the structure that were modeled at 
50% occupancy each.
The hydrogens were only located on the fully occupied waters O1 and O2. They were 
refined with DFIX and DANG restraints to give them idealized geometries.

1. Fixed Uiso
 At 1.2 times of:
  All C(H) groups
 At 1.5 times of:
  All O(H,H) groups
2. Restrained distances
 O1-H1A = O1-H1B = O2-H2A = O2-H2B
 0.82 with sigma of 0.02
 H1A-H1B = H2A-H2B
 1.35 with sigma of 0.04
3. Others
 Fixed Sof: O4(0.5) O3(0.5) O5(0.5)
4.a Aromatic/amide H refined with riding coordinates:
 C3(H3), C7(H7)
;
_shelx_res_file
;
    rwj13.res created by SHELXL-2014/7

TITL rwj13_a.res in P2(1)/c
REM Old TITL rwJ13 in P2 #3
REM SHELXT solution in P2(1)/c
REM R1 0.104, Rweak 0.006, Alpha 0.086, Orientation as input
REM Formula found by SHELXT: C14 N O4 Ce
CELL 0.71073 6.798081 12.049659 13.532878 90 100.3338 90
ZERR 4 0.000154 0.000324 0.000318 0 0.0023 0
LATT 1
SYMM -X,0.5+Y,0.5-Z
SFAC C H Ce N O
UNIT 32 24 4 4 38
EQIV $1 -X,3-Y,2-Z
EQIV $2 -1-X,3-Y,1-Z
EQIV $3 -X,-0.5+Y,1.5-Z
EQIV $4 1-X,2-Y,2-Z
DFIX 0.82 O1 H1a O1 H1b O2 H2a O2 H2b
DANG 1.35 H1a H1b H2a H2b

L.S. 8
PLAN  20
TEMP -123(2)
HTAB O2 O1B
HTAB O2 O8A_$1
HTAB O2 O4_$2
HTAB O2 O5_$2
HTAB O1 O4_$3
HTAB O1 O3_$3
HTAB O1 O9A_$4
HTAB O1 O2_$3
HTAB
BOND $H
LIST 6
fmap 2
acta
REM <olex2.extras>
REM <HklSrc "%.\\rwJ13.hkl">
REM </olex2.extras>

WGHT    0.000000   10.953000
FVAR       2.22124
CE1   3   -0.050472    1.166783    0.745377    11.00000    0.00557    0.01588 =
         0.00639   -0.00123    0.00144   -0.00179
O1A   5    0.169768    1.330411    0.771721    11.00000    0.01180    0.02231 =
         0.01072   -0.00406    0.00149   -0.00498
O8A   5    0.288009    1.410799    1.239195    11.00000    0.00571    0.02343 =
         0.01478    0.00115    0.00400    0.00173
O9B   5    0.919215    1.241577    0.911704    11.00000    0.00924    0.02168 =
         0.00962   -0.00283    0.00363   -0.00091
O8B   5    0.621828    1.403534    1.278664    11.00000    0.00895    0.03331 =
         0.01174   -0.00308    0.00209    0.00539
O2    5   -0.269388    1.347597    0.717160    11.00000    0.01806    0.01765 =
         0.01695   -0.00422   -0.00196   -0.00293
H2A   2   -0.239081    1.410245    0.737819    11.00000   -1.50000
H2B   2   -0.363841    1.350328    0.669603    11.00000   -1.50000
O9A   5    1.000194    1.258246    1.078332    11.00000    0.00916    0.02269 =
         0.00875   -0.00100    0.00073    0.00528
O1B   5    0.075326    1.482469    0.845747    11.00000    0.01065    0.01579 =
         0.01487    0.00313    0.00055    0.00222
N5    4    0.649937    1.339673    1.095237    11.00000    0.00824    0.01791 =
         0.00835    0.00343    0.00201    0.00275
O1    5    0.023719    1.012226    0.880973    11.00000    0.05239    0.02130 =
         0.02473    0.00904    0.02181    0.01301
H1A   2    0.074176    1.027756    0.937765    11.00000   -1.50000
H1B   2    0.007008    0.947480    0.866360    11.00000   -1.50000
C6    1    0.473598    1.380695    1.108651    11.00000    0.00777    0.01440 =
         0.01105   -0.00051    0.00104    0.00132
C8    1    0.459489    1.399869    1.217229    11.00000    0.01016    0.01360 =
         0.01244    0.00094    0.00416    0.00154
C4    1    0.674830    1.312226    1.002219    11.00000    0.00530    0.01834 =
         0.00949    0.00063    0.00088    0.00269
C3    1    0.524243    1.325506    0.919168    11.00000    0.01020    0.01671 =
         0.00765    0.00202    0.00143    0.00257
AFIX  43
H3    2    0.542093    1.301439    0.854512    11.00000   -1.20000
AFIX   0
C7    1    0.319180    1.404950    1.029677    11.00000    0.00812    0.01769 =
         0.00871    0.00059    0.00024    0.00044
AFIX  43
H7    2    0.200255    1.440365    1.040858    11.00000   -1.20000
AFIX   0
C1    1    0.183973    1.398335    0.843580    11.00000    0.00575    0.01307 =
         0.00745    0.00348    0.00022   -0.00119
C9    1    0.880742    1.266941    0.996269    11.00000    0.00825    0.01531 =
         0.01013    0.00202    0.00360    0.00069
C2    1    0.345496    1.375259    0.933165    11.00000    0.00751    0.01527 =
         0.00829    0.00194   -0.00101    0.00004

PART 2
O4    5   -0.332528    1.593451    0.424509    10.50000    0.06438    0.03197 =
         0.04606    0.00583    0.02132    0.03079
PART 0
PART 1
O3    5   -0.352606    1.445838    0.485922    10.50000    0.04562    0.08576 =
         0.04134   -0.03485    0.01793   -0.03485
O5    5   -0.377495    1.642475    0.409204    10.50000    0.02134    0.05381 =
         0.03209   -0.00110   -0.00175   -0.01629
HKLF 4

REM  rwj13_a.res in P2(1)/c
REM R1 =  0.0467 for    3061 Fo > 4sig(Fo)  and  0.0540 for all    3369 data
REM    202 parameters refined using      6 restraints

END

WGHT      0.0000     10.9589

REM Instructions for potential hydrogen bonds
HTAB O2 O8A_$1
HTAB O2 O1B
HTAB O2 O4_$2
HTAB O2 O5_$2
HTAB O1 O4_$3
HTAB O1 O3_$3
HTAB O1 O1A_$3
HTAB O1 O2_$3
HTAB O1 O9A_$4
EQIV $5 x+1, y, z
HTAB C3 O2_$5

REM Highest difference peak  2.037,  deepest hole -2.323,  1-sigma level  0.215
Q1    1  -0.0935  1.2162  0.7322  11.00000  0.05    2.04
Q2    1  -0.4226  1.5281  0.4542  11.00000  0.05    1.84
Q3    1   0.2353  1.3217  1.2852  11.00000  0.05    1.13
Q4    1  -0.0583  1.4460  0.7428  11.00000  0.05    0.94
Q5    1  -0.1231  1.1351  0.7299  11.00000  0.05    0.87
Q6    1   0.0612  1.3415  0.7377  11.00000  0.05    0.79
Q7    1  -0.2630  1.1754  0.7254  11.00000  0.05    0.76
Q8    1   0.0230  1.2807  0.7533  11.00000  0.05    0.73
Q9    1   0.0494  1.0986  0.7554  11.00000  0.05    0.71
Q10   1   0.9154  1.2419  0.8437  11.00000  0.05    0.70
Q11   1   0.5994  1.3409  0.9697  11.00000  0.05    0.70
Q12   1   0.7835  1.2987  0.9903  11.00000  0.05    0.70
Q13   1  -0.1248  1.1584  0.6866  11.00000  0.05    0.68
Q14   1  -0.3026  1.5348  0.3952  11.00000  0.05    0.68
Q15   1   0.3979  1.4122  1.0640  11.00000  0.05    0.66
Q16   1   0.0288  1.5180  0.8949  11.00000  0.05    0.66
Q17   1   0.1019  1.1350  0.8685  11.00000  0.05    0.66
Q18   1   0.4418  1.3626  0.9323  11.00000  0.05    0.65
Q19   1  -0.0153  1.4028  0.9297  11.00000  0.05    0.64
Q20   1  -0.1343  1.1741  0.7891  11.00000  0.05    0.63
;
_shelx_res_checksum              17765
_shelx_hkl_file
;
   0 -17  -3-1266.95 517.329  12
   0 -17  -4-1495.31 591.020  12
   0 -16   0 9459.28 1236.06   9
   0 -16   0 8992.87 1230.74   2
   0 -16  -1 14399.7 1517.67   2
   0 -16   1 10348.0 1274.05   9
   0 -16  -2 12141.4 1297.73  12
   0 -16  -2 14004.7 1508.17   9
   0 -16  -2 13130.7 1458.11   2
   0 -16   3 10786.8 1334.39   2
   0 -16  -3 10367.2 1223.17  12
   0 -16   4 10237.9 1316.72   2
   0 -16   4 7162.85 1116.96   9
   0 -16  -4 8730.86 1221.84   9
   0 -16  -4 6094.66 997.347  12
   0 -16  -5 10409.5 1247.35  12
   0 -16  -6 4841.17 880.058   7
   0 -16  -7 7392.51 1101.12  12
   0 -16  -7 8679.88 1134.59   7
   0 -15   0-258.645 490.457   2
   0 -15  -1 1731.39 669.162   2
   0 -15   1 891.489 560.527   2
   0 -15  -1 1295.43 426.716   7
   0 -15  -1-336.966 407.433  12
   0 -15   1 1566.53 618.811   9
   0 -15  -1 1494.36 585.603   9
   0 -15   2-138.511 467.131   9
   0 -15  -2-714.719 490.301   9
   0 -15  -2 258.203 488.251   2
   0 -15   2 129.431 516.857   2
   0 -15  -3 317.065 495.520   2
   0 -15   3 176.015 442.592   9
   0 -15  -3 26.4532 385.148  12
   0 -15  -3 1327.00 570.298   9
   0 -15  -3 30.9346 327.472   7
   0 -15   3 570.738 523.823   2
   0 -15   4 330.896 298.133   4
   0 -15  -4 723.002 539.334   2
   0 -15  -4 191.170 376.542   9
   0 -15   4 659.075 549.906   2
   0 -15  -4 215.964 379.812   7
   0 -15  -4-628.658 452.732  12
   0 -15  -5 790.467 471.295   7
   0 -15  -5 1532.36 663.302   2
   0 -15  -5 312.643 426.086   9
   0 -15   5 459.215 489.543   9
   0 -15   5 160.790 559.821   2
   0 -15  -5 1207.51 556.312   5
   0 -15  -5 276.770 421.090  12
   0 -15  -6 1798.97 641.332  12
   0 -15  -6 666.429 509.789   5
   0 -15  -6-242.426 459.684   2
   0 -15  -6 1644.86 617.563   9
   0 -15   6 870.423 533.861   9
   0 -15  -7 305.441 464.378   2
   0 -15   7-501.575 464.491   9
   0 -15  -7 1295.09 583.605   9
   0 -15  -7 227.048 384.734   7
   0 -15   7 112.924 370.772   4
   0 -15  -8-207.438 531.242  12
   0 -15  -8-331.364 479.900   2
   0 -15  -8-266.062 457.009   7
   0 -15   8 987.000 423.532   9
   0 -15   8-345.102 441.865   4
   0 -15   9 1442.08 630.470   4
   0 -15  -9 1553.97 561.734   7
   0 -15  -9 1750.91 633.306  12
   0 -14   0 17826.7 1505.52   2
   0 -14   1 22601.8 1674.44   9
   0 -14  -1 22161.7 1686.41   9
   0 -14   1 23786.3 1231.85   7
   0 -14   1 22341.4 1670.14   2
   0 -14  -1 21615.6 1315.67   7
   0 -14  -1 24113.1 1739.92   2
   0 -14  -2 4294.02 680.475   7
   0 -14  -2 4414.51 780.760  12
   0 -14   2 6125.74 939.757   2
   0 -14   2 4273.11 808.535   9
   0 -14   3 15349.7 1382.72   9
   0 -14  -3 16079.6 1452.80   2
   0 -14  -3 16342.7 1366.60  12
   0 -14   3 16633.7 1452.97   2
   0 -14   3 13179.6 1043.97   4
   0 -14  -3 15666.8 1440.68   9
   0 -14   4 5301.17 728.943   4
   0 -14   4 4977.40 876.160   9
   0 -14  -4 5131.98 936.351   2
   0 -14  -4 5846.90 889.076  12
   0 -14  -4 5609.81 915.494   9
   0 -14  -4 4393.78 733.805   7
   0 -14   5 24037.9 1522.47   4
   0 -14  -5 25824.8 1841.64   2
   0 -14  -6 6185.63 895.773   7
   0 -14   6 5684.70 837.660   4
   0 -14  -7 20223.8 1559.15  12
   0 -14  -7 21375.5 1695.26   2
   0 -14  -7 20322.3 1691.77   9
   0 -14   7 18140.1 1458.46   4
   0 -14  -7 22805.6 1827.53   5
   0 -14  -8 3332.67 785.356   5
   0 -14  -8 3224.85 787.721   9
   0 -14  -8 2130.13 649.737   7
   0 -14   8 4119.27 805.434   4
   0 -14  -8 3029.02 731.018  12
   0 -14  -9 13909.0 1375.50  12
   0 -14  -9 14469.9 1511.75   5
   0 -14  -9 14670.3 1483.11   9
   0 -14   9 8812.49 1163.19   4
   0 -14  -9 11286.3 1306.13   7
   0 -14  -9 11157.5 1295.58   2
   0 -14 -10 2295.63 669.646   7
   0 -14  10 2963.24 753.477   4
   0 -14 -10 2608.51 712.191  12
   0 -14  11 13340.5 1480.86   4
   0 -14 -11 13158.7 1375.38  12
   0 -14 -11 11462.7 1336.49   2
   0 -13   0 523.298 237.576   4
   0 -13   0-144.447 345.291  12
   0 -13   0 724.956 318.603   7
   0 -13   0 759.795 497.188   2
   0 -13   1 362.960 406.178   9
   0 -13  -1 104.237 352.312   9
   0 -13  -1-485.656 468.615   2
   0 -13  -1 504.186 387.113  12
   0 -13  -1-158.268 276.462   7
   0 -13   2-106.273 416.348   2
   0 -13  -2 64.0107 345.964  12
   0 -13  -2 294.355 367.936   9
   0 -13   2 496.548 399.346   9
   0 -13   2 828.704 326.555   4
   0 -13  -2 192.634 295.756   7
   0 -13  -3 154.046 347.825  12
   0 -13   3 344.766 449.395   2
   0 -13  -3 325.759 419.625   9
   0 -13  -3-149.842 269.722   7
   0 -13  -3-650.116 499.452   2
   0 -13  -4 22.2864 284.075   7
   0 -13  -4-377.667 420.862   9
   0 -13  -4-111.446 455.885   2
   0 -13  -5 970.589 497.212   9
   0 -13  -5 288.579 345.246   7
   0 -13   5 886.426 551.824   2
   0 -13  -5-732.981 512.504   2
   0 -13  -5 298.657 374.149  12
   0 -13  -6 3177.83 732.810   5
   0 -13  -6 2568.58 636.255  12
   0 -13   6 2505.03 596.369   4
   0 -13  -6 2589.55 675.725   2
   0 -13  -6 2620.87 620.840   7
   0 -13  -7 687.629 471.454   5
   0 -13   7 175.221 365.291   4
   0 -13  -7 33.5156 394.367  12
   0 -13  -7-137.323 384.818   7
   0 -13  -7 769.621 505.402   2
   0 -13  -7 777.039 465.710   9
   0 -13  -8 861.622 506.595   2
   0 -13   8 754.132 449.471   4
   0 -13  -8 682.011 445.310   7
   0 -13  -8 1032.68 554.090   5
   0 -13  -9 922.955 479.559   7
   0 -13  -9 209.109 459.171   2
   0 -13  -9 48.2311 415.795  12
   0 -13  -9-175.621 416.300   5
   0 -13 -10 364.336 390.153   9
   0 -13 -10 1392.20 585.700   7
   0 -13 -10 1114.94 575.344   5
   0 -13 -10 1185.52 560.036  12
   0 -13  10 1329.60 556.118   4
   0 -13 -10 2026.90 667.269   2
   0 -13 -11 30.5901 422.179  12
   0 -13 -11-435.720 430.919   9
   0 -13 -11-607.127 524.541   2
   0 -13 -11 441.796 409.573   7
   0 -13 -12 634.168 516.817   2
   0 -13 -12 1097.57 502.282   9
   0 -13 -13 229.097 352.258   2
   0 -12   0 81096.6 2843.65   9
   0 -12   0 82392.3 2812.26   2
   0 -12   0 80135.8 2616.97  12
   0 -12   0 75066.6 2121.85   7
   0 -12   1 1446.88 549.863   2
   0 -12  -1 1248.35 464.893  12
   0 -12  -1 1462.83 407.045   7
   0 -12  -1 606.332 476.401   2
   0 -12  -2 47642.3 2046.74  12
   0 -12   2 47767.7 2139.43   2
   0 -12   3 3525.10 714.365   2
   0 -12  -3 2134.74 620.808   2
   0 -12  -3 2316.14 572.885  12
   0 -12   4 44867.7 2064.38   2
   0 -12  -4 38580.1 1840.10   7
   0 -12  -4 41323.7 1939.51  12
   0 -12   4 39514.4 1749.41   4
   0 -12  -4 40962.1 2090.54   9
   0 -12  -4 45320.8 2144.80   2
   0 -12   5 2001.80 509.470   4
   0 -12  -5 1573.39 529.043   9
   0 -12  -5 1898.47 537.394   2
   0 -12  -6 48751.4 2325.96   9
   0 -12  -6 49018.4 2169.52  12
   0 -12  -6 52724.5 2452.25   5
   0 -12   7 1629.27 513.478   4
   0 -12  -7 877.958 472.909  12
   0 -12  -7 517.641 375.160   7
   0 -12  -7 1222.96 499.767   2
   0 -12  -8 35342.5 1961.77   2
   0 -12  -8 29339.1 1848.59   7
   0 -12  -8 32354.8 1860.44  12
   0 -12  -8 32213.1 1960.16   9
   0 -12   8 31220.0 1889.40   4
   0 -12  -9 614.580 426.213   9
   0 -12  -9-484.224 406.480  12
   0 -12   9 554.403 454.280   4
   0 -12  -9 290.270 403.650   5
   0 -12  -9 472.765 462.995   2
   0 -12  -9 797.960 431.740   7
   0 -12 -10 20162.5 1597.25   9
   0 -12  10 23755.5 1782.79   4
   0 -12 -10 21732.2 1601.68   2
   0 -12  11 3192.68 785.092   4
   0 -12 -11 2803.05 674.585   9
   0 -12 -11 3543.57 743.216   2
   0 -12 -12 25656.3 1861.88   9
   0 -12 -12 27396.8 2050.73   5
   0 -12 -13 984.378 501.538   2
   0 -12 -14 12893.0 1362.73   9
   0 -11   0 101.153 187.508   4
   0 -11   0-241.545 316.123  12
   0 -11   0 50.8374 221.069   7
   0 -11  -1 4.60032 296.656   9
   0 -11  -1 549.415 203.386   4
   0 -11  -1 144.789 349.583   2
   0 -11  -1 217.971 312.740  12
   0 -11   1 479.479 426.043   2
   0 -11   1 482.865 255.443   7
   0 -11   1 983.103 390.717  12
   0 -11  -2 1719.53 530.296   2
   0 -11  -2 2291.10 552.762   9
   0 -11   2 2054.81 549.656   2
   0 -11  -3 536.441 333.700   7
   0 -11  -3 789.970 388.112  12
   0 -11   3 245.607 268.398   4
   0 -11   3 690.796 454.541   2
   0 -11  -4 1083.93 452.484   2
   0 -11  -4 587.857 394.304   9
   0 -11  -4 621.978 348.199   7
   0 -11   4 1176.19 471.913   2
   0 -11   5 3645.36 655.314   2
   0 -11  -5 2908.78 624.372   2
   0 -11   5 1945.24 479.609   4
   0 -11   6 1288.69 470.326   2
   0 -11  -6 462.198 378.414   7
   0 -11  -6 343.753 384.780  12
   0 -11  -6 50.2793 381.668   9
   0 -11  -6 690.341 435.001   2
   0 -11  -7 1246.24 488.592   5
   0 -11   7 859.963 413.399   4
   0 -11  -7 1406.12 505.471   2
   0 -11  -7 1245.75 485.173   9
   0 -11  -7 394.912 388.090  12
   0 -11   8 437.076 434.662   4
   0 -11  -8 1152.60 456.116   9
   0 -11  -8 622.991 467.887   5
   0 -11  -8 813.355 456.731   2
   0 -11   9 515.710 427.063   4
   0 -11  -9 1416.48 495.476   9
   0 -11  -9 1220.39 496.533   2
   0 -11 -10 1012.83 467.635   2
   0 -11 -10 268.931 360.780   9
   0 -11  10 726.899 454.863   4
   0 -11  11 1613.82 585.146   4
   0 -11 -11 841.292 496.559   2
   0 -11 -12 3695.65 722.549   2
   0 -11 -12 3954.59 823.139   5
   0 -11  12 3958.65 857.223   4
   0 -11  13 2815.60 795.072   4
   0 -11 -13 3173.82 682.180   9
   0 -11 -13 4451.25 764.794   2
   0 -11 -13 3265.30 831.916   5
   0 -10   0 8989.03 690.658   7
   0 -10   0 9402.55 905.105   2
   0 -10   0 10034.2 638.475   4
   0 -10   0 9776.52 858.270  12
   0 -10   1 36847.1 1274.54   7
   0 -10  -1 38246.3 1736.72   2
   0 -10  -1 39534.0 1657.12  12
   0 -10  -1 36215.1 1426.01   7
   0 -10   2 6410.25 616.800   4
   0 -10  -2 8307.96 751.565   7
   0 -10   3 51378.2 1962.67   2
   0 -10  -3 46148.7 1986.27   9
   0 -10  -3 50127.6 1992.26   2
   0 -10   4 10196.3 867.707   4
   0 -10  -4 10006.7 964.319   9
   0 -10  -4 9598.65 885.439  12
   0 -10  -5 34905.5 1704.91   2
   0 -10  -5 33422.6 1727.06   9
   0 -10  -6 21452.4 1407.13   9
   0 -10  -6 24516.6 1537.50   5
   0 -10   6 23185.3 1328.15   2
   0 -10  -6 22829.4 1405.99   2
   0 -10  -7 16958.1 1285.77   9
   0 -10   7 18762.0 1335.96   4
   0 -10  -8 5472.49 772.113   9
   0 -10   8 5202.79 797.616   4
   0 -10  -8 5947.63 799.411   2
   0 -10  -8 5949.34 834.465   5
   0 -10  -9 38852.3 2048.91   5
   0 -10  -9 36012.6 1819.97   2
   0 -10   9 36171.3 1998.46   4
   0 -10 -10 2030.13 566.157   2
   0 -10 -10 3196.20 691.182   5
   0 -10  10 3365.31 726.657   4
   0 -10 -11 28292.1 1737.78   9
   0 -10 -11 31643.0 1968.67   5
   0 -10  12 12467.7 1363.34   4
   0 -10 -12 9855.34 1025.50   2
   0 -10 -13 15175.8 1352.53   9
   0 -10 -13 18669.4 1399.48   2
   0 -10  13 18170.4 1681.45   4
   0 -10 -14 6435.66 877.972   2
   0 -10 -14 4664.20 945.276   5
   0 -10 -14 3676.50 717.339   9
   0 -10  14 5227.88 1007.40   4
   0  -9   0 89.4926 176.533   7
   0  -9   0-43.6646 234.863  12
   0  -9   0 300.386 331.530   2
   0  -9  -1 512.466 294.279  12
   0  -9   1 188.324 199.216   4
   0  -9   1 413.752 197.518   7
   0  -9  -1 378.651 297.548   2
   0  -9   1 537.515 298.721   1
   0  -9   1 552.118 303.571  12
   0  -9   1-246.044 333.488   2
   0  -9  -1 562.948 261.007   7
   0  -9   2 84.2304 189.579   3
   0  -9  -2 621.184 338.752   2
   0  -9   2 519.740 348.663   2
   0  -9   2 468.474 191.055   7
   0  -9  -2 268.211 113.098   4
   0  -9  -3 1071.49 384.298   2
   0  -9  -3 1027.02 353.295  12
   0  -9   3 468.969 255.890   3
   0  -9  -3 494.271 326.247   9
   0  -9   3 220.012 340.421   2
   0  -9   3 785.914 304.242   4
   0  -9  -3 840.143 329.929   7
   0  -9  -4 23.2793 267.091   9
   0  -9   4 102.170 249.866   4
   0  -9  -4 87.0782 253.389  12
   0  -9   4 258.093 334.416   2
   0  -9  -4 504.204 335.728   2
   0  -9  -5 422.914 345.227   9
   0  -9  -5 338.993 329.518   5
   0  -9  -6-68.0319 300.749   5
   0  -9   6-347.550 317.038   4
   0  -9  -7 5583.79 737.408   9
   0  -9  -7 5818.39 736.622   2
   0  -9   7 5841.40 769.153   4
   0  -9  -7 7565.55 871.102   5
   0  -9  -8 843.940 261.507  10
   0  -9  -8 372.262 354.397   2
   0  -9   8 979.705 432.992   4
   0  -9  -8 815.749 419.032   5
   0  -9  -9 5666.68 757.975   2
   0  -9  -9 5125.78 729.453   9
   0  -9  10 877.619 454.441   4
   0  -9 -10 532.299 399.414   2
   0  -9 -11 1571.10 492.435   2
   0  -9 -11 2328.93 552.437   9
   0  -9  12 692.278 475.317   4
   0  -9 -13 4059.70 836.889   5
   0  -9  13 3826.28 838.883   4
   0  -9 -14-498.899 351.896   9
   0  -9  14-346.697 507.001   4
   0  -9 -14 398.408 354.292   2
   0  -9  15 6806.45 1110.52   4
   0  -9 -15 5703.94 1022.45   5
   0  -8   0 3363.10 392.340   7
   0  -8   0 3230.41 460.398   1
   0  -8   0 3357.83 476.235  12
   0  -8   0 2932.41 333.167   4
   0  -8  -1 18267.7 1032.16  10
   0  -8   1 19794.6 1007.87   1
   0  -8   1 16906.8 965.274  12
   0  -8   1 17996.6 840.070   4
   0  -8  -1 19743.7 1052.06   8
   0  -8  -2 28471.4 1247.48  12
   0  -8  -2 27463.0 1184.08   7
   0  -8  -2 29965.7 1328.05   8
   0  -8  -2 25061.1 635.177   4
   0  -8  -3 26252.5 1285.01   2
   0  -8  -3 24878.3 1193.42  12
   0  -8  -3 24480.4 1148.41  10
   0  -8   3 25004.2 1149.11   4
   0  -8  -4 53525.9 1834.84   2
   0  -8   4 52510.1 1754.17   4
   0  -8  -4 50873.2 1866.55   9
   0  -8   4 52416.5 1725.55   2
   0  -8  -5 21090.7 1024.80  10
   0  -8  -5 21041.6 1253.41   5
   0  -8  -5 20047.4 1207.22   9
   0  -8   5 20836.1 1183.07   4
   0  -8  -5 21794.5 1204.23   2
   0  -8   5 22864.9 1157.03   2
   0  -8   6 10307.8 903.854   4
   0  -8  -6 9514.14 855.485   9
   0  -8  -6 10528.5 929.080   5
   0  -8   7 38956.4 1779.97   4
   0  -8  -7 38912.7 1768.19   5
   0  -8  -7 38643.5 1626.53   2
   0  -8  -8 19624.3 1259.01   9
   0  -8  -8 19645.4 1205.11   2
   0  -8   8 18142.0 1296.23   4
   0  -8  -8 19712.1 1322.21   5
   0  -8  -9 34077.8 1669.40   9
   0  -8  -9 32984.2 1562.43   2
   0  -8 -10 13129.1 1167.86   5
   0  -8  10 12602.1 1206.92   4
   0  -8 -10 13045.3 1026.35   2
   0  -8 -11 27125.4 1470.34   2
   0  -8 -11 32603.2 1860.57   5
   0  -8 -13 25908.7 1586.59   9
   0  -8 -13 31377.6 1964.81   5
   0  -8 -13 28528.4 1548.25   2
   0  -8 -14 9670.64 944.249   2
   0  -8 -15 26029.8 1635.71   9
   0  -8  15 26963.3 2086.23   4
   0  -8 -16 8701.42 1205.67   5
   0  -7   0 258.583 161.706   4
   0  -7   0 298.602 188.596   7
   0  -7   0 215.126 212.557   1
   0  -7   0 215.785 221.144  12
   0  -7   1 101.888 146.252   7
   0  -7  -1 359.275 244.581   1
   0  -7   1-146.505 233.053  10
   0  -7   1 499.140 252.444  12
   0  -7  -1 148.236 191.032   7
   0  -7  -1 36.6180 210.528   6
   0  -7   2 308.216 215.546   4
   0  -7   2 557.495 305.348   2
   0  -7   2 858.670 254.135   3
   0  -7   2 1049.10 341.352  10
   0  -7  -2 618.641 274.535  12
   0  -7  -2 655.345 267.471   8
   0  -7   2 968.475 328.081  11
   0  -7   3 317.724 265.296  10
   0  -7  -3 875.731 270.108  10
   0  -7  -3 780.371 307.294   8
   0  -7  -3 380.037 260.860  12
   0  -7  -4 1930.96 412.212   2
   0  -7   4 1333.79 345.315   4
   0  -7   5 1292.48 363.279   4
   0  -7   5 779.472 313.663   3
   0  -7   5 1460.03 365.638   2
   0  -7  -5 1594.04 376.188  11
   0  -7  -5 798.316 340.469   5
   0  -7  -6 1517.51 411.940   5
   0  -7  -6 1426.64 291.969  10
   0  -7  -6 1389.33 389.198   2
   0  -7   7 2071.52 470.367   4
   0  -7  -8 1637.53 406.394   2
   0  -7   8 1404.15 451.306   4
   0  -7  -9 503.995 305.506   2
   0  -7   9 874.420 421.081   4
   0  -7  -9 87.2416 332.908   5
   0  -7  10 1480.37 489.673   4
   0  -7 -10 1332.66 402.529   2
   0  -7 -10 1115.63 159.071   3
   0  -7  11 359.038 330.454   4
   0  -7  12 3292.22 715.172   4
   0  -7 -12 3413.93 693.040   5
   0  -7  13 1730.96 613.952   4
   0  -7 -13 1451.24 506.811   5
   0  -7 -13 1624.45 453.850   2
   0  -7 -13 1318.48 441.432   9
   0  -7  14 4621.36 610.690   8
   0  -7 -14 3516.65 594.369   2
   0  -7 -14 4533.78 839.577   5
   0  -7  14 3869.22 830.614   4
   0  -7 -14 3191.80 613.238   9
   0  -7 -15 1569.04 589.072   5
   0  -7  16 4257.05 953.945   4
   0  -6   0 111768. 2033.92   1
   0  -6   0 106684. 2137.90  10
   0  -6   1 761.882 249.812   1
   0  -6  -1 775.310 278.997  12
   0  -6  -1 1217.55 311.255   1
   0  -6   1 1095.16 244.212   4
   0  -6   1 846.046 224.053   3
   0  -6  -2 147282. 2524.97   8
   0  -6  -2 144914. 2561.64   6
   0  -6   3 3987.64 469.224   2
   0  -6  -3 4786.09 525.817   6
   0  -6   3 3987.69 498.389  10
   0  -6   3 4221.96 474.253   4
   0  -6   3 4492.10 469.298   3
   0  -6   3 3931.31 458.888  11
   0  -6   4 62035.4 1749.28   4
   0  -6   4 64740.4 1758.18   3
   0  -6  -4 65198.2 1760.63  11
   0  -6   4 66163.5 1640.78   2
   0  -6  -4 59038.3 1663.61   2
   0  -6  -5 984.574 304.830  11
   0  -6   5 1228.41 353.961   4
   0  -6  -5 1408.95 357.432   6
   0  -6  -5 1063.70 326.651   2
   0  -6  -5 1001.95 334.020   8
   0  -6   5 1529.87 335.504   2
   0  -6   5 523.444 273.542  10
   0  -6  -6 73390.6 2020.02   9
   0  -6   6 77570.2 2207.56   4
   0  -6   6 80199.0 2094.36  10
   0  -6   6 77915.8 2185.67   3
   0  -6  -6 78483.8 1994.90  11
   0  -6  -7 725.039 200.543  10
   0  -6  -7 1184.20 324.611  11
   0  -6   7 754.043 364.413   4
   0  -6  -7 1116.42 346.018   9
   0  -6  -7 585.073 308.557   5
   0  -6   8 80182.7 2492.02   4
   0  -6  -8 80352.7 2078.37   2
   0  -6  -8 80159.1 2398.22   5
   0  -6  -9 1133.11 359.011   9
   0  -6  -9 1219.70 360.483   2
   0  -6  10 50347.6 2179.90   4
   0  -6 -10 51684.4 1746.63   2
   0  -6 -10 49799.1 1835.46   9
   0  -6 -11 1325.97 383.646   2
   0  -6  11 248.738 323.022   4
   0  -6 -12 35796.5 1632.86   9
   0  -6 -12 36269.2 1898.67   5
   0  -6 -12 35068.8 1505.25   2
   0  -6  12 34096.9 1966.75   4
   0  -6 -13 126.898 245.013   9
   0  -6 -13 784.955 261.988   3
   0  -6  13-136.914 365.946   4
   0  -6  14 35623.4 2184.87   4
   0  -6 -14 32429.8 1954.38   5
   0  -6  14 39234.0 1638.38   8
   0  -6  15 415.636 346.065   8
   0  -6  16 28543.1 2127.64   4
   0  -5   0 332.495 237.594  10
   0  -5   1-77.0372 219.982  10
   0  -5   1 228.380 144.515   7
   0  -5   1 145.456 175.654   4
   0  -5   2 9129.64 574.462   4
   0  -5   2 8607.33 545.025   3
   0  -5  -2 7283.51 234.526   4
   0  -5   2 9200.57 396.241   7
   0  -5   3 1016.07 285.864  11
   0  -5   3 411.647 248.528   4
   0  -5   3 422.356 270.576   2
   0  -5   3 660.794 272.353  10
   0  -5  -4 3575.37 436.063   2
   0  -5  -4 3337.22 422.087  11
   0  -5   4 3657.22 450.247  10
   0  -5   4 4105.66 475.510   3
   0  -5  -4 4020.07 479.419   8
   0  -5   4 5145.53 458.574  11
   0  -5   4 4087.15 429.341   2
   0  -5   4 3592.12 459.426   4
   0  -5  -5 5810.26 578.836   8
   0  -5  -5 5784.07 584.428   6
   0  -5  -5 5529.93 514.069   2
   0  -5  -5 6005.03 562.382   9
   0  -5  -5 6007.21 538.236  11
   0  -5   6 445.922 276.564   3
   0  -5  -6 282.667 232.253   9
   0  -5  -6-3.26374 119.051  10
   0  -5  -6 339.665 260.003   6
   0  -5   6 91.5866 202.687  10
   0  -5  -7 1313.31 187.327   3
   0  -5  -7 1198.86 316.943   9
   0  -5   7 1388.88 332.274  10
   0  -5  -8 6496.04 693.586   5
   0  -5  -8 6080.85 575.648  11
   0  -5   8 5774.36 573.714  10
   0  -5   8 5984.21 700.097   4
   0  -5  -9 3324.34 484.405   9
   0  -5  -9 2068.51 385.233  11
   0  -5 -10 7025.08 521.655   3
   0  -5 -10 7071.68 538.261   3
   0  -5  10 7416.16 649.693  10
   0  -5  10 7675.14 862.182   4
   0  -5 -11 75.9525 333.396   5
   0  -5  11 359.643 346.525   4
   0  -5 -11 261.278 263.986   9
   0  -5 -12 175.777 243.850   9
   0  -5 -12 662.633 261.564   3
   0  -5  12 1085.21 476.805   4
   0  -5 -13 10544.1 1079.80   5
   0  -5 -13 9141.14 743.517   3
   0  -5 -13 10428.5 814.793   2
   0  -5  14 6630.44 983.472   4
   0  -5 -14 6369.22 670.020   3
   0  -5 -14 7670.26 721.666   2
   0  -5  14 6974.81 721.207   8
   0  -5  15 857.877 365.169   8
   0  -5  16 6275.13 1037.45   4
   0  -5  17 1387.29 670.015   4
   0  -4   0 108215. 1752.80  10
   0  -4   0 106159. 1295.49   3
   0  -4   0 107846. 1430.01   7
   0  -4   1 46442.0 1032.87   1
   0  -4   2 131045. 2043.86  10
   0  -4  -2 125922. 1986.79   6
   0  -4  -3 39442.8 959.118  10
   0  -4   3 41594.5 1179.21   3
   0  -4   4 100659. 1882.94  10
   0  -4   4 98343.1 1622.90   2
   0  -4   4 102479. 1998.10   3
   0  -4  -4 96116.6 1776.87  11
   0  -4  -5 32997.0 1213.78   6
   0  -4  -5 31951.8 1062.15  11
   0  -4  -5 33481.7 1146.58   9
   0  -4  -5 33646.9 1212.41   8
   0  -4   5 34911.1 1263.56   3
   0  -4  -6 60922.8 1491.93  11
   0  -4   7 57905.3 1529.87  10
   0  -4  -7 56300.1 1749.39   1
   0  -4  -7 59025.0 1762.37   8
   0  -4  -8 18016.2 924.594   9
   0  -4  -8 19161.9 901.331  11
   0  -4  -8 19773.5 1103.94   1
   0  -4  -9 43785.8 1283.79   3
   0  -4  -9 43907.3 1705.17   5
   0  -4  -9 44523.2 1271.66   4
   0  -4 -10 17762.3 897.990   3
   0  -4 -10 16703.1 855.511   4
   0  -4 -10 18240.9 931.787  11
   0  -4 -10 17550.3 1146.04   5
   0  -4  11 60724.3 2360.45   4
   0  -4 -11 59985.9 1805.88   9
   0  -4 -11 60837.5 2216.43   5
   0  -4 -11 55050.6 1665.28   3
   0  -4 -11 61441.2 1728.83  11
   0  -4  12 6617.81 878.668   4
   0  -4 -12 5569.47 597.194   3
   0  -4 -13 38202.0 1568.90   3
   0  -4  14 11541.5 1224.36   4
   0  -4  14 12056.6 943.585   8
   0  -4 -14 10481.0 895.475   3
   0  -4  15 28376.2 1927.36   4
   0  -4  15 32296.4 1574.13   8
   0  -4 -15 28464.0 1508.00   3
   0  -4  17 21287.4 1804.94   4
   0  -4  18 2502.50 783.549   4
   0  -3   0 221.939 135.713   4
   0  -3   0 166.696 123.583   3
   0  -3   0-9.62709 140.632   7
   0  -3  -1 42261.8 916.862  10
   0  -3  -1 42061.9 532.277   3
   0  -3   1 46049.0 1039.36  10
   0  -3  -2 889.203 197.887  10
   0  -3   3 1465.99 258.567   2
   0  -3   3 1905.27 263.930  11
   0  -3  -3 1118.57 248.681   6
   0  -3  -4 2443.37 344.705   8
   0  -3   4 2665.63 358.944   3
   0  -3  -4 2774.39 341.659   9
   0  -3  -4 2195.38 294.354  11
   0  -3   5 463.377 210.380  10
   0  -3  -5 265.156 192.678  11
   0  -3  -5 199.307 198.739   9
   0  -3   5 277.189 241.286   3
   0  -3  -6 1076.53 294.819   8
   0  -3  -6 940.537 246.346   9
   0  -3   6 722.374 277.937   3
   0  -3  -7 6920.59 498.460  11
   0  -3  -7 6827.61 472.540   3
   0  -3  -8 2407.81 335.250   3
   0  -3  -8 2685.55 363.170   9
   0  -3  -8 2006.44 311.520  11
   0  -3  -8 1932.72 377.442   8
   0  -3  -8 2092.06 395.640   1
   0  -3  -9 19240.3 1112.36   5
   0  -3   9 23346.3 1300.80   4
   0  -3  -9 20747.6 937.491   9
   0  -3  -9 20365.8 917.655   3
   0  -3  -9 20773.1 954.235   3
   0  -3 -10 1192.94 281.350  11
   0  -3 -10 1468.43 319.284   9
   0  -3  10 2185.12 493.220   4
   0  -3 -10 1449.44 344.826   3
   0  -3  11 3850.30 488.350   8
   0  -3 -11 2991.29 464.317   3
   0  -3 -11 3044.14 399.302  11
   0  -3  11 4236.38 667.678   4
   0  -3 -11 2959.82 457.195   4
   0  -3  12 2821.78 606.235   4
   0  -3 -12 1903.48 417.211   3
   0  -3  13 9504.81 816.995   8
   0  -3 -13 9992.07 875.172   3
   0  -3  13 10652.0 1109.48   4
   0  -3  15 10681.3 946.527   8
   0  -3  15 7613.15 1026.67   4
   0  -3  16 416.830 369.983   8
   0  -3  16 446.101 488.908   4
   0  -3 -16 69.4209 273.278   3
   0  -3 -17 12116.3 1151.40   3
   0  -3  17 15150.8 1521.99   4
   0  -3  18 1343.94 631.130   4
   0  -2  -1 161167. 1553.07   8
   0  -2   1 172560. 1529.93   3
   0  -2  -2 9611.27 454.562   6
   0  -2   2 10517.7 471.163   3
   0  -2  -2 8700.92 433.581   8
   0  -2   3 186821. 2142.21   3
   0  -2  -3 176452. 2000.87   8
   0  -2  -4 63894.8 992.265   4
   0  -2   4 66712.0 1428.94   3
   0  -2  -5 132975. 1702.74  11
   0  -2  -5 141204. 1729.11   3
   0  -2  -5 139690. 1842.04   9
   0  -2  -5 138016. 2087.60   8
   0  -2   6 79103.9 1357.33  10
   0  -2  -6 82843.7 1767.12   1
   0  -2  -6 82966.9 1741.53   8
   0  -2  -7 113118. 1830.23   9
   0  -2  -7 114448. 1947.26   4
   0  -2  -7 116829. 1987.70   3
   0  -2  -8 14519.5 665.883  11
   0  -2  -8 14316.6 780.828   3
   0  -2  -8 14676.0 864.409   1
   0  -2  -8 13736.5 752.644   4
   0  -2   9 91559.3 2449.71   4
   0  -2  -9 85725.1 1966.67   3
   0  -2  -9 87235.9 2028.19   3
   0  -2  -9 85245.4 2234.53   5
   0  -2  -9 92433.1 2247.15   1
   0  -2   9 86225.2 1876.39   8
   0  -2  -9 83971.9 1639.96  11
   0  -2 -10 3066.34 442.625   3
   0  -2 -10 3241.20 466.331   3
   0  -2 -10 3060.18 446.640   4
   0  -2  11 23086.6 1114.20   8
   0  -2  11 23969.1 1411.76   4
   0  -2 -11 22605.6 1201.45   3
   0  -2  12 36553.9 1816.34   4
   0  -2 -12 36524.2 1205.57  11
   0  -2  12 36031.1 1465.34   8
   0  -2 -12 34546.2 1557.76   3
   0  -2  13 52287.1 1848.85   8
   0  -2  14 5620.04 842.487   4
   0  -2  14 5249.27 670.334   8
   0  -2  15 38231.4 1750.32   8
   0  -2  15 37124.4 2090.43   4
   0  -2  16 8130.73 1087.66   4
   0  -2  16 8084.62 878.604   8
   0  -2 -16 9008.76 990.100   3
   0  -2  17 15448.6 1491.73   4
   0  -2 -17 13658.4 1255.05   3
   0  -2  17 17252.1 1298.54   8
   0  -2  18 7396.93 1114.50   4
   0  -2 -18 6779.23 965.071   3
   0  -2  19 18696.0 1717.17   4
   0  -1  -2 2703.37 166.886   4
   0  -1  -2 3025.33 231.979   8
   0  -1  -2 3285.51 244.951   6
   0  -1  -3 2290.50 220.422   9
   0  -1  -3 2133.31 246.980   8
   0  -1  -4 362.694 168.544   9
   0  -1  -4 493.406 184.268   8
   0  -1   4 608.703 219.457   3
   0  -1  -5 3169.79 335.833   3
   0  -1   5 3032.55 369.083   3
   0  -1   6 4071.06 280.028   9
   0  -1   6 3826.69 416.016   5
   0  -1  -6 4316.29 411.251   3
   0  -1   6 4535.31 464.811   3
   0  -1  -6 4487.75 337.335   9
   0  -1  -6 4326.08 405.894   4
   0  -1  -7 33.8401 179.274   3
   0  -1   7 274.756 189.788   8
   0  -1   7 289.238 264.680   4
   0  -1   7 303.664 234.488   3
   0  -1  -8 9856.03 687.540   4
   0  -1  -8 10890.4 728.657   3
   0  -1   8 11130.2 763.314   5
   0  -1   9 277.158 293.720   4
   0  -1  -9 758.525 292.435   3
   0  -1  10 6978.44 618.079   8
   0  -1  10 8299.28 790.183   4
   0  -1 -10 7650.52 703.104   3
   0  -1 -10 7481.69 692.913   4
   0  -1  11 2366.47 508.992   4
   0  -1 -11 2036.05 433.809   3
   0  -1  11 2179.14 408.073   8
   0  -1 -12 2766.55 530.398   3
   0  -1 -12 2479.15 347.476  11
   0  -1  13 6966.83 847.771   4
   0  -1 -13 6646.92 792.375   3
   0  -1  13 8699.92 813.277   8
   0  -1 -14 4490.49 707.828   3
   0  -1  14 5288.62 799.187   4
   0  -1  15 5930.07 872.927   4
   0  -1  15 6025.15 758.904   8
   0  -1  16 7924.90 892.903   8
   0  -1  16 7862.79 1040.96   4
   0  -1  17 1464.04 587.910   4
   0  -1 -18 4141.19 790.916   3
   0  -1  18 4362.57 901.192   6
   0  -1  18 4788.48 776.193   8
   0  -1  18 4233.15 883.310   4
   0  -1 -19 477.946 447.566   3
   0   0  -2 187777. 1479.26   4
   0   0   2 183289. 1418.51   3
   0   0   3 179.893 157.297   3
   0   0   3 356.269 152.544   5
   0   0   4 206938. 2141.12   3
   0   0   4 204683. 1961.01   8
   0   0   5 345.696 203.905   8
   0   0   5-98.2782 215.178   4
   0   0  -6 319667. 3398.17   4
   0   0   6 339449. 2460.23   9
   0   0  -7 692.589 261.184   4
   0   0   7 315.802 255.507   4
   0   0  -7 319.446 249.937   3
   0   0  -8 151535. 2733.98   3
   0   0   8 160092. 2803.23   5
   0   0   8 157073. 2779.02   4
   0   0  -9 120.555 237.305   3
   0   0   9 62.4892 237.780   4
   0   0  10 51804.0 1818.38   4
   0   0  11 224.983 293.001   4
   0   0  11 131.943 240.383   8
   0   0  12 105235. 2597.11   8
   0   0  12 107143. 2894.63   4
   0   0  13 1328.71 406.249   8
   0   0  14 21370.5 1321.29   8
   0   0  15 480.027 360.017   8
   0   0  16 15969.6 1381.13   4
   0   0  16 13392.6 1322.36   6
   0   0  17 405.408 408.993   4
   0   0  17-321.283 437.181   6
   0   0  17-316.962 354.102   8
   0   0  18 16634.0 1390.14   8
   0   0 -18 14521.9 1431.07   3
   0   0  18 16257.6 1517.30   4
   0   0  18 16127.6 1550.47   6
   0   0 -19 345.495 410.682   3
   0   0  19 110.470 437.533   4
   0   1  -3 2132.85 270.802   4
   0   1   3 2469.79 234.848   4
   0   1  -3 2461.26 219.833  10
   0   1   3 2447.77 263.140   5
   0   1   4 578.074 204.850   4
   0   1  -4 650.904 175.306  10
   0   1   4 292.725 147.278   9
   0   1   5 2838.62 344.947   5
   0   1   5 2903.33 331.761   4
   0   1  -5 3251.46 382.802   4
   0   1  -6 5449.58 509.525   4
   0   1  -7 255.340 138.255  10
   0   1  -7 563.472 272.851   3
   0   1   7 607.270 254.823   4
   0   1   7 193.365 215.734   8
   0   1   8 10374.7 756.488   5
   0   1   9 1155.72 324.933   4
   0   1  -9 358.768 296.937   3
   0   1  10 8321.78 728.104   4
   0   1  10 7708.48 686.170   8
   0   1 -10 7891.82 776.096   3
   0   1  11 2543.91 479.203   4
   0   1  12 3183.31 540.149   8
   0   1 -12 3075.29 595.472   3
   0   1 -13 8890.88 965.106   3
   0   1  13 6499.31 834.560   6
   0   1  13 7507.29 825.487   4
   0   1 -14 4084.80 729.714   3
   0   1 -15 5795.35 871.734   3
   0   1  15 6152.47 887.722   6
   0   1  16 8554.81 1097.87   6
   0   1 -16 8382.42 1065.15   3
   0   1  17 1514.26 587.866   6
   0   1  17 2039.16 558.486   4
   0   1 -17 1115.44 553.418   3
   0   1  18 3812.02 848.417   6
   0   1  18 5124.62 884.638   4
   0   1 -18 4773.02 920.266   3
   0   1 -19 2317.39 689.056   3
   0   1  19 832.955 486.032   4
   0   1  19 951.782 430.057   8
   0   2   0 79089.1 805.330   4
   0   2   0 78775.2 1038.52  11
   0   2   0 78725.0 974.806   1
   0   2   0 77025.6 1021.57   2
   0   2   1 156550. 1508.88  11
   0   2   1 161498. 1567.34   1
   0   2  -1 151174. 1429.69  12
   0   2  -1 154316. 1279.79   1
   0   2  -1 156067. 1440.79  11
   0   2  -1 151725. 1413.82   2
   0   2   2 8580.88 438.430   1
   0   2   2 9303.52 337.642  10
   0   2   2 9130.77 413.774  11
   0   2  -2 9834.13 392.207  11
   0   2  -2 10568.1 484.489   4
   0   2  -2 9418.06 383.251   2
   0   2   3 176466. 1328.19   4
   0   2  -3 176447. 2140.10   4
   0   2   3 176352. 2042.19   5
   0   2  -3 184352. 1618.07  11
   0   2  -4 66570.9 1469.35   4
   0   2   4 67339.2 1245.39   9
   0   2   4 65918.5 1031.76   4
   0   2  -4 64783.4 1189.18  10
   0   2   4 65574.9 1372.90   5
   0   2  -5 137928. 1546.13   2
   0   2   5 140688. 2178.28   5
   0   2  -5 142326. 2333.97   4
   0   2  -5 138192. 1793.50  10
   0   2  -6 83906.4 1446.54  10
   0   2   6 84160.9 1534.83   4
   0   2   6 88293.8 1876.87   5
   0   2   7 115658. 2206.81   8
   0   2   7 119378. 2014.95   4
   0   2  -8 15379.0 973.530   4
   0   2  -8 13621.4 626.733  10
   0   2   8 14736.4 904.236   5
   0   2  -8 13434.1 915.507   3
   0   2   9 85113.0 2000.07   4
   0   2  -9 89018.4 2423.56   3
   0   2   9 86800.0 2151.58   8
   0   2  10 2953.88 388.941   9
   0   2  10 3033.98 483.949   8
   0   2 -10 2783.52 537.712   3
   0   2  10 3141.65 517.441   6
   0   2  11 22754.1 1243.14   8
   0   2  11 22469.5 1310.72   6
   0   2 -11 24183.2 1428.70   3
   0   2  12 36940.6 1648.17   8
   0   2  12 35867.4 1736.50   6
   0   2 -12 36743.0 1837.10   3
   0   2  13 55196.5 2257.66   6
   0   2 -13 50471.6 2245.86   3
   0   2  14 5020.39 789.448   6
   0   2  14 5048.95 722.698   8
   0   2 -14 3406.11 714.796   3
   0   2 -15 36550.9 2090.92   3
   0   2  15 35128.1 1802.80   4
   0   2  15 36775.5 2043.25   6
   0   2  16 9480.88 1013.16   4
   0   2 -16 8309.86 1102.50   3
   0   2  16 9074.36 1009.93   8
   0   2  17 16070.0 1350.19   4
   0   2 -17 16032.1 1520.42   3
   0   2  17 16604.0 1517.64   6
   0   2  17 15912.4 1379.51   8
   0   2  18 6530.68 943.725   8
   0   2 -18 9110.68 1218.20   3
   0   2  18 7516.29 1121.18   6
   0   2  19 19024.6 1594.02   8
   0   2 -19 13754.9 1531.26   3
   0   3   0 396.135 193.229   2
   0   3   0 121.511 135.645   3
   0   3   0 117.722 174.869   1
   0   3   0 228.998 125.602   4
   0   3  -1 43317.6 851.076   1
   0   3  -1 42847.8 921.889  12
   0   3   1 43537.9 982.324  11
   0   3   1 43219.4 967.592   1
   0   3   2 1078.10 245.265  11
   0   3  -2 626.095 117.172   7
   0   3   2 1106.45 252.793   1
   0   3   2 740.078 208.031  10
   0   3  -2 887.738 217.118  11
   0   3  -3 837.456 225.946  11
   0   3   3 1316.76 282.332   1
   0   3  -3 958.000 222.240   2
   0   3  -4 1920.79 268.270  11
   0   3  -4 2347.75 333.441  10
   0   3  -4 2115.89 268.845   2
   0   3   5 491.535 156.219   4
   0   3  -5 427.411 226.005  10
   0   3   5 105.838 220.914   5
   0   3  -6 869.497 248.690  10
   0   3   6 481.210 176.316   4
   0   3  -6 596.165 288.505   4
   0   3   7 6372.31 455.876   4
   0   3   7 6383.99 585.820   8
   0   3  -7 7326.49 459.016  11
   0   3   8 2112.21 316.727   4
   0   3   8 2552.32 446.089   5
   0   3   8 2061.97 394.683   8
   0   3  -8 2436.17 305.896   2
   0   3  -8 2778.71 314.281  11
   0   3  -9 21925.7 814.086  11
   0   3   9 21148.6 1170.99   6
   0   3  -9 20352.7 1223.39   3
   0   3   9 21471.2 1133.10   8
   0   3  10 1755.18 430.416   8
   0   3 -10 1759.83 467.255   3
   0   3  11 3819.77 576.789   8
   0   3  11 3350.31 480.767   4
   0   3 -12 1746.55 528.853   3
   0   3  12 2449.07 511.549   8
   0   3  12 1966.62 501.074   6
   0   3  13 9628.76 1007.52   6
   0   3 -13 10041.8 1076.21   3
   0   3  13 9889.31 959.450   8
   0   3  14 417.944 399.332   6
   0   3  14 75.6176 314.601   8
   0   3  15 8418.37 874.302   4
   0   3 -15 8291.73 1078.80   3
   0   3  15 8001.32 1010.97   6
   0   3  16 19.6732 312.866   4
   0   3  16-310.556 356.405   8
   0   3  17 14353.7 1228.94   4
   0   3 -17 12551.5 1384.62   3
   0   3  18 475.738 455.201   8
   0   3  18 1290.43 590.265   6
   0   3 -18 314.919 491.489   3
   0   4   0 109953. 1750.27  11
   0   4   0 107790. 1625.55   1
   0   4  -1 45555.7 1085.33  12
   0   4  -1 44181.0 1005.58   1
   0   4  -1 45011.2 1122.10  11
   0   4   2 125706. 1782.71  10
   0   4  -2 120574. 1610.74   1
   0   4  -2 125211. 1839.20   2
   0   4   2 125405. 1923.16  11
   0   4  -2 124592. 1841.32  11
   0   4   2 129848. 2006.24   1
   0   4   3 36264.4 1070.91  11
   0   4  -3 41392.4 1210.05   4
   0   4  -3 39784.8 1049.43   2
   0   4   3 41539.0 1216.47   1
   0   4  -3 41242.7 1074.92  11
   0   4  -3 38521.0 1099.40  12
   0   4  -3 36955.8 909.509   1
   0   4   4 96871.4 1776.10  11
   0   4   4 97101.0 1945.76   1
   0   4  -4 96060.6 1638.39   2
   0   4  -4 98715.9 2013.74   4
   0   4  -4 96363.9 1646.14  11
   0   4   5 32304.5 1064.22  11
   0   4  -5 33490.9 1145.15  10
   0   4  -5 34362.8 1291.33   4
   0   4  -5 30542.4 954.775  11
   0   4  -5 32378.3 983.253   2
   0   4   7 62117.1 1859.43   5
   0   4  -7 55548.2 1535.11  10
   0   4   8 18619.2 1058.56   8
   0   4  -8 19757.7 946.609  10
   0   4   8 18348.3 761.038   4
   0   4  -8 18875.0 808.680  11
   0   4  -9 47814.3 1913.34   3
   0   4  -9 44352.1 1426.27  10
   0   4   9 50351.8 1833.24   6
   0   4 -10 18873.2 1283.45   3
   0   4  10 19055.1 1203.99   6
   0   4  11 57831.9 2109.49   8
   0   4 -11 59396.2 2360.72   3
   0   4  12 6457.85 816.223   6
   0   4 -12 5433.18 814.519   3
   0   4 -12 6274.81 533.897  11
   0   4  12 6355.84 633.390   4
   0   4  13 40338.7 1927.66   8
   0   4  13 42860.7 2066.12   6
   0   4  13 40944.4 1614.94   4
   0   4  14 9941.59 1036.37   8
   0   4 -14 10116.5 1162.85   3
   0   4  15 32321.7 1970.60   6
   0   4 -15 30518.1 2011.35   3
   0   4  16 3331.15 747.683   6
   0   4  16 2739.21 671.617   8
   0   4 -17 21127.2 1824.02   3
   0   4  17 22060.0 1689.93   8
   0   4 -18 2915.40 816.864   3
   0   5   0 480.276 268.850  11
   0   5   0 458.123 251.063   2
   0   5   0 182.893 221.003   1
   0   5   0 335.626 204.284  12
   0   5  -1 321.625 195.049   3
   0   5  -1 546.974 264.629  11
   0   5   1 528.154 278.603  11
   0   5   2 9473.62 629.393  11
   0   5  -2 8317.51 512.017   1
   0   5  -2 9146.52 600.434  11
   0   5  -2 9029.76 571.241   4
   0   5  -2 8323.18 560.258  12
   0   5  -2 9031.59 592.113   2
   0   5  -3 491.782 229.244   2
   0   5  -3 457.881 262.045   3
   0   5   3 465.121 267.850   1
   0   5   3 696.714 286.740  11
   0   5  -3 414.312 197.066   1
   0   5  -3 241.973 217.314  12
   0   5  -3 682.116 266.284  11
   0   5  -4 4328.09 438.712  11
   0   5  -4 3618.48 356.742   1
   0   5   4 4077.30 493.087   1
   0   5  -4 3971.64 478.670   3
   0   5  -4 3847.87 413.731   2
   0   5  -4 4388.65 498.127   4
   0   5  -4 3743.70 471.078  10
   0   5  -5 5579.95 483.344  11
   0   5  -5 6871.34 521.156   2
   0   5   5 5690.16 532.084  11
   0   5   6 93.8223 77.0821   4
   0   5  -6-96.3920 174.967   2
   0   5  -6 392.955 249.765  10
   0   5  -6 41.8067 208.584  11
   0   5  -6 495.599 288.470   4
   0   5   8 6215.69 412.682   4
   0   5  -8 6743.29 736.252   3
   0   5  -9 2568.17 435.791  10
   0   5   9 3262.61 541.282   8
   0   5   9 3324.40 543.695   6
   0   5   9 2927.34 332.787   4
   0   5  10 7116.31 781.689   6
   0   5 -10 8215.30 905.363   3
   0   5  11 788.082 387.559   6
   0   5 -11 121.674 203.562   2
   0   5  11 386.890 323.121   8
   0   5 -11-20.0444 215.860  11
   0   5 -11 725.289 421.076   3
   0   5 -12 337.503 397.483   3
   0   5  12-15.3611 325.691   6
   0   5  12-146.456 338.176   8
   0   5 -12 747.292 265.841   2
   0   5  13 11212.3 1117.82   6
   0   5  13 11259.3 1077.50   8
   0   5  13 10714.5 796.388   4
   0   5 -14 7066.97 1015.99   3
   0   5  14 7997.56 735.043   4
   0   5  14 7240.46 967.221   6
   0   5  15 1047.82 494.882   8
   0   5  16 7953.39 1065.72   6
   0   5 -16 5866.98 1026.44   3
   0   5 -17 2749.76 787.916   3
   0   6   0 103464. 1582.44   3
   0   6   0 105864. 2108.16   2
   0   6   0 105365. 1992.63   1
   0   6   0 106412. 1601.49   4
   0   6   1 788.066 281.002   1
   0   6  -1 1133.96 243.410   4
   0   6   1 903.637 302.605  10
   0   6  -1 776.047 266.446  12
   0   6   1 1073.19 334.329  11
   0   6  -1 926.279 291.172   2
   0   6  -1 1137.62 319.563  11
   0   6  -1 1206.57 288.308   1
   0   6  -1 1128.45 257.372   3
   0   6  -2 143164. 2198.93   1
   0   6   2 144521. 2519.90   1
   0   6  -2 141424. 2377.37  12
   0   6  -2 143383. 2439.02   2
   0   6  -2 137134. 2396.59  11
   0   6  -2 146505. 2319.81   4
   0   6   2 143125. 2511.60  11
   0   6  -3 4164.65 469.087   4
   0   6  -3 4577.75 496.403  11
   0   6  -3 3972.08 458.076   2
   0   6   3 3376.42 460.615  11
   0   6  -3 3781.75 456.248   3
   0   6  -3 3913.97 399.840   1
   0   6  -4 65018.9 1663.49  11
   0   6  -4 64374.4 1465.83   1
   0   6  -4 67291.2 1840.30   3
   0   6  -4 66230.1 1824.13   4
   0   6   4 64290.3 1738.90  11
   0   6   5 278.528 280.043   1
   0   6  -5 917.396 286.319  11
   0   6  -5 444.634 255.047  12
   0   6  -5 896.977 274.597   2
   0   6  -5 852.618 244.004   1
   0   6   5 804.980 317.614  11
   0   6  -5 781.368 313.409  10
   0   6  -5 672.072 311.818   3
   0   6  -6 74563.3 2054.17  10
   0   6   6 75517.8 1949.37  11
   0   6  -6 75616.7 2195.26   3
   0   6  -6 76271.9 1830.95  11
   0   6  -7 1448.14 323.946  11
   0   6  -7 671.848 269.956   2
   0   6   7 512.123 88.0435   4
   0   6   7 1120.89 364.314   6
   0   6  -7 1276.44 410.305   3
   0   6  -8 83588.6 2564.91   3
   0   6  -8 83609.8 1969.49  11
   0   6   8 84508.1 2443.90   6
   0   6  -8 85566.0 1984.68   2
   0   6  -8 80288.1 2210.67  10
   0   6   9 1523.69 431.480   6
   0   6  -9 1146.26 312.451   2
   0   6  -9 1243.47 311.610  11
   0   6  -9 1023.82 353.342  10
   0   6  10 53270.0 2126.58   6
   0   6  10 50862.1 1213.90   4
   0   6 -10 55276.8 1651.40   2
   0   6 -10 56059.0 1667.56  11
   0   6 -10 56548.6 2331.25   3
   0   6  11 737.251 392.916   6
   0   6 -11 842.854 430.323   3
   0   6 -12 37979.7 2083.83   3
   0   6 -13 1066.14 311.814  11
   0   6  13 924.362 458.484   6
   0   6  13 349.698 225.498   4
   0   6  14 42899.8 2251.31   6
   0   6 -14 35295.0 2191.64   3
   0   6  15 122.555 371.993   6
   0   6 -16 29020.0 2148.75   3
   0   6  16 31441.7 2095.99   6
   0   6 -17 486.136 535.961   3
   0   7   0-315.443 278.374  11
   0   7   0-219.088 238.282   1
   0   7  -1 388.729 195.531   4
   0   7   1 21.4923 219.882  10
   0   7   1 133.867 238.944   1
   0   7  -1 452.986 240.665  12
   0   7   1 481.044 316.100  11
   0   7  -1 246.746 245.860   2
   0   7  -1 334.974 230.659   1
   0   7  -1 343.095 290.369  11
   0   7  -2 702.681 304.880   2
   0   7  -2 886.190 333.948  11
   0   7  -2 607.811 267.035  12
   0   7   2 606.687 292.231  10
   0   7  -2 924.640 263.373   4
   0   7   2 557.969 121.051   3
   0   7   2 1161.80 350.833  11
   0   7  -3 1256.16 309.820   4
   0   7   3 891.667 338.818  11
   0   7   3 716.528 320.431   1
   0   7  -3 1539.29 354.396  11
   0   7  -4 1374.99 361.730   4
   0   7  -4 1849.47 383.674  12
   0   7   4 2321.73 432.569  11
   0   7  -4 1859.63 386.879   3
   0   7  -4 1654.02 364.803   2
   0   7  -4 1846.27 322.100   1
   0   7  -4 1963.71 386.109  11
   0   7   4 1950.07 425.853   1
   0   7   5 910.781 358.987   1
   0   7  -5 784.111 289.531   2
   0   7  -5 1004.37 320.776  11
   0   7  -5 314.276 278.139   4
   0   7  -5 859.281 344.026   3
   0   7   6 1439.31 388.153   6
   0   7  -6 1525.11 416.563  10
   0   7   6 1527.75 406.586  11
   0   7   7 980.092 372.906   6
   0   7  -8 1633.01 431.662  10
   0   7   8 1961.14 486.284   6
   0   7  -8 1896.11 398.640   2
   0   7   9-286.450 333.832   6
   0   7  -9 554.068 394.968   3
   0   7 -10 1085.15 462.305   3
   0   7 -11 231.137 387.326   3
   0   7 -11 163.647 260.043  11
   0   7  11 739.502 420.744   6
   0   7  12 3697.91 727.127   6
   0   7 -12 3625.81 750.911   3
   0   7 -12 3988.34 547.980  11
   0   7 -13 911.404 517.073   3
   0   7  14 4506.22 847.632   6
   0   7 -14 2823.44 749.767   3
   0   7  15 1471.41 619.477   6
   0   7 -16 5413.49 1010.72   3
   0   7  16 4115.51 890.972   6
   0   8   0 2913.60 501.650  11
   0   8   0 3424.86 363.297   3
   0   8   0 3130.38 510.531  10
   0   8   0 3795.19 497.221   1
   0   8  -1 17807.4 996.233  12
   0   8   1 18852.1 1087.71  11
   0   8  -1 18714.3 867.360   3
   0   8   1 17425.3 668.252   4
   0   8  -1 18483.3 1066.10  11
   0   8  -1 17763.4 958.949   1
   0   8  -2 29904.7 1180.03   3
   0   8   2 29719.9 1335.34   1
   0   8  -2 30446.0 1215.60   1
   0   8  -3 27356.3 1277.33  11
   0   8  -3 27306.5 1211.79   3
   0   8  -3 27645.5 1216.91   4
   0   8  -3 25651.7 1107.87   1
   0   8   3 27607.6 1317.08  11
   0   8   4 54348.8 1855.99  11
   0   8  -4 53269.2 1781.88   3
   0   8  -4 52440.2 1757.44  11
   0   8   5 21622.5 1210.27  11
   0   8  -5 21855.9 1015.68   1
   0   8  -5 20602.5 1242.15  10
   0   8   6 9204.47 831.294  11
   0   8  -6 9980.44 897.775  10
   0   8  -6 10600.6 922.728   3
   0   8  -6 11458.3 856.009  11
   0   8   6 9726.90 881.580   6
   0   8  -7 40483.6 1822.22   3
   0   8  -7 37672.0 1710.46  10
   0   8   7 41978.4 1821.39   6
   0   8   7 38029.1 1619.78  11
   0   8  -7 41789.5 1599.86  11
   0   8  -8 18610.1 1244.32  10
   0   8   8 22027.9 1371.90   6
   0   8  -8 20492.6 1025.19   1
   0   8  -8 20854.9 1392.54   3
   0   8   9 36054.1 1814.83   6
   0   8  -9 35042.3 1864.81   3
   0   8 -10 14983.8 930.548   1
   0   8  10 14739.2 1233.30   6
   0   8 -10 12981.3 1213.63   3
   0   8 -11 31515.3 1452.29  11
   0   8  11 34430.4 1907.83   6
   0   8 -12 10450.9 873.144  11
   0   8  12 10359.4 1126.57   6
   0   8 -13 32645.9 1497.47  11
   0   8  13 30675.4 1936.04   6
   0   8 -15 28339.7 2145.11   3
   0   8  15 32798.9 2161.16   6
   0   9   0 691.014 340.799   1
   0   9   0 245.896 329.646  11
   0   9   0-131.492 291.236  10
   0   9  -1 446.300 226.800   3
   0   9  -1-8.00687 274.419  10
   0   9  -1 281.963 193.558   4
   0   9  -1 157.695 315.820  11
   0   9   1 665.103 343.539   1
   0   9   2 124.470 110.210   3
   0   9  -2 605.084 351.692  11
   0   9  -2 79.7328 210.769   3
   0   9   2 392.946 317.540   1
   0   9  -3 902.258 384.293  10
   0   9  -3 864.294 326.575   3
   0   9  -3 801.891 306.752   1
   0   9   3 719.289 365.069  11
   0   9   3 211.402 315.499   1
   0   9  -3 1116.35 382.779  11
   0   9  -4 398.077 287.726   3
   0   9   4 442.979 346.951  11
   0   9  -4 378.238 252.302   1
   0   9  -4 528.358 335.939  11
   0   9  -4 757.698 357.190  10
   0   9  -5-11.0603 284.823  11
   0   9  -5 499.265 267.437   1
   0   9   5 7.81128 313.536   1
   0   9   5 527.100 360.947  11
   0   9  -5 684.619 381.288  10
   0   9  -6 301.712 317.949   3
   0   9  -7 7452.40 669.548   1
   0   9  -7 6892.93 826.761  10
   0   9   8 839.274 392.295   6
   0   9  -8 1100.40 336.194   1
   0   9  -8 1941.33 462.582  11
   0   9  -9 4941.30 657.910  11
   0   9  -9 5973.70 623.645   1
   0   9   9 6960.92 877.973   6
   0   9  10-107.169 353.329   6
   0   9 -10 209.808 302.708  11
   0   9 -10 424.416 390.825   3
   0   9 -10 143.513 290.025   1
   0   9 -11 3378.30 514.815   1
   0   9  11 3500.12 722.150   6
   0   9 -12 292.801 470.323   3
   0   9  12 781.412 492.109   6
   0   9 -13 4918.87 935.044   3
   0   9  13 4021.86 802.211   6
   0   9  14-167.879 394.955   6
   0   9 -14 25.0875 456.184   3
   0   9 -15 5479.52 1052.92   3
   0   9  15 6073.62 1030.45   6
   0  10   0 10091.3 875.227   1
   0  10  -1 44438.9 1857.82  11
   0  10   1 40550.3 1788.55  11
   0  10  -1 43037.4 1684.84   1
   0  10  -1 40790.0 1389.01   4
   0  10  -2 7361.18 828.856  10
   0  10  -2 8227.36 696.551   3
   0  10   2 8063.55 827.207   1
   0  10   2 8418.52 871.721  11
   0  10  -2 8803.94 875.714  11
   0  10  -3 52877.3 1824.41   4
   0  10  -3 51238.0 1779.20   1
   0  10  -3 47759.5 2018.50  10
   0  10   3 49257.5 1987.05  11
   0  10  -4 9894.92 972.553  10
   0  10  -4 10205.1 935.602  11
   0  10   4 10757.7 987.471  11
   0  10   4 9507.73 941.579   1
   0  10  -4 10408.7 894.774   3
   0  10  -4 10072.8 812.397   1
   0  10  -5 34732.6 1775.38  10
   0  10  -5 37862.1 1514.42   1
   0  10   5 37946.4 1792.03  11
   0  10  -7 18775.6 1248.93  11
   0  10  -7 19939.7 1391.25   3
   0  10   7 19798.1 1345.67  11
   0  10  -8 5607.68 814.216   3
   0  10  -8 6481.79 665.792   1
   0  10  -9 35844.9 2003.13   3
   0  10  -9 39964.4 1809.43  11
   0  10 -10 3954.13 798.285   3
   0  10  10 2800.60 653.148   6
   0  10 -11 30437.0 1610.39  11
   0  10  11 30753.9 1928.32   6
   0  10 -12 13291.7 1428.64   3
   0  10 -13 19331.6 1728.32   3
   0  10 -14 5372.79 1007.25   3
   0  10  14 6526.96 1049.70   6
   0  11   0 142.197 356.946  11
   0  11   0 367.459 351.582   1
   0  11   1 633.142 380.371   1
   0  11   1 292.578 190.914   3
   0  11  -1 324.805 381.000  11
   0  11   2 1961.62 545.310  11
   0  11   3 293.067 386.262  11
   0  11  -3 111.065 237.091   1
   0  11  -3 515.902 310.361   3
   0  11  -3 538.982 399.761  11
   0  11  -4 1525.34 402.327   1
   0  11   4 732.224 418.110   1
   0  11   5 2214.55 576.401   1
   0  11  -5 2635.67 579.411  11
   0  11  -5 2743.99 550.776   3
   0  11  -5 2569.97 497.003   1
   0  11  -7 953.983 432.235   3
   0  11   7 1051.54 478.949  11
   0  11  -7 895.124 463.137  11
   0  11  -9 1054.99 447.092  11
   0  11  -9 1245.50 522.986   3
   0  11  -9 1498.38 398.772   1
   0  11 -10 91.6074 413.865   3
   0  11 -11 1985.04 536.495  11
   0  11 -11 1089.21 572.860   3
   0  11  12 4796.42 887.527   6
   0  11 -12 4147.98 917.685   3
   0  11 -13 3814.19 898.194   3
   0  12   0 81159.6 2640.57   1
   0  12   0 84523.1 2857.80  11
   0  12   1 1946.94 558.016  11
   0  12  -1 1353.02 462.891   1
   0  12   1 1701.03 525.769   1
   0  12  -1 944.521 487.090  11
   0  12  -2 49601.8 1998.36   1
   0  12   2 46182.9 2080.35   1
   0  12   2 42320.0 994.816   3
   0  12  -3 2725.84 639.354  11
   0  12   3 2792.25 627.961   1
   0  12  -3 1347.81 400.796   3
   0  12   3 3038.23 675.073  11
   0  12   4 44812.6 2135.66   1
   0  12  -4 46633.6 2137.01  11
   0  12  -4 42341.3 1837.70   3
   0  12  -5 1884.83 520.225   3
   0  12   5 2156.84 632.805  11
   0  12  -5 1157.97 389.926   1
   0  12  -5 2715.71 637.990  11
   0  12   6 54432.9 2398.53  11
   0  12  -6 49790.5 2224.34  11
   0  12  -7 860.390 445.783   3
   0  12   7 2137.68 610.659  11
   0  12  -8 35722.2 1908.07  11
   0  12  -8 34499.1 1999.29   3
   0  12  -9 1167.07 499.601  11
   0  12  -9 493.963 445.780   3
   0  12 -10 20196.0 1683.96   3
   0  12 -11 2235.08 711.231   3
   0  12 -11 4437.09 772.260  11
   0  12 -12 25807.1 2032.76   3
   0  13   0 267.332 207.555   3
   0  13   0 338.028 371.144   1
   0  13   0-52.3675 386.423  11
   0  13  -1 693.791 437.348  11
   0  13   1 683.053 463.706  11
   0  13   1 508.596 425.064   1
   0  13  -2 184.659 338.133   1
   0  13  -2 852.011 479.802  11
   0  13   2 10.9348 429.164  11
   0  13   3 521.763 442.854   1
   0  13   3-250.292 440.292  11
   0  13  -4 490.933 463.167  11
   0  13  -4 421.896 337.497   1
   0  13   4-72.7736 350.926   1
   0  13   5 902.575 513.444  11
   0  13   6 2254.53 664.530  11
   0  13  -6 3030.39 635.801   3
   0  13   7-582.501 528.301  11
   0  13  -7 531.991 465.988  11
   0  13  -7-376.277 394.825   3
   0  13  -8 747.164 369.791   1
   0  13  -8 1205.76 555.637   3
   0  13  -8 850.308 490.963  11
   0  13  -9-267.159 459.632  11
   0  13 -10 491.448 499.270  11
   0  14   0 17236.4 1484.53  11
   0  14   0 17117.4 1388.09   1
   0  14  -1 21307.1 1513.67   1
   0  14  -1 24216.1 1731.05  11
   0  14  -2 4636.94 839.486  11
   0  14   2 4437.66 817.308   1
   0  14   4 5868.00 962.164   1
   0  14   4 7126.44 1040.92  11
   0  14  -5 30910.1 1952.16  11
   0  14  -5 27566.5 1667.20   3
   0  14   5 31810.1 2038.03  11
   0  14  -6 8138.06 1086.60  11
   0  14   6 6763.90 1044.69  11
   0  14  -6 6530.82 947.585   3
   0  14  -7 19055.9 1532.44   3
   0  14  -8 3663.97 814.575   3
   0  14  -9 10173.2 1258.85   3
   0  14 -10 2706.18 728.434  11
   0  14 -10 2535.02 798.670   3
   0  14 -11 9979.97 1359.46   3
   0  15   0-534.424 491.724  11
   0  15  -1 242.786 445.213  11
   0  15  -2 238.902 457.685  11
   0  15  -2 197.169 326.205   1
   0  15   2 461.615 507.709   1
   0  15   2-74.9871 517.350  11
   0  15  -3 941.884 595.757  11
   0  15   3 45.5254 438.419  11
   0  15   3 601.697 532.118   1
   0  15  -4 553.230 516.914  11
   0  15  -4 786.432 365.648   3
   0  15   4-345.507 509.919  11
   0  15  -5 90.2267 478.171  11
   0  15   6 664.216 613.464  11
   0  15  -6 1280.80 444.048   1
   0  15  -7-727.000 511.790   3
   0  15  -7 367.526 494.166  11
   0  15  -8-197.503 430.150   3
   0  15  -8 778.689 593.382  11
   0  15  -9 2126.09 698.844   3
   0  15  -9 2496.57 697.827  11
   0  16  -1 14124.7 1509.05  11
   0  16   1 11809.7 1385.85  11
   0  16  -2 9424.13 1149.60   1
   0  16  -2 11977.6 1411.03  11
   0  16   2 12400.4 1433.91  11
   0  16   3 9391.50 1223.81   1
   0  16  -3 9537.85 1122.51   1
   0  16  -3 10693.8 1325.33  11
   0  16  -4 8535.65 1185.92  11
   0  16  -6 5310.40 1005.80  11
   0  17   0 429.832 502.987   1
   0  17  -1 336.351 529.720   1
   0  17   1-417.848 508.124   1
   0  17  -3-755.453 433.960   1
  -1 -17   5 2408.16 700.078   9
   1 -16  -8 5566.51 958.361   7
   1 -16  -7 5717.78 1026.39   7
  -1 -16   7 7005.00 1048.58   9
   1 -16  -6 249.195 513.591   7
  -1 -16   6 1428.88 582.706   9
   1 -16  -5 12721.2 1370.47  12
  -1 -16   5 11519.8 1290.07   9
   1 -16  -5 13707.7 1501.26   5
   1 -16  -4 7043.29 1068.76  12
  -1 -16   4 6608.98 1023.12   9
   1 -16  -4 7795.51 1179.81   9
   1 -16  -3 5778.08 877.743   7
   1 -16  -3 7090.38 1051.10  12
  -1 -16   3 8097.91 1105.92   9
   1 -16  -2 5580.85 992.752   9
   1 -16  -2 4596.07 986.658   2
   1 -16  -2 6263.45 969.854  12
  -1 -16   2 5565.81 1026.89   2
  -1 -16   1 11047.4 1302.69   9
   1 -16   0 2870.32 859.385   2
   1 -16   0 3970.94 918.158   9
  -1 -16   0 4226.79 961.507   2
  -1 -16   0 3799.44 824.915   9
  -1 -16  -1 9436.75 1239.95   9
   1 -16   1 9407.11 1280.09   2
   1 -16   1 10053.5 1290.56   9
   1 -16   2 2312.81 759.844   9
   1 -16   2 2764.55 792.359   2
  -1 -16  -2 3848.20 906.688   2
  -1 -16  -3 10593.6 1336.99   2
  -1 -16  -3 8995.71 1226.60   9
   1 -16   3 10061.4 1295.16   2
  -1 -16  -4 1744.63 607.213  12
   1 -16   4 3365.99 882.128   2
  -1 -16  -4 3599.53 853.739   2
   1 -16   5 10188.9 1284.13   2
  -1 -16  -6 2646.52 640.995   7
  -1 -16  -7 6705.66 1013.15  12
   1 -15  -9-433.464 409.754   7
   1 -15  -9 450.410 503.225  12
  -1 -15   9 473.195 471.431   4
  -1 -15   8 63.8815 334.864   4
   1 -15  -8-205.714 373.244   7
   1 -15  -8 1152.55 521.699   9
   1 -15  -8 956.137 548.269   2
   1 -15  -7 2293.75 663.694  12
  -1 -15   7 1173.00 448.326   4
   1 -15  -7 841.759 522.442   9
   1 -15  -7 2460.25 726.924   5
  -1 -15   7 835.381 442.218   9
   1 -15  -7 1439.61 607.450   7
   1 -15  -6-245.007 378.397   5
   1 -15  -6 252.842 384.835   7
  -1 -15   6 350.931 411.831   9
   1 -15  -6 1268.29 617.721   2
  -1 -15   5-112.172 342.997   4
  -1 -15   5 390.601 464.241   9
   1 -15  -5 223.681 554.168   2
   1 -15  -5 487.331 469.952  12
  -1 -15   4-421.324 312.624   4
   1 -15  -4-205.748 437.938  12
   1 -15  -4-437.862 543.821   2
  -1 -15   3 82.8247 389.254   9
   1 -15  -3-717.753 509.038   2
   1 -15  -3 91.4257 385.885  12
   1 -15  -3 768.486 458.595   7
   1 -15  -2 2035.33 612.517  12
   1 -15  -2 1076.52 465.269   7
  -1 -15   2 1692.29 677.203   2
   1 -15  -2 823.205 489.812   9
   1 -15  -1 2707.31 734.946   9
  -1 -15   1 3211.76 788.743   2
   1 -15  -1 1506.24 663.544   2
   1 -15  -1 2740.26 578.950   7
   1 -15   0 251.138 407.567   9
  -1 -15   0 1025.47 562.971   2
   1 -15   0 56.8772 514.231   2
   1 -15   1 3868.87 862.737   2
  -1 -15  -1 4291.00 847.850   9
  -1 -15  -1 4794.07 926.235   2
  -1 -15  -2 301.322 459.401   2
  -1 -15  -2 442.417 469.759   9
   1 -15   2 1395.27 639.503   2
  -1 -15  -2 18.9102 327.725  12
  -1 -15  -3 2850.53 750.158   9
   1 -15   3 2382.47 736.986   2
  -1 -15  -3 2042.70 591.705  12
  -1 -15  -3 3443.58 824.296   2
  -1 -15  -3 2844.77 598.840   7
  -1 -15  -4 649.621 550.344   2
  -1 -15  -4 963.807 444.068   7
  -1 -15  -4-11.0348 380.828  12
  -1 -15  -5 1577.11 615.081  12
   1 -15   5 2418.10 592.618   4
  -1 -15  -5 3470.13 849.433   5
  -1 -15  -5 2980.04 787.748   9
  -1 -15  -5 3189.15 769.942   2
   1 -15   6 471.735 392.342   4
  -1 -15  -6 1296.66 595.373   2
  -1 -15  -6 314.809 384.441   7
  -1 -15  -6 385.187 456.484  12
  -1 -15  -6 231.742 476.226   9
   1 -15   7 4031.72 760.541   4
  -1 -15  -7 2726.75 675.781   7
   1 -15   8 509.803 466.379   4
  -1 -15  -8-936.357 561.656   2
  -1 -15  -8-1003.95 497.919  12
   1 -15   9 3517.39 793.923   4
   1 -14 -11 6571.14 1042.56   2
  -1 -14  11 5724.03 1031.44   4
   1 -14 -10 3964.84 846.346   7
   1 -14 -10 4447.34 943.023   5
  -1 -14  10 4515.17 882.529   4
   1 -14 -10 5721.45 967.851   2
   1 -14  -9 9044.67 1170.07   7
   1 -14  -9 8606.88 1149.17   9
   1 -14  -9 11031.3 1297.77   5
   1 -14  -9 9746.94 1221.21   2
   1 -14  -8 3570.85 790.458   2
   1 -14  -8 3203.69 785.243   5
  -1 -14   8 1532.22 558.946   4
   1 -14  -8 2471.08 680.500  12
   1 -14  -8 3349.40 790.358   9
  -1 -14   7 19660.1 1497.35   9
  -1 -14   7 18727.0 1485.25   4
   1 -14  -7 22892.1 1710.61  12
   1 -14  -7 17869.4 1529.71   7
   1 -14  -7 21413.6 1684.61   2
  -1 -14   6 4213.16 775.821   9
   1 -14  -6 3235.62 788.519   9
   1 -14  -6 3477.42 747.281  12
   1 -14  -6 4010.31 785.799   7
   1 -14  -6 5222.45 875.708   2
  -1 -14   5 9190.74 971.239   4
   1 -14  -5 12587.3 1306.45   2
   1 -14  -5 12655.9 1342.34   9
  -1 -14   5 11544.1 1202.55   9
   1 -14  -5 10638.7 1171.58  12
   1 -14  -4 7674.25 1047.07   2
   1 -14  -4 5052.86 851.249  12
  -1 -14   4 5366.24 731.738   4
   1 -14  -3 8828.31 1050.95  12
   1 -14  -3 8014.67 938.958   7
  -1 -14   3 8354.49 1028.63   9
  -1 -14   2 4333.43 610.021   4
  -1 -14   2 5450.97 886.113   9
  -1 -14   2 5559.30 917.621   2
   1 -14  -2 4510.59 793.192  12
   1 -14  -2 4036.88 697.155   7
   1 -14  -2 4157.21 848.419   2
   1 -14  -1 17431.8 1508.31   2
   1 -14  -1 16146.4 1209.56   7
  -1 -14   1 16535.3 1446.85   9
   1 -14  -1 17371.8 1443.85  12
  -1 -14   1 17507.0 1038.54   4
  -1 -14   0 2529.79 688.244   9
  -1 -14   0 2004.60 434.202   7
   1 -14   0 5039.86 828.392  12
   1 -14   0 4016.25 851.357   2
  -1 -14   0 4848.83 871.374   2
  -1 -14  -1 14874.0 1070.47   7
  -1 -14  -1 15442.8 1253.94  12
   1 -14   1 14475.8 1368.62   2
  -1 -14  -1 15801.9 1428.92   2
   1 -14   2 3363.31 535.417   4
   1 -14   2 5377.53 915.394   2
  -1 -14  -2 4185.54 831.115   2
  -1 -14  -2 5445.98 810.406  12
  -1 -14  -2 4024.13 644.250   7
  -1 -14  -2 5172.69 901.607   9
  -1 -14  -3 13353.1 1125.42   7
  -1 -14  -3 15622.6 1437.82   2
   1 -14   3 14641.1 1383.95   2
   1 -14   3 12408.8 1022.18   4
  -1 -14  -3 16720.0 1486.24   9
  -1 -14  -4 2366.95 609.074  12
  -1 -14  -4 1723.08 531.501   7
   1 -14   4 2557.16 556.722   4
   1 -14   5 24360.2 1716.85   2
   1 -14   5 20515.3 1447.36   4
  -1 -14  -5 25390.9 1858.63   9
  -1 -14  -6 4268.96 876.435   5
   1 -14   6 6936.56 990.985   2
  -1 -14  -6 5564.94 937.621   2
  -1 -14  -6 3732.34 720.542  12
   1 -14   6 4548.16 801.653   4
  -1 -14  -7 19553.3 1720.60   5
  -1 -14  -7 16458.8 1439.77   7
   1 -14   8 3471.63 753.384   4
  -1 -14  -8 3015.18 739.032   7
  -1 -14  -8 3498.15 816.835   2
  -1 -14  -8 3454.86 742.349  12
  -1 -14  -8 3665.14 805.785   5
  -1 -14  -8 4139.56 849.615   9
  -1 -14  -9 9657.62 1263.90   5
  -1 -14  -9 9415.41 1200.12   7
   1 -14   9 8182.03 1128.89   4
  -1 -14  -9 8850.88 1208.29   9
   1 -14  10 3092.36 789.162   4
  -1 -14 -10 2973.69 728.723   7
  -1 -14 -11 9700.91 1218.37   2
   1 -13 -13-744.287 466.476   2
   1 -13 -12-133.080 217.338   9
  -1 -13  12-327.639 492.049   4
   1 -13 -12 1174.72 620.636   2
   1 -13 -12 102.316 458.648   5
   1 -13 -11 417.987 455.479   5
   1 -13 -11-507.853 414.380   9
  -1 -13  11-422.050 407.902   4
   1 -13 -11-478.012 477.055  12
   1 -13 -10-28.9899 444.940   5
   1 -13 -10 1094.75 530.528   2
   1 -13 -10 289.247 400.940   7
  -1 -13  10 244.879 418.767   4
   1 -13 -10-456.657 468.223  12
   1 -13 -10 273.383 358.281   9
  -1 -13   9 11.0171 384.796   4
   1 -13  -9 198.996 333.956   7
   1 -13  -9 677.624 499.753   2
   1 -13  -9 267.179 455.959  12
   1 -13  -9-245.920 328.935   9
   1 -13  -8 161.346 344.406   9
   1 -13  -8-177.350 422.774  12
  -1 -13   8-460.049 392.790   4
   1 -13  -8-94.7185 359.424   5
   1 -13  -7 592.545 477.562   2
  -1 -13   7 373.398 390.932   9
   1 -13  -7 496.369 457.921   5
   1 -13  -7 1374.57 555.224   9
  -1 -13   7 696.616 433.085   4
   1 -13  -7 987.693 484.336  12
   1 -13  -7 643.841 463.702   7
  -1 -13   6 991.975 477.223   9
   1 -13  -6 336.831 411.707   5
   1 -13  -6 1030.71 468.124   7
  -1 -13   5 732.914 392.375   4
   1 -13  -5 540.144 434.079   9
   1 -13  -4 652.970 395.246  12
   1 -13  -4 447.454 419.337   9
  -1 -13   4 442.513 390.550   9
   1 -13  -3 722.918 420.941  12
   1 -13  -3-225.646 343.704   7
  -1 -13   3 17.6828 225.860   4
   1 -13  -3 216.893 447.213   2
  -1 -13   2 1985.39 329.336   7
  -1 -13   2 1361.68 384.789   4
   1 -13  -2 2283.42 570.993  12
   1 -13  -1 552.627 387.646  12
  -1 -13   1 347.000 425.620   2
   1 -13  -1-27.0907 402.286   2
   1 -13  -1-143.313 295.656   7
   1 -13   0 561.626 401.714  12
   1 -13   0 618.037 340.568   7
  -1 -13   0 514.574 486.469   2
  -1 -13   0 1105.68 468.543   9
  -1 -13  -1 1472.60 545.518   9
   1 -13   1 1333.29 563.503   2
  -1 -13  -2 1207.98 482.306   9
   1 -13   2-15.8318 401.364   2
  -1 -13  -2 1235.67 569.049   2
  -1 -13  -2 871.361 402.807  12
  -1 -13  -3 319.421 447.955   2
   1 -13   3 859.058 529.723   2
  -1 -13  -3-129.801 329.950  12
  -1 -13  -3-430.685 395.646   9
  -1 -13  -3 341.695 316.699   7
  -1 -13  -4 1326.90 450.677   7
   1 -13   4 1524.21 582.472   2
  -1 -13  -5 763.949 406.934  12
   1 -13   5 1113.96 428.822   4
  -1 -13  -5 906.554 485.424   5
  -1 -13  -6 5119.10 882.962   9
  -1 -13  -6 6357.34 975.743   5
  -1 -13  -6 5646.11 906.088   2
   1 -13   6 6395.29 914.670   2
  -1 -13  -6 4995.97 796.551   7
  -1 -13  -7 2289.13 672.805   9
   1 -13   7 2060.98 597.849   4
  -1 -13  -7 3838.56 808.799   5
  -1 -13  -8 4697.74 867.862   2
  -1 -13  -8 5356.23 947.836   5
   1 -13   8 3908.60 758.409   4
   1 -13   9 1022.77 536.152   4
  -1 -13  -9 1297.08 542.265  12
  -1 -13  -9 2060.17 668.009   2
  -1 -13  -9 1150.88 538.293   9
   1 -13  10 679.856 511.548   4
  -1 -13 -10 429.388 405.629  12
  -1 -13 -11 581.489 487.880   2
  -1 -13 -11 709.213 451.760   9
  -1 -13 -11 174.538 434.446  12
  -1 -13 -12 2224.06 688.636   2
   1 -12 -14 17854.2 1569.95   9
   1 -12 -14 18462.8 1585.99   2
   1 -12 -13 899.419 508.427   2
  -1 -12  13-148.428 483.810   4
   1 -12 -12 18304.5 1704.93   7
   1 -12 -12 24269.5 1861.32   5
   1 -12 -12 21734.1 1686.10   2
   1 -12 -12 22987.1 1711.69   9
  -1 -12  12 23487.9 1893.48   4
  -1 -12  11 263.665 479.419   4
   1 -12 -11 1518.99 592.071   7
   1 -12 -11 2280.75 647.529   5
   1 -12 -10 27417.2 1926.22   7
  -1 -12  10 25699.6 1845.01   4
   1 -12  -9 1392.14 514.476   9
   1 -12  -9 144.564 338.699   7
   1 -12  -9 1766.02 576.906   5
   1 -12  -9 953.610 497.819  12
   1 -12  -8 36032.5 2048.22   9
   1 -12  -8 35964.6 2010.64  12
  -1 -12   8 32971.9 1927.96   4
   1 -12  -8 40151.9 2159.83   5
   1 -12  -8 35178.8 2041.15   7
  -1 -12   7 1056.31 462.352   9
   1 -12  -7 2280.96 613.938   2
   1 -12  -7 1627.78 541.332  12
   1 -12  -7 430.861 437.825   9
   1 -12  -6 31056.6 1822.39   2
  -1 -12   6 27859.7 1632.54   4
   1 -12  -6 31692.8 1868.79   5
   1 -12  -6 29161.7 1743.31  12
  -1 -12   6 28819.4 1627.63   9
   1 -12  -5 1219.27 484.293  12
  -1 -12   5 1134.81 431.807   4
   1 -12  -5 447.420 363.493   7
   1 -12  -4 33303.4 1803.10  12
  -1 -12   4 34389.3 1799.36   9
  -1 -12   4 36992.3 1906.24   2
   1 -12  -4 31686.4 1873.15   9
   1 -12  -4 32178.1 1720.18   7
   1 -12  -4 34327.0 1889.89   2
   1 -12  -3 2128.47 576.367   2
  -1 -12   3 1744.55 507.703   9
  -1 -12   3 1460.49 566.435   2
  -1 -12   3 818.417 343.527   4
   1 -12  -2 31284.4 1768.88   2
  -1 -12   2 29911.4 1709.39   9
  -1 -12   1 2247.75 565.256   9
   1 -12  -1 2866.38 517.660   7
   1 -12  -1 3492.20 689.485   2
  -1 -12   1 2751.53 406.440   7
  -1 -12   1 3922.34 720.440   2
  -1 -12   0 45034.9 2106.82   2
   1 -12   0 41508.5 1975.21  12
  -1 -12   0 43086.0 1421.35   4
  -1 -12   0 40928.8 1518.48   7
  -1 -12   0 46671.5 1915.91  12
   1 -12   0 43383.7 2064.30   2
   1 -12   1 1718.41 368.425   4
  -1 -12  -1 1953.48 422.093   7
   1 -12   1 1154.74 366.561   7
   1 -12   1 2906.51 609.473  12
   1 -12   1 1422.61 564.113   2
  -1 -12  -1 1693.43 297.210   4
  -1 -12  -1 2122.12 585.252   9
  -1 -12  -1 1796.12 477.354  12
  -1 -12  -1 2127.26 611.518   2
  -1 -12  -2 27142.2 1690.74   9
   1 -12   2 25621.1 1284.78   4
  -1 -12  -3-394.530 452.867   2
  -1 -12  -3-303.339 363.094  12
  -1 -12  -3 533.864 394.504   9
   1 -12   4 18727.5 1366.15   2
  -1 -12  -4 16084.1 1318.25   2
  -1 -12  -4 16652.4 1361.23   9
  -1 -12  -4 16385.9 1204.17  12
  -1 -12  -5 644.864 453.068   2
   1 -12   5 847.930 468.477   2
  -1 -12  -5 922.950 460.587   9
  -1 -12  -5 363.153 364.310   5
  -1 -12  -5 490.783 370.936  12
   1 -12   6 31735.2 1724.58   2
  -1 -12  -6 29861.4 1897.97   5
   1 -12   6 26073.5 1614.64   4
  -1 -12  -6 32396.2 1851.05   2
  -1 -12  -7 1304.91 548.962   5
   1 -12   7 1560.63 551.624   2
  -1 -12  -7 231.911 401.961   9
  -1 -12  -7-176.509 376.991  12
  -1 -12  -8 19748.6 1605.81   5
  -1 -12  -9-31.2042 448.368   2
   1 -12   9 654.851 476.124   4
  -1 -12  -9 644.831 400.128  12
  -1 -12  -9 150.805 436.016   5
  -1 -12  -9 575.509 437.680   9
  -1 -12 -10 15767.4 1518.40   5
   1 -12  10 15244.4 1490.47   4
   1 -12  11 1113.51 596.201   4
  -1 -12 -11-483.473 451.648   2
  -1 -12 -12 15385.6 1600.98   5
  -1 -12 -12 15198.3 1356.88   2
   1 -11 -15 1793.45 563.781   9
   1 -11 -15 1737.46 532.063   2
   1 -11 -14 280.424 413.750   2
   1 -11 -14 102.730 381.345   5
   1 -11 -14 1434.67 464.451   9
   1 -11 -13 394.342 360.578   9
   1 -11 -13 926.694 532.656   7
  -1 -11  13 928.751 621.007   4
   1 -11 -13 494.345 459.880   2
   1 -11 -12 196.120 319.111   9
   1 -11 -12-218.937 414.202   5
   1 -11 -12 381.767 441.444   2
  -1 -11  11 654.124 469.870   4
   1 -11 -11 321.014 409.910   5
   1 -11 -11 618.025 475.641   7
  -1 -11  10 327.242 422.890   4
   1 -11 -10 574.836 432.147   7
   1 -11 -10-417.548 439.460   2
   1 -11 -10-84.8712 346.426   5
   1 -11 -10-303.775 350.977   9
   1 -11  -9 283.860 381.650   5
   1 -11  -9 266.071 348.673   7
  -1 -11   9 805.344 450.899   4
   1 -11  -9-97.2131 362.183   2
  -1 -11   8 402.402 397.241   4
   1 -11  -8 307.626 335.258   7
   1 -11  -8 576.477 374.459   9
   1 -11  -8 109.659 372.000   2
  -1 -11   7 158.500 324.788   4
  -1 -11   7-418.850 349.499   9
   1 -11  -7-95.7580 345.766   2
   1 -11  -7 639.284 416.042   5
   1 -11  -7-357.053 380.175  12
   1 -11  -7 667.315 403.298   7
   1 -11  -7 67.1242 301.202   9
   1 -11  -6 1830.54 535.303   9
  -1 -11   6 1136.13 463.511   4
   1 -11  -6 1569.36 530.702   5
   1 -11  -6 1801.15 508.030   7
   1 -11  -6 1839.01 528.132  12
  -1 -11   5 491.641 352.172   4
   1 -11  -5 110.120 331.643   7
   1 -11  -5 168.720 366.874   9
  -1 -11   5 260.767 307.551   9
   1 -11  -4 371.604 323.152  12
  -1 -11   4-429.147 285.234   4
   1 -11  -4 929.465 449.911   2
   1 -11  -4 216.113 330.067   7
  -1 -11   3 290.844 272.421   4
   1 -11  -3 204.786 358.971   2
   1 -11  -3 375.929 319.821  12
   1 -11  -3 278.446 297.879   7
   1 -11  -2 283.329 328.747  12
  -1 -11   2-389.255 366.167   2
   1 -11  -2 285.070 125.243   4
  -1 -11   2 7.33461 211.429   4
   1 -11  -2 13.5930 262.851   7
   1 -11  -2 264.574 350.025   2
  -1 -11   1 2962.65 586.808   9
   1 -11  -1 4853.93 713.957   2
  -1 -11   1 5334.82 754.276   2
   1 -11  -1 3601.76 619.996  12
  -1 -11   0 12759.7 1105.93   2
  -1 -11   0 11850.1 937.593  12
   1 -11   0 10603.0 697.013   4
   1 -11   0 12094.3 1065.12   2
  -1 -11   0 11861.9 738.529   4
   1 -11   0 11074.2 998.479  12
  -1 -11  -1 1628.39 494.365   9
   1 -11   1 666.980 280.740   7
   1 -11   1 576.638 277.415   4
  -1 -11  -1 798.358 348.628  12
  -1 -11  -1 702.966 226.099   4
  -1 -11  -1 1256.84 498.665   2
  -1 -11  -2 7077.43 878.162   2
   1 -11   2 5500.42 619.798   4
  -1 -11  -2 6168.70 668.497   7
  -1 -11  -2 6460.76 819.869   9
  -1 -11  -2 5918.55 700.106  12
   1 -11   3 7301.66 855.718   2
   1 -11   3 4891.26 628.547   4
  -1 -11  -3 6313.35 721.501  12
  -1 -11  -3 5417.99 777.327   2
  -1 -11  -4 2224.23 595.502   2
  -1 -11  -4 2845.52 537.430  12
   1 -11   5 118.732 304.392   4
  -1 -11  -5 756.999 461.780   2
   1 -11   5 888.117 454.865   2
  -1 -11  -5 533.817 406.167   5
  -1 -11  -5 150.092 300.330  12
  -1 -11  -6 4053.49 720.314   2
  -1 -11  -6 3393.79 602.546  12
   1 -11   6 4393.68 714.681   4
  -1 -11  -6 3924.89 722.560   9
   1 -11   7 3676.45 654.750   2
  -1 -11  -7 4201.79 754.678   9
   1 -11   7 3033.17 651.772   4
  -1 -11  -7 2400.73 549.059  12
  -1 -11  -7 2392.30 616.647   5
  -1 -11  -8 4504.00 811.735   5
   1 -11   9 1675.87 575.561   4
  -1 -11  -9 1156.17 512.698   5
  -1 -11  -9-1.43843 361.230   9
  -1 -11 -10 6111.50 910.665   9
  -1 -11 -10 7493.80 1049.20   5
  -1 -11 -11 3195.42 715.528   2
   1 -11  11 3774.39 823.341   4
  -1 -11 -11 3252.75 799.149   5
  -1 -11 -11 3744.39 761.834   9
  -1 -11 -12 7932.10 1066.88   9
  -1 -11 -12 6451.73 907.525   2
   1 -11  12 8491.30 1184.64   4
  -1 -11 -13 432.145 523.597   5
  -1 -11 -13 2055.68 592.903   9
   1 -11  13 1066.59 615.283   4
   1 -10 -15 12654.9 1243.54   2
   1 -10 -15 14189.2 1459.16   5
   1 -10 -15 13800.5 1290.35   9
   1 -10 -14 5106.91 895.430   5
   1 -10 -14 5150.32 949.305   7
   1 -10 -14 4326.11 793.850   2
  -1 -10  14 5412.31 1018.88   4
   1 -10 -13 22856.9 1592.32   2
   1 -10 -13 25648.7 1833.65   5
  -1 -10  13 22980.2 1850.60   4
   1 -10 -13 24362.9 1883.86   7
   1 -10 -12 9359.72 1048.33   2
   1 -10 -12 10388.3 1232.45   7
  -1 -10  12 12549.7 1342.67   4
  -1 -10  11 21009.7 1655.52   4
   1 -10 -11 18308.2 1394.62   9
   1 -10 -10 12298.8 1150.23   2
  -1 -10  10 12857.4 1260.01   4
   1 -10 -10 10368.4 1067.60   9
   1 -10 -10 12921.6 1275.07   7
   1 -10  -9 24696.8 1600.88   5
   1 -10  -9 24164.5 1537.76   2
  -1 -10   9 22452.9 1578.66   4
   1 -10  -8 16394.4 1257.65   2
   1 -10  -8 17078.3 1345.56   7
   1 -10  -8 17537.0 1311.14   9
   1 -10  -7 23972.1 1532.29   7
   1 -10  -7 27912.9 1625.92   5
   1 -10  -6 33938.2 1748.44   5
  -1 -10   6 32471.2 1647.06   4
   1 -10  -6 36764.6 1784.89  12
   1 -10  -6 31330.7 1702.90   9
   1 -10  -6 32821.9 1727.50   7
   1 -10  -5 15805.0 1166.77  12
  -1 -10   5 16960.4 1157.34   4
  -1 -10   5 15708.2 1092.85   9
   1 -10  -5 15281.8 1196.63   9
  -1 -10   4 25453.5 1338.09   4
  -1 -10   4 27358.6 1437.09   9
   1 -10  -4 26270.7 1465.09  12
   1 -10  -4 26500.6 1495.74   2
  -1 -10   4 26308.5 1443.21   2
  -1 -10   3 40814.2 1776.33   2
   1 -10  -3 40772.8 1720.89   7
   1 -10  -3 40765.9 1782.30  12
   1 -10  -3 42234.2 1848.59   2
  -1 -10   3 41153.5 1763.51   9
  -1 -10   3 36828.8 1513.88   4
   1 -10  -2 15774.9 1131.40  12
   1 -10  -2 15293.4 1129.68   2
  -1 -10   2 14855.2 1103.60   2
  -1 -10   2 14722.9 692.026   7
  -1 -10   2 13303.4 872.050   4
   1 -10  -2 13202.8 540.444   4
   1 -10  -2 16243.9 1056.27   7
  -1 -10   2 14362.7 910.336   3
  -1 -10   1 38524.2 1229.19   7
   1 -10  -1 40673.0 1580.26   7
  -1 -10   1 39967.6 1773.87   9
   1 -10  -1 37285.0 1091.79   4
  -1 -10   1 43267.3 1826.64   2
   1 -10  -1 43597.4 1822.21  12
  -1 -10   1 38925.1 1365.00   4
   1 -10  -1 42228.8 1817.70   2
   1 -10   0 24243.0 1369.97  12
  -1 -10   0 23733.3 1383.37   9
  -1 -10   0 24705.2 1082.97   7
  -1 -10   0 22366.9 966.367   4
  -1 -10   0 23336.0 1368.11   2
  -1 -10   0 23217.0 996.169   3
  -1 -10   0 24564.5 1246.25  12
   1 -10   0 25103.1 1399.31   2
  -1 -10  -1 24095.4 1145.65   7
   1 -10   1 27455.3 1200.88   7
  -1 -10  -1 28449.6 991.657   4
  -1 -10  -1 28783.4 1350.92  12
   1 -10   1 30129.2 1529.20   2
   1 -10   1 25223.1 1113.05   4
   1 -10   1 29349.6 1503.26  12
   1 -10   2 10941.1 810.081   4
  -1 -10  -2 10112.2 945.028   9
  -1 -10  -2 10218.4 537.681   4
  -1 -10  -3 34150.7 1497.57  12
   1 -10   3 35928.9 1651.23   2
  -1 -10  -3 34835.1 1693.30   2
  -1 -10  -3 30850.9 1633.67   9
  -1 -10  -4 17562.7 1263.92   9
  -1 -10  -4 17128.8 1211.27   2
   1 -10   4 17955.0 1187.67   2
  -1 -10  -4 16869.2 1087.03  12
  -1 -10  -5 30531.0 1609.88   2
  -1 -10  -5 31243.3 1696.74   9
   1 -10   5 29308.1 1531.49   4
   1 -10   6 6250.76 797.915   4
  -1 -10  -6 7487.09 856.603   2
   1 -10   6 7111.86 783.118   2
  -1 -10  -7 20605.2 1466.72   5
  -1 -10  -7 21266.5 1462.39   9
   1 -10   7 20905.2 1435.88   4
   1 -10   7 24249.6 1337.60   2
  -1 -10  -7 23251.8 1434.52   2
  -1 -10  -8 2539.20 589.284   9
  -1 -10  -8 2217.62 607.516   5
  -1 -10  -8 1928.41 540.904   2
  -1 -10  -9 29489.4 1642.22   2
  -1 -10  -9 28314.1 1742.50   9
   1 -10   9 29556.8 1846.03   4
  -1 -10  -9 32429.2 1935.83   5
  -1 -10 -10 2461.61 613.074   5
   1 -10  10 1883.85 651.122   4
  -1 -10 -10 1229.96 468.812   9
  -1 -10 -11 21566.4 1451.11   2
  -1 -10 -11 23397.1 1766.08   5
   1 -10  11 21988.0 1741.27   4
  -1 -10 -11 23036.6 1630.93   9
   1 -10  12 4620.04 930.034   4
  -1 -10 -12 5279.52 940.966   5
  -1 -10 -12 4742.04 810.838   9
  -1 -10 -12 3270.12 671.857   2
   1 -10  13 13025.6 1494.40   4
  -1 -10 -13 14020.0 1471.40   5
  -1 -10 -13 12013.4 1127.61   2
   1 -10  14 2622.80 792.792   4
  -1 -10 -14 1871.37 573.740   9
   1  -9 -16-453.570 498.718   5
   1  -9 -15-551.397 382.898   2
   1  -9 -15-185.628 455.105   5
   1  -9 -14-109.328 298.261   9
   1  -9 -13 1989.53 641.952   5
  -1  -9  13 1683.31 645.941   4
   1  -9 -12-417.324 454.433   5
   1  -9 -11 3519.39 650.891   2
  -1  -9  11 2438.69 660.467   4
   1  -9 -10 656.795 426.953   5
  -1  -9  10 1269.36 505.149   4
   1  -9  -9 32.8255 278.931   5
  -1  -9   9 126.544 367.637   4
   1  -9  -8 343.885 340.176   5
   1  -9  -8-245.482 171.339  10
   1  -9  -8 236.047 355.742   7
   1  -9  -7 1005.28 392.017   9
   1  -9  -7 948.482 403.376   5
   1  -9  -7 1398.46 464.495   2
   1  -9  -6-11.2770 277.956   9
  -1  -9   6 880.232 372.029   4
   1  -9  -6 148.061 303.017   5
   1  -9  -6 140.616 320.190   2
   1  -9  -5 3959.78 616.914   2
   1  -9  -5 4535.78 650.050   7
   1  -9  -4 900.744 377.270  12
   1  -9  -4 699.867 337.126   7
  -1  -9   4 437.577 303.884   4
   1  -9  -3 3187.32 548.674   2
  -1  -9   3 3638.31 584.545   2
   1  -9  -3 2963.01 522.763  12
  -1  -9   3 3109.57 515.767   9
   1  -9  -3 2669.70 469.710   7
  -1  -9   3 2662.27 242.205   7
  -1  -9   2 3724.25 476.783   4
  -1  -9   2 4055.90 355.095   7
  -1  -9   2 3440.37 463.932   3
   1  -9  -2 2988.84 265.100   4
  -1  -9   2 3740.04 561.797   9
  -1  -9   2 4483.73 620.828   2
   1  -9  -2 2933.66 505.490  12
  -1  -9   1 5111.68 651.133   2
   1  -9  -1 5351.46 581.151   7
  -1  -9   1 5559.47 524.867   4
  -1  -9   1 6105.13 609.040  12
  -1  -9   1 5450.44 662.944   9
   1  -9  -1 4625.32 614.971   2
  -1  -9   0 1213.06 288.622   7
  -1  -9   0 779.301 374.027   2
   1  -9   0 1154.83 381.689  12
   1  -9   0 1553.78 342.087   7
  -1  -9   0 1622.87 376.810  12
   1  -9   0 1536.24 420.579   2
  -1  -9   0 714.304 227.114   4
   1  -9   0 1568.66 378.430   1
  -1  -9   0 1132.56 379.252   9
  -1  -9  -1 6378.59 725.873   9
   1  -9   1 6353.19 606.849   8
   1  -9   1 5571.38 526.125   4
  -1  -9  -1 6857.56 640.895  12
   1  -9   1 7078.50 643.585   1
   1  -9   1 6212.98 688.542  12
  -1  -9  -1 5976.07 702.858   2
   1  -9   1 6417.21 707.247   2
   1  -9   1 5755.99 552.326   7
  -1  -9  -1 6298.25 486.878   3
  -1  -9  -2 299.212 337.086   2
   1  -9   2-18.7368 214.835   1
  -1  -9  -2 185.824 241.858  12
  -1  -9  -2 392.842 149.516   4
  -1  -9  -3 13280.4 1009.82   2
  -1  -9  -3 13803.4 1043.27   9
   1  -9   4 107.940 335.706   2
  -1  -9  -4 726.919 378.417   2
  -1  -9  -4 633.335 302.989  12
  -1  -9  -5 17890.3 1172.21   2
  -1  -9  -5 14974.2 1128.34   9
   1  -9   5 15998.4 1035.41   2
  -1  -9  -6 2273.49 509.030   2
  -1  -9  -6 2456.60 552.798   9
   1  -9   6 2638.46 537.889   4
   1  -9   6 3513.28 552.918   2
  -1  -9  -7 20511.2 1407.98   5
   1  -9   7 19733.6 1359.38   4
   1  -9   7 20835.7 1160.16   2
  -1  -9  -7 19138.3 1042.75  10
  -1  -9  -7 19252.9 1324.33   9
  -1  -9  -7 18239.5 1199.80   2
   1  -9   8 1309.08 469.339   4
  -1  -9  -8 867.996 401.589   2
  -1  -9  -8 815.340 393.734   9
  -1  -9  -8 424.504 340.691   5
  -1  -9  -9 22448.3 1489.94   9
  -1  -9  -9 23535.5 1381.25   2
  -1  -9 -10 1121.14 437.881   9
  -1  -9 -10 684.980 467.960   5
  -1  -9 -11 11673.0 1137.44   9
  -1  -9 -11 11886.7 1029.65   2
  -1  -9 -11 13936.7 1307.57   5
  -1  -9 -12-43.0846 321.649   2
   1  -9  12 1213.80 592.483   4
  -1  -9 -13 12834.8 1381.29   5
  -1  -9 -13 9732.31 1083.16   9
   1  -9  13 11043.9 1338.86   4
  -1  -9 -14-298.853 361.873   9
   1  -8 -16 9621.78 1207.00   5
  -1  -8  16 7831.75 1222.81   4
   1  -8 -15 31369.1 1739.87   2
   1  -8 -15 34558.2 2142.25   5
  -1  -8  15 32221.3 2231.91   4
  -1  -8  14 15909.9 1541.51   4
   1  -8 -14 16728.9 1453.40   5
   1  -8 -14 15362.4 1230.95   2
   1  -8 -14 15283.7 1203.34   9
   1  -8 -13 21484.8 1594.35   5
   1  -8 -13 18723.2 1307.24   9
   1  -8 -13 20340.2 1372.96   2
   1  -8 -12 3016.83 579.089   9
  -1  -8  12 2069.51 660.626   4
   1  -8 -12 3031.88 597.030   2
   1  -8 -11 23546.8 1417.81   2
   1  -8 -10 17709.5 1214.43   9
   1  -8 -10 19308.5 1263.19   2
  -1  -8  10 18928.8 1439.33   4
   1  -8  -9 44881.1 1968.18   5
   1  -8  -9 41673.3 1808.70   9
   1  -8  -8 21410.9 1323.68   5
   1  -8  -8 19259.2 1219.43   2
  -1  -8   8 19868.6 1341.83   4
   1  -8  -7 50713.8 1954.07   5
   1  -8  -7 49604.7 1879.50   2
   1  -8  -6 16732.1 1098.28   2
   1  -8  -6 15964.7 1125.77   7
   1  -8  -5 44424.6 1773.20   7
   1  -8  -5 46742.3 1513.60  10
  -1  -8   5 47582.9 1770.36   4
   1  -8  -5 46272.8 1756.12   2
  -1  -8   4 28570.2 1319.93   2
   1  -8  -4 29524.2 1394.20  12
  -1  -8   4 28392.4 1302.86   4
   1  -8  -4 28898.7 1232.80  10
   1  -8  -4 27348.8 1342.21   2
  -1  -8   3 69794.9 1930.21   3
  -1  -8   3 67774.4 1881.38   4
   1  -8  -3 70069.0 2083.85  12
  -1  -8   2 32656.4 1255.59   3
  -1  -8   2 31687.2 1217.21   4
   1  -8  -2 34423.4 1384.30   1
   1  -8  -2 33523.0 1424.45  12
   1  -8  -2 28883.2 726.218   4
  -1  -8   1 81493.9 1947.64  12
   1  -8  -1 85878.7 2243.56  12
   1  -8  -1 89232.4 2125.78   1
  -1  -8   1 82415.6 1575.28   7
   1  -8  -1 90813.4 2139.71   8
   1  -8  -1 84151.3 2209.77  10
  -1  -8   1 83136.0 1817.75   4
  -1  -8   0 5062.17 458.374   3
   1  -8   0 4981.99 513.349   7
   1  -8   0 5202.21 442.610   4
   1  -8   0 6658.04 682.089   2
  -1  -8   0 5727.15 621.245   1
   1  -8   0 5589.95 628.118  12
  -1  -8  -1 53416.1 1782.39  10
   1  -8   1 54582.0 1541.44   1
   1  -8   1 49909.4 1426.86   4
  -1  -8  -1 49165.7 1518.47  12
  -1  -8  -2 34539.8 903.097   4
  -1  -8  -2 35097.3 1297.42  12
   1  -8   2 34546.9 1287.46   4
  -1  -8  -2 37298.6 1472.49  10
  -1  -8  -2 35991.9 970.566   3
  -1  -8  -2 36046.3 1497.87   2
   1  -8   3 60296.3 1849.89   2
  -1  -8  -3 57534.8 1894.33   2
   1  -8   3 57547.2 1770.36   4
   1  -8   3 61884.3 1880.99  11
  -1  -8  -3 55976.2 1674.84  12
   1  -8   4 27141.1 1246.56  11
  -1  -8  -4 25308.7 1179.32  10
  -1  -8  -4 25381.1 1344.93   9
  -1  -8  -4 26041.4 1305.15   2
   1  -8   4 26947.9 1244.23   2
   1  -8   4 25595.0 1268.18   4
  -1  -8  -5 65133.7 2232.85   5
   1  -8   5 63560.0 2086.87   4
   1  -8   5 68120.2 1927.99  11
  -1  -8  -5 67249.6 2218.33   9
  -1  -8  -5 66459.7 2055.68   2
  -1  -8  -6 14077.2 1090.87   5
  -1  -8  -6 11803.5 980.245   9
   1  -8   6 15086.9 936.037   2
   1  -8   6 14931.5 924.061  11
  -1  -8  -7 33621.8 1504.25   2
  -1  -8  -7 32879.6 1634.32   9
  -1  -8  -7 36099.1 1758.58   5
   1  -8   7 32533.1 1671.08   4
  -1  -8  -8 4945.05 697.352   9
   1  -8   8 5779.65 797.089   4
   1  -8   9 32645.4 1828.54   4
  -1  -8  -9 34020.3 1832.74   5
  -1  -8  -9 30446.1 1468.50   2
  -1  -8 -10 8567.85 994.102   5
   1  -8  10 9272.74 1068.34   4
  -1  -8 -10 8786.05 824.694   2
  -1  -8 -10 6252.89 371.433   3
  -1  -8 -10 7199.83 843.776   9
  -1  -8 -11 12756.6 1138.84   9
  -1  -8 -11 16109.0 1378.46   5
  -1  -8 -12 3013.35 541.597   2
   1  -8  12 1974.06 622.955   4
   1  -8  13 13319.3 1418.72   4
  -1  -8 -13 14134.4 1397.96   5
  -1  -8 -13 14931.1 1267.27   9
  -1  -8 -13 15191.4 1101.89   2
   1  -8  14 7760.89 1138.53   4
  -1  -8 -14 5681.35 970.507   5
   1  -8  15 5637.01 1077.48   4
  -1  -7  16 1017.33 600.731   4
  -1  -7  15 267.323 493.114   4
   1  -7 -14 1339.94 537.612   5
  -1  -7  14 865.837 515.643   4
   1  -7 -13-391.083 363.206   5
  -1  -7  13 332.294 422.906   4
   1  -7 -12 1063.54 390.918   9
   1  -7 -12 1487.09 493.396   5
   1  -7 -11 335.826 310.178   9
   1  -7 -11 222.561 78.9320   3
  -1  -7  11 291.300 397.627   4
   1  -7 -10 652.482 378.449   5
  -1  -7  10-318.010 351.980   4
   1  -7 -10 512.751 308.642   9
  -1  -7   9 2502.01 560.849   4
   1  -7  -9 2900.12 550.318   5
   1  -7  -8 498.111 305.066   9
   1  -7  -8 430.232 317.467   5
  -1  -7   8 653.363 394.381   4
  -1  -7   7 866.678 372.172   4
  -1  -7   6 1666.54 427.583   4
   1  -7  -6 945.910 244.470  10
   1  -7  -6 926.898 331.556   9
  -1  -7   5 105.080 250.714   3
   1  -7  -5 527.015 307.505   7
   1  -7  -5-86.1706 257.513   5
   1  -7  -4 6038.45 616.383   8
   1  -7  -4 5754.65 614.076   1
  -1  -7   4 5201.62 570.570   4
   1  -7  -4 5621.98 618.727   7
  -1  -7   3 139.109 224.685   3
   1  -7  -3 517.847 270.761   1
   1  -7  -3-33.5928 209.751   7
  -1  -7   2 1192.43 298.556   3
  -1  -7   2 1483.45 354.861   9
  -1  -7   2 1857.20 330.438   4
  -1  -7   2 1586.53 386.916  10
   1  -7  -2 1568.10 350.625   6
   1  -7  -2 1681.56 350.077   1
   1  -7  -1 9562.97 677.799   1
   1  -7  -1 8626.36 637.221   8
   1  -7  -1 9106.17 705.877  10
   1  -7  -1 9221.90 661.226   7
  -1  -7   1 9661.95 757.971  10
  -1  -7   1 8688.62 614.619  12
  -1  -7   1 8974.20 717.327   9
  -1  -7   0 19439.5 885.742  12
  -1  -7   0 20049.3 823.819   3
   1  -7   0 19172.6 888.293   7
  -1  -7   0 19692.7 1038.08  10
   1  -7   0 20657.0 923.650   1
   1  -7   1 687.278 302.945  10
  -1  -7  -1 995.325 266.889  12
  -1  -7  -1 867.633 303.638   6
   1  -7   1 857.429 317.325   2
   1  -7   1 1049.25 265.146   1
   1  -7   1 847.834 310.155  11
  -1  -7  -1 734.519 189.581   4
  -1  -7  -2 3275.59 471.122  11
  -1  -7  -2 3661.57 517.291   2
  -1  -7  -2 3800.71 501.706   6
  -1  -7  -2 3545.26 413.818  12
   1  -7   3 2266.82 435.618  10
  -1  -7  -3 3120.71 477.530   6
  -1  -7  -3 2129.07 358.180  12
   1  -7   3 2007.84 382.290  11
   1  -7   3 1606.66 365.445   2
  -1  -7  -3 3188.18 484.217   8
  -1  -7  -3 2205.94 412.492  11
  -1  -7  -4 9713.02 690.517  10
   1  -7   4 10351.4 740.422   2
   1  -7   4 9833.79 773.478   4
  -1  -7  -4 10213.2 781.592  11
   1  -7   5 12811.7 931.296   4
  -1  -7  -5 13214.4 881.418   2
  -1  -7  -5 12482.2 867.539  11
   1  -7   6 11217.2 928.658   4
  -1  -7  -6 11392.0 833.141  11
   1  -7   6 13042.6 792.470  11
   1  -7   6 12423.1 776.522   2
  -1  -7  -6 10503.4 797.787   2
  -1  -7  -7 4833.35 588.099  11
  -1  -7  -7 4093.90 591.531   9
   1  -7   7 4388.96 659.513   4
  -1  -7  -7 5624.62 620.320   2
  -1  -7  -8 15841.1 1179.87   5
  -1  -7  -8 12870.7 553.791   3
  -1  -7  -8 14350.2 1064.80   9
  -1  -7  -9 2564.68 477.149   2
  -1  -7  -9 2640.71 306.672   3
   1  -7  10 15505.0 1301.00   4
  -1  -7 -10 15487.6 1004.99   2
  -1  -7 -10 16091.3 1178.15   9
  -1  -7 -10 13322.2 673.728   3
  -1  -7 -11 7866.88 568.913   3
   1  -7  11 7977.49 1005.39   4
  -1  -7 -12 9646.02 970.894   9
  -1  -7 -12 9659.25 1088.27   5
   1  -7  12 10387.9 1175.04   4
  -1  -7 -13 7888.05 758.768   2
   1  -7  14 15774.2 1566.20   4
   1  -7  15 6361.65 1086.48   4
  -1  -7 -15 5949.87 984.986   5
  -1  -6  16 33167.4 2234.50   4
  -1  -6  15 964.964 555.954   4
   1  -6 -14 63696.2 2136.98   9
   1  -6 -14 66255.1 2689.43   5
   1  -6 -13 864.681 351.039   9
  -1  -6  13 1779.08 600.071   4
   1  -6 -13 1381.49 475.869   5
   1  -6 -11 1264.43 432.484   5
  -1  -6  11 1482.89 512.559   4
   1  -6 -10 111693. 1635.55   3
   1  -6  -8 105073. 1019.67   3
   1  -6  -8 150285. 2941.19   9
   1  -6  -7 3995.98 535.569  11
   1  -6  -7 3149.61 484.053   9
   1  -6  -7 3806.90 529.417   5
  -1  -6   7 4004.85 595.439   4
   1  -6  -6 114028. 2492.88  11
   1  -6  -6 109644. 2472.68   5
   1  -6  -6 118074. 2623.59   6
   1  -6  -6 104220. 2390.92   9
  -1  -6   6 107556. 2593.39   4
  -1  -6   5 6058.22 617.678  10
  -1  -6   5 5820.12 625.851   3
  -1  -6   5 5210.32 587.759   4
   1  -6  -5 4984.53 550.429   5
   1  -6  -4 134146. 2197.13  10
   1  -6  -4 135797. 2669.10   7
   1  -6  -4 140369. 2623.77   8
  -1  -6   4 135332. 2581.48   4
   1  -6  -3 1182.99 311.733   8
  -1  -6   3 1177.74 298.632   4
   1  -6  -3 1912.03 370.083   7
  -1  -6   2 293116. 3484.93   9
  -1  -6   2 284105. 3258.52   4
   1  -6  -2 296660. 3617.24   6
   1  -6  -2 286042. 3482.97   7
  -1  -6   2 304667. 3838.55  10
   1  -6  -2 294029. 3466.18   1
  -1  -6   1 9876.39 585.037   4
   1  -6  -1 10401.1 648.622   8
  -1  -6   1 10952.2 750.986  10
   1  -6  -1 10372.3 654.458   7
  -1  -6   0 114596. 2194.98   6
  -1  -6   0 116498. 2293.61  10
   1  -6   0 109164. 2198.13  10
   1  -6   0 106134. 1687.91   4
   1  -6   0 112537. 1981.20   7
  -1  -6   0 108666. 1869.03  12
  -1  -6  -1 421.784 163.127   4
  -1  -6  -1 378.886 233.101   6
   1  -6   1 750.978 290.539  11
  -1  -6  -1 443.610 239.998  10
   1  -6   1 812.021 295.485   2
   1  -6   1 350.611 190.437   8
  -1  -6  -1-236.306 206.878  12
  -1  -6  -2 117742. 2283.37   2
  -1  -6  -2 117755. 1504.32   4
  -1  -6  -2 117121. 2001.75  12
  -1  -6  -3 1306.29 324.384   8
  -1  -6  -3 1115.89 287.955  10
   1  -6   3 1195.60 312.745   4
   1  -6   3 1138.34 335.924  10
  -1  -6  -3 600.373 279.014   6
  -1  -6  -3 1337.90 328.026  11
   1  -6   4 106184. 2360.42   4
   1  -6   4 105442. 2037.81  11
  -1  -6  -4 105798. 2388.35   8
   1  -6   4 101614. 1993.01   2
   1  -6   4 104667. 2334.37  10
   1  -6   5 1556.16 321.498   2
  -1  -6  -5 1594.12 375.668   8
  -1  -6  -5 1860.90 373.772   2
   1  -6   5 1665.54 321.201  11
   1  -6   5 2320.93 436.562   4
  -1  -6  -5 1569.75 385.578   6
   1  -6   6 21433.7 1218.34   4
   1  -6   6 22233.8 929.178   2
  -1  -6  -6 19848.6 996.853   2
  -1  -6  -6 22178.7 1053.44  11
   1  -6   6 22594.0 934.465  11
  -1  -6  -6 21035.5 1145.14   9
  -1  -6  -7 1153.62 320.290   2
  -1  -6  -7 995.083 204.811   3
  -1  -6  -8 44393.4 1732.45   9
  -1  -6  -8 40563.2 1080.71   3
  -1  -6  -8 41095.0 1461.29  11
   1  -6   8 39358.6 1801.29   4
  -1  -6  -9 1107.74 324.301  11
  -1  -6  -9 913.415 379.262   5
  -1  -6  -9 942.151 354.264   9
  -1  -6 -10 32476.8 1147.73   3
  -1  -6 -10 30905.4 1529.52   9
   1  -6  10 33760.5 1832.56   4
  -1  -6 -10 32389.2 1342.07  11
  -1  -6 -11 1678.77 338.462   3
  -1  -6 -11 2069.94 527.307   5
   1  -6  12 9557.15 680.809   8
  -1  -6 -12 8337.79 719.561   2
   1  -6  12 9810.19 1120.77   4
  -1  -6 -12 6845.15 907.070   5
   1  -6  13 557.917 251.702   8
  -1  -6 -13 70.3296 339.131   5
   1  -6  13 661.523 486.989   4
  -1  -6 -14 14584.0 1396.77   5
   1  -6  15 656.817 537.615   4
   1  -6  16 13980.2 1541.12   4
  -1  -5  17 208.269 335.977   8
  -1  -5  17 1544.29 646.750   4
  -1  -5  16 1728.59 613.351   4
  -1  -5  16 1643.49 489.699   8
  -1  -5  15-176.787 316.676   8
  -1  -5  14 217.564 394.642   4
   1  -5 -14 473.132 264.086   9
   1  -5 -13 84.5669 223.358   9
  -1  -5  13 577.567 419.319   4
  -1  -5  12 705.263 97.3991   9
   1  -5 -12 880.688 400.248   5
   1  -5 -11 1345.81 279.915   3
  -1  -5  11 1512.12 498.940   4
   1  -5 -11 1154.06 331.855   9
   1  -5  -9 3579.54 496.919  11
   1  -5  -8 2831.07 265.355   3
   1  -5  -8 2660.97 418.019   9
   1  -5  -7 1145.74 152.295   3
   1  -5  -7 842.329 332.925   6
   1  -5  -7 1169.68 312.673  11
   1  -5  -7 1504.01 336.691   9
  -1  -5   7 1263.15 327.592  10
   1  -5  -6 2805.79 439.058   6
  -1  -5   6 3154.35 482.487   3
   1  -5  -6 1631.85 126.703   3
   1  -5  -6 2429.82 397.657   5
   1  -5  -6 2293.37 419.904   8
   1  -5  -5 1195.99 312.804   6
   1  -5  -5 633.583 255.468   5
  -1  -5   4 3052.01 431.070   4
   1  -5  -4 2491.57 376.670   6
  -1  -5   4 3196.18 441.682   3
  -1  -5   3 8491.89 644.772  10
   1  -5  -3 8261.34 528.068  10
  -1  -5   3 8686.86 633.585   3
   1  -5  -2 15787.5 739.049  10
   1  -5  -2 16327.2 804.595   7
  -1  -5   2 14802.3 723.691   4
   1  -5  -2 15418.0 756.606   8
   1  -5  -2 15152.1 754.073   1
   1  -5  -1 9967.96 617.160  10
  -1  -5   1 9859.56 532.040  12
   1  -5  -1 10063.6 608.204   7
   1  -5  -1 9218.41 563.640   1
   1  -5   0 11851.7 621.065   7
  -1  -5   0 12576.6 717.338  10
   1  -5   0 11607.8 579.648   1
   1  -5   0 11932.1 692.304  10
   1  -5   0 11065.7 525.142   4
  -1  -5   0 13167.4 696.798   6
  -1  -5  -1 8979.18 605.224  10
   1  -5   1 7510.17 579.057  10
  -1  -5  -1 7607.73 473.958  12
   1  -5   1 7970.69 457.294   1
  -1  -5  -1 7512.32 409.368   4
   1  -5   1 7925.89 563.587  11
   1  -5   1 8290.76 504.376   7
   1  -5   1 7631.64 552.895   2
   1  -5   2 26579.4 958.489   2
  -1  -5  -2 26472.9 1011.05   2
  -1  -5  -2 27061.2 982.722  10
   1  -5   2 25639.4 964.542   4
   1  -5   2 27477.0 979.667  11
  -1  -5  -2 26756.4 1013.97  11
  -1  -5  -3 14156.5 758.334  11
  -1  -5  -3 14319.4 707.243  10
  -1  -5  -3 14736.4 820.723   6
   1  -5   3 15038.8 722.601   2
   1  -5   3 16317.6 757.536  11
  -1  -5  -3 14194.6 485.891   4
   1  -5   3 15823.6 837.601   4
  -1  -5  -4 12640.8 717.625   2
   1  -5   4 14232.1 850.362   4
  -1  -5  -4 13065.8 734.752  11
  -1  -5  -5 24831.4 1140.15   8
   1  -5   5 24531.6 882.045   2
   1  -5   5 27165.6 924.911  11
  -1  -5  -5 26214.1 1030.66  11
  -1  -5  -6 11353.0 702.773   2
  -1  -5  -6 11817.4 815.823   9
  -1  -5  -6 11703.4 553.344   3
  -1  -5  -6 12448.9 866.047   1
  -1  -5  -7 8903.00 636.788   2
  -1  -5  -7 7916.06 499.841   3
  -1  -5  -7 9092.35 644.624  11
  -1  -5  -8 9361.09 770.215   9
  -1  -5  -8 9208.71 568.697   3
  -1  -5  -8 7502.46 602.118   2
  -1  -5  -8 7896.67 786.609   5
   1  -5   8 9327.73 723.225  10
  -1  -5  -9 10376.7 710.663   2
  -1  -5  -9 9813.33 642.406   3
  -1  -5  -9 9525.17 636.497   3
   1  -5   9 10534.6 978.374   4
  -1  -5  -9 10236.3 830.071   9
  -1  -5 -10 11404.0 750.925  11
   1  -5  10 11256.6 813.017  10
  -1  -5 -10 11524.3 1009.62   5
  -1  -5 -10 11356.8 737.368   3
  -1  -5 -10 10018.1 339.437  10
   1  -5  10 11030.0 1054.89   4
  -1  -5 -11 7678.93 636.155  11
  -1  -5 -11 7544.15 869.948   5
   1  -5  11 7863.74 946.510   4
  -1  -5 -12 11577.5 850.684   3
  -1  -5 -12 11583.9 776.617   2
  -1  -5 -12 11029.5 1096.23   5
  -1  -5 -13 8391.41 1016.01   5
  -1  -5 -13 9610.79 709.867   2
   1  -5  15 8345.66 1144.93   4
   1  -5  16 7267.33 1128.53   4
   1  -5  17 5539.02 1029.95   4
  -1  -4  18 7037.82 1120.74   4
  -1  -4  17 25337.0 1602.77   8
  -1  -4  17 24458.6 1909.54   4
   1  -4 -16 10559.7 950.024   3
  -1  -4  15 25366.6 1481.27   8
  -1  -4  15 21971.2 1697.90   4
  -1  -4  14 22223.2 1337.49   8
  -1  -4  14 20395.9 1570.23   4
  -1  -4  13 49403.4 2305.68   4
   1  -4 -12 8884.59 708.430   4
   1  -4 -12 9575.82 737.606   3
  -1  -4  12 8958.86 988.502   4
   1  -4 -12 9772.75 930.773   5
   1  -4 -12 8648.79 681.200   9
  -1  -4  11 50184.3 2128.98   4
   1  -4 -11 43996.7 1458.24   9
   1  -4 -11 44549.1 1832.61   5
   1  -4 -11 49011.9 1673.20  11
   1  -4 -11 45388.8 1452.96   3
   1  -4 -10 25590.5 1327.77   5
  -1  -4  10 28010.0 1526.06   4
   1  -4  -9 65322.3 1481.40   4
   1  -4  -9 69094.7 2041.80   5
   1  -4  -9 65887.9 1493.92   3
  -1  -4   9 67544.7 1737.19  10
   1  -4  -9 68575.9 1856.80  11
   1  -4  -8 27747.1 1157.21  11
   1  -4  -8 26998.3 872.314   4
   1  -4  -8 26014.4 1056.19   9
   1  -4  -8 27281.4 878.394   3
   1  -4  -8 27057.9 1223.89   5
   1  -4  -7 46238.8 1436.70  11
  -1  -4   7 48071.6 1436.94  10
   1  -4  -7 45722.9 1005.76   3
   1  -4  -7 46546.8 1511.78   5
   1  -4  -7 48635.3 1617.15   8
   1  -4  -6 4863.03 482.847  11
  -1  -4   6 5198.42 571.267   3
  -1  -4   6 4937.30 487.207  10
   1  -4  -6 4578.15 479.805   5
   1  -4  -6 4214.16 444.917   9
   1  -4  -6 3858.54 463.626   6
   1  -4  -5 121523. 2232.19   6
   1  -4  -5 120239. 2154.99  11
   1  -4  -5 117737. 2132.53   5
  -1  -4   4 76342.7 1696.78  10
   1  -4  -4 72731.7 1658.83   8
  -1  -4   3 78336.2 1393.44   9
   1  -4  -3 79554.0 1624.42   8
   1  -4  -3 79894.9 1630.85   6
   1  -4  -3 74372.8 1343.46  10
   1  -4  -2 71876.0 1441.48   8
  -1  -4   2 73038.0 1473.25   4
   1  -4  -1 255769. 2686.53   7
  -1  -4   1 256884. 2592.57   3
   1  -4  -1 251413. 2490.39   8
  -1  -4   1 263978. 2896.88  10
   1  -4  -1 248875. 2623.62  10
  -1  -4   1 257082. 2683.77   9
   1  -4   0 30212.7 806.120   1
   1  -4   0 29912.6 802.975   8
  -1  -4   0 30351.9 926.955   6
   1  -4   0 31440.8 909.900   7
   1  -4   0 28415.4 771.296   4
  -1  -4   0 30466.8 808.369   4
   1  -4   1 90489.5 1530.72   4
  -1  -4  -1 86174.1 1608.95   6
   1  -4   1 86107.3 1236.12   8
   1  -4   2 47821.4 1236.65   4
  -1  -4  -2 40408.6 1109.20   2
  -1  -4  -2 41858.3 827.495   4
   1  -4   2 48646.4 1279.91  10
  -1  -4  -3 122008. 2129.44   6
  -1  -4  -3 119157. 1883.95   2
  -1  -4  -3 124580. 2145.34   8
   1  -4   3 125514. 1770.95   2
   1  -4   4 74133.3 1348.53   2
   1  -4   4 73372.4 1344.56  11
  -1  -4  -4 68739.3 1459.63  11
   1  -4   5 69641.0 1646.75  10
  -1  -4  -5 70745.6 1801.84   1
  -1  -4  -5 70543.9 1774.89   8
  -1  -4  -5 66524.7 1458.05   2
  -1  -4  -5 69366.9 1795.50   6
   1  -4   5 71004.5 1292.50   2
  -1  -4  -5 64778.0 1671.72   9
  -1  -4  -6 2151.90 324.083   2
  -1  -4  -6 2268.42 396.859   1
  -1  -4  -7 81017.1 2077.22   8
  -1  -4  -7 77419.9 1952.48   9
  -1  -4  -7 75158.3 1608.89  11
  -1  -4  -7 80708.7 2109.64   1
  -1  -4  -8 10488.1 763.718   9
  -1  -4  -8 10034.2 621.305   2
  -1  -4  -8 10312.5 634.603   3
  -1  -4  -9 32742.3 1110.76   2
   1  -4   9 36466.1 1716.75   4
  -1  -4  -9 34440.8 1224.09   3
  -1  -4  -9 34857.9 1584.14   5
   1  -4  10 32301.3 1697.21   4
  -1  -4 -10 32010.0 1599.16   5
   1  -4  10 30318.4 1200.38  10
  -1  -4 -10 30840.1 1099.48  11
  -1  -4 -11 44503.7 1968.06   5
  -1  -4 -11 44026.4 1588.76   3
   1  -4  11 47067.5 2135.66   4
   1  -4  12 4934.45 795.233   4
  -1  -4 -12 3292.28 612.791   5
  -1  -4 -13 16947.4 841.759   2
   1  -4  13 18299.8 1476.23   4
   1  -4  13 18954.0 1020.23   8
  -1  -4 -13 15197.6 1071.61   3
  -1  -4 -14 9941.28 923.662   3
   1  -4  15 8184.51 1097.83   4
  -1  -4 -15 7725.44 873.901   3
   1  -4  16 11433.8 1354.08   4
  -1  -4 -16 10994.9 1040.36   3
  -1  -3  18-551.858 519.809   4
  -1  -3  18-139.123 315.611   8
  -1  -3  17 3973.71 728.728   8
  -1  -3  17 4483.97 891.043   4
   1  -3 -17 2762.17 615.231   3
  -1  -3  16 121.882 418.723   4
  -1  -3  15 656.666 482.982   4
   1  -3 -15 634.849 357.864   3
  -1  -3  15 447.133 362.355   8
   1  -3 -14-369.341 313.927   3
  -1  -3  14 444.528 416.601   4
   1  -3 -13 649.482 322.130   3
  -1  -3  13 1255.69 398.975   8
   1  -3 -12 1402.76 372.750   3
   1  -3 -11 771.823 287.266  11
   1  -3 -11 474.039 216.988   9
  -1  -3  11 419.008 356.525   4
  -1  -3  10 932.419 388.180   4
   1  -3 -10 952.774 248.002   9
   1  -3 -10 801.861 266.024  11
  -1  -3   9 2184.73 319.460  10
   1  -3  -9 2498.97 353.267   4
   1  -3  -9 2365.50 349.081   3
  -1  -3   9 3211.92 538.842   4
   1  -3  -9 2643.16 442.328   5
   1  -3  -9 2395.31 373.820  11
  -1  -3   8 417.970 260.259   3
   1  -3  -8 691.767 250.447  11
   1  -3  -8 294.226 239.614   5
   1  -3  -7 7149.23 460.146   4
   1  -3  -7 6306.53 436.759   3
   1  -3  -7 7081.63 585.477   5
  -1  -3   6 1344.15 344.819   3
   1  -3  -6 1617.15 278.809   9
   1  -3  -5 7104.04 518.070   5
   1  -3  -5 6706.55 523.067   6
  -1  -3   5 8011.62 630.987   3
   1  -3  -5 7154.21 557.371   8
   1  -3  -5 6911.72 514.989  11
   1  -3  -5 6839.62 357.691   3
  -1  -3   4 1070.12 253.595  10
   1  -3  -4 1111.35 269.811   8
   1  -3  -4 704.507 226.177   5
  -1  -3   4 902.128 287.349   3
   1  -3  -3 404.896 155.187  10
  -1  -3   3 757.099 254.105   3
   1  -3  -3 715.723 241.128   5
   1  -3  -3 710.817 230.119   8
   1  -3  -3 293.788 103.539   3
  -1  -3   3 695.068 234.529  10
  -1  -3   2 27431.5 733.027   9
   1  -3  -2 28484.2 829.461   6
   1  -3  -2 28236.3 755.467  10
   1  -3  -2 27066.7 512.795   3
   1  -3  -1 48744.8 750.135   4
  -1  -3   1 53022.2 1101.45   3
   1  -3  -1 49532.1 993.987   1
   1  -3  -1 49367.5 973.610   8
   1  -3  -1 49621.8 1039.90  10
   1  -3   0 38462.7 774.889   1
   1  -3   0 36653.5 805.611   4
  -1  -3   0 36832.1 880.727   6
   1  -3   0 37373.8 757.558   8
   1  -3   0 36116.9 792.233   3
  -1  -3   0 38443.4 866.854   3
   1  -3   1 10037.1 526.010  10
   1  -3   1 10019.1 499.518  11
  -1  -3  -1 8921.57 417.684   3
  -1  -3  -1 9337.25 407.590   4
  -1  -3  -2 522.323 231.070  11
  -1  -3  -2 275.283 145.806   4
   1  -3   3 13741.7 519.214   2
  -1  -3  -3 12372.3 556.688  11
  -1  -3  -3 12469.4 557.481   2
  -1  -3  -3 12084.5 639.561   6
   1  -3   3 14014.6 528.275  11
   1  -3   4 1484.18 275.632  10
  -1  -3  -4 920.477 197.502   3
  -1  -3  -4 1124.69 277.337   8
  -1  -3  -4 1430.75 245.236   2
  -1  -3  -4 977.772 283.796   6
   1  -3   4 880.812 195.701   2
  -1  -3  -5 45819.6 1096.89   3
  -1  -3  -5 51177.0 1428.95   1
  -1  -3  -5 49243.7 1104.56  11
  -1  -3  -5 49637.3 1387.42   8
  -1  -3  -5 48375.8 1342.85   9
   1  -3   5 48845.3 1252.54  10
  -1  -3  -6 194.981 195.275   8
  -1  -3  -6 397.378 182.062   2
   1  -3   6 203.606 173.551  10
  -1  -3  -6 603.998 260.960   1
  -1  -3  -6 373.242 186.433   3
  -1  -3  -7 46948.7 1524.02   1
  -1  -3  -7 44177.3 1096.85  11
  -1  -3  -7 43713.1 1089.83   2
  -1  -3  -7 43416.1 1370.13   9
  -1  -3  -8 619.379 237.949   4
  -1  -3  -8 643.489 280.503   1
   1  -3   8 369.331 170.198   8
  -1  -3  -8 285.009 177.022  11
   1  -3   9 28430.0 1046.37  10
  -1  -3  -9 28858.9 1186.71   4
   1  -3   9 27430.0 1452.01   4
  -1  -3  -9 27636.1 1157.86   3
  -1  -3  -9 28601.6 1168.29   3
  -1  -3  -9 28352.7 1390.13   5
  -1  -3  -9 28069.2 921.859  11
   1  -3  10 458.377 221.811   8
  -1  -3 -10 646.076 213.736  11
  -1  -3 -10 150.675 237.600   3
  -1  -3 -10 727.057 219.342   2
  -1  -3 -10 361.510 313.951   5
   1  -3  11 41143.6 1324.15   9
   1  -3  11 40704.3 1346.83   8
   1  -3  11 40791.7 1935.27   4
   1  -3  12 3560.33 681.746   4
  -1  -3 -12 2599.88 493.235   3
  -1  -3 -12 2868.48 337.250   2
  -1  -3 -13 22120.1 849.655   2
  -1  -3 -13 20171.2 1275.50   3
   1  -3  13 21432.9 1553.52   4
   1  -3  13 22101.5 1131.07   8
  -1  -3 -14-129.971 305.845   3
   1  -3  14 307.157 263.783   8
   1  -3  15 22432.4 1259.05   8
  -1  -3 -15 19850.5 1388.32   3
  -1  -3 -16-137.788 336.351   3
   1  -3  16 676.398 491.830   4
   1  -3  17 21542.9 1828.95   4
  -1  -3 -17 22313.6 1588.43   3
   1  -3  18 325.919 435.651   4
  -1  -2  19 20070.0 1778.12   4
   1  -2 -18 10709.1 1150.78   3
  -1  -2  17 36640.3 2208.07   4
   1  -2 -16 11032.7 1074.60   3
  -1  -2  15 28911.6 1821.62   4
   1  -2 -14 10363.9 953.574   3
  -1  -2  14 10461.4 943.871   8
  -1  -2  14 10924.4 1106.60   4
   1  -2 -13 29847.9 1490.42   3
  -1  -2  13 29015.4 1457.63   8
   1  -2 -12 27505.4 1191.06  11
   1  -2 -12 28039.5 1364.80   3
  -1  -2  11 34635.2 1663.40   4
   1  -2 -11 34083.1 1419.85   3
   1  -2 -10 25250.9 1151.89   3
   1  -2 -10 25751.7 879.777   9
  -1  -2  10 25505.1 1365.70   4
  -1  -2   9 36395.0 1014.69  10
   1  -2  -9 35634.5 1273.90   4
  -1  -2   9 36932.8 1549.32   4
   1  -2  -9 34548.2 1252.80   3
  -1  -2   8 31297.6 1324.69   3
  -1  -2   8 29473.7 1312.99   4
   1  -2  -8 28286.5 1054.11   3
   1  -2  -7 38264.4 1249.56   5
   1  -2  -7 39910.3 997.335   9
  -1  -2   6 131423. 2404.44   3
   1  -2  -6 121180. 1804.92   4
   1  -2  -5 31757.9 967.294   5
   1  -2  -5 32894.0 842.905   4
  -1  -2   5 33576.5 926.647  10
   1  -2  -5 32595.1 860.068   9
   1  -2  -5 33805.7 858.784   3
   1  -2  -4 114982. 1651.62   5
  -1  -2   4 123944. 2030.17   3
   1  -2  -3 22595.7 549.365   3
   1  -2  -3 21894.8 731.047   8
  -1  -2   2 22286.2 521.335   9
  -1  -2   2 22287.1 734.792   3
   1  -2  -2 21948.4 653.471   8
   1  -2  -1 45794.1 704.559   4
  -1  -2   1 51000.2 993.481   3
  -1  -2   0 66725.7 968.327   6
  -1  -2   0 64810.3 671.714  12
   1  -2   0 69030.1 1093.90  10
   1  -2   1 87727.7 1288.43  10
  -1  -2  -2 29825.8 691.439   2
  -1  -2  -2 29714.0 807.616   6
   1  -2   2 31817.6 638.854   2
  -1  -2  -2 29583.4 718.635   3
  -1  -2  -2 29782.3 687.441  11
   1  -2   3 94709.5 1445.86  10
  -1  -2  -3 94959.1 1215.31  11
   1  -2   4 79838.0 896.568   2
  -1  -2  -4 75463.9 1463.83   8
  -1  -2  -4 73684.7 1451.14   9
  -1  -2  -4 73805.2 1094.05   2
  -1  -2  -5 176199. 1738.34  11
  -1  -2  -5 180924. 2376.20   9
   1  -2   5 180682. 2129.45  10
  -1  -2  -5 175904. 2240.34   3
  -1  -2  -5 177795. 2259.69   4
  -1  -2  -5 180100. 2454.39   1
  -1  -2  -6 29703.7 1049.00   8
  -1  -2  -6 27046.7 970.273   4
  -1  -2  -7 88493.5 1327.04  11
  -1  -2  -7 89616.4 1916.75   8
  -1  -2  -7 88056.4 1830.96   3
   1  -2   7 89215.0 1488.26   8
   1  -2   7 89798.3 1596.30  10
  -1  -2  -7 92091.7 1999.66   1
  -1  -2  -7 87191.9 1863.25   4
  -1  -2  -8 4011.97 463.957   3
  -1  -2  -8 4004.09 477.216   1
  -1  -2  -8 4356.12 477.309   3
  -1  -2  -8 4520.90 488.539   4
   1  -2   8 4769.20 599.077   4
  -1  -2  -9 41680.7 1460.07   3
   1  -2   9 41961.8 1731.58   4
  -1  -2  -9 43021.7 1540.86   1
  -1  -2  -9 42065.5 1477.58   8
   1  -2   9 41846.5 1221.95   8
   1  -2  10 1922.44 486.410   4
  -1  -2 -11 92505.2 2466.60   3
   1  -2  11 99749.2 2163.98   8
   1  -2  11 100131. 2921.31   4
  -1  -2 -11 94752.5 1521.07  11
  -1  -2 -12 13576.4 592.649   2
   1  -2  12 13581.2 1172.37   4
  -1  -2 -12 13129.0 1015.44   3
  -1  -2 -12 13930.7 590.305  11
   1  -2  12 11976.4 821.654   8
  -1  -2 -13 31198.3 1619.03   3
  -1  -2 -14 3768.19 668.484   3
   1  -2  14 2787.84 658.799   4
   1  -2  14 3832.20 561.842   8
  -1  -2 -15 27190.8 1664.98   3
   1  -2  15 28094.3 1886.83   4
   1  -2  16 2827.77 534.096   8
   1  -2  17 25319.6 1922.40   4
  -1  -2 -18 1930.47 573.445   3
   1  -2  18 2200.99 745.278   4
  -1  -1  19-170.546 456.596   4
   1  -1 -19 847.247 455.976   3
  -1  -1  19-110.261 285.791   8
  -1  -1  18 5484.06 987.940   4
  -1  -1  18 5204.90 837.904   8
  -1  -1  18 7099.32 1046.06   6
  -1  -1  17 808.736 427.629   8
   1  -1 -16 214.076 369.814   3
  -1  -1  16 609.523 472.331   4
  -1  -1  15 1962.18 515.032   8
   1  -1 -14 835.144 407.522   3
  -1  -1  14 1036.63 395.563   8
  -1  -1  14 747.277 450.931   4
  -1  -1  13 2749.13 590.084   4
   1  -1 -13 2526.76 528.749   3
  -1  -1  13 2609.00 516.999   8
  -1  -1  12 1785.32 485.345   4
   1  -1 -12 874.752 362.269   3
  -1  -1  12 1456.01 405.833   8
   1  -1 -11 323.667 289.984   3
  -1  -1  11 769.472 325.589   8
  -1  -1  11 117.320 293.274   4
   1  -1 -10 408.641 252.819   4
  -1  -1  10 1783.55 373.114   8
  -1  -1   9 761.303 276.498   5
  -1  -1   9 625.056 299.492   3
  -1  -1   9 1484.53 395.051   4
  -1  -1   8 4692.12 543.019   4
  -1  -1   8 4687.48 523.968   3
  -1  -1   8 5216.46 519.561   5
   1  -1  -8 4600.11 484.470   3
  -1  -1   7 845.387 277.245   3
   1  -1  -7 1644.33 303.047   4
  -1  -1   7 883.889 249.409   5
  -1  -1   6 613.286 172.540  10
  -1  -1   6 538.395 253.969   3
   1  -1  -6 770.391 238.765   3
   1  -1  -5 12857.2 597.731   5
   1  -1  -5 14188.7 629.207   3
   1  -1  -4 15384.1 575.773   4
   1  -1  -3 4566.97 297.142   4
  -1  -1   3 4756.05 379.235   3
   1  -1  -2 9477.97 340.522   6
   1  -1  -1 29340.6 577.910   4
   1  -1  -1 25564.5 563.106  10
  -1  -1   0 26310.7 633.103   3
   1  -1   0 27465.5 588.431   4
   1  -1   1 3963.77 266.832  10
  -1  -1  -1 3632.42 232.856   6
  -1  -1  -2 1200.27 203.704   3
   1  -1   3 735.999 171.884  10
  -1  -1  -3 324.806 166.116   8
  -1  -1  -3 455.430 194.839   1
   1  -1   4 18640.6 501.397   8
  -1  -1  -4 18105.7 407.729  11
  -1  -1  -4 17839.8 647.245   8
  -1  -1  -4 17880.5 665.700   1
  -1  -1  -4 18585.6 719.926   4
  -1  -1  -4 19365.4 729.316   3
   1  -1   5 17383.4 567.994   8
  -1  -1  -5 16499.4 498.119  10
  -1  -1  -5 17498.5 425.690  11
  -1  -1  -5 17824.0 765.948   3
   1  -1   5 17673.1 789.126   5
  -1  -1  -5 17799.5 701.679   8
  -1  -1  -5 17849.6 769.608   4
  -1  -1  -5 16975.3 421.481   2
  -1  -1  -6 19673.1 819.345   1
  -1  -1  -6 18911.8 534.434  10
  -1  -1  -6 19781.3 484.869  11
   1  -1   6 21220.7 941.049   5
   1  -1   6 20994.6 701.192   8
  -1  -1  -6 19492.3 482.486   2
   1  -1   7 4091.02 469.130   5
   1  -1   7 3940.18 506.691   4
  -1  -1  -7 2598.08 341.411   8
  -1  -1  -8 20909.7 1027.73   3
  -1  -1  -8 20048.3 947.803   1
  -1  -1  -8 22188.1 1068.47   4
   1  -1   9 293.755 303.069   4
   1  -1   9 436.104 211.097   8
  -1  -1  -9-142.157 207.309   1
  -1  -1  -9 344.550 248.471   4
  -1  -1  -9 923.019 319.529   3
  -1  -1  -9 731.662 299.699   3
  -1  -1 -10 1232.50 176.884   2
  -1  -1 -10 1114.03 167.094  11
   1  -1  10 1100.34 403.312   4
   1  -1  11 15338.9 900.557   8
  -1  -1 -11 14149.6 1022.55   3
  -1  -1 -11 15228.3 523.755  11
   1  -1  11 14755.6 823.477   9
   1  -1  11 15636.2 1153.64   4
   1  -1  12 32752.1 1374.53   8
  -1  -1 -12 30859.9 1567.47   3
  -1  -1 -12 31771.8 727.975  11
   1  -1  12 31856.9 1701.80   4
   1  -1  13 12777.2 922.409   8
   1  -1  13 10355.8 1053.41   4
  -1  -1 -13 10975.4 410.627   2
   1  -1  14 7408.25 758.256   8
   1  -1  14 8015.67 990.446   4
  -1  -1 -14 7542.91 904.870   3
   1  -1  15 4318.44 782.405   4
   1  -1  15 3810.40 607.493   8
  -1  -1 -15 2821.83 636.724   3
   1  -1  16 11257.9 1227.72   4
   1  -1  16 9911.03 948.550   8
  -1  -1 -16 9311.08 1084.63   3
   1  -1  17 3037.31 732.540   4
  -1  -1 -17 1006.70 541.115   3
  -1  -1 -18 14346.1 1418.46   3
   1  -1  18 18328.8 1680.26   4
  -1   0  19-522.860 476.073   4
  -1   0  19 1061.97 481.986   8
   1   0 -19 186.913 391.105   3
   1   0 -18 27469.3 1913.07   3
  -1   0  18 31831.7 2016.30   4
   1   0 -17 435.188 447.488   3
  -1   0  17 336.393 374.090   8
  -1   0  17-16.0568 372.678   4
  -1   0  16 53549.9 2452.91   6
   1   0 -16 45592.3 2248.17   3
  -1   0  16 48703.6 2297.21   4
  -1   0  15-93.4831 319.835   8
   1   0 -15-404.386 393.370   3
   1   0 -14 46346.1 2085.39   3
  -1   0  14 49085.7 2123.29   4
  -1   0  13-24.0672 296.917   4
  -1   0  13 253.192 316.085   8
  -1   0  12 106637. 2832.07   4
   1   0 -11 484.558 314.962   3
  -1   0  11 423.334 318.550   4
  -1   0  11 131.330 270.828   8
  -1   0  10 104108. 2452.40   3
   1   0 -10 99724.9 2476.02   4
   1   0 -10 94923.5 2426.32   3
  -1   0  10 99774.3 2465.17   4
  -1   0   9-162.236 227.789   3
  -1   0   9 432.233 246.806   8
   1   0  -9 729.897 298.921   3
  -1   0   9 210.218 253.663   4
  -1   0   8 122536. 2310.93   8
  -1   0   8 130034. 2435.03   3
   1   0  -8 122121. 2428.77   3
  -1   0   8 123711. 2422.57   4
   1   0  -8 127985. 2478.34   4
  -1   0   7 238.665 217.843   3
  -1   0   7 229.576 200.435   5
  -1   0   6 84423.2 1732.00   4
  -1   0   6 81660.0 1608.39   5
  -1   0   6 81943.1 1700.68   3
   1   0  -6 81566.4 1717.49   3
  -1   0   5 620.296 242.209   4
  -1   0   5 32.5092 193.146   3
   1   0  -5 299.238 73.3866   9
  -1   0   5 414.993 186.696   5
  -1   0   3 234.468 129.635   5
   1   0  -1 55.4389 111.941   4
  -1   0   1-37.0631 120.524   3
  -1   0   1-10.8291 98.3362   7
  -1   0   0 190720. 1600.87   3
   1   0   0 184250. 1514.00   4
   1   0   1-13.0989 93.2163   5
   1   0   1 166.837 87.6557   1
  -1   0  -1 333.514 147.469   3
   1   0   1-11.0403 118.181   4
  -1   0  -2 128737. 1579.51   3
  -1   0  -2 125649. 1565.91   4
   1   0   3 470.730 189.595   5
  -1   0  -4 24037.2 616.817  10
  -1   0  -4 24194.9 674.584   1
   1   0   4 24788.7 836.275   5
  -1   0  -4 25769.6 881.598   3
   1   0   4 25543.5 680.651   8
  -1   0  -5 357.481 172.762   1
   1   0   5 454.404 222.540   5
   1   0   5 484.970 254.878   4
   1   0   5 301.827 177.697   8
  -1   0  -5 259.193 198.065   3
  -1   0  -6 86086.1 1836.17   3
   1   0   6 89184.0 1927.09   4
   1   0   6 87230.9 1875.96   5
   1   0   6 93179.1 1629.79   9
  -1   0  -6 88300.8 1887.84   3
  -1   0  -6 88242.8 1906.63   4
   1   0   7 296.623 209.553   5
   1   0   7 90.3692 230.939   4
  -1   0  -7 335.344 241.887   3
  -1   0  -7 165.656 171.101   1
  -1   0  -7 92.7498 57.6639  11
  -1   0  -8 83621.8 2122.99   4
   1   0   8 84493.9 2147.05   4
  -1   0  -8 79964.9 1752.82   1
  -1   0  -8 78938.7 2013.75   3
  -1   0  -8 81125.4 2070.20   3
  -1   0  -8 79276.7 868.101  11
   1   0   9 266.007 177.679   9
   1   0   9 214.429 219.785   8
   1   0   9 79.2505 258.150   4
  -1   0  -9 371.745 282.226   3
  -1   0  -9 120.270 69.8634  11
  -1   0  -9-46.4402 175.905   1
   1   0  10 81200.1 1989.27   8
  -1   0 -10 79993.1 971.049  11
  -1   0 -10 81090.3 2023.84   1
  -1   0 -10 75393.1 2238.48   3
  -1   0 -11 351.331 322.931   3
   1   0  11 466.889 293.980   8
   1   0  11 595.182 354.166   4
  -1   0 -11 680.932 288.948   1
   1   0  11-233.561 179.336   9
  -1   0 -12 37871.9 630.109   2
   1   0  12 38154.1 1807.15   4
  -1   0 -12 38169.9 1793.42   3
   1   0  13 334.061 299.737   8
   1   0  13 719.491 387.988   4
  -1   0 -14 26086.4 1647.38   3
   1   0  14 24794.0 1606.90   4
   1   0  15 811.344 433.227   4
   1   0  16 22882.5 1723.06   6
  -1   0 -16 21625.3 1654.77   3
   1   0  17 676.459 469.023   4
  -1   0 -17-605.295 445.422   3
   1   0  17 217.383 469.755   6
  -1   0 -18 20617.7 1729.18   3
   1   0  19 517.790 380.788   4
  -1   0 -19-1283.02 597.158   3
  -1   1  19 1094.57 514.497   4
   1   1 -19 499.303 450.512   3
  -1   1  18 5150.17 939.680   6
   1   1 -18 3251.12 770.740   3
  -1   1  18 4599.13 806.195   8
  -1   1  17 337.701 355.573   4
  -1   1  17 573.047 458.013   8
  -1   1  16 234.417 374.474   4
  -1   1  16 830.119 475.264   6
   1   1 -16-434.911 431.906   3
  -1   1  16 827.858 408.981   8
   1   1 -15 1977.71 575.795   3
  -1   1  15 2744.99 592.671   4
  -1   1  15 2066.47 563.292   6
   1   1 -14 984.925 457.053   3
   1   1 -13 3450.22 624.009   3
  -1   1  13 3094.67 576.131   8
  -1   1  13 2250.01 515.728   4
  -1   1  12 1723.42 467.584   6
  -1   1  12 1324.71 408.531   8
  -1   1  12 1563.76 426.386   4
   1   1 -12 1514.82 448.681   3
   1   1 -11 737.927 356.759   3
  -1   1  11 738.225 339.561   8
  -1   1  11 307.993 292.293   4
  -1   1  10 1671.77 369.791   4
  -1   1  10 922.595 294.881   3
   1   1 -10 1330.14 406.670   3
  -1   1  10 1380.09 376.647   8
  -1   1   9 1250.05 329.879   8
  -1   1   9 1122.52 307.513   5
   1   1  -9 1075.82 356.065   3
  -1   1   8 5606.08 524.447   4
   1   1  -8 4837.14 554.007   3
  -1   1   8 5009.70 521.617   8
   1   1  -8 5508.03 585.014   4
  -1   1   8 4975.51 488.807   3
   1   1  -7 1008.59 322.638   3
  -1   1   7 1911.28 318.870   4
  -1   1   7 1339.12 283.966   5
   1   1  -7 1155.28 312.118   4
  -1   1   6 727.720 229.413   4
  -1   1   6 876.387 247.358   5
  -1   1   6 981.780 245.087   3
   1   1  -5 13666.4 706.092   4
  -1   1   5 13414.3 617.585   5
  -1   1   5 14849.5 635.358   3
  -1   1   4 16199.4 593.325   4
  -1   1   4 14155.4 579.515   6
  -1   1   4 13967.7 556.456   5
  -1   1   3 4596.38 300.206   3
   1   1  -3 4197.40 253.123   7
  -1   1   3 4070.54 226.698  10
  -1   1   3 4492.31 300.046   4
  -1   1   2 9774.48 433.872   7
   1   1  -1 26531.3 508.220   9
  -1   1   1 28502.7 594.922   3
   1   1   0 24887.3 591.156   4
   1   1   0 25339.7 569.222   9
  -1   1   0 28410.4 631.025   3
  -1   1   0 26727.3 551.690  12
   1   1   1 3151.48 239.401   5
   1   1   1 3586.57 212.197   2
   1   1   2 1441.18 202.170   4
   1   1   2 1217.93 198.528   5
  -1   1  -2 1273.55 238.833   4
  -1   1  -2 1373.33 243.203   3
   1   1   2 1151.40 204.372   9
   1   1   2 890.941 141.347  11
   1   1   2 1218.78 199.937   1
  -1   1  -3 543.970 217.287   4
  -1   1  -3 475.244 189.924  10
   1   1   3 555.833 219.345   4
   1   1   3 495.771 190.133   1
   1   1   3 566.610 221.335   3
   1   1   4 18770.6 412.468  11
   1   1   4 19320.7 702.741   9
   1   1   4 17719.9 710.414   4
  -1   1  -4 19041.1 800.472   3
  -1   1  -5 16197.8 598.634  10
   1   1   5 18235.0 728.019   9
  -1   1  -5 17105.6 838.812   4
  -1   1  -5 17738.0 845.343   3
   1   1   5 18415.2 827.857   5
   1   1   5 17279.5 769.175   4
  -1   1  -6 19776.4 685.232  10
   1   1   6 19968.2 814.773   8
  -1   1  -6 21284.4 992.049   4
  -1   1  -6 20429.1 965.760   3
   1   1   6 20900.6 911.907   4
   1   1   7 3552.72 439.597   4
  -1   1  -7 3730.27 483.034   4
  -1   1  -7 3762.04 480.997   3
  -1   1  -7 3365.41 317.882  10
  -1   1  -7 3754.91 485.790   3
   1   1   8 20649.6 947.886   8
   1   1   8 20818.0 1041.47   4
   1   1   8 24094.3 1180.35   5
  -1   1  -8 21276.1 1106.43   3
  -1   1  -8 22898.1 1160.24   3
  -1   1  -9 272.824 73.4617  11
   1   1   9 592.673 223.088   9
  -1   1  -9 452.848 303.786   3
  -1   1  -9 591.685 191.096  10
   1   1   9 461.511 250.844   8
   1   1  10 1253.23 339.075   8
  -1   1 -10 1396.40 241.577  10
   1   1  10 1404.74 385.576   4
  -1   1 -10 1003.54 115.385  11
  -1   1 -10 1486.34 423.324   3
  -1   1 -11 13087.4 345.796  11
   1   1  11 15471.2 1083.94   4
   1   1  11 15169.9 974.868   8
  -1   1 -11 15494.6 915.615   1
   1   1  12 30210.6 1423.65   8
  -1   1 -12 30376.8 894.299  10
  -1   1 -12 30169.6 1657.14   3
   1   1  12 32133.1 1610.06   4
   1   1  13 11374.5 946.583   8
  -1   1 -13 11058.4 1079.09   3
   1   1  13 11253.1 1073.41   6
   1   1  13 10176.3 981.290   4
  -1   1 -14 7922.57 983.705   3
   1   1  15 2423.69 605.924   4
   1   1  15 2216.35 616.197   6
   1   1  15 3844.97 655.094   8
   1   1  16 8907.70 1050.39   4
   1   1  16 10301.2 1195.53   6
  -1   1 -16 8526.09 1101.22   3
   1   1  17 2456.44 713.893   6
   1   1  18 14381.1 1425.08   4
  -1   1 -18 16497.9 1576.13   3
   1   2 -19 18966.0 1756.92   3
  -1   2  19 23196.0 1781.47   8
  -1   2  18 11756.6 1195.75   4
  -1   2  18 12475.9 1300.79   8
   1   2 -18 10183.9 1278.59   3
  -1   2  18 10585.3 1275.49   6
  -1   2  17 40824.6 2182.27   8
   1   2 -17 39629.0 2315.77   3
  -1   2  16 11412.5 1080.42   4
   1   2 -16 12543.7 1294.69   3
  -1   2  16 11484.8 1150.43   8
  -1   2  15 27802.1 1673.24   8
   1   2 -15 25584.0 1732.74   3
  -1   2  14 9712.26 987.122   8
  -1   2  14 11436.8 984.717   4
  -1   2  13 31091.2 1615.36   8
   1   2 -13 29904.7 1714.77   3
  -1   2  13 29746.2 1469.92   4
  -1   2  12 29390.6 1388.27   4
  -1   2  12 28280.4 1502.30   6
  -1   2  11 32758.7 1506.21   8
   1   2 -10 27192.4 1424.39   3
  -1   2  10 25902.3 1287.88   6
  -1   2  10 26590.0 1141.65   3
  -1   2  10 27450.7 1316.81   8
  -1   2  10 25818.7 1152.00   4
  -1   2   9 36375.2 1426.22   8
  -1   2   9 38515.1 1470.99   5
  -1   2   8 29311.2 1064.67   4
  -1   2   8 27383.5 1165.47   6
   1   2  -7 41706.8 1469.28   4
  -1   2   7 42731.3 1153.45   3
  -1   2   7 42672.7 1338.43   5
  -1   2   7 40146.2 1308.89   6
  -1   2   6 123506. 2106.48   6
   1   2  -6 131572. 2416.11   4
  -1   2   6 127288. 2120.97   5
  -1   2   5 31889.1 979.243   5
  -1   2   5 33104.4 838.530   4
   1   2  -5 32525.6 1132.19   4
  -1   2   4 117106. 1689.74   5
  -1   2   4 115507. 1707.99   6
  -1   2   4 112359. 1119.33  10
  -1   2   3 22760.8 544.079   3
   1   2  -2 22031.7 720.449   4
   1   2  -1 47888.7 943.180   4
   1   2  -1 47188.4 910.551   2
  -1   2   1 47278.2 956.963   7
   1   2   0 66268.4 1017.46   4
   1   2   0 67609.1 1102.97   1
   1   2   1 81075.3 1269.16   9
  -1   2  -1 86825.6 1263.26  12
   1   2   1 78392.2 1107.23  11
  -1   2  -1 87875.2 1316.56   4
  -1   2  -2 34569.3 942.489   4
  -1   2  -2 33988.3 925.003   3
  -1   2  -2 33027.7 842.211  12
   1   2   2 30558.2 697.523   4
   1   2   2 30669.3 843.788   9
   1   2   2 30763.6 698.078  11
  -1   2  -3 103265. 1534.48  10
   1   2   3 97493.0 1389.39   3
  -1   2  -3 107991. 1798.28   3
   1   2   3 99460.5 1675.45   5
  -1   2  -3 106868. 1804.94   4
   1   2   3 94726.6 1547.38   1
  -1   2  -4 80830.9 1704.77   3
  -1   2  -4 80008.5 1410.79  10
   1   2   4 74955.3 1333.07   3
   1   2   4 77154.5 1601.48   5
  -1   2  -4 81447.2 1727.21   4
  -1   2  -4 74976.1 925.200  11
  -1   2  -5 180981. 2747.07   3
   1   2   5 181029. 2290.85   4
   1   2   5 185244. 2425.01   9
   1   2   5 189528. 2696.82   5
  -1   2  -5 179507. 1415.97  11
  -1   2  -5 182441. 2784.29   4
  -1   2  -5 174303. 2160.89  10
   1   2   6 29704.5 1033.12   9
   1   2   6 27492.5 1027.41   8
  -1   2  -6 27450.0 902.309  10
   1   2   6 29498.4 1025.38   4
   1   2   6 31597.6 1200.52   5
   1   2   7 94675.2 2202.75   5
  -1   2  -7 93145.3 2280.56   4
  -1   2  -8 4431.57 570.426   3
   1   2   8 4303.53 487.910   4
  -1   2  -8 3807.68 542.946   4
  -1   2  -8 4794.05 596.540   3
   1   2   9 40819.2 1475.77   8
   1   2   9 43658.2 1427.93   9
  -1   2 -10 1485.55 428.699   3
   1   2  10 1685.91 393.810   4
   1   2  10 1521.52 374.907   8
   1   2  10 1907.74 427.542   6
   1   2  11 101957. 2616.79   4
   1   2  11 101669. 2838.16   6
  -1   2 -12 13830.7 1184.40   3
   1   2  12 13432.9 1120.17   6
  -1   2 -12 12367.8 684.850  10
   1   2  12 12407.1 993.360   4
   1   2  12 12072.7 964.168   8
   1   2  13 37756.6 1926.18   6
   1   2  13 34117.7 1649.16   8
  -1   2 -13 31995.5 1839.67   3
   1   2  14 4189.60 731.056   6
   1   2  14 3293.74 618.800   8
   1   2  14 4003.10 671.058   4
  -1   2 -15 28200.2 1883.94   3
   1   2  15 31962.8 1958.26   6
   1   2  15 29889.6 1686.75   8
   1   2  15 27955.9 1689.15   4
  -1   2 -16 2752.08 700.431   3
   1   2  16 2342.19 617.506   4
  -1   2 -18 3485.23 838.527   3
  -1   3  18 1324.31 615.059   6
   1   3 -18 290.450 441.806   3
  -1   3  17 3686.04 786.449   6
  -1   3  17 3158.23 611.643   4
  -1   3  17 3571.95 737.018   8
   1   3 -16 247.290 403.759   3
  -1   3  16 116.904 377.305   6
  -1   3  16-76.9933 352.067   8
   1   3 -15-28.8091 395.724   3
  -1   3  15 548.239 338.323   4
  -1   3  15 704.918 445.289   8
  -1   3  14-320.969 289.024   4
  -1   3  14 203.938 317.786   8
   1   3 -13 936.497 455.974   3
  -1   3  13 721.957 405.781   8
  -1   3  13 489.200 370.258   6
  -1   3  13 129.726 285.273   4
  -1   3  12 1663.10 379.218   4
  -1   3  12 1784.37 464.027   8
  -1   3  11 582.468 259.416   4
   1   3 -11 462.255 365.405   3
   1   3 -10 1206.97 414.414   3
  -1   3  10 898.835 352.932   6
  -1   3   9 1926.07 401.072   6
   1   3  -9 2482.47 495.961   3
  -1   3   9 2310.91 340.498   4
   1   3  -8 438.892 287.391   4
  -1   3   8 181.041 166.015   3
  -1   3   8-1.97352 213.559   5
  -1   3   8 406.513 269.000   6
  -1   3   7 7766.86 629.214   6
  -1   3   7 6689.45 229.115  10
   1   3  -6 1411.46 349.927   4
  -1   3   6 1459.66 311.971   6
  -1   3   5 6836.12 516.299   5
   1   3  -5 7745.35 612.204   4
  -1   3   5 6908.98 350.359   4
  -1   3   4 719.180 247.647   6
   1   3  -4 1067.61 292.418   4
   1   3  -3 656.241 250.330   4
   1   3  -3 1298.15 265.182   2
   1   3  -1 49190.1 1077.12   1
   1   3  -1 49179.1 1074.50  11
   1   3  -1 51296.7 1065.75   4
  -1   3   1 48866.1 1099.47  11
   1   3   0 38782.8 848.172   4
  -1   3   0 41890.0 949.054   7
  -1   3   0 39219.8 828.630   3
  -1   3   0 39845.7 785.636   1
  -1   3   0 39850.0 837.465   4
   1   3   0 37807.2 938.417  11
   1   3   1 9222.12 522.572   1
   1   3   1 9048.50 420.347   3
   1   3   1 8952.07 477.571  11
   1   3   1 8846.59 396.884   4
   1   3   1 8814.59 469.422   2
  -1   3  -1 9911.01 518.167  12
  -1   3  -1 9830.99 493.803   3
  -1   3  -1 9820.78 497.351   4
  -1   3  -2 604.367 226.529   4
   1   3   2 161.549 158.672   3
   1   3   2 731.117 250.921   1
   1   3   2 222.801 190.306   2
  -1   3  -2 546.696 221.828   3
   1   3   3 12855.1 656.392   9
  -1   3  -3 13471.9 704.148   4
  -1   3  -3 14176.3 539.990  11
   1   3   3 13130.5 561.666   2
  -1   3  -3 14260.4 716.362   3
  -1   3  -3 12807.3 348.849   1
   1   3   3 12795.0 505.146   3
   1   3   3 12362.4 653.162   1
  -1   3  -4 1278.94 282.461  10
   1   3   4 1548.03 252.309  11
   1   3   4 812.319 241.952   9
   1   3   4 694.399 191.341   3
   1   3   4 970.563 186.258   4
  -1   3  -4 1336.49 303.579   3
   1   3   4 1158.79 216.520   4
   1   3   5 51876.5 1395.07   9
   1   3   5 47228.4 1077.10  11
  -1   3  -5 47280.9 928.305   2
  -1   3  -5 47256.3 1262.75  10
  -1   3  -6 342.829 260.982   4
   1   3   7 46568.1 1318.87   4
  -1   3  -7 46608.7 1689.15   4
   1   3   7 47212.2 1445.65   9
  -1   3  -7 45017.1 1312.06  10
   1   3   8 500.846 237.443   4
   1   3   8 386.995 217.648   9
   1   3   9 30769.7 1448.50   6
  -1   3  -9 28416.0 1455.63   3
   1   3   9 29399.2 1324.00   8
  -1   3 -10 868.027 273.335  10
   1   3  10 745.514 289.765   9
   1   3  10 540.545 315.838   6
   1   3  10 1325.60 377.451   8
   1   3  11 40104.4 1693.93   8
   1   3  11 39131.5 1576.93   4
   1   3  11 40600.2 1841.56   6
  -1   3 -11 39363.4 1902.41   3
   1   3  12 3938.72 671.524   6
   1   3  12 3296.49 583.522   8
  -1   3 -12 2341.28 593.449   3
  -1   3 -13 20864.4 1540.33   3
   1   3  13 21106.6 1475.46   6
  -1   3 -14 663.344 471.812   3
   1   3  16 120.877 367.488   4
   1   3  16 719.200 491.942   6
   1   3  17 21111.5 1536.71   4
  -1   3 -17 21355.1 1822.00   3
  -1   3 -18 545.328 594.636   3
  -1   4  18 7467.65 1079.56   8
   1   4 -18 8130.87 1225.95   3
  -1   4  17 26544.0 1892.38   6
  -1   4  16 12422.7 1245.33   8
   1   4 -16 10445.7 1251.33   3
  -1   4  16 13769.5 1338.37   6
  -1   4  16 11102.9 972.097   4
  -1   4  15 23189.9 1293.60   4
   1   4 -15 22074.5 1715.32   3
  -1   4  14 20410.1 1475.81   6
  -1   4  14 18263.6 1392.31   8
   1   4 -14 22225.1 1128.44  11
   1   4 -14 19374.8 1543.55   3
   1   4 -13 47543.2 2285.32   3
  -1   4  13 51757.0 2205.39   6
  -1   4  13 48860.5 2131.11   8
  -1   4  13 50049.7 1705.58   4
   1   4 -12 10486.2 1067.65   3
  -1   4  12 9621.42 948.182   6
  -1   4  12 10085.9 963.738   8
   1   4 -11 47014.2 2089.37   3
  -1   4  11 47399.1 1923.96   8
  -1   4  10 25392.2 1362.35   8
  -1   4  10 26389.0 1021.51   4
  -1   4  10 25339.7 1344.78   6
   1   4 -10 25931.4 1098.38  11
  -1   4   9 68327.9 2099.17   8
   1   4  -9 70039.4 2300.08   3
   1   4  -9 69757.3 1724.90  11
   1   4  -8 27285.7 1058.14  11
  -1   4   8 26501.3 851.607   4
   1   4  -7 48210.6 1364.69   2
  -1   4   7 45731.2 988.261   4
   1   4  -7 47996.4 1352.64  11
  -1   4   7 46536.6 1540.25   6
   1   4  -6 5416.88 484.224   2
   1   4  -6 4680.09 551.902   4
   1   4  -6 5378.71 478.858  11
   1   4  -5 115657. 1985.54   2
  -1   4   5 116974. 1581.18  10
   1   4  -5 118029. 1994.09  11
   1   4  -4 71077.0 1516.15  11
  -1   4   3 79003.0 1398.14  10
   1   4  -2 71189.1 1288.82  12
   1   4  -2 71480.5 1475.47   2
   1   4  -2 74767.0 1476.12   1
  -1   4   2 72038.0 1447.12   8
   1   4  -1 259154. 2719.89   1
   1   4  -1 262355. 2768.43  11
   1   4  -1 251890. 2269.86  12
  -1   4   1 262036. 2712.81   7
  -1   4   1 256561. 2523.23   1
  -1   4   1 255155. 1924.05   3
  -1   4   0 31878.5 989.483  12
  -1   4   0 30802.8 972.091  11
   1   4   0 30710.8 956.026   2
   1   4   0 30196.7 836.060   3
   1   4   0 28671.6 942.367   1
  -1   4   0 30336.5 814.944   1
   1   4   0 31498.7 980.572  11
   1   4   1 86574.1 1584.02   2
  -1   4  -1 95076.5 1698.65  12
  -1   4  -1 92299.7 1610.20  11
  -1   4  -1 88643.9 1469.52   3
   1   4   1 90120.0 1731.10   9
  -1   4  -2 45605.7 1227.40  12
  -1   4  -2 45727.6 839.164   1
   1   4   2 42249.2 1218.25   1
   1   4   2 44237.5 1262.48   9
  -1   4  -2 45506.7 1174.99   3
   1   4   2 43005.3 878.363   3
   1   4   2 42015.4 1117.53   2
   1   4   3 121430. 2137.56   1
   1   4   3 120445. 2138.96   9
   1   4   3 118250. 1877.45  11
   1   4   4 71362.8 1712.61   9
   1   4   4 68751.9 1171.07   3
  -1   4  -4 76582.0 1853.29   4
  -1   4  -4 74821.4 1685.92  10
   1   4   4 66862.3 1669.08   1
   1   4   4 67275.0 1127.10   4
   1   4   4 69819.0 1185.86   4
   1   4   4 67347.5 1437.58  11
   1   4   5 67363.1 1251.42   3
  -1   4  -5 71114.2 1696.35  10
   1   4   6 2259.96 369.172   9
  -1   4  -6 2366.73 436.885   4
   1   4   6 2357.88 411.468   1
   1   4   6 1999.17 279.457   4
   1   4   7 78665.0 1621.59   4
  -1   4  -7 76799.5 1869.94  10
   1   4   8 11059.4 867.450   6
   1   4   8 11653.8 821.451   9
   1   4   8 10881.3 668.133   4
  -1   4  -8 10342.0 730.783  10
  -1   4  -9 33448.5 1629.18   3
   1   4   9 38174.5 1505.07   9
   1   4  10 31573.2 1286.01   4
  -1   4 -10 33177.7 936.305  11
  -1   4 -10 29909.7 1630.17   3
   1   4  10 31258.9 1573.88   6
  -1   4 -11 46601.7 2132.31   3
  -1   4 -11 43131.9 1529.40  10
  -1   4 -12 3839.52 729.304   3
   1   4  12 3569.04 535.410   4
   1   4  13 16257.3 1097.23   4
  -1   4 -13 16166.4 1405.15   3
   1   4  14 10238.3 933.993   4
   1   4  14 11731.7 1199.29   6
  -1   4 -14 10550.0 1200.34   3
  -1   4 -15 7614.24 1081.47   3
   1   4  15 9033.81 921.933   4
   1   4  16 8549.56 936.320   4
  -1   4 -16 8965.90 1209.22   3
   1   4  16 11289.3 1276.87   6
  -1   4 -17 11716.2 1406.80   3
   1   4  17 14101.2 1464.03   6
  -1   5  18 575.897 482.489   8
   1   5 -17 1090.70 600.308   3
  -1   5  17 652.849 447.628   6
  -1   5  16 772.163 480.529   6
  -1   5  16 1187.31 528.716   8
  -1   5  15 206.462 363.503   8
   1   5 -15 182.075 385.480   3
  -1   5  15 196.829 419.581   6
   1   5 -14 37.5012 381.373   3
  -1   5  14 464.874 384.229   8
  -1   5  14 794.933 438.580   6
  -1   5  14 194.281 231.568   4
   1   5 -13 512.247 441.308   3
  -1   5  13 361.670 384.980   6
  -1   5  13 640.482 381.487   8
  -1   5  12 929.302 433.817   8
  -1   5  11 970.192 254.268   4
  -1   5  11 1032.47 427.854   8
  -1   5  11 1530.72 466.699   6
   1   5 -11 1788.63 523.442   3
  -1   5  10 836.561 374.951   6
   1   5 -10 759.088 369.845   3
   1   5 -10 826.534 320.562  11
  -1   5  10 1011.23 395.837   8
  -1   5   9 3128.42 310.711   4
   1   5  -9 3735.30 612.065   3
  -1   5   9 3617.78 558.318   6
  -1   5   9 3000.44 509.044   8
   1   5  -8 3536.35 466.684   2
   1   5  -8 3372.33 452.019  11
  -1   5   8 2348.23 449.522   8
  -1   5   8 2331.08 236.951   4
  -1   5   8 2725.46 475.049   6
  -1   5   7 1338.68 369.141   6
  -1   5   7 1293.53 213.143  10
   1   5  -6 2409.72 439.530   4
   1   5  -6 2782.24 404.349   2
  -1   5   6 1779.98 129.148   4
   1   5  -6 2268.97 381.572  11
  -1   5   5 976.738 230.457  10
   1   5  -4 3124.63 444.745   3
   1   5  -4 2984.19 433.643   4
   1   5  -4 2640.53 394.384   2
   1   5  -4 2726.44 406.522  11
   1   5  -3 9124.62 568.358  12
   1   5  -3 8581.13 625.504   4
   1   5  -3 8278.82 605.987  11
  -1   5   3 7399.29 598.539  11
   1   5  -3 7977.59 595.918   2
  -1   5   2 15647.6 747.772  10
   1   5  -2 14461.1 768.248  11
   1   5  -2 14944.3 745.563   1
   1   5  -2 15164.8 683.633  12
  -1   5   2 15802.0 825.703  11
   1   5  -2 16285.5 772.416   3
  -1   5   2 16518.5 788.261   1
   1   5  -1 9167.60 598.905   1
   1   5  -1 9729.20 637.827  11
  -1   5   1 9668.23 648.677  11
  -1   5   1 9681.48 422.624   3
  -1   5   1 9450.95 411.676   3
  -1   5   0 11336.8 603.590   7
   1   5   0 12356.9 705.271   1
  -1   5   0 11289.2 517.468   3
   1   5   0 11284.4 677.129  11
  -1   5   0 11250.5 527.367   3
   1   5   1 7652.41 433.294   3
  -1   5  -1 7574.46 482.627   7
  -1   5  -1 7915.49 573.184  12
  -1   5  -1 7667.73 487.753   3
   1   5   1 8331.87 585.179  11
  -1   5  -1 9901.04 628.098  11
  -1   5  -2 26938.6 983.114  11
  -1   5  -2 26808.9 981.985   3
  -1   5  -2 26178.1 950.176   3
   1   5   2 25873.6 695.826   4
   1   5   2 27208.2 1075.07   1
   1   5   2 26013.9 998.953  11
  -1   5  -2 29075.1 1078.09  12
   1   5   3 13747.1 507.915   3
   1   5   3 14782.9 765.928  11
  -1   5  -3 14820.6 791.393   3
  -1   5  -3 15419.3 821.382  12
  -1   5  -3 15739.5 754.867  11
  -1   5  -4 14656.5 834.361  12
  -1   5  -4 12941.3 796.269   3
   1   5   4 13524.8 830.510   9
  -1   5  -4 14205.4 539.112   1
   1   5   4 13154.5 735.031  11
  -1   5  -4 13376.5 620.875   7
   1   5   4 13237.2 505.913   3
   1   5   4 13269.8 828.449   1
   1   5   5 23889.3 711.085   3
  -1   5  -5 26044.9 736.822   1
  -1   5  -5 27654.7 1258.31   4
  -1   5  -5 25231.7 1115.31  10
  -1   5  -5 26250.3 946.569  11
   1   5   6 12157.6 839.559   9
  -1   5  -6 13207.0 841.919  10
   1   5   6 11770.4 846.580   1
   1   5   7 8333.89 483.358   4
  -1   5  -7 9375.30 576.175   2
   1   5   7 8850.84 753.348   9
   1   5   7 8802.38 526.072   4
  -1   5  -7 8540.79 710.720  10
  -1   5  -7 8762.37 566.591  11
   1   5   8 9960.24 854.690   6
  -1   5  -8 9240.23 755.906  10
  -1   5  -8 9487.25 587.546  11
   1   5   9 9676.50 603.144   4
  -1   5  -9 10433.5 970.059   3
  -1   5 -10 11208.5 1066.14   3
   1   5  10 11844.5 1034.12   6
   1   5  10 13518.0 810.426   4
  -1   5 -10 11679.4 873.537  10
  -1   5 -11 6652.56 689.253  10
   1   5  11 7231.79 640.224   4
   1   5  11 6835.03 838.305   6
  -1   5 -11 8137.91 954.326   3
  -1   5 -12 10238.1 835.087  10
  -1   5 -13 10084.5 1152.94   3
   1   5  13 8602.34 771.960   4
   1   5  14 12941.0 987.049   4
  -1   5 -14 15146.4 1458.81   3
   1   5  15 8610.87 1118.47   6
  -1   5 -15 9913.16 1245.83   3
  -1   5 -16 7263.62 1135.85   3
  -1   5 -17 5525.61 1049.40   3
  -1   6  17 373.126 432.230   6
  -1   6  16 34434.3 2128.61   8
   1   6 -16 32545.4 2249.16   3
  -1   6  15 705.022 471.265   8
   1   6 -15 1455.07 612.870   3
  -1   6  14 71776.1 2836.64   8
   1   6 -14 65347.9 2932.49   3
  -1   6  13 813.202 452.598   6
   1   6 -13 1090.83 510.678   3
   1   6 -12 30736.5 1398.38  11
  -1   6  12 28668.8 1680.96   8
   1   6 -11 37.3345 334.931   3
  -1   6  10 128758. 3208.86   6
  -1   6  10 129353. 3254.38   8
   1   6 -10 127995. 2693.57  11
   1   6  -9 1849.16 485.242   3
  -1   6   9 1618.09 442.008   8
   1   6  -9 2442.47 450.211  11
  -1   6   9 1622.53 439.977   6
  -1   6   8 165923. 3392.55   8
   1   6  -8 163990. 2919.78  11
   1   6  -8 168502. 2971.72   2
  -1   6   8 165224. 3332.08   6
   1   6  -7 4146.17 530.382   2
   1   6  -7 4157.30 519.723  11
  -1   6   7 3777.62 371.252  10
  -1   6   7 3878.57 549.976   6
   1   6  -7 3005.69 530.985   3
   1   6  -6 108708. 2295.33  11
  -1   6   6 109830. 1918.94  10
   1   6  -6 112774. 2680.51   3
   1   6  -6 113766. 2353.33   2
  -1   6   6 113393. 2541.83   6
  -1   6   5 6254.84 506.557  10
   1   6  -5 6520.52 602.182  11
   1   6  -5 6488.19 650.810   3
   1   6  -5 5848.22 570.895   2
   1   6  -4 139478. 2523.79  11
  -1   6   4 138992. 2290.70  10
   1   6  -4 140948. 2540.43   2
   1   6  -4 141128. 2423.57  12
  -1   6   4 141975. 2657.71  11
   1   6  -4 139318. 2653.54   3
   1   6  -3 1403.95 319.920   3
   1   6  -3 1008.54 292.876   1
  -1   6   3 1857.55 336.488  10
  -1   6   3 1694.23 379.238  11
  -1   6   2 285837. 3421.88  10
   1   6  -2 291234. 3356.89   3
   1   6  -2 298505. 3599.55   2
  -1   6   2 284212. 1960.47   3
   1   6  -2 293711. 3207.24  12
  -1   6   2 292800. 3683.14  11
   1   6  -1 11635.3 753.739  11
   1   6  -1 10262.3 614.432   3
  -1   6   1 10712.0 663.368   1
  -1   6   1 9718.30 455.270   3
  -1   6   1 11652.5 760.298  11
   1   6  -1 10921.9 707.229   1
  -1   6   0 108345. 2173.60  11
   1   6   0 111119. 2183.17   1
   1   6   0 111642. 2204.67  11
   1   6   1 253.790 157.452   3
   1   6   1 423.912 259.658   2
  -1   6  -1 201.482 240.539  12
  -1   6  -1 462.948 207.870   1
   1   6   1 495.674 276.898   1
  -1   6  -1 874.750 297.180  11
   1   6   2 125569. 2442.99   1
  -1   6  -2 126329. 2218.07   3
  -1   6  -2 126344. 2386.74  12
  -1   6  -2 125026. 2293.41  11
  -1   6  -2 129319. 2263.10   4
   1   6   2 121087. 1596.84   3
   1   6   2 123871. 2321.70   2
  -1   6  -3 1176.16 310.585   3
   1   6   3 1423.53 364.218   1
  -1   6  -4 101135. 2327.48  10
  -1   6  -4 105219. 1630.85   1
  -1   6  -4 100821. 2263.44   3
   1   6   4 99672.4 2133.22  11
  -1   6  -4 106614. 2099.65  11
   1   6   4 101209. 2354.73   1
  -1   6  -5 1872.86 409.730   3
   1   6   5 1918.58 377.438  11
  -1   6  -5 1879.24 256.107   1
  -1   6  -5 1678.22 269.364   7
  -1   6  -5 2322.95 365.960  11
  -1   6  -5 1603.98 389.372   4
   1   6   6 21181.5 1024.68  11
  -1   6  -6 20059.9 1107.84  10
  -1   6  -6 22642.9 781.363   1
  -1   6  -6 21581.7 1207.61   3
   1   6   6 19836.6 1138.59   1
   1   6   7 1110.05 372.694   6
   1   6   7 1594.18 236.718   4
   1   6   7 1455.35 356.934  11
  -1   6  -7 1370.77 371.784  10
  -1   6  -8 40528.7 1627.75  10
  -1   6  -8 45033.7 1918.59   3
   1   6   8 44002.9 1818.01   6
   1   6   9 1233.09 254.731   4
   1   6   9 1351.92 455.840   6
  -1   6  -9 1390.98 445.573   3
  -1   6 -10 32793.2 1527.71  10
   1   6  10 34698.0 1762.65   6
  -1   6 -10 33701.8 1833.99   3
   1   6  11 2073.97 538.370   6
  -1   6 -11 1966.84 449.707  10
   1   6  12 8171.66 672.766   4
   1   6  12 8756.36 1002.70   6
  -1   6 -12 7920.61 588.888  11
  -1   6 -12 9017.40 1087.72   3
  -1   6 -13 684.186 488.784   3
   1   6  13 1034.73 487.533   6
  -1   6 -14 14579.9 1469.99   3
   1   6  14 16409.8 1464.90   6
   1   6  15 686.373 458.947   6
  -1   6 -15-18.8674 420.626   3
  -1   6 -16 12446.0 1456.88   3
   1   7 -16 469.331 526.370   3
  -1   7  16 432.361 426.333   6
  -1   7  15-179.306 366.024   6
  -1   7  15 571.815 483.674   8
   1   7 -15 174.887 437.229   3
   1   7 -14 1188.68 605.168   3
  -1   7  14 1024.53 502.644   6
  -1   7  13 899.538 478.959   8
   1   7 -13 224.044 400.109   3
   1   7 -11 311.963 399.626   3
  -1   7  11 116.120 70.1964   4
   1   7 -10 231.876 67.3049   7
  -1   7  10 222.998 347.490   6
   1   7 -10 499.548 375.237   3
   1   7  -9 3254.39 619.997   3
  -1   7   9 1306.81 444.072   6
  -1   7   9 2848.89 555.980   8
  -1   7   8 1217.55 397.132   8
   1   7  -8 580.491 367.224   3
   1   7  -7 941.283 370.302   3
  -1   7   7 994.826 360.782   8
  -1   7   6 1000.53 355.506   6
   1   7  -6 1611.95 430.001   3
   1   7  -6 1332.28 334.710   1
   1   7  -5 223.033 256.053   2
  -1   7   5 484.162 236.965  10
   1   7  -5 522.681 263.790  12
   1   7  -5 243.786 288.806  11
   1   7  -5 101.352 213.393   1
   1   7  -5 629.788 297.763   4
   1   7  -4 5983.91 575.629   1
   1   7  -4 6487.21 637.747   3
  -1   7   4 6045.18 648.372  11
   1   7  -4 5938.83 574.232  12
   1   7  -4 5908.90 615.986  11
   1   7  -4 6218.97 616.570   2
   1   7  -3 233.893 269.859  11
  -1   7   3 192.660 236.044  10
   1   7  -3 12.5251 214.239   4
  -1   7   3-341.118 285.632  11
   1   7  -3 11.8110 215.759   3
   1   7  -3 266.005 252.393   1
   1   7  -2 2054.15 410.354  11
   1   7  -2 1151.76 287.544   4
   1   7  -2 1507.26 317.051   3
   1   7  -2 1381.07 355.964   2
   1   7  -2 1621.06 351.946   1
  -1   7   2 1508.08 352.591  10
  -1   7   2 2054.11 417.838  11
   1   7  -1 8901.64 690.759   1
   1   7  -1 8547.79 711.528  11
   1   7  -1 9933.62 748.513   2
  -1   7   1 9133.25 480.469   3
   1   7  -1 8895.79 623.154  12
  -1   7   1 9139.00 666.616   1
  -1   7   0 18318.5 756.920   3
  -1   7   0 19593.4 771.776   3
   1   7   0 19883.8 1017.40   1
   1   7   0 19734.9 807.157   4
  -1   7   0 19687.4 911.115   1
   1   7   1 833.262 206.403   3
  -1   7  -1 825.557 245.937   3
  -1   7  -1 494.273 206.210   4
  -1   7  -1 1542.92 351.196  12
  -1   7  -1 1071.89 268.791   1
   1   7   1 681.288 296.188   1
  -1   7  -2 3583.08 380.788   7
  -1   7  -2 3879.50 450.262   3
  -1   7  -2 4024.15 455.416   3
   1   7   2 3448.84 503.124   1
   1   7   2 3093.98 453.608   2
  -1   7  -2 4055.06 511.005  11
  -1   7  -3 2010.28 390.662  12
  -1   7  -3 2180.73 303.852   7
   1   7   3 2558.41 462.852   1
   1   7   3 2415.66 441.212  11
  -1   7  -3 2585.13 413.739   4
  -1   7  -4 10466.7 597.977   7
  -1   7  -4 10528.8 812.636   4
  -1   7  -4 10957.8 811.836   3
   1   7   4 8430.17 768.381   1
   1   7   4 10203.9 779.214  11
   1   7   5 13151.0 877.525  11
  -1   7  -5 13616.9 846.867  11
  -1   7  -5 11970.3 643.516   7
   1   7   5 12864.9 938.279   6
   1   7   5 14644.0 1018.87   1
   1   7   5 12373.5 446.058   4
  -1   7  -6 10943.2 893.546  10
  -1   7  -6 10716.5 906.844   3
   1   7   6 11688.5 839.049  11
   1   7   7 4408.61 651.313   1
  -1   7  -7 5493.91 568.491  11
   1   7   7 4422.15 563.081  11
   1   7   7 4438.49 631.340   6
  -1   7  -7 5455.58 725.379   3
  -1   7  -8 14700.3 1157.76   3
   1   7   8 14409.0 593.151   4
   1   7   9 3071.27 319.982   4
  -1   7 -10 16245.3 1164.02  10
  -1   7 -10 14970.9 1287.49   3
   1   7  10 15871.2 1260.97   6
  -1   7 -11 8882.38 1061.68   3
   1   7  11 7809.89 941.471   6
  -1   7 -12 12219.0 1269.89   3
   1   7  12 11743.4 1191.16   6
  -1   7 -13 7074.90 1052.18   3
  -1   7 -14 14089.9 1481.76   3
   1   7  14 16852.5 1523.24   6
   1   7  15 6365.72 1014.89   6
  -1   7 -16 9464.77 1323.69   3
   1   8 -16 7287.34 1192.55   3
  -1   8  16 10262.5 1268.65   6
  -1   8  15 34572.4 2178.36   6
   1   8 -15 30361.4 2202.50   3
   1   8 -14 18425.2 1243.05  11
   1   8 -14 16573.7 1593.88   3
  -1   8  13 22877.6 1661.92   6
   1   8 -13 24020.3 1817.19   3
   1   8 -13 23789.6 1379.84  11
  -1   8  12 3009.39 677.673   6
   1   8 -12 2580.13 666.266   3
   1   8 -12 2867.84 545.956  11
   1   8 -11 23431.4 1659.22   3
  -1   8  11 27002.0 1670.81   6
   1   8 -10 21418.7 1530.40   3
  -1   8  10 21136.7 1426.37   6
   1   8 -10 22379.7 1287.46  11
   1   8  -9 44375.4 1763.81  11
  -1   8   9 43991.6 1963.59   6
   1   8  -9 44409.7 2090.15   3
   1   8  -8 21782.7 1164.57   1
   1   8  -8 20390.1 1370.05   3
   1   8  -7 51558.6 1730.34   1
  -1   8   7 52269.2 2000.82   6
   1   8  -7 49375.6 1801.78  11
   1   8  -6 19146.8 1124.85  11
  -1   8   5 48596.9 1594.48  10
  -1   8   5 49000.5 1824.59  11
   1   8  -5 46780.7 1599.05   1
   1   8  -5 46751.1 1780.75   3
   1   8  -4 30175.4 1365.96   3
   1   8  -4 31641.5 1404.18  11
  -1   8   4 29120.1 1399.91  11
   1   8  -4 30719.1 1292.72   1
   1   8  -3 71931.5 1966.52   1
   1   8  -3 72984.0 1986.53   3
   1   8  -3 74024.1 1947.18  12
  -1   8   3 71537.4 1998.53  10
  -1   8   2 33951.2 1380.90   1
   1   8  -2 31536.0 1256.05  12
   1   8  -2 33369.9 1274.33   3
   1   8  -2 33410.5 1426.93  11
   1   8  -2 33751.3 1281.46   4
   1   8  -1 81380.9 1846.92   3
   1   8  -1 85469.8 2013.44  12
  -1   8   1 85426.6 2092.67   1
  -1   8   1 84536.2 2238.54  10
   1   8  -1 87980.5 2209.56   1
   1   8   0 5792.50 627.876   1
  -1   8   0 5599.52 639.970  10
  -1   8   0 5741.65 575.993   1
  -1   8   0 4950.54 432.525   4
   1   8   0 5172.32 458.495   4
  -1   8   0 5305.49 616.652  11
   1   8   1 54025.1 1808.65  11
  -1   8  -1 52806.4 1769.88  11
   1   8   1 54210.2 1807.40   1
  -1   8  -2 36826.5 1251.71   1
  -1   8  -2 35366.0 1298.46   3
  -1   8  -2 35804.1 1461.94  11
   1   8   2 37849.8 987.629   3
  -1   8  -2 36813.0 1332.21   3
  -1   8  -2 35718.7 1313.76   4
  -1   8  -3 58080.9 1992.06  10
   1   8   3 63883.2 2063.45   1
  -1   8  -3 58544.1 1473.83   7
  -1   8  -3 61367.7 1895.64  11
  -1   8  -3 61339.6 1826.26   3
   1   8   3 59476.2 1103.89   3
  -1   8  -3 62308.8 1845.47   3
  -1   8  -3 63058.7 1586.26   1
   1   8   4 24296.6 618.718   3
  -1   8  -4 25710.5 968.175   7
  -1   8  -4 27700.5 1282.99  11
  -1   8  -4 26798.1 1299.32   3
  -1   8  -4 27171.5 1029.50   1
   1   8   4 26400.4 1378.07   1
  -1   8  -5 68129.4 2170.48   3
   1   8   5 66336.8 2218.51   1
  -1   8  -5 69499.0 2005.92  11
   1   8   5 65012.7 2025.30  11
   1   8   6 14358.8 1102.62   1
   1   8   6 15329.9 1106.05   6
  -1   8  -6 14302.3 1076.13   3
  -1   8  -7 33364.9 1646.46  10
  -1   8  -7 37702.1 1190.34   1
   1   8   7 35020.2 1698.00   6
  -1   8  -7 36487.8 1464.80  11
  -1   8  -7 35539.2 1749.77   3
   1   8   7 36956.7 1764.37   1
  -1   8  -8 5184.68 769.540   3
  -1   8  -8 5143.87 475.704   1
  -1   8  -8 4712.37 686.841  10
   1   8   8 3550.56 219.384   4
  -1   8  -9 32084.6 1823.57   3
   1   8   9 34199.0 1809.18   6
  -1   8 -10 6907.29 831.612  10
   1   8  10 9075.20 1002.39   6
  -1   8 -10 7109.14 683.825  11
  -1   8 -10 7435.70 974.822   3
  -1   8 -11 15738.8 982.057  11
  -1   8 -11 12739.5 1123.43  10
  -1   8 -12 3105.45 718.857   3
  -1   8 -12 1456.60 470.782  10
   1   8  13 18538.5 1569.79   6
  -1   8 -13 17037.4 1596.62   3
  -1   8 -15 6265.31 1120.92   3
   1   9 -15 124.105 513.898   3
  -1   9  15 765.938 478.093   6
   1   9 -13 2922.15 744.528   3
  -1   9  13 3307.95 750.619   6
   1   9 -13 2990.31 580.351  11
   1   9 -12-485.808 455.874   3
   1   9 -12 147.785 320.150  11
   1   9 -12 305.960 305.192   1
  -1   9  11 2706.37 632.447   6
   1   9 -11 2664.10 526.815   1
   1   9 -11 2525.48 666.333   3
   1   9 -10 393.207 396.852   3
   1   9  -9-136.005 354.275   3
   1   9  -9-12.8600 268.665   1
   1   9  -8 314.609 364.918  11
   1   9  -8-87.4909 274.124   1
   1   9  -7 1559.64 417.822   1
   1   9  -6 241.568 280.531   1
   1   9  -6 458.822 345.104   3
  -1   9   5 4196.84 563.046  10
  -1   9   5 5009.36 684.308  11
  -1   9   4 271.549 339.862  11
   1   9  -4 791.623 322.350   1
   1   9  -4 1011.10 394.666  11
   1   9  -4 1063.23 361.672   3
   1   9  -3 3809.56 542.881   1
   1   9  -3 2770.31 460.740   3
   1   9  -3 3073.50 484.517   4
   1   9  -3 3240.48 561.582  11
  -1   9   3 3107.00 522.398   1
  -1   9   3 3665.19 549.058  10
  -1   9   3 3990.21 619.692  11
   1   9  -2 3449.06 460.638   4
   1   9  -2 4038.92 506.329   3
  -1   9   2 3236.49 279.042   3
  -1   9   2 3646.76 547.730   1
   1   9  -2 3385.44 559.320  11
   1   9  -2 3540.47 523.373   1
   1   9  -1 5816.30 546.306   3
  -1   9   1 5179.92 415.247   3
  -1   9   0 936.356 233.005   4
  -1   9   0 1638.71 432.534  11
   1   9   0 848.834 258.559   3
   1   9   0 1080.54 395.276  11
  -1   9   0 1378.02 367.354   1
  -1   9  -1 5371.61 674.713  10
  -1   9  -1 6892.84 586.793   3
   1   9   1 6292.04 715.280  11
  -1   9  -1 5995.44 540.800   4
  -1   9  -1 6468.76 619.733   1
  -1   9  -1 7096.68 751.740  11
   1   9   1 5750.35 687.620   1
  -1   9  -2 177.358 229.177   1
   1   9   2 301.278 326.742   1
  -1   9  -2 252.375 282.083  10
  -1   9  -2 843.204 380.199  11
  -1   9  -2 493.342 265.383   3
   1   9   2 269.489 164.094   3
  -1   9  -3 13578.7 979.352  11
  -1   9  -3 12867.3 1026.28  10
  -1   9  -3 14057.0 832.647   1
  -1   9  -3 12961.9 902.796   4
   1   9   3 15499.1 1108.82   1
   1   9   3 11614.3 946.670  11
   1   9   4 331.443 342.623   1
  -1   9  -4 875.581 278.314   1
  -1   9  -4 648.103 355.154  11
  -1   9  -4 925.749 350.176   3
   1   9   4 654.883 383.949  11
  -1   9  -5 15519.0 1169.55  10
   1   9   5 17008.7 1138.70  11
  -1   9  -5 16324.6 865.707   1
   1   9   5 16660.4 1202.09   1
  -1   9  -6 3050.11 410.287   1
   1   9   6 1832.51 529.013   1
   1   9   6 2886.48 559.136  11
  -1   9  -6 3030.67 585.465  10
  -1   9  -7 19982.1 1359.25  10
   1   9   7 17988.7 1196.77  11
  -1   9  -7 18904.3 1150.77  11
  -1   9  -7 20533.4 1395.33   3
   1   9   7 18333.8 1332.85   1
  -1   9  -8 1438.98 463.456  10
  -1   9  -8 127.995 344.728   3
   1   9   8 1401.61 485.057   6
  -1   9  -8 959.966 367.388  11
  -1   9  -8 656.084 247.351   1
   1   9   9 25505.8 1633.89   6
  -1   9  -9 26797.4 1093.69   1
  -1   9  -9 25298.3 1326.92  11
  -1   9 -10 538.896 405.520   3
   1   9  10 1510.75 530.937   6
   1   9  11 16604.3 1424.35   6
  -1   9 -12-84.5501 431.791   3
   1   9  12 435.168 436.299   6
  -1   9 -13 9812.13 1299.03   3
   1   9  13 14784.9 1439.54   6
  -1   9 -14-350.622 528.061   3
   1   9  14 590.643 490.526   6
   1  10 -14 4056.23 919.807   3
   1  10 -13 25144.9 1567.36  11
   1  10 -13 22618.6 1852.75   3
   1  10 -12 12009.1 1097.22  11
   1  10 -12 11158.9 1298.54   3
   1  10 -11 19961.9 1281.42   1
  -1  10  11 22991.1 1653.88   6
   1  10 -11 18795.3 1583.12   3
   1  10 -10 11953.8 1234.26   3
   1  10  -9 23259.4 1627.02   3
   1  10  -8 18581.1 1177.28   1
   1  10  -7 31357.3 1620.55  11
   1  10  -6 34610.6 1690.60  11
   1  10  -6 33074.3 1692.44   3
   1  10  -6 35713.6 1577.93   1
   1  10  -5 18835.6 1251.31  11
   1  10  -5 18996.4 1161.30   1
  -1  10   5 17654.4 1122.30  10
   1  10  -5 16501.2 1157.40   3
  -1  10   5 18187.0 1284.66  11
   1  10  -4 26793.5 1472.46  11
  -1  10   4 27694.2 1544.71  11
  -1  10   4 25958.5 1375.56  10
   1  10  -3 42352.1 1831.79  11
  -1  10   3 39536.8 1714.09  10
  -1  10   3 41927.8 1771.52   1
   1  10  -3 44300.8 1692.54   3
   1  10  -3 44909.7 1766.62   1
  -1  10   3 43500.8 1900.91  11
  -1  10   2 16209.9 1093.74   1
   1  10  -2 16031.8 1152.87  11
  -1  10   2 14893.1 1140.37  11
   1  10  -2 14373.0 925.810   3
   1  10  -2 15419.9 953.611   4
  -1  10   1 45536.6 1906.26  11
  -1  10   1 42432.1 1178.37   3
  -1  10   1 41587.9 1802.79  10
   1  10  -1 42537.5 1470.44   3
  -1  10   1 45896.7 1756.42   1
   1  10  -1 45376.8 1512.70   4
   1  10   0 25041.9 1419.94  11
  -1  10   0 25259.8 1435.33  10
  -1  10   0 24423.0 1010.65   3
  -1  10   0 26149.6 1449.84  11
  -1  10   0 22573.1 1218.21   1
   1  10   0 25893.0 1399.01   1
   1  10   0 24415.1 1046.47   3
  -1  10  -1 30270.1 1546.45  11
   1  10   1 28392.0 1027.31   4
  -1  10  -1 28047.3 1182.40   3
   1  10   1 28089.3 1030.79   3
  -1  10  -1 27860.1 1528.35  10
   1  10   1 29361.5 1519.73   1
  -1  10  -2 10165.3 960.769  10
  -1  10  -2 11771.8 849.756   1
  -1  10  -2 10650.5 798.681   4
  -1  10  -2 13308.9 1044.36  11
   1  10   2 10789.3 581.186   3
   1  10   2 11101.8 981.346   1
  -1  10  -2 10767.2 799.282   3
  -1  10  -3 33509.1 1711.47  10
  -1  10  -3 35331.0 1656.05  11
   1  10   3 32402.0 840.227   3
  -1  10  -3 35654.8 1407.09   1
  -1  10  -4 20166.9 1221.92   3
   1  10   4 19339.6 1326.94   1
   1  10   4 19118.7 1272.49  11
  -1  10  -4 19350.2 1336.09  10
  -1  10  -5 30264.2 1689.69  10
   1  10   5 28312.8 1628.46   1
  -1  10  -5 31958.3 1616.71   3
  -1  10  -5 32570.0 1299.68   1
  -1  10  -6 7778.32 879.570   3
  -1  10  -6 8132.38 666.674   1
  -1  10  -7 22810.3 1333.06  11
  -1  10  -7 22955.1 1524.03  10
  -1  10  -7 24650.2 1571.31   3
   1  10   7 22897.9 1415.41  11
  -1  10  -7 22923.0 1070.76   1
   1  10   7 23310.9 1554.31   1
  -1  10  -8 2007.66 488.122  11
  -1  10  -8 2146.41 589.066   3
  -1  10  -8 2086.50 582.175  10
  -1  10  -8 2496.63 399.911   1
  -1  10  -9 32247.0 1952.19   3
  -1  10  -9 31933.2 1581.52  11
  -1  10 -10 1695.68 604.715   3
  -1  10 -10 1007.11 498.489  10
   1  10  10 1713.25 556.286   6
   1  10  11 25620.1 1801.15   6
  -1  10 -11 25263.6 1867.88   3
  -1  10 -11 20704.5 1556.43  10
  -1  10 -12 6488.30 1072.44   3
   1  10  12 5543.83 948.364   6
  -1  10 -13 12496.9 1461.78   3
   1  10  13 17384.4 1595.87   6
  -1  10 -14 2575.00 786.739   3
   1  11 -13 651.636 576.531   3
   1  11 -12-157.320 449.514  11
   1  11 -12 745.101 552.949   3
   1  11 -11 10.1191 395.842   3
   1  11 -10-219.603 393.735  11
   1  11 -10-319.488 441.095   3
   1  11 -10 88.5417 317.920   1
   1  11  -9 464.502 440.012   3
   1  11  -9 326.690 371.767  11
   1  11  -9 193.089 306.792   1
   1  11  -8 263.454 377.953   3
   1  11  -8 223.461 328.753   1
   1  11  -8 235.355 357.933  11
   1  11  -7-127.747 291.994   1
   1  11  -7 450.650 377.998   3
   1  11  -7 993.332 459.921  11
   1  11  -6 2460.24 583.994   3
   1  11  -6 2021.11 493.091   1
  -1  11   5 338.761 414.631  11
  -1  11   4 544.828 406.074  11
  -1  11   4 296.781 326.321  10
   1  11  -4 379.979 306.287   3
   1  11  -4-360.282 393.683  11
  -1  11   3 951.948 406.985  10
  -1  11   3 258.075 385.414  11
  -1  11   3 453.149 385.173   1
  -1  11   2 337.274 344.917  10
   1  11  -2-464.823 259.678   4
   1  11  -2 506.955 352.187   1
  -1  11   2-321.682 350.366   1
   1  11  -2 233.135 386.956  11
   1  11  -2 486.943 280.459   3
   1  11  -1 4098.54 642.484   1
  -1  11   1 4899.39 743.439  11
  -1  11   1 3873.59 614.515   1
   1  11  -1 3766.35 670.122  11
  -1  11   1 3696.23 648.849  10
  -1  11   0 12273.9 1088.07  10
   1  11   0 11836.7 771.648   3
  -1  11   0 12221.7 960.053   1
  -1  11   0 10828.1 709.837   3
  -1  11   0 11390.6 1049.87  11
   1  11   1 1533.01 507.108  11
   1  11   1 1133.01 450.433   1
   1  11   1 756.595 243.833   3
  -1  11  -1 901.852 299.153   3
  -1  11  -2 5532.96 629.461   3
  -1  11  -2 6108.11 807.848  10
  -1  11  -2 7139.84 693.409   3
  -1  11  -2 6573.93 666.444   4
  -1  11  -2 6963.48 837.290  11
  -1  11  -3 5902.77 685.566   3
   1  11   3 5611.19 809.409   1
  -1  11  -3 5808.51 801.637  10
  -1  11  -4 3096.31 620.561  10
   1  11   4 3140.62 646.156   1
  -1  11  -4 3083.51 606.267  11
  -1  11  -5 475.493 357.962  11
  -1  11  -5 681.455 387.304   3
  -1  11  -5 1225.69 487.035  10
  -1  11  -5 692.556 286.324   1
   1  11   6 4680.09 754.091  11
   1  11   6 4148.23 761.139   1
  -1  11  -6 4421.63 760.233  10
  -1  11  -7 3116.08 677.464  10
  -1  11  -7 2694.02 642.114   3
   1  11   7 3583.25 677.934  11
  -1  11  -7 2363.41 546.045  11
   1  11   7 1810.17 600.878   1
  -1  11  -8 3374.33 718.122  10
  -1  11  -8 3866.81 660.127  11
  -1  11  -9 1811.57 606.945   3
  -1  11  -9 1523.85 472.522  11
  -1  11 -10 5599.20 891.421  10
  -1  11 -11 5035.52 938.165   3
   1  11  11 5458.15 933.224   6
  -1  11 -12 9100.69 1236.45   3
   1  11  13 1247.86 625.349   6
  -1  11 -13 1801.23 724.279   3
   1  12 -13 1238.35 602.023   3
   1  12 -13 1100.88 488.677  11
   1  12 -12 23827.0 1672.93  11
   1  12 -12 22197.3 1887.09   3
   1  12 -11 1235.38 601.716   3
   1  12 -11 1141.48 453.793   1
   1  12 -10 28707.2 1988.36   3
   1  12  -9 592.060 394.545   1
   1  12  -8 33793.5 1983.27   3
   1  12  -8 38161.4 1823.89   1
   1  12  -7 1986.77 499.018   1
   1  12  -7 1884.07 568.852   3
   1  12  -7 1323.79 541.295  11
   1  12  -6 29949.9 1721.51   3
   1  12  -6 33265.4 1694.53   1
   1  12  -6 31331.6 1805.15  11
  -1  12   5 889.948 498.060  11
   1  12  -5 678.765 403.007   3
   1  12  -5 539.289 428.312  11
   1  12  -4 35292.5 1744.72   1
  -1  12   4 35886.5 1948.43  11
   1  12  -4 36558.6 1923.43  11
   1  12  -3 1699.95 544.453  11
   1  12  -3 2330.60 494.352   3
  -1  12   3 1337.73 485.051  10
   1  12  -3 1807.37 499.798   1
   1  12  -2 33651.5 1736.04   1
   1  12  -2 32391.9 1804.31  11
  -1  12   2 30189.4 1703.14  10
  -1  12   2 31742.4 1689.91   1
  -1  12   2 33316.5 1853.51  11
   1  12  -1 2573.32 590.507   1
  -1  12   1 3087.77 585.110   1
  -1  12   1 2591.61 648.786  11
   1  12  -1 3415.70 685.120  11
  -1  12   0 44220.6 2099.96  10
  -1  12   0 43671.9 1431.90   3
   1  12   0 45047.8 1513.60   3
   1  12   0 45061.4 2045.81   1
   1  12   0 48729.3 2196.17  11
  -1  12   0 46293.9 2136.58  11
  -1  12  -1 1768.57 458.142   1
   1  12   1 1914.85 586.307  11
   1  12   1 1328.92 294.283   3
  -1  12  -1 902.126 487.257  10
   1  12   1 1706.47 519.980   1
  -1  12  -1 1523.28 535.739  11
  -1  12  -2 26426.7 1685.53  10
  -1  12  -2 27992.6 1666.16  11
   1  12   2 29537.2 1731.17   1
  -1  12  -2 28509.4 1369.57   3
  -1  12  -3 617.925 341.865   1
   1  12   3 694.646 455.455  11
  -1  12  -3 101.819 276.103   3
  -1  12  -3 388.961 406.113  10
  -1  12  -3 487.473 418.393  11
  -1  12  -4 17009.6 1316.88  11
  -1  12  -4 16147.8 1365.14  10
   1  12   4 18770.4 1417.73  11
   1  12   5 1408.38 541.730  11
  -1  12  -5 789.546 452.383  11
  -1  12  -6 28893.2 1861.05  10
  -1  12  -6 33964.1 1481.99   1
  -1  12  -6 27716.0 1678.10   3
   1  12   6 31341.0 1834.09  11
   1  12   6 31395.9 1917.21   1
  -1  12  -7 290.356 464.585  10
  -1  12  -7 259.906 258.821   1
  -1  12  -7 530.747 394.545  11
   1  12   7 1076.58 532.950   1
  -1  12  -8 22694.1 1504.03  11
  -1  12  -8 20374.8 1606.80  10
   1  12   8 20645.5 1537.68  11
  -1  12  -9 207.281 395.363  10
  -1  12  -9-30.2582 450.892   3
  -1  12 -10 15228.3 1496.92   3
  -1  12 -11 676.309 536.094   3
   1  13 -12 280.565 534.901   3
   1  13 -11-318.373 486.806   3
   1  13 -11-161.725 431.422  11
   1  13 -10 499.478 501.172   3
   1  13  -9 667.843 489.656   3
   1  13  -8 152.728 433.911  11
   1  13  -8 782.731 469.320   3
   1  13  -7 615.398 440.025   3
   1  13  -7 1136.96 458.684   1
   1  13  -7 1284.92 545.028  11
   1  13  -6 279.227 480.403  11
   1  13  -6 1106.42 466.317   1
   1  13  -5-366.450 342.286   3
   1  13  -5 225.076 424.012  11
   1  13  -4 694.541 413.929   1
   1  13  -4 914.643 510.037  11
   1  13  -3 1012.31 403.803   3
  -1  13   3 982.610 503.657  11
   1  13  -3 24.6711 391.961  11
  -1  13   2 2609.43 677.194  11
   1  13  -2 1823.95 444.132   3
  -1  13   2 1758.88 524.555   1
   1  13  -2 1806.55 548.156   1
  -1  13   1 203.553 418.306  10
   1  13  -1 291.274 442.768  11
  -1  13   1 374.804 424.355  11
  -1  13   0 452.127 410.567  10
   1  13   0 861.053 305.378   3
   1  13   0 919.918 482.973  11
   1  13   1 808.290 495.044  11
  -1  13  -1 1567.22 533.827  10
  -1  13  -1 1547.48 543.066  11
   1  13   1 721.389 471.222   1
  -1  13  -1 911.185 399.922   1
   1  13   2 17.6185 348.244   1
  -1  13  -2 404.978 443.372  11
  -1  13  -2 291.568 331.663   1
  -1  13  -3-177.489 284.577   3
   1  13   3 34.4295 369.588  11
   1  13   3 308.872 416.535   1
  -1  13  -3 91.5126 362.640  10
  -1  13  -4 1218.44 448.882   3
   1  13   4 304.009 459.754   1
  -1  13  -5 819.663 513.847  10
  -1  13  -5 1284.69 543.145  11
   1  13   5 1531.38 566.025   1
   1  13   5 1399.96 588.890  11
  -1  13  -6 5973.06 864.730   3
   1  13   6 6213.30 947.420  11
   1  13   6 6993.65 1031.43   1
  -1  13  -6 6520.98 730.961   1
  -1  13  -7 2693.83 673.315   3
  -1  13  -7 2808.33 758.194  10
  -1  13  -7 2649.75 649.889  11
   1  13   7 3398.88 762.774  11
  -1  13  -8 4118.71 797.909   3
  -1  13  -8 4349.44 756.583  11
  -1  13  -9 1359.57 555.870   3
  -1  13 -10 1861.31 564.844  11
  -1  13 -10 1119.03 591.397   3
  -1  13 -11 529.505 450.925   3
   1  14 -11 5919.38 1081.24   3
   1  14 -11 6124.11 996.027  11
   1  14 -10 3238.67 829.174   3
   1  14 -10 4609.20 882.606  11
   1  14  -9 10829.2 1089.32   1
   1  14  -8 2164.35 681.064  11
   1  14  -7 17877.9 1491.41   3
   1  14  -7 25121.6 1813.88  11
   1  14  -6 5217.39 905.330  11
   1  14  -6 4780.12 773.988   1
   1  14  -5 10342.1 1073.43   3
   1  14  -5 8739.13 1007.09   1
   1  14  -4 6990.66 909.062   1
  -1  14   4 6201.30 984.969  11
   1  14  -4 6408.94 833.210   3
  -1  14   3 9164.83 1148.03  11
   1  14  -2 4627.94 807.004   1
  -1  14   2 4381.14 855.300  11
   1  14  -2 6154.63 725.859   3
   1  14  -2 5223.07 920.910  11
  -1  14   1 16860.0 1352.11   1
   1  14   0 4095.90 817.417  11
  -1  14   0 4999.82 797.355   1
  -1  14   0 4899.72 898.013  11
   1  14   0 3497.96 752.451   1
   1  14   1 15541.8 1416.38  11
  -1  14  -1 12922.6 1154.80   1
   1  14   2 5102.30 885.473   1
   1  14   2 5651.60 931.266  11
  -1  14  -2 5463.01 779.679   1
  -1  14  -3 12575.9 1055.73   3
  -1  14  -3 12138.2 1080.62   1
  -1  14  -4 2697.83 610.945   3
   1  14   4 2829.80 780.832  11
  -1  14  -5 21478.5 1498.31   3
   1  14   5 21446.2 1730.26   1
  -1  14  -5 22082.3 1370.31   1
  -1  14  -5 23458.9 1713.73  11
   1  14   6 7056.94 1066.30   1
  -1  14  -6 3464.25 730.831   3
  -1  14  -7 19330.0 1554.85  11
  -1  14  -7 15382.6 1422.80   3
   1  14   7 20932.8 1678.75  11
  -1  14  -8 4555.05 871.244   3
  -1  14  -8 3036.21 728.330  11
  -1  14  -9 9880.11 1230.73   3
  -1  14 -10 4170.50 904.026   3
   1  15 -10 282.435 500.983   3
   1  15  -9-1892.40 704.500   3
   1  15  -8 816.542 536.901   3
   1  15  -8 811.391 407.825   1
   1  15  -8 530.204 532.136  11
   1  15  -7 1841.13 620.697   3
   1  15  -7 1117.30 470.687   1
   1  15  -7 1717.81 670.604  11
   1  15  -6 415.754 357.281   1
  -1  15   5-73.0041 462.253  11
   1  15  -5-516.490 444.003   3
   1  15  -5 448.028 471.488  11
  -1  15   4 410.698 491.306  11
   1  15  -4 375.511 404.095   3
   1  15  -4-31.7517 501.302  11
   1  15  -3 1934.37 693.545  11
   1  15  -2 541.571 510.210   1
   1  15  -1 1648.35 596.151   1
  -1  15   1 2225.18 721.204  11
  -1  15   1 1779.44 573.523   1
   1  15  -1 1821.16 676.751  11
   1  15   0 884.339 517.767   1
  -1  15   0 313.482 400.363   1
  -1  15  -1 5139.89 927.810  11
   1  15   1 4984.98 888.608  11
  -1  15  -1 4477.88 773.349   1
   1  15   2-24.9320 456.409  11
   1  15   2 14.5616 491.484   1
  -1  15  -2 67.1239 483.955  11
  -1  15  -3 3173.13 741.772  11
  -1  15  -3 2384.04 590.904   1
   1  15   4 601.778 583.276   1
  -1  15  -5 1463.10 505.592   3
  -1  15  -5 3097.22 765.332  11
   1  15   5 2723.21 793.888  11
  -1  15  -6 734.534 462.582   3
   1  15   6-348.460 546.871  11
   1  15   6 944.351 633.627   1
  -1  15  -7 3987.59 819.788  11
  -1  15  -7 4081.13 824.693   3
  -1  15  -9 3599.46 840.055   3
   1  16  -5 13245.2 1308.31   1
   1  16  -4 5165.98 1034.41  11
   1  16  -4 6667.26 980.675   1
   1  16  -3 6973.62 1129.08  11
   1  16  -2 5224.43 1028.62  11
  -1  16   2 4280.12 991.078  11
   1  16  -1 10558.5 1334.00  11
  -1  16   0 2969.57 716.184   1
   1  16   0 3687.26 901.632  11
  -1  16   0 4260.72 939.127  11
  -1  16  -1 10046.2 1300.78  11
   1  16   1 11771.8 1346.68   1
  -1  16  -2 3664.20 905.637  11
   1  16   2 4482.87 932.387  11
  -1  16  -2 3346.37 683.601   1
   1  16   2 4454.86 929.527   1
  -1  16  -3 9070.69 1259.27  11
   1  16   3 7515.98 1150.41   1
   1  16   3 9526.09 1271.61  11
  -1  16  -4 3790.80 864.218  11
  -1  16  -5 10997.0 1334.07  11
   1  17  -4 84.7002 375.266   1
   1  17  -1 2003.32 666.697   1
   2 -16  -7 4270.87 890.228   7
  -2 -16   6 3922.14 824.316   9
   2 -16  -6 2341.98 727.327   7
  -2 -16   5 11708.3 1312.21   9
   2 -16  -5 10709.0 1279.04   7
   2 -16  -4 2987.29 709.090   7
   2 -16  -4 5672.26 993.111  12
  -2 -16   4 4572.33 912.560   9
   2 -16  -3 5945.26 934.100   7
  -2 -16   3 8098.49 1135.60   9
  -2 -16   2 4441.79 882.250   9
   2 -16  -2 4212.19 974.517   2
   2 -16  -2 3433.03 718.595   7
   2 -16  -2 5375.12 981.196  12
   2 -16  -1 11302.5 1397.76   2
   2 -16  -1 13174.1 1432.38  12
   2 -16   0 1187.75 734.417   2
  -2 -16  -1 11231.1 1381.75   2
   2 -16   1 10642.8 1343.70   2
   2 -16   3 8707.06 1233.94   2
   2 -16   4 4255.70 959.293   2
   2 -16   5 4265.34 953.633   2
   2 -16   6 2069.78 749.661   2
  -2 -15   9 2919.72 755.445   4
   2 -15  -7 1331.39 569.064   7
  -2 -15   7 1472.75 525.152   9
   2 -15  -7 979.368 609.591   2
   2 -15  -7 1408.72 641.103   9
  -2 -15   7 521.729 419.267   4
   2 -15  -7 799.802 509.274  12
   2 -15  -6 586.971 534.363   9
   2 -15  -6-172.952 501.125   2
   2 -15  -5 6426.28 1040.90   9
   2 -15  -5 5646.15 913.715   7
   2 -15  -5 5841.54 973.058  12
   2 -15  -5 7210.60 1111.40   2
  -2 -15   5 4705.32 756.530   4
   2 -15  -4 1952.85 714.546   2
  -2 -15   4 1308.32 443.426   4
   2 -15  -4 1180.59 564.004  12
   2 -15  -4 1604.16 556.480   7
  -2 -15   3 5990.75 931.087   9
   2 -15  -3 6290.14 1004.31  12
   2 -15  -2 1647.66 612.709  12
   2 -15  -2 1710.01 675.462   2
  -2 -15   1 8712.97 1127.98   9
   2 -15  -1 7584.35 1119.56   2
   2 -15  -1 7517.72 1065.96  12
   2 -15   0-513.474 542.081   2
  -2 -15   0-313.109 476.973   9
   2 -15   1 11508.2 1316.27   2
  -2 -15  -1 13526.3 1411.52   2
   2 -15   2 1359.42 678.215   2
  -2 -15  -3 9025.18 1217.35   9
   2 -15   3 9224.02 1208.98   2
   2 -15   4 545.394 558.136   2
  -2 -15  -4 747.214 543.617   5
  -2 -15  -4 704.167 454.738  12
   2 -15   5 10923.6 1298.60   2
  -2 -15  -5 10034.1 1243.46   2
  -2 -15  -5 8454.94 1034.41   7
  -2 -15  -5 8291.79 1219.18   9
   2 -15   6 669.434 474.156   4
   2 -15   7 12081.8 1310.33   2
  -2 -15  -7 8881.69 1140.15   7
  -2 -15  -8-171.551 439.168   2
   2 -14 -11 14136.5 1458.34   5
   2 -14 -10 2847.95 757.606  12
   2 -14 -10 3669.57 811.211   9
   2 -14 -10 3317.46 800.449   2
   2 -14 -10 2971.15 696.798   5
   2 -14 -10 3166.97 811.651   7
   2 -14  -9 16359.8 1541.38   9
   2 -14  -9 17463.2 1615.37   7
   2 -14  -9 17535.7 1609.98   2
   2 -14  -9 19394.9 1688.10  12
   2 -14  -8 3180.93 800.947   2
  -2 -14   8 1830.01 608.800   4
   2 -14  -8 2546.95 667.088   5
   2 -14  -8 3134.73 746.465  12
   2 -14  -8 2954.74 746.753   7
   2 -14  -8 841.908 460.081   9
   2 -14  -7 12843.3 1374.18   2
  -2 -14   7 12150.6 1168.78   9
   2 -14  -7 11565.7 1268.21   5
   2 -14  -7 11050.3 1236.71   7
  -2 -14   7 9999.23 1126.81   4
   2 -14  -6 10275.9 1190.29   7
   2 -14  -6 10386.6 1249.62   9
   2 -14  -6 10211.6 1215.29  12
   2 -14  -6 10335.8 1180.27   5
   2 -14  -6 11804.0 1293.58   2
  -2 -14   6 9740.46 1068.58   4
   2 -14  -5 25296.9 1841.14   2
   2 -14  -5 26501.5 1865.53  12
  -2 -14   4 5525.62 784.275   4
   2 -14  -4 5051.77 886.234  12
  -2 -14   3 11675.2 1208.26   9
   2 -14  -3 9166.76 1061.68   7
   2 -14  -3 12447.6 1285.95  12
  -2 -14   3 11119.3 992.023   4
   2 -14  -3 10957.9 1239.45   2
   2 -14  -2 6412.42 982.864   2
  -2 -14   2 4362.91 623.912   4
   2 -14  -2 4892.52 784.311   7
  -2 -14   1 14463.5 1387.28   2
   2 -14  -1 12011.5 1257.32  12
  -2 -14   1 12199.9 1251.38   9
   2 -14  -1 12852.4 1316.14   2
  -2 -14   0 7868.38 1074.44   2
  -2 -14   0 5794.95 929.045   9
   2 -14   0 6111.31 980.221   2
  -2 -14  -2 3876.93 825.969   2
  -2 -14  -2 1725.12 455.919   7
   2 -14   2 2906.10 756.131   2
  -2 -14  -2 1995.92 523.409  12
  -2 -14  -2 2887.92 699.134   9
  -2 -14  -3 17660.9 1301.87  12
  -2 -14  -3 16552.7 1500.38   9
  -2 -14  -3 20540.6 1629.14   2
   2 -14   3 17743.7 1506.97   2
  -2 -14  -4 2719.20 726.220   9
  -2 -14  -4 1976.18 659.036   2
   2 -14   4 1242.31 460.965   4
  -2 -14  -4 918.245 417.660   7
   2 -14   4 928.890 595.913   2
  -2 -14  -4 1974.67 651.430   5
   2 -14   5 3582.31 822.724   2
  -2 -14  -5 5116.83 940.798   5
  -2 -14  -5 2979.79 611.695  12
   2 -14   6 3591.98 709.262   4
   2 -14   6 3029.27 745.720   2
  -2 -14  -6 4696.13 869.729   2
  -2 -14  -6 4868.89 915.125   5
  -2 -14  -6 3817.29 825.922   9
  -2 -14  -7 9570.26 1195.74   2
   2 -14   7 12955.3 1272.70   2
  -2 -14  -7 12140.0 1389.39   9
  -2 -14  -8 1126.15 547.445   9
  -2 -14  -8 757.500 566.578   5
  -2 -14  -8 815.991 559.065   2
   2 -14   9 2191.10 690.501   4
  -2 -14  -9 1601.92 642.255   2
  -2 -14 -10 556.584 482.788   2
   2 -13 -13-210.018 308.295   9
   2 -13 -12 832.722 578.264   2
  -2 -13  12 31.2277 373.529   4
   2 -13 -11 1240.22 550.422   9
   2 -13 -11 1732.78 607.514  12
   2 -13 -11 925.500 567.238   2
   2 -13 -11 1400.07 617.154   7
  -2 -13  11 2415.44 735.992   4
   2 -13 -10 65.9841 341.082   9
   2 -13 -10 344.828 382.136   7
   2 -13 -10 16.5752 364.531   2
   2 -13  -9 1583.01 591.995   2
   2 -13  -9 2430.11 650.855   9
   2 -13  -9 1587.87 606.039   7
   2 -13  -8 1821.50 618.328  12
  -2 -13   8 3198.96 700.863   4
   2 -13  -8 1200.35 566.769   2
   2 -13  -8 2137.54 613.440   9
   2 -13  -8 1727.40 576.825   5
   2 -13  -7 614.803 431.705   9
   2 -13  -7 337.969 358.580   7
   2 -13  -7 1015.53 451.885   5
  -2 -13   7 226.061 385.802   4
   2 -13  -7 575.511 423.579  12
  -2 -13   6 1970.70 525.528   9
   2 -13  -6 2935.84 719.833   9
   2 -13  -6 1809.03 563.343   5
   2 -13  -6 3038.32 722.552   2
   2 -13  -6 2702.87 680.821  12
   2 -13  -5 986.849 479.119  12
  -2 -13   5 1276.81 457.187   4
   2 -13  -5 566.727 398.054   7
   2 -13  -5 2207.42 652.345   2
  -2 -13   5 1608.94 504.948   9
  -2 -13   4 3669.63 637.333   4
   2 -13  -4 5017.69 847.504   2
   2 -13  -4 3996.86 723.022   7
   2 -13  -4 5009.09 812.675  12
  -2 -13   3 3341.20 575.063   4
   2 -13  -3 2950.27 617.444   7
  -2 -13   3 3991.01 723.734   9
   2 -13  -3 3252.13 721.860   2
  -2 -13   2 5424.21 660.894   4
   2 -13  -2 6000.39 896.120  12
   2 -13  -2 4735.70 724.853   7
   2 -13  -1 3476.65 727.489   2
  -2 -13   1 2759.03 477.859   4
  -2 -13   1 4137.57 766.437   2
   2 -13  -1 2656.23 675.059  12
  -2 -13   0 4192.58 523.849   4
  -2 -13   0 4356.17 546.839   7
   2 -13   1 2326.55 461.974   4
  -2 -13  -1 3546.01 447.857   4
  -2 -13  -1 3087.52 678.206   9
   2 -13   1 3173.03 734.384   2
  -2 -13  -2 2874.18 668.235   9
  -2 -13  -2 3119.86 563.648   7
   2 -13   2 2912.32 710.814   2
   2 -13   2 2164.79 472.238   4
  -2 -13  -2 4366.79 801.351   2
  -2 -13  -3 4237.53 791.070   9
   2 -13   3 2961.95 705.266   2
  -2 -13  -3 4547.19 801.509   2
  -2 -13  -3 2603.37 557.309  12
  -2 -13  -4 19494.9 1521.32   2
  -2 -13  -4 16452.8 1483.25   5
  -2 -13  -4 16830.2 1223.82  12
   2 -13   4 16933.6 1391.75   2
  -2 -13  -5 8613.23 1090.62   9
  -2 -13  -5 9895.27 1125.73   2
  -2 -13  -5 9943.20 1175.57   5
  -2 -13  -5 8018.57 885.620  12
   2 -13   5 7205.08 901.300   4
  -2 -13  -6 12600.1 1351.73   5
   2 -13   6 10531.1 1119.75   4
  -2 -13  -6 12505.3 1324.48   9
  -2 -13  -6 13659.0 1296.57   2
   2 -13   6 13904.2 1246.31   2
   2 -13   7 2866.09 702.786   4
  -2 -13  -7 2821.66 624.066  12
  -2 -13  -7 3249.82 767.722   9
  -2 -13  -8 12804.8 1380.90   9
  -2 -13  -8 10647.7 1190.60   2
  -2 -13  -8 10912.3 1307.16   5
   2 -13   8 11217.1 1269.40   4
  -2 -13  -9 1746.71 559.775  12
  -2 -13  -9 2099.89 679.035   5
   2 -13   9 1987.09 657.280   4
  -2 -13 -10 10099.6 1275.63   9
  -2 -13 -10 7135.23 1013.94   2
   2 -12 -14 12446.6 1279.19   9
   2 -12 -13 636.942 425.562   9
   2 -12 -13 1220.92 592.426   5
   2 -12 -12 36812.1 2400.42   7
   2 -12 -12 34456.9 2135.76   2
   2 -12 -11 904.753 504.364   7
   2 -12 -11 1115.81 483.979   5
  -2 -12  11 1704.51 641.319   4
   2 -12 -10 25531.0 1778.87   9
   2 -12 -10 23589.2 1703.70   5
  -2 -12   9 1119.07 522.826   4
   2 -12  -9 570.547 402.137   7
   2 -12  -9 1359.82 480.991   5
   2 -12  -8 17752.9 1421.06   5
   2 -12  -8 15868.5 1414.87   7
   2 -12  -8 19562.9 1555.21  12
   2 -12  -8 18088.1 1477.71   2
   2 -12  -7 2469.55 657.996   2
   2 -12  -7 3025.35 676.000   9
   2 -12  -7 2251.74 614.983   7
   2 -12  -7 3286.27 666.664   5
  -2 -12   7 3221.44 682.890   4
   2 -12  -7 3212.52 666.400  12
  -2 -12   6 38380.2 1836.02   9
   2 -12  -6 36144.9 2005.23   7
   2 -12  -6 38296.1 2069.53   2
  -2 -12   6 33185.4 1804.51   4
  -2 -12   5 3395.76 629.101   4
   2 -12  -5 2483.79 623.095  12
   2 -12  -5 3731.30 705.760   7
  -2 -12   5 3323.28 646.742   9
   2 -12  -5 3167.99 691.416   2
   2 -12  -4 20038.1 1423.44   7
   2 -12  -4 19595.7 1466.03  12
   2 -12  -4 20749.3 1512.81   2
  -2 -12   4 18892.9 1272.29   4
  -2 -12   3 738.198 409.878   9
   2 -12  -3 620.964 372.168   7
   2 -12  -3 242.874 402.978  12
  -2 -12   3 318.516 305.474   4
   2 -12  -2 18278.0 1279.39   7
  -2 -12   2 17819.8 1334.77   9
   2 -12  -2 19849.6 1448.26   2
   2 -12  -2 20759.5 1483.39  12
  -2 -12   1 1053.32 463.241   9
  -2 -12   1 845.705 263.395   7
   2 -12  -1 430.469 335.208   7
  -2 -12   1 1045.80 515.230   2
   2 -12  -1 450.378 407.475  12
   2 -12   0 22242.6 1086.03   4
   2 -12   0 26773.9 1668.39  12
  -2 -12   0 28097.2 1697.38   2
  -2 -12   0 24344.0 1584.39   9
  -2 -12   0 22780.0 1115.20   4
   2 -12   0 24805.0 1581.87   2
   2 -12   1 79.4410 219.873   4
  -2 -12  -1 244.302 399.783   9
  -2 -12  -1 746.245 314.750   7
   2 -12   1 374.778 418.133  12
  -2 -12  -2 12534.0 984.389  12
  -2 -12  -2 12496.4 1177.33   2
  -2 -12  -2 12977.7 1194.33   9
   2 -12   2 12218.1 1158.31   2
   2 -12   2 11751.6 933.554   4
  -2 -12  -3 635.399 197.664   4
   2 -12   3 422.096 322.741   4
  -2 -12  -3 726.358 467.915   2
  -2 -12  -3 212.955 303.870  12
  -2 -12  -4 10269.4 1081.72   2
  -2 -12  -4 9612.83 1082.73   9
  -2 -12  -4 9633.16 1095.01   5
   2 -12   4 10366.6 1067.59   2
   2 -12   4 9534.86 943.315   4
   2 -12   5 304.802 362.106   4
  -2 -12  -5 118.229 406.110   2
  -2 -12  -5 555.067 416.190   9
   2 -12   5-69.9129 428.913   2
  -2 -12  -5 592.457 411.976   5
  -2 -12  -5 95.5957 265.096  12
  -2 -12  -6 11483.7 1222.42   9
  -2 -12  -6 10928.3 1212.10   5
   2 -12   6 10897.7 1061.13   2
   2 -12   6 8689.10 994.466   4
   2 -12   7 942.242 493.207   4
  -2 -12  -7 1578.12 584.358   2
  -2 -12  -7 1341.56 536.652   9
  -2 -12  -7 1880.93 624.256   5
  -2 -12  -7 2169.35 537.548  12
  -2 -12  -8 7853.16 1084.91   5
  -2 -12  -8 5385.63 868.390   2
   2 -12   8 7729.36 1017.27   4
  -2 -12  -8 8364.57 907.556  12
  -2 -12  -9-52.2345 437.936   2
  -2 -12  -9 745.436 419.366  12
  -2 -12  -9 772.790 463.992   9
   2 -12  10 7027.98 1074.17   4
  -2 -12 -10 6780.47 1059.41   5
  -2 -12 -10 7256.48 1048.95   9
  -2 -12 -11 848.089 448.319   2
   2 -12  11 1270.90 609.368   4
  -2 -12 -11 658.922 448.971   9
   2 -11 -14 985.839 524.213   2
   2 -11 -14 825.983 531.422   5
   2 -11 -14 529.102 368.063   9
   2 -11 -13-291.659 350.194   9
  -2 -11  13 154.590 485.383   4
   2 -11 -13 770.981 540.396   2
  -2 -11  12 2331.78 707.568   4
   2 -11 -12 1773.74 587.021   9
   2 -11 -12 2907.93 751.425   7
   2 -11 -11 1782.85 604.827   2
   2 -11 -11 2652.84 637.694   9
  -2 -11  11 1735.47 613.242   4
   2 -11 -10 4327.92 804.081   2
   2 -11 -10 3881.84 716.772   9
   2 -11 -10 3709.53 773.018   7
   2 -11  -9 5405.03 839.952   2
   2 -11  -9 4899.06 779.059   5
  -2 -11   9 5068.45 623.344   9
   2 -11  -8 8191.47 970.316   9
   2 -11  -8 8780.34 1035.14   7
   2 -11  -8 10296.0 1093.34   2
  -2 -11   7 407.944 397.441   4
   2 -11  -7-84.2282 372.984   2
  -2 -11   7-46.4492 269.381   9
   2 -11  -7 562.478 385.649   9
   2 -11  -7-149.650 305.596   7
   2 -11  -7-52.6744 302.393   5
   2 -11  -7-629.263 424.029  12
  -2 -11   6 2671.42 589.330   4
   2 -11  -6 2528.94 588.915  12
   2 -11  -6 2710.66 611.120   7
   2 -11  -6 3256.25 594.795   5
   2 -11  -5 3995.03 673.282   7
  -2 -11   4 6375.48 766.466   9
   2 -11  -4 5128.41 775.888   2
   2 -11  -4 6603.03 822.359   7
   2 -11  -4 6274.24 824.706  12
  -2 -11   4 6143.29 740.027   4
   2 -11  -3 3570.51 659.287  12
  -2 -11   3 2630.34 497.172   4
   2 -11  -3 3440.88 610.274   7
   2 -11  -3 2203.84 214.067   4
  -2 -11   2 12528.7 1075.22   9
   2 -11  -2 11588.2 1083.43  12
   2 -11  -2 11293.5 985.834   7
   2 -11  -2 12926.9 1130.54   2
   2 -11  -1 7737.92 583.205   4
   2 -11  -1 7774.80 810.031   7
  -2 -11   0 9728.48 762.173   3
  -2 -11   0 10098.6 744.388   4
   2 -11   0 9958.86 996.871   2
   2 -11   0 10994.0 1046.85  12
   2 -11   1 5608.57 765.096   2
  -2 -11  -1 5667.62 798.704   2
  -2 -11  -1 3818.03 554.631  12
   2 -11   1 3930.98 515.528   4
  -2 -11  -1 4020.94 694.297   9
   2 -11   2 11448.8 1041.34   2
   2 -11   2 11191.3 882.937   4
  -2 -11  -2 9717.05 819.634  12
  -2 -11  -2 11648.9 693.117   4
  -2 -11  -2 10132.0 1013.76   2
   2 -11   3 4201.59 699.270   2
   2 -11   3 3777.37 596.460   4
  -2 -11  -3 4486.88 724.003   2
  -2 -11  -4 9325.53 974.067   2
  -2 -11  -4 10746.0 1082.25   9
  -2 -11  -4 11109.6 1108.42   5
   2 -11   4 8134.74 856.496   4
   2 -11   4 10398.3 1001.51   2
  -2 -11  -5 3693.47 572.739  12
   2 -11   5 4551.26 694.501   4
  -2 -11  -5 3810.66 693.552   2
   2 -11   5 3990.34 684.848   2
  -2 -11  -5 3957.70 755.390   5
   2 -11   6 6354.29 844.002   4
  -2 -11  -6 4958.53 649.670  12
  -2 -11  -6 5907.61 881.046   5
   2 -11   6 5622.64 770.776   2
  -2 -11  -6 5530.78 810.007   2
  -2 -11  -7 5110.16 678.815  12
  -2 -11  -7 6232.24 897.083   9
   2 -11   7 6556.73 788.388   2
   2 -11   7 6088.69 871.482   4
  -2 -11  -7 7186.77 903.713   2
  -2 -11  -8 10284.9 1162.79   9
  -2 -11  -8 8904.33 909.090  12
  -2 -11  -8 11087.4 1091.64   2
  -2 -11  -9 4751.80 775.731   2
  -2 -11 -10 12302.6 1302.74   9
  -2 -11 -10 13545.4 1409.91   5
  -2 -11 -11 3382.34 688.158   2
  -2 -11 -12 15046.4 1468.13   9
  -2 -11 -12 17097.2 1654.92   5
   2 -11  12 13368.4 1496.16   4
  -2 -11 -13 6546.39 1003.26   9
   2 -10 -15 22783.7 1805.60   5
   2 -10 -15 19988.1 1603.43   2
   2 -10 -14 2623.84 688.399   2
   2 -10 -13 10912.5 1112.00   9
   2 -10 -13 14924.6 1509.20   7
   2 -10 -13 13135.0 1302.02   5
   2 -10 -13 12965.3 1263.73   2
  -2 -10  13 13506.8 1460.22   4
   2 -10 -12 12806.3 1185.70   9
  -2 -10  12 14596.2 1446.51   4
   2 -10 -12 15125.3 1493.58   7
   2 -10 -12 14044.5 1310.10   5
   2 -10 -12 13647.9 1282.64   2
   2 -10 -11 31257.5 1856.23   5
  -2 -10  10 9352.57 1102.62   4
  -2 -10  10 9535.80 735.827   9
   2 -10 -10 10152.9 1065.33   2
   2 -10 -10 9482.74 1029.10   5
   2 -10  -9 19689.7 1412.59   9
   2 -10  -9 24830.9 1587.39   2
   2 -10  -9 23918.7 1525.86   5
  -2 -10   9 22914.2 1607.85   4
   2 -10  -8 3400.61 657.302   9
  -2 -10   8 4790.91 764.247   4
   2 -10  -8 4759.91 790.249   7
   2 -10  -7 14733.0 1250.08   7
   2 -10  -7 17500.0 1303.95   2
   2 -10  -6 7320.59 874.160   7
  -2 -10   6 8520.92 902.759   4
  -2 -10   6 9380.61 834.650   9
   2 -10  -6 7910.76 895.960   2
   2 -10  -5 22935.7 1446.37   7
  -2 -10   5 22637.3 1273.94   9
  -2 -10   5 23358.2 1369.73   4
   2 -10  -5 23738.5 1466.42   2
   2 -10  -5 23048.9 1450.27  12
   2 -10  -4 11070.0 992.812   7
   2 -10  -4 9995.13 968.089   2
   2 -10  -4 9134.45 942.251  12
  -2 -10   4 8856.39 831.527   4
  -2 -10   3 57641.1 2067.86   9
  -2 -10   3 54238.7 1887.65   4
   2 -10  -3 58705.0 2142.45   7
   2 -10  -3 58289.6 2205.66   2
   2 -10  -3 57713.9 2210.48  12
  -2 -10   2 1219.31 412.598   9
  -2 -10   2 1359.38 354.212   4
   2 -10  -2 875.256 214.330   4
   2 -10  -2 1146.16 432.571   2
   2 -10  -1 12778.4 1054.53  12
   2 -10  -1 14685.9 1125.31   2
  -2 -10   1 13733.1 875.186   4
  -2 -10   1 13145.6 1047.47   9
  -2 -10   1 15226.5 1136.48   2
  -2 -10   0 10340.8 768.504   3
   2 -10   0 8408.92 861.023   2
  -2 -10   0 9672.49 712.774   4
   2 -10   0 10224.8 960.926  12
  -2 -10  -1 27273.7 1091.06   4
   2 -10   1 24516.8 1168.69   4
  -2 -10  -1 25249.9 1194.80  12
  -2 -10  -1 25319.8 1471.95   9
   2 -10   1 24933.1 1419.16   2
   2 -10   1 29203.5 1570.15  12
   2 -10   1 25221.7 1184.24   8
  -2 -10  -2 9484.80 771.008  12
   2 -10   2 11760.4 991.641   2
  -2 -10  -2 11370.5 1021.68   9
  -2 -10  -2 11890.5 688.715   4
  -2 -10  -2 11144.0 706.796   3
   2 -10   2 11347.6 776.729   1
   2 -10   3 30930.8 1548.07   2
  -2 -10  -3 29969.1 998.388   4
  -2 -10  -3 30155.5 1649.05   9
  -2 -10  -3 29236.5 1313.79  12
   2 -10   3 26431.4 1368.74   4
  -2 -10  -3 29662.1 1577.63   2
  -2 -10  -4 8022.91 926.519   5
   2 -10   4 9040.58 888.595   2
  -2 -10  -4 8583.08 902.195   2
  -2 -10  -4 9407.04 964.623   9
   2 -10   5 11545.4 966.245   2
  -2 -10  -5 12122.2 1108.70   9
  -2 -10  -5 12284.7 1061.62   2
  -2 -10  -5 12983.6 1165.84   5
   2 -10   5 11776.8 1039.13   4
   2 -10   6 8813.19 843.372   2
  -2 -10  -6 7502.61 923.332   9
  -2 -10  -6 7956.90 775.609  12
  -2 -10  -6 7625.14 875.137   2
   2 -10   7 11153.5 925.095   2
  -2 -10  -7 10726.0 1009.25   2
  -2 -10  -8 4506.17 711.481   2
  -2 -10  -8 4909.82 797.397   9
  -2 -10  -8 5736.12 857.199   5
  -2 -10  -9 19297.3 1329.63   2
   2 -10  10 5887.64 960.570   4
  -2 -10 -10 6731.12 841.172   2
  -2 -10 -10 6347.88 936.532   9
  -2 -10 -10 7090.67 1033.97   5
  -2 -10 -11 5692.38 776.639   2
   2 -10  11 5489.42 973.763   4
  -2 -10 -11 5046.71 916.257   5
  -2 -10 -11 6272.49 921.441   9
   2 -10  13 4356.49 922.997   4
  -2 -10 -13 4979.57 954.618   5
   2  -9 -16-164.060 481.616   2
  -2  -9  15 1475.90 665.128   4
   2  -9 -15 2725.49 770.740   7
   2  -9 -15 1672.69 601.538   5
  -2  -9  14 306.549 406.752   4
   2  -9 -14 349.982 479.238   7
  -2  -9  13 1052.74 610.667   4
   2  -9 -13 897.554 397.628   9
   2  -9 -13-438.703 431.765   7
   2  -9 -13-169.162 393.099   5
   2  -9 -12 163.786 312.261   9
  -2  -9  12 1078.12 508.926   4
   2  -9 -12 497.170 447.448   7
   2  -9 -12 44.0197 366.372   5
   2  -9 -11 3060.39 638.614   5
  -2  -9  11 3670.44 756.116   4
   2  -9 -11 2869.74 591.177   9
   2  -9 -11 3198.79 695.441   7
   2  -9 -10-457.575 362.073   5
  -2  -9   9 7372.70 932.852   4
   2  -9  -9 6402.54 806.149   9
   2  -9  -9 6207.68 778.316   5
   2  -9  -8 845.345 402.208   9
   2  -9  -8 619.572 405.128   7
  -2  -9   8-315.021 379.459   4
  -2  -9   7 9823.54 967.551   4
   2  -9  -7 10947.5 1042.57   7
   2  -9  -7 11573.8 985.046   5
  -2  -9   6 288.747 259.001   9
   2  -9  -6 174.895 327.337   7
  -2  -9   5 21482.0 1156.71   9
   2  -9  -5 22392.1 1373.53   7
   2  -9  -5 19712.1 1285.80  12
  -2  -9   5 19858.9 1233.21   4
   2  -9  -4 3603.15 585.394   2
   2  -9  -4 1622.67 116.789   4
  -2  -9   3 21268.9 577.465   7
  -2  -9   3 26388.5 1324.50   9
   2  -9  -3 28561.0 1469.15   2
   2  -9  -3 27548.8 1457.01  12
   2  -9  -3 23451.2 701.265   4
   2  -9  -2 1632.03 449.570  12
  -2  -9   2 1566.45 423.919   9
   2  -9  -2 1855.13 441.030   7
  -2  -9   2 973.680 346.153   3
   2  -9  -2 1540.41 390.797   1
   2  -9  -2 1316.68 427.045   2
   2  -9  -1 18963.3 1202.67  12
  -2  -9   1 19139.4 1041.22   3
  -2  -9   1 17733.8 959.788   4
  -2  -9   0 688.348 351.559   9
  -2  -9   0 894.264 291.920  12
   2  -9   0 443.635 232.287   4
   2  -9   0 759.973 306.448   7
   2  -9   0 651.937 287.298   1
  -2  -9   0 1329.96 429.943   2
  -2  -9   0 639.591 263.860   3
   2  -9   1 27065.4 1424.50  12
   2  -9   1 26339.3 1365.31   2
   2  -9   1 26226.1 1118.35   8
  -2  -9  -1 26586.4 1388.28   2
  -2  -9  -1 25868.5 1117.98  12
   2  -9   1 24316.8 1130.65   4
   2  -9   2 2776.53 460.797   4
  -2  -9  -2 2279.31 506.249   2
  -2  -9  -2 2357.22 404.997  12
   2  -9   3 39000.0 1608.51   2
  -2  -9  -3 37004.7 1372.69  12
   2  -9   4 2427.71 500.322   4
  -2  -9  -4 1947.91 396.686  12
  -2  -9  -4 2020.02 510.161   5
  -2  -9  -4 2641.26 543.521   2
  -2  -9  -5 34367.7 1616.13   2
   2  -9   5 34889.7 1685.49   4
  -2  -9  -5 38815.8 1881.26   5
  -2  -9  -5 37209.8 1812.85   9
   2  -9   6 1193.46 434.589   4
  -2  -9  -6 1167.83 461.601   9
   2  -9   6 486.125 350.731   2
  -2  -9  -7 22880.0 1343.64   2
   2  -9   7 27768.5 1306.93   2
  -2  -9  -7 28112.7 1679.21   5
   2  -9   7 26778.2 1620.69   4
  -2  -9  -8 872.842 463.251   9
   2  -9   8 543.137 424.435   4
  -2  -9  -8 721.054 397.577   2
  -2  -9  -8 981.482 453.655   5
  -2  -9  -9 18538.3 1412.83   9
  -2  -9  -9 16972.8 1180.51   2
  -2  -9  -9 19004.4 1488.06   5
   2  -9   9 18102.9 1467.30   4
   2  -9  10 3183.23 739.562   4
  -2  -9 -10 2772.14 698.388   5
  -2  -9 -11 24347.5 1402.07   2
  -2  -9 -11 25802.4 1726.87   9
  -2  -9 -11 29036.8 1935.49   5
  -2  -9 -12 1027.40 495.398   9
   2  -9  12 1388.34 619.307   4
  -2  -9 -12 722.923 533.123   5
   2  -9  13 15665.1 1593.23   4
  -2  -9 -14 155.925 414.764   5
   2  -8 -16 4857.49 962.013   7
  -2  -8  15 21223.3 1828.48   4
   2  -8 -15 23428.4 1717.05   5
   2  -8 -14 10203.3 984.711   9
   2  -8 -14 9032.01 1170.05   7
  -2  -8  14 10219.1 1256.17   4
   2  -8 -14 11336.9 1186.60   5
   2  -8 -13 18659.0 1579.57   7
   2  -8 -13 19527.8 1307.32   9
  -2  -8  13 18158.6 1582.89   4
   2  -8 -12 9607.32 928.668   9
  -2  -8  12 10107.6 1168.73   4
   2  -8 -11 16700.6 1183.04   9
   2  -8 -11 18070.5 1461.33   7
  -2  -8  11 18927.4 1501.98   4
  -2  -8  10 13727.1 1253.55   4
   2  -8 -10 14274.9 1263.12   7
   2  -8 -10 14420.7 1143.45   5
   2  -8  -9 28892.8 1703.90   7
  -2  -8   9 28835.2 1693.09   4
   2  -8  -9 28571.9 1514.02   9
   2  -8  -9 30277.2 1131.19  10
   2  -8  -8 10101.2 1010.85   7
  -2  -8   8 10331.9 1015.43   4
   2  -8  -7 32301.5 1254.44  10
  -2  -8   7 34051.7 1259.71   9
   2  -8  -7 31796.9 1504.69   5
   2  -8  -7 33648.0 1725.41   7
  -2  -8   6 15786.3 1119.86   4
   2  -8  -6 15614.5 1048.21   5
   2  -8  -5 38066.5 1699.84   7
  -2  -8   5 36551.0 1588.84   4
  -2  -8   4 12415.5 846.809   9
   2  -8  -4 13368.3 993.662   7
  -2  -8   4 12470.9 907.805   4
   2  -8  -4 12906.5 982.734  12
  -2  -8   3 65453.1 1927.73   4
  -2  -8   3 67897.5 1960.64   9
  -2  -8   3 73179.1 2113.54   3
   2  -8  -3 67204.7 2135.62  12
   2  -8  -3 65466.3 2061.31   7
   2  -8  -3 69490.1 2000.56   1
   2  -8  -2 17476.0 982.842   1
  -2  -8   2 17117.1 1023.56   9
   2  -8  -2 14907.8 978.881   7
   2  -8  -2 15737.8 674.372   4
   2  -8  -2 16273.4 1049.63   2
   2  -8  -2 16138.5 1050.47  12
   2  -8  -1 25658.6 949.036   4
  -2  -8   1 27273.8 1312.86   9
   2  -8  -1 29275.2 1306.86   7
  -2  -8   1 26268.9 1115.49   4
   2  -8  -1 27781.4 1159.92   8
   2  -8  -1 28655.7 1180.76   1
   2  -8  -1 27400.6 1326.60   2
  -2  -8   1 28855.9 1355.69   2
   2  -8   0 2749.14 492.683   2
  -2  -8   0 1956.53 425.326   9
  -2  -8   0 2193.99 356.334   4
   2  -8   0 1998.17 350.826   1
  -2  -8  -1 56096.5 1865.71   2
   2  -8   1 51478.7 1568.38   4
  -2  -8  -1 54616.0 1508.76   3
  -2  -8  -2 13524.7 957.497   2
   2  -8   2 13117.6 691.698   1
  -2  -8  -2 12651.2 745.794  12
   2  -8   2 12671.7 932.757  12
  -2  -8  -3 57888.9 1354.76   4
   2  -8   3 59278.1 1842.52   2
   2  -8   3 61303.7 1892.18  11
   2  -8   4 20714.1 1206.70   4
  -2  -8  -4 19373.3 1228.74   9
  -2  -8  -4 19380.0 825.395   3
  -2  -8  -4 19120.4 1133.43   2
  -2  -8  -5 46760.5 1933.83   9
   2  -8   5 48335.0 1920.62   4
  -2  -8  -6 1775.50 444.672   2
   2  -8   7 30765.5 1259.78  11
   2  -8   7 27794.5 1610.71   4
  -2  -8  -7 29312.4 1622.87   9
  -2  -8  -7 26177.8 1345.03   2
  -2  -8  -7 30310.5 1671.21   5
  -2  -8  -8 398.687 256.121  10
   2  -8   8 504.512 398.481   4
  -2  -8  -8 679.436 408.492   5
  -2  -8  -8 303.662 325.710   9
  -2  -8  -8 193.766 347.708   2
   2  -8   9 33581.3 780.754   8
  -2  -8  -9 35080.1 1562.77   2
   2  -8   9 35860.4 1981.24   4
  -2  -8 -10 8639.01 979.739   9
  -2  -8 -10 7341.85 973.762   5
  -2  -8 -10 6751.92 741.104   2
  -2  -8 -11 8567.06 984.072   9
  -2  -8 -11 9253.79 1099.11   5
   2  -8  11 8569.32 1111.91   4
  -2  -8 -11 8346.94 807.709   2
   2  -8  12 1987.02 672.847   4
  -2  -8 -12 824.212 514.590   5
   2  -8  13 9473.38 1241.96   4
  -2  -8 -14 2040.88 631.841   5
   2  -7 -17 985.354 552.077   7
  -2  -7  15-317.133 479.531   4
   2  -7 -15 398.801 469.433   7
   2  -7 -14 3572.82 769.042   7
   2  -7 -13 326.987 279.336   9
   2  -7 -13 564.956 434.147   7
  -2  -7  13 130.087 412.910   4
   2  -7 -13 62.6554 332.057   5
  -2  -7  12 78.5298 369.703   4
   2  -7 -12 528.570 413.108   7
   2  -7 -11 803.413 370.447   9
  -2  -7  11 749.636 460.342   4
   2  -7 -10 5158.42 654.310   9
   2  -7 -10 6670.69 865.590   7
  -2  -7  10 6660.94 865.705   4
   2  -7  -9 3742.43 565.781   9
  -2  -7   9 3271.62 628.441   4
   2  -7  -9 3949.59 665.200   7
  -2  -7   8 8430.71 881.262   4
  -2  -7   7 1464.94 426.904   4
   2  -7  -7 607.157 314.243   5
   2  -7  -7 1996.44 474.002   7
  -2  -7   6 2766.41 372.269   9
  -2  -7   6 2734.57 516.728   4
   2  -7  -6 2606.23 502.796   7
   2  -7  -6 2443.71 441.725   5
  -2  -7   5 285.439 212.707   9
   2  -7  -5 80.5537 46.2479   4
   2  -7  -5 266.729 185.430  10
   2  -7  -5 236.865 283.527   7
  -2  -7   5 396.348 280.634   4
   2  -7  -5 350.938 247.803   5
  -2  -7   4 10559.0 718.115   9
   2  -7  -4 11515.4 842.230   1
   2  -7  -4 11128.3 827.975   6
  -2  -7   4 10472.4 809.991   4
   2  -7  -4 9979.59 772.305   8
   2  -7  -3 13704.5 865.751   1
   2  -7  -3 14398.2 943.031   7
  -2  -7   3 11992.8 782.429   9
  -2  -7   2 77215.0 1974.34   9
   2  -7  -2 78435.2 1901.09   1
   2  -7  -2 79776.2 1907.16   8
   2  -7  -2 77777.8 2011.86  10
  -2  -7   2 79951.4 1947.47   4
  -2  -7   1 7886.34 610.401   4
   2  -7  -1 9041.31 748.208  11
  -2  -7   1 9344.33 778.618  10
   2  -7  -1 7627.28 587.015   8
   2  -7  -1 7173.18 651.535  10
   2  -7   0 1069.93 272.024   1
   2  -7   0 736.975 304.971  11
  -2  -7   0 503.583 283.897  10
   2  -7   0 906.497 244.426   4
  -2  -7   0 904.175 254.239   4
   2  -7   0 1103.48 336.453   2
   2  -7   0 683.074 229.180   8
  -2  -7   0 697.325 286.965   6
  -2  -7   0 1162.91 347.608   9
   2  -7   1 8840.99 716.046  11
  -2  -7  -1 8438.86 714.655  10
  -2  -7  -1 9698.19 751.196  11
  -2  -7  -1 8983.45 758.376   9
   2  -7   1 9089.90 560.114   1
  -2  -7  -1 8578.60 570.777   4
  -2  -7  -1 9714.85 759.861   2
  -2  -7  -1 8542.68 708.104   6
   2  -7   1 8659.10 708.727   2
  -2  -7  -1 8405.70 550.872  12
  -2  -7  -2 21395.8 1101.57  10
   2  -7   2 23537.5 817.063   1
  -2  -7  -2 20210.6 869.866   3
   2  -7   2 22129.5 1066.13   4
  -2  -7  -2 22548.5 1120.82  11
  -2  -7  -3 21228.4 815.722   4
  -2  -7  -3 22464.8 1115.47  11
   2  -7   3 24510.4 1110.06   2
  -2  -7  -4 27469.7 1205.28  10
  -2  -7  -4 27250.4 1368.87   9
  -2  -7  -4 26154.0 1218.47   2
   2  -7   4 30713.3 1214.50   2
   2  -7   4 27256.3 1328.25   4
  -2  -7  -4 27205.5 1391.10   5
  -2  -7  -4 27831.0 1251.30  11
  -2  -7  -5 11265.3 824.581  11
   2  -7   5 12733.9 802.261  11
  -2  -7  -5 11803.5 951.224   9
   2  -7   5 14553.3 1041.94   4
  -2  -7  -5 13279.4 1018.98   5
  -2  -7  -6 25565.5 1142.12  10
  -2  -7  -6 25463.3 1401.46   9
  -2  -7  -6 23945.8 1380.00   5
  -2  -7  -6 25310.6 1214.17  11
   2  -7   6 26388.7 1452.88   4
  -2  -7  -7 4977.09 593.789   2
  -2  -7  -7 5512.01 719.716   9
  -2  -7  -8 14701.6 953.982   2
  -2  -7  -8 16428.2 1192.85   9
  -2  -7  -8 14721.4 1178.91   5
  -2  -7  -9 11372.2 858.264   2
   2  -7   9 11455.3 435.527   8
  -2  -7  -9 12671.0 1147.40   5
  -2  -7  -9 12475.5 1069.98   9
   2  -7   9 11697.4 1145.95   4
   2  -7  10 42339.0 2180.67   4
  -2  -7 -10 42444.9 1966.24   9
  -2  -7 -10 41001.4 1374.56   3
  -2  -7 -11 6894.35 684.589   2
  -2  -7 -11 7065.67 949.656   5
   2  -7  11 7869.95 1044.04   4
   2  -7  12 12788.6 1341.11   4
   2  -7  13 6297.76 1014.16   4
  -2  -7 -13 4692.96 864.325   5
  -2  -7 -14 22370.3 1792.48   5
   2  -7  14 18127.4 1703.52   4
   2  -7  15 6090.60 1082.02   4
  -2  -6  17 597.969 618.303   4
  -2  -6  17 481.440 371.538   8
   2  -6 -17 892.484 531.577   7
  -2  -6  16 38042.6 2385.90   4
   2  -6 -15 1287.14 551.251   7
  -2  -6  15 998.289 537.538   4
   2  -6 -14 48075.7 1785.97   9
  -2  -6  14 51762.4 2580.03   4
  -2  -6  13 861.723 484.991   4
  -2  -6  12 47724.6 2301.16   4
   2  -6 -12 50116.1 2077.13   5
   2  -6 -12 47009.1 1329.47   3
   2  -6 -11 917.093 342.904   9
   2  -6 -11 1122.07 461.898   7
  -2  -6  11 348.351 374.778   4
   2  -6 -11 1107.94 397.213   5
   2  -6 -10 61778.2 1943.39   9
   2  -6 -10 65952.3 2184.95   5
   2  -6 -10 63605.4 1311.40   3
  -2  -6   9 982.428 416.453   4
   2  -6  -8 73948.6 2429.01   7
   2  -6  -8 72619.3 2107.82   5
  -2  -6   8 74924.3 2425.23   4
   2  -6  -7 1014.45 361.668   7
  -2  -6   7 951.989 213.356   9
   2  -6  -7 781.764 128.183   3
  -2  -6   6 40830.0 1589.71  10
   2  -6  -6 38315.2 1481.19   6
  -2  -6   5 264.928 258.111  10
  -2  -6   5 998.496 346.705   3
  -2  -6   5 523.286 303.132   4
   2  -6  -5 302.286 230.855   5
   2  -6  -5 196.944 224.110   6
  -2  -6   4 53732.3 1756.40   3
   2  -6  -4 53426.6 1625.05   8
   2  -6  -3 1727.15 345.372   1
  -2  -6   3 1906.53 368.884   4
  -2  -6   2 79402.2 2049.18  10
   2  -6  -2 73925.3 1707.03   8
  -2  -6   2 73616.7 1792.79   4
   2  -6  -2 74756.0 1930.08   7
   2  -6  -2 76043.0 1753.41   1
   2  -6  -2 77414.9 1855.93   6
   2  -6  -1 4142.11 417.863   8
  -2  -6   1 4611.14 496.931   9
  -2  -6   1 3946.55 439.036   4
   2  -6  -1 5514.19 545.195   7
   2  -6  -1 4292.76 427.624   1
  -2  -6   1 3934.96 445.765   6
  -2  -6   1 4067.77 455.111   3
   2  -6  -1 4115.53 378.148   4
   2  -6   0 69307.3 1452.50   8
   2  -6   0 69533.9 1839.70  10
  -2  -6   0 70025.8 1591.26   4
   2  -6   0 65734.6 1524.26   4
   2  -6   0 70576.4 1830.19  11
  -2  -6  -1 1327.61 286.696   3
  -2  -6  -1 1674.21 367.834   2
  -2  -6  -1 1621.21 278.245   4
   2  -6   2 60773.7 1690.77   4
   2  -6   2 56385.6 1095.19   1
  -2  -6  -2 56350.5 1663.25   6
   2  -6   2 55440.2 1563.14  11
   2  -6   2 58691.4 1591.79   2
  -2  -6  -2 56626.2 1613.88  11
  -2  -6  -3 819.276 280.949  11
   2  -6   3 792.194 294.949  10
  -2  -6  -3 702.034 193.333   4
   2  -6   3 748.206 258.796  11
  -2  -6  -3 945.992 245.867   3
  -2  -6  -3 610.801 287.933   6
  -2  -6  -3 645.360 299.206   5
   2  -6   3 996.231 288.408   2
  -2  -6  -3 696.760 302.527   2
  -2  -6  -4 39554.4 1359.07  11
   2  -6   4 43543.3 1612.30   4
   2  -6   4 46765.7 1375.50  11
  -2  -6  -4 42060.3 1561.16   6
   2  -6   4 44827.8 1334.15   2
  -2  -6  -4 40595.5 1590.02   5
  -2  -6  -5 1320.38 384.749   9
   2  -6   5 1490.07 404.226   4
  -2  -6  -5 885.253 313.309   2
  -2  -6  -6 34806.5 1302.23   2
  -2  -6  -6 34990.7 1588.07   5
  -2  -6  -6 35556.5 1168.13   3
   2  -6   6 38294.5 1686.11   4
   2  -6   6 39964.3 1210.25  11
  -2  -6  -7 1924.03 378.413  11
  -2  -6  -7 1614.66 436.975   9
   2  -6   7 1442.69 143.402   8
  -2  -6  -7 1564.39 362.669   2
   2  -6   7 2323.77 339.988   2
  -2  -6  -8 37238.9 1675.01   9
   2  -6   8 35372.5 685.961   8
  -2  -6  -8 36240.8 1346.76   2
  -2  -6  -8 39181.1 1809.38   5
  -2  -6  -9 1135.14 379.550   9
   2  -6   9 440.445 115.936   8
  -2  -6  -9 213.329 276.492   2
  -2  -6  -9 692.656 281.062  11
   2  -6   9 606.501 376.075   4
  -2  -6  -9 1068.85 425.643   5
  -2  -6 -10 43259.5 1472.27   2
  -2  -6 -10 42623.1 1457.90  11
   2  -6  10 43816.2 2167.21   4
   2  -6  11 916.448 476.254   4
  -2  -6 -11 852.089 304.294   3
  -2  -6 -11 446.127 402.287   5
   2  -6  12 13781.6 1349.74   4
   2  -6  13 577.570 516.655   4
  -2  -6 -13 989.167 350.634   3
  -2  -6 -14 16159.1 1495.48   5
   2  -6  14 19078.0 1698.60   4
   2  -6  15-347.031 492.514   4
   2  -5 -18 1020.13 580.473   7
  -2  -5  18-174.365 370.644   8
   2  -5 -17 1137.94 540.922   7
  -2  -5  17 443.281 475.411   4
  -2  -5  17 1351.90 523.156   8
  -2  -5  16 375.204 419.763   4
  -2  -5  15-37.7727 398.525   4
   2  -5 -15-274.752 411.833   7
  -2  -5  14 1830.07 595.502   4
   2  -5 -14 2204.03 405.286   3
   2  -5 -13 1093.38 320.696   3
  -2  -5  13 678.925 436.772   4
   2  -5 -12 1953.76 376.558   9
   2  -5 -12 1513.22 436.796   5
   2  -5 -11 3517.89 416.373   3
   2  -5 -11 3453.30 557.807   5
   2  -5 -10 7603.07 659.784   9
   2  -5 -10 7554.34 847.926   7
   2  -5 -10 7850.09 758.628   5
  -2  -5  10 8838.63 921.131   4
  -2  -5   9 5454.87 234.391   9
   2  -5  -9 6506.43 756.961   7
  -2  -5   9 6965.02 683.154  10
   2  -5  -9 7522.09 708.537   5
   2  -5  -8 9517.49 724.436   9
   2  -5  -8 10861.4 921.006   7
  -2  -5   8 11003.1 819.217  10
   2  -5  -8 10234.9 772.824   5
   2  -5  -7 5886.78 432.692  10
   2  -5  -7 5676.83 614.131  11
   2  -5  -6 14066.2 895.235  11
  -2  -5   6 14055.5 590.227   9
  -2  -5   6 14339.2 984.480   3
   2  -5  -6 13886.2 896.167   1
   2  -5  -6 12841.7 777.223   5
   2  -5  -6 13644.6 665.426  10
  -2  -5   6 15748.7 938.161  10
  -2  -5   5 5770.90 413.867   9
  -2  -5   5 6786.22 634.913  10
   2  -5  -5 6322.74 597.919   8
   2  -5  -5 6306.21 593.868   1
   2  -5  -5 5933.76 462.717  10
   2  -5  -4 8391.33 638.511   8
   2  -5  -4 7928.33 602.850   6
  -2  -5   4 9035.68 720.069   3
  -2  -5   3 11543.6 765.337   3
  -2  -5   3 11460.0 631.164   9
   2  -5  -3 12359.2 721.811   1
   2  -5  -3 10550.7 475.569   3
  -2  -5   2 27179.7 990.215   9
   2  -5  -2 27847.9 979.618   8
   2  -5  -2 27919.7 1026.05   6
  -2  -5   2 27767.0 1100.78   3
   2  -5  -2 26361.0 968.901   1
  -2  -5   2 28208.5 1073.94   4
   2  -5  -1 22322.4 958.774  10
   2  -5  -1 21031.1 738.542   4
   2  -5  -1 21559.3 962.429   7
  -2  -5   1 22350.7 886.301   6
   2  -5  -1 22403.5 832.555   1
   2  -5   0 11892.7 562.603   1
   2  -5   0 12939.7 758.846  10
   2  -5   0 11458.6 545.254   8
   2  -5   0 12025.5 714.726   7
   2  -5   0 11665.7 628.009   3
  -2  -5   0 11623.4 720.535   9
   2  -5   0 11495.9 630.311   4
  -2  -5   0 11390.8 638.398   4
   2  -5   0 12908.1 743.315  11
  -2  -5   0 11900.0 498.378  12
  -2  -5   0 11339.6 661.069   3
   2  -5   1 20766.9 650.175   8
   2  -5   1 21523.5 926.568  11
  -2  -5  -1 21354.9 921.898   6
  -2  -5  -1 19546.0 637.241  12
  -2  -5  -1 20382.8 849.873   3
  -2  -5  -2 33528.5 1141.99  11
  -2  -5  -2 31622.8 980.492   4
   2  -5   2 35349.3 1131.10   2
   2  -5   2 35160.1 1249.31   4
  -2  -5  -2 30966.2 844.827  12
   2  -5   2 36197.4 1161.59  11
  -2  -5  -3 16727.5 943.079   5
  -2  -5  -3 14589.9 772.532   2
   2  -5   4 34432.8 1309.78  10
  -2  -5  -4 28956.6 1221.89   6
  -2  -5  -4 29496.1 1252.93   1
  -2  -5  -4 29177.6 1071.18   2
   2  -5   4 31316.7 1010.31   2
  -2  -5  -4 29641.3 1075.15  11
   2  -5   4 32476.9 1036.03  11
   2  -5   5 21948.3 1186.46   4
   2  -5   5 23228.1 1106.80  10
  -2  -5  -6 12580.7 729.537   2
   2  -5   6 13868.7 1007.26   4
  -2  -5  -6 14343.9 955.968   9
   2  -5   6 14272.6 650.427  11
  -2  -5  -7 12982.1 741.098   2
  -2  -5  -7 13034.2 736.182  11
  -2  -5  -7 13726.4 952.159   9
   2  -5   7 15670.9 951.114  10
  -2  -5  -8 16347.5 833.280   2
   2  -5   8 17776.6 494.094   8
   2  -5   8 18070.8 1258.73   4
  -2  -5  -8 17314.3 922.722   3
  -2  -5  -9 1101.15 284.378  11
  -2  -5  -9 1183.38 329.488   3
   2  -5  10 46373.6 2171.65   4
  -2  -5 -10 45855.8 1358.32   2
  -2  -5 -10 46791.0 1361.66  11
  -2  -5 -10 45229.8 1576.21   3
  -2  -5 -10 46009.6 2041.47   5
  -2  -5 -10 47517.7 1658.02   3
  -2  -5 -11 14699.9 776.703   2
   2  -5  11 15683.8 1349.90   4
  -2  -5 -11 15029.5 979.646   3
   2  -5  12 15004.0 1371.50   4
  -2  -5 -13 8514.34 1049.30   5
   2  -5  14 22215.7 1787.86   4
   2  -5  15 7457.45 1138.93   4
   2  -5  16 30331.0 2239.63   4
  -2  -4  18 4346.75 918.964   4
  -2  -4  18 5401.90 860.688   8
  -2  -4  16 12745.1 1181.01   8
   2  -4 -16 11725.0 991.070   3
   2  -4 -15 25691.7 1389.74   3
  -2  -4  15 25437.7 1807.86   4
   2  -4 -14 23674.5 1032.10   9
   2  -4 -14 25831.5 1324.99   3
  -2  -4  14 26410.5 1763.91   4
  -2  -4  12 8242.79 946.215   4
   2  -4 -12 7569.01 611.737   9
   2  -4 -11 42601.1 1440.71   3
   2  -4 -11 44902.7 1765.98   5
   2  -4 -11 41710.1 1422.73   4
  -2  -4  11 44382.8 2014.20   4
  -2  -4   9 35694.5 1651.37   4
   2  -4  -9 34649.1 1607.60   7
  -2  -4   8 38163.5 1384.73  10
   2  -4  -8 37804.9 1444.46  11
   2  -4  -8 33969.8 1299.92   5
   2  -4  -8 34168.1 1210.77   9
  -2  -4   7 33803.0 637.554   9
   2  -4  -7 36480.6 1270.04   5
   2  -4  -7 38009.6 1404.20  11
   2  -4  -6 20482.7 951.389   6
   2  -4  -6 20630.9 722.416   3
   2  -4  -6 21082.0 1021.88  11
  -2  -4   5 83341.0 2104.29   3
  -2  -4   5 80901.1 1265.14   9
   2  -4  -5 85925.8 1711.48   5
   2  -4  -3 132795. 1675.58   3
  -2  -4   3 147138. 2510.46   3
  -2  -4   2 29768.2 937.826   9
   2  -4  -2 30423.4 1007.30  10
   2  -4  -2 29387.7 809.781   4
  -2  -4   2 30036.8 1062.89   4
  -2  -4   1 57248.0 1385.65   4
   2  -4  -1 56100.7 1390.57  10
   2  -4  -1 56128.6 1163.04   8
  -2  -4   1 55179.8 1220.61   6
  -2  -4   1 57961.1 1358.32   9
   2  -4  -1 55152.0 1209.54   4
   2  -4   0 3504.03 407.281  10
  -2  -4   0 3461.59 375.921   4
   2  -4   0 3524.04 396.668  11
  -2  -4   0 4199.03 382.829   6
  -2  -4   0 3268.27 379.658   3
   2  -4   0 3626.23 302.116   1
   2  -4   0 3444.71 367.232   4
  -2  -4  -1 139035. 2128.29   3
  -2  -4  -1 135911. 2072.70   6
   2  -4   1 148869. 2351.53  10
   2  -4   1 143976. 2237.33   4
   2  -4   1 144637. 2222.99   3
  -2  -4  -2 14560.9 662.810   4
  -2  -4  -2 13979.8 691.263   2
   2  -4   2 15562.8 800.341  10
  -2  -4  -2 13630.3 764.176   5
   2  -4   2 15239.8 806.927   4
  -2  -4  -3 83955.1 1557.39   4
   2  -4   3 95925.8 1976.03  10
  -2  -4  -3 82909.4 1903.23   5
  -2  -4  -3 78823.9 1560.71   2
   2  -4   3 92771.1 2062.30   4
  -2  -4  -3 84620.9 1830.88   6
   2  -4   4 23282.4 1010.37  10
  -2  -4  -4 19969.4 793.820  11
  -2  -4  -4 19891.9 844.830   3
   2  -4   4 21496.8 739.024   2
   2  -4   4 23437.3 777.854  11
   2  -4   5 77274.2 1333.07  11
  -2  -4  -5 74679.9 1891.92   8
  -2  -4  -5 71860.5 1876.46   1
   2  -4   5 78077.0 1868.51  10
  -2  -4  -6 1301.43 256.889  11
   2  -4   6 1777.79 227.435   2
  -2  -4  -6 1362.57 269.127   2
  -2  -4  -7 46161.8 1727.07   5
  -2  -4  -7 42981.3 1149.76  11
  -2  -4  -8 2245.22 305.815  11
   2  -4   8 2990.48 236.574   8
  -2  -4  -8 2513.34 494.151   5
   2  -4   9 57546.8 2246.98   4
  -2  -4  -9 55344.6 1710.37   3
  -2  -4 -10 1847.59 287.403   2
  -2  -4 -10 2211.37 528.917   5
  -2  -4 -10 1697.89 382.851   3
  -2  -4 -11 14702.4 1210.15   5
   2  -4  11 13575.0 1227.80   4
  -2  -4 -11 13592.1 958.340   3
  -2  -4 -11 14824.5 555.293  10
  -2  -4 -11 14648.4 659.301   2
  -2  -4 -12 1892.71 451.263   3
   2  -4  13 15546.5 1430.09   4
  -2  -4 -13 11777.3 1002.40   3
  -2  -4 -14 1510.23 496.948   3
   2  -4  15 11323.9 1325.00   4
   2  -4  16 3705.06 884.334   4
  -2  -3  19 950.037 486.268   8
   2  -3 -19 880.828 565.326   7
  -2  -3  18 2198.92 726.911   4
   2  -3 -18 916.468 542.407   7
   2  -3 -17 1217.23 528.299   7
   2  -3 -17 981.953 433.610   3
  -2  -3  17 430.070 466.495   4
  -2  -3  17 1341.42 519.882   8
  -2  -3  16 564.951 464.545   4
  -2  -3  16 69.4998 362.585   8
   2  -3 -15 2756.82 552.134   3
  -2  -3  15 3118.83 723.161   4
  -2  -3  14 965.428 478.310   4
  -2  -3  13 4897.48 770.388   4
   2  -3 -12 515.852 205.821   9
   2  -3 -12 41.8960 242.052   3
   2  -3 -11 2935.91 447.849   3
  -2  -3  10 1014.05 383.324   4
   2  -3  -9 9617.77 724.331   5
   2  -3  -9 9226.08 654.332   4
  -2  -3   8 271.751 213.012  10
   2  -3  -8 354.358 208.817   3
   2  -3  -8 436.080 287.320   7
   2  -3  -8 113.115 191.081   5
  -2  -3   7 9347.55 641.228  10
   2  -3  -7 9620.95 579.951   3
  -2  -3   7 11193.4 846.417   3
  -2  -3   5 67273.7 938.160   9
   2  -3  -5 67174.3 1266.35  10
   2  -3  -5 70423.3 1346.95   3
   2  -3  -4 415.733 173.150  10
   2  -3  -4 597.464 184.333   3
   2  -3  -4 231.559 181.814   6
  -2  -3   3 60975.8 1107.92   9
   2  -3  -3 60889.1 1176.25   3
   2  -3  -2 1218.54 246.845  10
   2  -3  -2 940.885 208.739   6
   2  -3  -2 1180.92 210.527   4
   2  -3  -2 993.740 224.576   3
  -2  -3   2 1322.77 247.881   9
   2  -3  -1 43754.7 1018.78   4
  -2  -3   1 43483.0 1077.70   9
  -2  -3   1 42037.7 916.581   6
   2  -3   0 2988.45 321.771   4
  -2  -3   0 3036.65 353.566   4
   2  -3   0 2971.26 344.393   3
   2  -3   1 92597.0 966.909   1
   2  -3   1 89258.0 1698.48   3
   2  -3   1 86671.1 1691.08   4
   2  -3   1 90104.4 1634.73  12
   2  -3   2 1432.38 237.464  11
   2  -3   2 1217.29 278.993  10
  -2  -3  -2 1212.81 251.255   6
  -2  -3  -2 1355.94 287.857   1
  -2  -3  -3 129640. 2130.49   1
  -2  -3  -3 129051. 2054.45   3
   2  -3   4 1295.07 193.600   2
  -2  -3  -4 1763.58 257.113   2
  -2  -3  -4 1309.08 313.031   5
  -2  -3  -5 53587.7 1509.16   1
  -2  -3  -5 52162.0 1469.74   8
  -2  -3  -5 53627.9 1447.94   3
   2  -3   5 55171.9 922.357  11
  -2  -3  -5 51053.2 1077.94  11
  -2  -3  -6 694.264 246.527   8
  -2  -3  -6 1176.60 219.544   2
  -2  -3  -6 913.931 192.212  11
   2  -3   6 422.907 210.682  10
  -2  -3  -6 850.054 250.838   3
   2  -3   7 79329.7 1840.32  10
  -2  -3  -7 78993.2 2004.29   1
  -2  -3  -7 76383.8 2124.20   5
  -2  -3  -7 77823.4 1928.33   3
  -2  -3  -7 74354.7 1471.04  10
   2  -3   8 1275.06 399.919   4
   2  -3   8 832.831 256.714  10
  -2  -3  -8 1034.61 314.210   8
  -2  -3  -8 1138.12 324.843   1
  -2  -3  -8 804.097 333.144   5
  -2  -3  -9 64733.3 1161.36   2
   2  -3   9 71139.4 2427.11   4
  -2  -3  -9 68059.1 2234.99   5
  -2  -3 -10 533.350 315.209   3
  -2  -3 -10 803.557 181.499  10
  -2  -3 -10 932.976 171.250   2
   2  -3  10 966.130 430.441   4
  -2  -3 -11 36387.7 867.226  10
  -2  -3 -11 33604.6 1529.69   3
   2  -3  12 1745.76 559.484   4
   2  -3  12 1519.69 301.364   8
   2  -3  13 27463.6 1143.02   8
   2  -3  13 25463.5 1755.08   4
   2  -3  14 731.837 497.470   4
  -2  -3 -14 64.5457 322.205   3
   2  -3  15 28840.0 2016.66   4
  -2  -3 -15 27627.6 1704.47   3
   2  -3  16 121.557 484.801   4
   2  -3  17 23419.1 1950.28   4
   2  -2 -19 14650.2 1505.12   7
  -2  -2  19 16734.4 1637.97   4
  -2  -2  19 16024.9 1517.81   6
  -2  -2  19 20272.9 1644.90   8
  -2  -2  18 22157.0 1659.90   8
   2  -2 -18 20120.5 1669.79   7
   2  -2 -18 18186.8 1466.26   3
  -2  -2  17 22584.3 1609.42   8
  -2  -2  16 11984.3 1147.39   8
  -2  -2  16 10842.2 1190.83   4
   2  -2 -15 23530.5 1458.94   3
  -2  -2  15 27598.1 1622.37   8
  -2  -2  14 5972.66 843.806   4
   2  -2 -13 21539.9 1277.20   3
  -2  -2  13 22346.2 1482.47   4
  -2  -2  12 33718.2 1720.05   4
   2  -2 -11 58745.8 1875.24   3
  -2  -2  11 59933.4 2180.90   4
   2  -2 -10 18325.3 1005.88   3
  -2  -2  10 20095.1 1227.02   4
   2  -2  -9 52994.8 1592.13   3
  -2  -2   9 57103.5 1433.95  10
   2  -2  -9 55785.8 1631.18   4
  -2  -2   9 56901.8 1936.03   4
   2  -2  -8 8609.92 625.319   4
  -2  -2   8 8528.61 747.935   4
   2  -2  -7 98171.5 2214.37   7
   2  -2  -7 99981.5 1882.30   5
   2  -2  -7 100316. 1920.62   4
   2  -2  -6 66405.5 1731.59   7
  -2  -2   6 72166.3 1886.67   3
   2  -2  -6 69980.7 1520.48   3
   2  -2  -6 66920.7 1465.73   4
   2  -2  -5 121390. 1698.09   5
   2  -2  -5 126156. 1919.26   3
   2  -2  -4 40775.6 960.016   6
  -2  -2   4 45512.4 1347.52   3
   2  -2  -4 42724.7 900.782   5
   2  -2  -4 44247.9 1056.30   4
   2  -2  -3 91282.3 1500.03   3
  -2  -2   2 940.380 268.459   3
   2  -2  -2 1181.41 221.217   4
   2  -2  -2 1468.44 265.083   3
   2  -2  -2 1178.97 234.422  10
   2  -2  -1 127485. 1734.01  12
   2  -2  -1 127447. 1793.49   3
   2  -2   0 32371.9 947.319  10
   2  -2   0 33580.5 926.986   4
  -2  -2   0 28621.8 671.088   6
   2  -2   0 28892.9 823.410  12
  -2  -2   0 31111.3 980.091   3
   2  -2   1 147722. 1851.65  12
  -2  -2  -1 145490. 1839.31   5
  -2  -2  -1 147875. 2095.40   3
  -2  -2  -2 44611.8 1118.23   4
   2  -2   2 50023.3 941.685  11
  -2  -2  -2 45738.4 1121.65   5
  -2  -2  -2 46580.9 1205.42   3
  -2  -2  -3 92355.6 1626.07   1
  -2  -2  -3 94475.3 1775.99   3
  -2  -2  -4 14360.3 688.930   8
   2  -2   4 13511.0 394.813   2
  -2  -2  -5 16376.2 767.684   8
   2  -2   5 15159.4 325.668  11
  -2  -2  -5 16197.7 825.943   3
  -2  -2  -5 16040.5 847.821   5
  -2  -2  -6 32794.3 1154.24   1
  -2  -2  -6 30651.9 1235.53   5
  -2  -2  -6 30990.2 1101.85   8
  -2  -2  -8 2270.60 421.778   3
   2  -2   8 2900.67 295.090   8
  -2  -2  -8 2895.54 481.455   5
  -2  -2  -8 2727.14 418.822   1
   2  -2   9 13673.6 1061.68   4
  -2  -2  -9 12383.9 585.918  10
  -2  -2  -9 15062.9 894.509   8
  -2  -2  -9 11183.0 838.769   3
   2  -2   9 13206.8 748.593  10
  -2  -2  -9 15482.8 941.004   1
  -2  -2 -10 5557.64 649.159   3
   2  -2  10 6213.13 602.616   9
   2  -2  10 5855.46 773.529   4
  -2  -2 -11 3563.22 584.658   3
   2  -2  11 3987.05 704.325   4
   2  -2  11 4234.62 450.735   8
   2  -2  12 10293.8 1088.15   4
  -2  -2 -12 9140.83 903.749   3
   2  -2  13 6701.49 931.935   4
  -2  -2 -13 6504.31 824.203   3
  -2  -2 -14 5979.01 828.321   3
   2  -2  14 6946.89 983.987   4
   2  -2  15 7756.71 1093.89   4
   2  -2  16 892.344 546.587   4
  -2  -2 -17 1030.88 481.205   3
   2  -1 -19 1101.64 479.203   3
  -2  -1  19 1666.88 638.150   4
  -2  -1  19 1172.55 599.217   6
   2  -1 -19 2185.31 666.986   7
  -2  -1  18 1403.85 562.363   8
   2  -1 -18 1632.68 574.322   7
  -2  -1  18 733.154 518.167   6
  -2  -1  17-199.660 408.143   4
  -2  -1  17 139.677 337.331   8
   2  -1 -17 953.605 450.461   3
  -2  -1  16 1962.10 618.205   4
  -2  -1  16 4232.88 732.221   8
   2  -1 -15 530.093 402.642   3
  -2  -1  15 661.071 475.758   4
  -2  -1  15 922.976 439.550   8
   2  -1 -14 3854.00 640.990   3
  -2  -1  13 605.220 398.668   4
  -2  -1  12 4493.02 668.715   4
  -2  -1  11 7092.76 769.804   4
  -2  -1   9 14455.3 959.637   4
   2  -1  -9 15025.4 905.633   4
   2  -1  -9 13306.1 858.591   3
   2  -1  -8 9334.90 687.546   3
  -2  -1   8 9180.58 734.516   4
   2  -1  -8 9491.67 685.944   4
   2  -1  -7 336.194 227.679   3
   2  -1  -7 444.546 239.552   7
  -2  -1   7 436.489 268.626   4
   2  -1  -6 37024.3 1219.01   7
  -2  -1   6 36305.1 1288.23   3
   2  -1  -6 35999.7 1145.75   4
   2  -1  -5 485.607 214.005   4
  -2  -1   5 480.515 256.165   3
   2  -1  -5 502.856 232.015   7
   2  -1  -5 216.376 211.998   3
  -2  -1   4 21390.3 893.782   3
   2  -1  -4 19842.5 788.313   3
   2  -1  -4 19492.4 752.913   4
   2  -1  -3 26690.2 834.155   4
   2  -1  -2 8742.12 482.656   4
  -2  -1   2 8526.26 427.623   7
  -2  -1   1 38091.8 1059.15   3
   2  -1   0 49304.1 1116.68   4
   2  -1   0 46218.3 872.523  12
  -2  -1  -1 19044.8 591.676   5
   2  -1   1 19408.2 720.089  10
   2  -1   1 19119.0 732.631   4
  -2  -1  -1 19596.8 773.708   3
  -2  -1  -1 18775.5 349.766  12
   2  -1   2 14072.0 348.088   1
  -2  -1  -2 13729.6 577.370   5
   2  -1   3 57033.3 1265.06  10
  -2  -1  -3 52691.5 1082.86   1
   2  -1   3 54764.2 1188.48   5
  -2  -1  -4 37577.3 1206.35   3
  -2  -1  -4 35734.1 955.987   1
   2  -1   4 36454.3 1083.74   5
  -2  -1  -5 5633.33 417.321  10
   2  -1   5 6152.98 458.324  10
  -2  -1  -5 6933.70 470.249   1
   2  -1   5 6274.38 512.049   5
  -2  -1  -5 7164.29 563.218   5
  -2  -1  -5 6920.06 575.541   3
  -2  -1  -6 47877.5 1270.73   1
  -2  -1  -6 48286.1 1497.16   5
  -2  -1  -7 13122.3 620.172  10
  -2  -1  -7 13717.3 739.054   1
  -2  -1  -7 14051.2 723.471   8
  -2  -1  -8 29066.3 1086.84   8
  -2  -1  -8 29776.0 1341.22   4
  -2  -1  -8 30595.5 1358.63   3
  -2  -1  -8 28724.8 1123.88   1
  -2  -1  -9 22431.3 1204.36   3
  -2  -1  -9 23272.3 829.647  10
   2  -1   9 24438.0 1361.95   4
   2  -1  10 31658.7 1316.77   9
  -2  -1 -10 29235.4 923.273  10
  -2  -1 -10 29816.3 1445.91   3
  -2  -1 -10 28724.0 1256.12   1
  -2  -1 -11 11280.5 960.622   3
   2  -1  11 11021.5 1035.72   4
   2  -1  12 40599.4 2010.52   4
   2  -1  13 11943.2 1177.77   4
  -2  -1 -13 11922.6 1092.28   3
  -2  -1 -14 19777.3 1458.46   3
   2  -1  14 19971.0 1532.41   4
  -2  -1 -15 4236.98 784.791   3
   2  -1  16 28045.3 1968.95   4
  -2  -1 -16 27268.8 1860.89   3
   2  -1  17 2228.62 701.006   4
  -2  -1 -17 1419.02 602.568   3
   2  -1  18 21031.6 1853.51   4
  -2  -1 -18 23221.1 1861.10   3
   2   0 -19 1054.06 534.284   3
  -2   0  19-341.050 362.612   8
  -2   0  19 844.370 515.260   4
   2   0 -18 35654.8 2072.78   7
  -2   0  18 39609.8 2263.49   6
  -2   0  18 35205.9 2105.95   4
  -2   0  17 653.147 430.602   8
   2   0 -17 804.426 459.012   7
  -2   0  17-349.080 420.391   6
  -2   0  16 51838.9 2340.99   8
  -2   0  16 53442.7 2388.37   6
  -2   0  15 388.519 342.626   8
  -2   0  14 64269.8 2410.06   4
   2   0 -14 59734.8 2358.62   3
  -2   0  14 66895.1 2439.82   8
  -2   0  12 99646.3 2731.64   4
   2   0 -12 94495.2 2703.04   3
  -2   0  12 95337.5 2651.81   8
  -2   0  11 451.046 328.950   8
  -2   0  10 103604. 2523.96   4
   2   0 -10 98279.5 2497.47   3
  -2   0   9 385.198 271.785   4
   2   0  -9 382.491 274.985   3
   2   0  -8 65914.4 1843.21   3
   2   0  -8 65225.4 1708.27   7
   2   0  -8 71057.6 1904.75   4
  -2   0   8 66790.2 1825.72   4
   2   0  -7 104.842 193.698   4
   2   0  -7 53.5979 195.085   7
  -2   0   7 12.0796 154.497   5
  -2   0   6 194070. 2750.33   4
   2   0  -6 187058. 2762.91   3
  -2   0   6 190961. 2293.84   5
  -2   0   5 471.024 236.123   4
   2   0  -5 692.545 255.654   3
  -2   0   5 402.154 158.858   5
  -2   0   4 56978.1 1360.78   3
   2   0  -4 57816.3 1348.36   4
  -2   0   3 831.585 251.925   3
   2   0  -3 511.472 222.499   7
  -2   0   3 569.024 115.164   5
   2   0  -3 359.344 205.774   4
  -2   0   2 122666. 1663.64   7
   2   0   0 148297. 1935.03   4
  -2   0   0 150403. 2029.77   3
   2   0   1 371.893 146.932   1
   2   0   1 144.560 176.441   4
   2   0   1 31.6575 116.835   5
  -2   0  -1 316.856 144.891   5
  -2   0  -3 592.425 253.250   3
  -2   0  -4 2750.70 314.386  10
  -2   0  -4 2762.28 390.786   3
  -2   0  -4 2696.92 258.491   1
  -2   0  -5 297.367 180.214  10
  -2   0  -5 267.705 151.972   8
   2   0   5 260.622 198.249   5
   2   0   6 54259.0 1476.55   9
  -2   0  -6 50638.8 1215.41  10
  -2   0  -6 45431.1 1527.29   4
   2   0   6 49746.4 1595.95   4
  -2   0  -6 50089.8 1172.90   1
  -2   0  -6 48577.0 1106.59   8
  -2   0  -6 45739.1 1528.08   3
  -2   0  -7 209.339 240.105   4
  -2   0  -7 523.188 192.022   8
   2   0   7 708.935 309.363   4
   2   0   7 273.159 222.897   5
  -2   0  -7 76.6653 218.439   3
   2   0   8 32028.2 1243.95   9
  -2   0  -8 29772.8 1343.68   3
  -2   0  -8 29998.2 1066.09   1
  -2   0  -9 435.773 301.473   3
  -2   0  -9 567.305 233.606   1
  -2   0 -10 4294.27 411.715  10
   2   0  10 3756.86 608.045   4
  -2   0 -10 4567.23 636.970   3
  -2   0 -11 438.367 199.375  10
   2   0  11 612.857 372.913   4
  -2   0 -11 714.361 281.095   1
   2   0  12 9560.46 995.006   4
  -2   0 -12 9270.81 957.718   3
  -2   0 -13-107.808 358.001   3
   2   0  13 692.750 417.358   4
  -2   0 -14 4875.51 807.457   3
  -2   0 -15 50.9266 388.361   3
  -2   0 -16 3049.33 760.079   3
   2   0  16 3394.09 769.089   4
   2   0  17 261.727 414.782   4
   2   0  17-385.590 451.931   6
  -2   0 -17-1115.66 563.097   3
  -2   0 -18 7102.29 1105.52   3
   2   0  18 6372.97 1052.50   4
  -2   1  19 1404.63 587.714   4
   2   1 -19 1306.24 563.147   3
  -2   1  18 1673.96 599.878   8
   2   1 -18 1306.26 500.850   7
  -2   1  18 783.331 506.391   6
   2   1 -18 1195.33 547.446   3
   2   1 -17-104.470 439.835   3
  -2   1  17 597.340 450.003   8
  -2   1  17 151.745 371.924   4
   2   1 -17 879.310 438.574   7
   2   1 -16 2449.85 660.266   3
  -2   1  16 1795.38 560.413   6
   2   1 -15 719.326 440.173   3
  -2   1  15 1329.49 495.165   8
  -2   1  15 431.766 388.707   6
  -2   1  14 4189.03 654.088   4
  -2   1  14 4289.07 707.507   8
  -2   1  14 4114.29 676.199   6
   2   1 -13 1118.34 437.959   3
  -2   1  13 599.800 355.760   6
  -2   1  12 4837.69 676.186   8
  -2   1  12 3496.38 567.247   6
   2   1 -12 4872.84 687.635   3
   2   1 -11 7691.17 808.026   3
  -2   1  11 6898.06 742.667   8
  -2   1  11 7036.90 699.307   4
  -2   1  10 7498.60 300.829  10
  -2   1  10 8092.08 742.505   8
  -2   1  10 8867.96 737.491   3
  -2   1  10 8327.21 715.779   6
   2   1 -10 8345.98 801.826   3
  -2   1   9 14821.3 886.862   4
  -2   1   9 14405.6 925.889   8
  -2   1   9 13885.1 462.162  10
  -2   1   9 15893.5 923.661   3
  -2   1   9 14866.3 870.901   6
   2   1  -9 12989.4 927.255   3
  -2   1   9 15859.0 897.380   5
  -2   1   8 10110.4 699.944   4
   2   1  -8 10302.1 655.202   7
  -2   1   8 9211.51 646.969   6
  -2   1   7 243.158 218.583   3
   2   1  -7 128.159 222.301   4
   2   1  -7 28.7736 212.003   3
  -2   1   7 327.375 229.242   4
  -2   1   7 361.611 207.078   6
   2   1  -6 37313.4 1293.55   4
  -2   1   6 34090.1 1011.24   6
  -2   1   6 37786.7 1181.55   3
   2   1  -6 35398.0 1277.29   3
  -2   1   6 38069.3 1052.96   5
   2   1  -6 35948.9 1028.62   7
  -2   1   5 160.113 149.073  10
  -2   1   5 52.0823 186.040   3
   2   1  -5 279.227 232.848   4
  -2   1   5 334.454 175.318   6
  -2   1   4 20829.7 794.339   3
  -2   1   4 18913.4 644.061  10
  -2   1   4 19597.5 609.193   6
   2   1  -4 20382.8 858.884   4
  -2   1   3 26362.2 855.718   3
  -2   1   3 26322.7 770.087  10
   2   1  -3 23455.3 691.281   7
  -2   1   1 35244.1 959.548   7
   2   1  -1 36203.2 992.756   4
  -2   1   0 49684.0 1172.10   3
   2   1   1 19373.5 633.692   1
  -2   1  -1 19714.8 788.826   3
   2   1   2 15281.7 678.865   9
   2   1   2 14185.6 557.724   1
  -2   1  -2 16224.2 762.278   3
   2   1   2 14762.9 661.487   4
  -2   1  -3 57356.7 1472.13   3
   2   1   3 55137.9 1257.62   5
   2   1   3 55414.8 1123.75   1
   2   1   4 34990.9 612.035  11
  -2   1  -4 39764.4 1311.33   3
  -2   1  -4 34077.5 1004.01  10
   2   1   4 35970.4 970.729   1
  -2   1  -4 38318.0 1291.37   4
   2   1   4 35296.5 613.353   2
   2   1   5 6460.06 562.261   3
  -2   1  -5 6907.15 611.133   3
   2   1   5 7191.41 553.974   9
   2   1   5 6152.13 455.753   1
  -2   1  -5 6890.08 616.393   4
   2   1   5 5979.06 541.729   4
  -2   1  -6 49841.6 1645.16   4
   2   1   6 49024.3 1536.34   4
  -2   1  -6 48063.4 1610.28   3
  -2   1  -6 46123.4 994.159   1
  -2   1  -7 13318.5 692.082  10
  -2   1  -7 13949.4 938.195   4
   2   1   7 13147.5 865.974   4
  -2   1  -7 14241.2 943.188   3
  -2   1  -8 30184.9 1392.07   3
  -2   1  -8 28869.1 963.562   1
   2   1   8 30297.8 1362.87   4
   2   1   9 26255.0 1200.65   9
  -2   1  -9 24016.6 1312.74   3
  -2   1  -9 23037.9 933.535   1
   2   1   9 23418.4 1267.69   4
  -2   1 -10 27937.6 1481.22   3
   2   1  10 30429.3 1504.46   4
  -2   1 -11 12683.7 799.453   1
   2   1  11 11382.1 1005.59   4
  -2   1 -12 37683.7 1895.41   3
   2   1  13 11848.5 1117.44   4
  -2   1 -13 10815.1 1102.83   3
   2   1  13 12775.0 1178.01   6
   2   1  14 26785.4 1758.60   6
   2   1  14 25411.2 1663.84   4
  -2   1 -15 4920.01 862.572   3
   2   1  16 31052.3 2056.02   6
  -2   1 -16 29231.7 2011.80   3
  -2   1 -17 2145.98 689.367   3
  -2   2  19 16209.8 1562.23   8
  -2   2  19 19267.1 1688.45   6
   2   2 -19 16502.5 1654.22   3
  -2   2  18 19227.9 1626.23   8
  -2   2  18 21380.0 1706.84   6
  -2   2  18 19686.9 1488.44   4
  -2   2  17 21461.8 1642.00   8
   2   2 -17 19372.1 1380.65   7
   2   2 -17 17574.9 1569.48   3
  -2   2  16 13911.7 1294.94   8
   2   2 -16 10558.4 999.732   7
   2   2 -16 10514.9 1191.63   3
  -2   2  15 26449.4 1651.89   6
  -2   2  15 25131.2 1480.73   4
  -2   2  15 27712.1 1701.13   8
   2   2 -14 4711.13 775.384   3
  -2   2  14 6674.87 847.901   8
  -2   2  14 5398.80 761.592   6
  -2   2  13 23425.1 1435.39   8
   2   2 -13 21976.6 1485.70   3
  -2   2  13 22355.7 1276.13   4
  -2   2  12 33914.8 1652.51   8
   2   2 -12 35537.8 1795.45   3
  -2   2  12 35396.8 1626.94   6
  -2   2  12 34402.7 1496.38   4
  -2   2  11 60171.4 2084.04   8
   2   2 -11 61079.8 2232.49   3
  -2   2  11 58547.6 1967.66   6
  -2   2  11 59779.4 1860.04   4
   2   2 -10 19162.8 1221.23   3
  -2   2  10 19048.6 1139.88   8
  -2   2  10 20502.7 1110.65   6
  -2   2  10 20202.8 1035.70   4
  -2   2   9 58057.6 1630.40   4
  -2   2   9 56042.4 1821.57   8
  -2   2   9 55184.1 1689.42   6
   2   2  -9 54775.6 1928.38   3
  -2   2   8 8265.74 365.392  10
  -2   2   8 8866.70 633.285   3
   2   2  -8 6895.84 695.713   3
  -2   2   8 7862.58 621.215   6
  -2   2   7 108320. 2004.28   3
  -2   2   7 108004. 2000.69   5
  -2   2   6 67884.4 1453.60   4
   2   2  -6 64627.8 1230.36   7
  -2   2   6 67143.5 1487.92   6
   2   2  -6 70747.7 1855.49   4
  -2   2   5 130391. 1883.96   4
   2   2  -5 126126. 1565.30   7
  -2   2   5 132774. 1839.65   5
   2   2  -5 134282. 2404.10   4
  -2   2   4 42624.6 993.299   6
  -2   2   4 45814.1 1100.78   3
   2   2  -4 44439.8 1311.61   4
  -2   2   3 91807.0 1443.86   4
   2   2  -2 1330.62 211.839   9
  -2   2   2 1206.94 243.900   4
  -2   2   2 1443.96 271.987   7
   2   2  -2 1392.00 280.002   4
  -2   2   2 949.409 228.330   3
   2   2  -1 128696. 1695.39   9
  -2   2   1 131945. 1730.61   4
  -2   2   1 132415. 1832.89   3
   2   2   0 29073.0 873.019   1
  -2   2   0 32305.4 960.586   3
   2   2   1 142391. 1709.53   2
   2   2   1 142280. 1667.25   6
   2   2   1 145859. 1995.08   4
   2   2   1 147540. 1922.95   1
   2   2   2 44648.7 933.312  11
   2   2   2 45411.5 1144.24   4
   2   2   2 46675.1 1207.22   3
   2   2   3 90715.3 1640.10   6
   2   2   3 89175.8 1280.18   2
  -2   2  -3 93917.3 1944.73   4
   2   2   3 95443.5 1697.92   4
   2   2   3 92134.3 1738.36   3
   2   2   4 13163.9 671.321   4
  -2   2  -4 16054.2 874.311   3
   2   2   4 12846.6 695.441   6
  -2   2  -4 15252.0 854.566   4
   2   2   4 13296.2 678.336   1
   2   2   4 14503.8 764.221   5
   2   2   5 16668.3 791.211   4
   2   2   5 17595.7 874.027   9
   2   2   5 16603.9 847.043   6
   2   2   5 17469.7 891.355   5
  -2   2  -5 15262.7 903.517   4
   2   2   5 16588.1 786.196   1
   2   2   5 15285.8 803.802   4
  -2   2  -5 17344.7 957.436   3
   2   2   5 16242.2 820.281   3
   2   2   6 30204.1 1165.84   3
  -2   2  -6 33972.0 1405.98   3
   2   2   6 32229.9 1278.33   5
  -2   2  -6 33334.2 1393.97   4
   2   2   6 32472.0 1220.07   4
  -2   2  -7 25988.0 1017.90  10
   2   2   7 30388.8 1298.41   6
   2   2   7 29659.0 1310.91   5
   2   2   7 29765.7 1241.24   4
   2   2   8 2816.90 469.638   6
  -2   2  -8 2649.38 298.214   1
  -2   2  -9 13609.1 677.539   1
  -2   2  -9 12008.3 973.965   3
   2   2   9 12811.9 972.482   6
   2   2   9 13075.3 933.714   4
  -2   2 -10 6677.40 789.352   3
   2   2  10 6811.77 772.794   6
  -2   2 -10 6786.23 533.343   1
   2   2  10 6447.83 711.807   4
  -2   2 -11 3891.45 664.522   3
  -2   2 -11 4677.43 508.925  10
   2   2  11 4143.79 665.153   6
   2   2  11 4191.48 629.782   4
  -2   2 -12 9902.60 704.179  10
  -2   2 -12 10127.4 1043.85   3
   2   2  13 7609.89 884.140   4
  -2   2 -14 8670.40 1088.07   3
  -2   2 -15 8802.18 1138.47   3
   2   2  15 8248.01 1071.99   6
   2   2  15 7215.38 938.433   4
   2   2  16 626.168 472.143   4
   2   2  16 1463.69 620.349   6
  -2   2 -17 1177.51 558.865   3
   2   2  17 1458.06 589.219   4
   2   3 -18 2832.56 786.802   3
  -2   3  18 1514.66 589.019   8
  -2   3  18 1290.78 578.110   6
  -2   3  17 314.110 431.879   8
   2   3 -17 587.448 523.479   3
  -2   3  17 261.979 406.880   6
   2   3 -16 567.679 450.901   3
  -2   3  16 432.969 447.550   8
   2   3 -16 792.889 358.566   7
  -2   3  16 582.080 421.638   6
  -2   3  16 447.572 341.119   4
   2   3 -15 4619.07 826.868   3
   2   3 -15 3848.43 570.491   7
  -2   3  15 3897.73 605.433   4
   2   3 -14 1052.03 488.897   3
   2   3 -14 1045.48 322.324   7
  -2   3  14 882.923 344.120   4
  -2   3  14 909.430 428.048   6
   2   3 -13 5589.66 598.039   7
  -2   3  13 5709.28 753.579   6
   2   3 -13 5431.19 811.007   3
  -2   3  13 6385.06 681.099   4
  -2   3  13 6027.75 792.147   8
  -2   3  12 244.497 235.707   4
  -2   3  12 145.718 219.326   3
  -2   3  12-11.4281 309.791   8
   2   3 -12 201.040 206.200   7
  -2   3  12 390.197 321.136   6
  -2   3  11 2684.45 414.303   3
   2   3 -11 3272.11 613.072   3
  -2   3  11 3092.95 444.115   4
  -2   3  11 2900.23 535.688   8
   2   3 -11 3564.52 430.528   7
  -2   3  11 2718.42 498.951   6
  -2   3  10 1020.73 279.193   3
   2   3 -10 354.019 321.515   3
  -2   3  10 734.545 259.296   4
   2   3 -10 1346.49 272.341   7
  -2   3  10 1007.76 362.074   8
  -2   3  10 867.184 339.609   6
  -2   3   9 10475.6 834.799   8
  -2   3   9 10986.3 807.548   6
   2   3  -9 10734.0 921.205   3
  -2   3   9 10488.3 782.683   5
  -2   3   8 335.647 195.548   3
  -2   3   8 413.836 199.772   4
   2   3  -8 219.132 151.941   7
  -2   3   8 202.815 111.842  10
  -2   3   8 405.764 249.446   6
  -2   3   7 9184.75 549.000   4
   2   3  -7 8924.85 454.066   7
  -2   3   7 9326.65 571.608   3
  -2   3   7 10202.3 681.839   6
   2   3  -7 10071.5 799.475   4
  -2   3   6 5822.20 415.207   4
  -2   3   6 5727.62 372.605  10
  -2   3   6 7038.39 467.471   3
   2   3  -6 7265.56 656.460   4
  -2   3   5 67729.1 1254.68  10
  -2   3   5 68762.5 1280.61   4
  -2   3   4 378.350 181.068   3
  -2   3   4 435.819 166.413   4
  -2   3   4 583.851 215.511   6
  -2   3   3 60967.0 1129.62   4
   2   3  -3 59817.7 1133.49   9
  -2   3   3 60046.1 1341.73   8
  -2   3   3 62791.2 1535.88   7
  -2   3   2 1102.40 220.325   3
  -2   3   2 947.831 205.294   4
   2   3  -1 41984.9 1105.66   2
  -2   3   1 45864.7 1231.28   7
   2   3  -1 41436.8 647.522  12
   2   3  -1 43269.2 1169.58   1
  -2   3   1 44589.3 1079.14   3
   2   3   0 3694.97 372.369   2
   2   3   0 3221.92 347.775   9
  -2   3   0 2784.96 240.183   8
   2   3   0 4276.64 395.681  11
  -2   3   0 3628.25 371.491   3
   2   3   0 2785.12 366.799   3
   2   3   1 82204.6 1605.47   1
   2   3   1 81604.9 1432.50   6
   2   3   1 85634.7 1616.99   3
   2   3   1 80916.0 1450.79  11
   2   3   2 1082.68 275.829   9
   2   3   2 1134.41 253.407  11
   2   3   2 1246.63 296.541   1
   2   3   3 135590. 2290.95   9
   2   3   3 128835. 2039.30   3
   2   3   3 132188. 1995.85   4
  -2   3  -3 145152. 2496.50   4
  -2   3  -3 145301. 2489.08   3
   2   3   3 128406. 1780.90  11
   2   3   3 123277. 2085.44   1
  -2   3  -4 1338.55 329.730   4
   2   3   4 1228.47 307.902   1
   2   3   4 880.926 208.509   2
  -2   3  -4 1867.11 372.424   3
   2   3   4 907.815 250.910   4
  -2   3  -4 1654.42 312.310  12
  -2   3  -5 57093.7 1516.43  10
   2   3   5 50917.9 1108.02  11
   2   3   5 57422.7 1623.79   9
   2   3   5 52714.7 1421.38   3
   2   3   5 53179.6 1551.17   6
  -2   3  -5 61380.4 1837.13   4
   2   3   5 50741.2 1404.30   4
  -2   3  -5 58951.2 1794.09   3
   2   3   6 680.302 256.209   4
  -2   3  -6 958.642 273.976  10
   2   3   6 534.284 254.625   9
   2   3   6 782.505 232.143   4
   2   3   6 746.806 296.282   6
   2   3   6 919.032 309.894   5
  -2   3  -6 893.075 334.225   4
  -2   3  -7 75598.6 1846.66  10
   2   3   7 79662.9 1848.49   4
  -2   3  -8 757.983 341.748   3
  -2   3  -9 69779.8 2336.78   3
   2   3   9 70764.3 2260.99   6
   2   3   9 71507.6 2065.95   4
  -2   3  -9 67752.6 1836.33  10
  -2   3 -10 867.125 227.274   1
  -2   3 -10 779.344 294.803  10
   2   3  10 763.669 380.838   6
   2   3  11 37728.8 1843.46   6
  -2   3 -11 35946.0 1178.40   1
  -2   3 -11 35325.0 1384.19  10
   2   3  11 35174.9 1605.62   4
  -2   3 -12 1402.07 358.232  10
   2   3  12 834.510 397.476   4
  -2   3 -12 876.704 468.380   3
   2   3  12 927.822 427.503   6
   2   3  13 25373.5 1663.25   6
   2   3  14 287.707 380.731   4
   2   3  14 93.4754 361.342   6
  -2   3 -14 196.044 424.020   3
  -2   3 -15 28413.0 1998.90   3
   2   3  15 32929.0 2066.21   6
  -2   3 -16 653.827 513.446   3
   2   3  16 459.725 413.851   4
   2   3  16 805.466 511.916   6
  -2   3 -17 20976.0 1869.07   3
  -2   4  18 4374.90 866.597   8
  -2   4  18 4651.24 883.341   6
  -2   4  17 23516.9 1745.19   6
  -2   4  17 25603.7 1856.12   8
   2   4 -16 12469.6 995.432  11
  -2   4  16 10589.5 936.084   4
  -2   4  15 28943.7 1821.58   8
   2   4 -15 25001.4 1259.43   7
  -2   4  15 27064.8 1718.45   6
   2   4 -15 25094.0 1822.32   3
  -2   4  14 24691.3 1573.30   6
   2   4 -14 23600.9 1706.41   3
  -2   4  14 24920.4 1271.89   4
  -2   4  13 30276.3 1716.41   8
  -2   4  13 29957.1 1648.32   6
  -2   4  12 8314.12 899.721   8
   2   4 -12 6720.23 562.265   7
  -2   4  11 45823.2 1451.66   4
  -2   4  11 47355.1 1868.33   6
   2   4 -11 45954.2 2077.78   3
  -2   4  10 16074.6 374.270  10
   2   4 -10 17737.3 752.761   7
  -2   4   9 34514.3 1103.35   4
   2   4  -9 37938.3 1728.87   3
  -2   4   9 38325.3 1521.11   6
  -2   4   9 37028.6 805.146  10
  -2   4   8 36361.1 1403.68   6
  -2   4   8 36488.1 885.218  10
  -2   4   7 38726.1 967.618  10
   2   4  -7 41616.5 1643.90   4
  -2   4   7 40530.2 1068.22   3
  -2   4   7 37216.1 1345.14   6
  -2   4   5 83520.4 1298.09   4
  -2   4   5 82613.1 1509.28  10
   2   4  -5 83879.9 2092.79   4
  -2   4   4 31571.8 969.347  10
  -2   4   4 31045.4 773.905   4
  -2   4   3 134493. 1599.68   4
   2   4  -3 151528. 2514.46   4
  -2   4   2 28020.9 965.673  10
   2   4  -2 30521.6 1111.23   3
  -2   4   2 30417.4 1106.50   7
   2   4  -2 30523.6 1057.06   2
   2   4  -1 57345.6 1409.12   2
   2   4  -1 56931.3 1370.74   9
  -2   4   1 60353.2 1496.00   7
  -2   4   1 59579.5 1264.61   3
   2   4   0 3578.68 413.395  11
   2   4   0 3051.25 368.954   9
  -2   4   0 3865.52 307.574   8
   2   4   0 4281.19 425.870   3
  -2   4   0 3723.35 379.002   3
   2   4   0 3576.60 380.716   4
   2   4   1 137247. 2038.31   4
   2   4   1 135411. 2254.29   1
   2   4   1 136788. 2275.96   9
   2   4   1 136351. 2103.89  11
   2   4   2 13811.7 769.619   1
   2   4   2 14250.6 789.346   9
   2   4   2 13185.8 704.235   6
   2   4   2 13590.6 679.888   3
   2   4   2 14471.3 701.209   2
   2   4   3 83060.8 1589.12   4
   2   4   3 87942.4 1970.91   9
   2   4   3 84790.8 1655.13   3
   2   4   3 85685.1 1839.28   6
   2   4   3 86502.3 1654.41  11
   2   4   4 21331.2 1004.13   1
   2   4   4 20423.3 815.915  11
   2   4   4 22703.8 1055.23   9
  -2   4  -4 25572.9 1171.76   4
   2   4   4 20555.4 820.209   4
  -2   4  -4 25539.2 1166.04   3
  -2   4  -5 82982.6 2003.20  12
   2   4   5 71405.3 1617.43   3
  -2   4  -5 76457.9 1883.03  10
   2   4   5 74668.4 1953.36   9
  -2   4  -5 83446.1 2203.12   3
   2   4   5 68782.1 1837.64   1
   2   4   5 70488.7 1492.46  11
   2   4   6 1162.33 280.170   4
  -2   4  -6 1545.50 333.178  10
   2   4   6 1362.59 289.659   3
   2   4   6 942.695 332.213   1
  -2   4  -7 45149.0 736.778   1
   2   4   7 46498.3 1381.69   4
   2   4   7 45126.8 1608.64   1
  -2   4  -7 47067.7 1563.44  10
   2   4   7 46527.2 1214.33  11
  -2   4  -8 3518.62 486.895  10
   2   4   8 2591.96 493.982   6
  -2   4  -8 3350.39 552.967   3
   2   4   8 2729.98 384.713   4
  -2   4  -8 2575.51 228.840   1
   2   4   8 3083.40 439.824   4
  -2   4  -9 57527.2 2188.94   3
   2   4   9 56938.0 2083.07   6
  -2   4  -9 57406.6 1141.58   1
   2   4  10 1384.76 350.784   4
   2   4  10 1386.83 445.170   6
  -2   4 -11 15080.7 1276.26   3
   2   4  11 14125.3 1011.78   4
  -2   4 -13 12933.3 1317.33   3
   2   4  13 14889.1 1312.04   6
  -2   4 -14 2223.75 685.976   3
   2   4  14 2129.91 531.687   4
   2   4  15 9770.56 1182.39   6
   2   4  15 12512.0 1153.53   4
  -2   4 -16 2026.03 725.694   3
   2   4  16 3681.06 790.458   6
  -2   5  18 267.580 443.256   8
  -2   5  17 1339.03 600.161   8
  -2   5  17 1463.28 570.501   6
  -2   5  16 611.576 451.927   6
  -2   5  16 859.133 459.698   8
   2   5 -15 692.573 490.976   3
  -2   5  14 3585.04 679.860   6
   2   5 -14 2992.45 727.540   3
  -2   5  14 3121.36 672.682   8
   2   5 -13 1238.52 539.221   3
  -2   5  13 2040.19 558.806   8
   2   5 -13 823.934 230.246   7
  -2   5  13 720.220 259.246   4
  -2   5  13 1253.32 473.095   6
   2   5 -12 2553.39 489.096  11
  -2   5  12 2063.00 521.218   8
  -2   5  12 1754.79 459.698   6
  -2   5  11 4283.64 665.459   8
   2   5 -11 2527.83 286.133   7
  -2   5  11 4142.60 635.449   6
  -2   5  11 3096.34 378.101   4
  -2   5  10 7986.66 365.268  10
   2   5 -10 6492.60 815.867   3
  -2   5   9 8423.95 810.491   8
  -2   5   8 8196.80 760.850   8
   2   5  -8 7408.35 254.167   7
  -2   5   7 5979.42 443.281  10
  -2   5   7 5379.92 586.052   6
   2   5  -6 14908.2 989.162   4
   2   5  -6 13998.7 850.814  11
  -2   5   5 5775.21 466.629  10
  -2   5   5 5679.42 317.812   4
  -2   5   5 6295.63 594.555   8
  -2   5   5 6688.98 578.820   6
   2   5  -5 6232.28 635.413   4
   2   5  -4 9040.34 717.495   4
   2   5  -4 9032.17 668.229   2
  -2   5   4 8922.77 649.622   8
  -2   5   4 8105.90 558.096  10
   2   5  -3 11246.7 730.084   2
  -2   5   3 12554.5 702.895  10
   2   5  -3 12834.5 794.665   4
   2   5  -3 11698.0 738.604   1
   2   5  -3 11042.3 727.423  11
   2   5  -2 25782.9 1059.09  11
  -2   5   2 28011.4 1051.02  10
  -2   5   2 29056.3 1144.42   7
   2   5  -2 28901.1 1115.43   2
   2   5  -2 28034.8 1106.68   3
   2   5  -2 28087.5 1092.15   4
  -2   5   1 22358.3 827.413   8
   2   5  -1 21244.7 952.902  11
   2   5  -1 23190.9 1011.90   1
   2   5  -1 21614.6 964.041   2
  -2   5   1 22225.0 802.102   3
  -2   5   1 23259.7 996.705   7
   2   5  -1 20841.6 679.545  12
   2   5   0 12749.6 681.552   4
   2   5   0 10733.0 715.496   1
  -2   5   0 12684.9 730.051   7
   2   5   0 12086.7 687.894   3
   2   5   0 11928.4 726.857  11
   2   5   0 10812.4 694.281   2
   2   5   1 20347.4 970.679   1
   2   5   1 20427.6 921.862  11
   2   5   1 21808.3 1008.02   9
   2   5   1 21153.4 839.377   4
  -2   5  -1 23153.5 951.642   4
   2   5   1 21430.4 934.174   2
  -2   5  -1 22430.5 935.562   3
   2   5   2 32408.1 1234.10   1
  -2   5  -2 37014.3 1289.78  12
   2   5   2 31214.8 1147.95   6
  -2   5  -2 33387.8 1216.06   4
   2   5   2 33551.1 1155.19   2
  -2   5  -2 36633.0 1162.60  11
  -2   5  -2 36381.7 1266.77   3
  -2   5  -3 18399.9 818.868  11
   2   5   3 16133.1 913.508   1
  -2   5  -3 19424.1 892.573   7
  -2   5  -3 18606.7 953.585  12
  -2   5  -3 18096.4 969.424   4
   2   5   3 16288.8 812.908   2
  -2   5  -3 18294.6 971.634   3
  -2   5  -4 31653.0 1280.56  10
   2   5   4 30262.7 1241.11   6
   2   5   4 28562.3 1239.89   1
  -2   5  -5 22691.7 1115.94  10
  -2   5  -5 22253.6 858.369  11
  -2   5  -5 20932.0 1121.95   3
   2   5   5 20951.3 1089.33   6
  -2   5  -5 23226.2 1226.25   3
  -2   5  -5 25022.8 1276.65   4
   2   5   5 20075.2 1080.94   1
  -2   5  -5 22289.0 1119.99  12
   2   5   5 20421.1 862.825   3
  -2   5  -6 13367.7 957.076   3
   2   5   6 13600.3 736.631   4
   2   5   6 12771.8 726.532  11
  -2   5  -7 14175.7 656.188  11
  -2   5  -7 15517.5 976.355  10
   2   5   7 14314.0 1006.91   6
   2   5   7 12109.6 921.797   1
   2   5   7 14333.3 798.839   4
   2   5   8 17293.2 874.239   4
  -2   5  -8 19587.5 1272.21   3
  -2   5  -8 18407.0 1085.98  10
   2   5   8 19608.5 1222.91   6
   2   5   8 18245.7 943.416   4
   2   5   9 2715.37 427.847   4
  -2   5  -9 1961.82 432.507  10
   2   5   9 1118.75 269.947   4
  -2   5  -9 1280.59 183.485   1
   2   5   9 2277.43 521.482   6
  -2   5  -9 1099.23 429.760   3
   2   5  10 44804.2 1523.82   4
  -2   5 -10 45434.1 1766.96  10
   2   5  10 46863.5 2041.43   6
  -2   5 -11 18759.7 1432.80   3
   2   5  11 15958.7 1270.52   6
  -2   5 -12 16010.4 1414.63   3
   2   5  12 16241.3 1093.64   4
   2   5  13 8676.19 849.891   4
  -2   5 -13 7344.61 1038.71   3
   2   5  14 19276.6 1285.24   4
  -2   5 -14 18400.2 1176.59  10
  -2   5 -15 7593.26 1157.44   3
   2   5  15 9389.73 1171.46   6
  -2   5 -16 32266.3 2305.32   3
   2   5  16 32441.7 2186.37   6
   2   6 -17-255.983 481.623   3
  -2   6  17 1195.55 572.347   8
  -2   6  17 1336.26 531.776   6
  -2   6  16 38855.9 2296.45   8
  -2   6  16 41370.9 2293.34   6
   2   6 -16 37441.9 2423.03   3
   2   6 -15 953.203 529.753   3
  -2   6  15 1041.42 477.722   8
  -2   6  15 1225.72 485.818   6
  -2   6  14 56256.7 2538.47   8
   2   6 -14 55707.7 2088.46  11
   2   6 -13 1092.03 431.204  11
   2   6 -13 570.563 444.748   3
  -2   6  13 1107.66 471.011   8
  -2   6  13 631.378 416.062   6
  -2   6  12 48928.6 1308.43   4
  -2   6  12 52629.8 2275.93   8
  -2   6  12 47818.3 2095.67   6
   2   6 -12 50206.4 2387.10   3
   2   6 -12 53126.5 1950.95  11
   2   6 -11 1408.32 520.520   3
   2   6 -11 570.340 111.683   7
   2   6 -11 1757.69 439.248  11
  -2   6  11 999.898 414.035   6
  -2   6  10 69277.4 2408.05   8
  -2   6  10 64700.5 1274.56   4
   2   6 -10 73921.4 2188.60  11
  -2   6  10 71224.1 2341.96   6
  -2   6   9 684.708 351.361   8
   2   6  -9 1073.01 415.802   3
  -2   6   9 1052.98 228.683  10
   2   6  -9 1559.96 429.447  11
  -2   6   9 817.843 363.513   6
  -2   6   8 73328.4 2279.37   8
   2   6  -8 76800.6 2127.10  11
  -2   6   8 75123.5 2208.74   6
   2   6  -8 73406.5 2439.09   3
   2   6  -7 900.613 357.432  11
   2   6  -7 1100.56 383.316   3
   2   6  -6 39675.6 1645.34   3
  -2   6   6 38653.5 1522.27   8
  -2   6   6 37745.1 1456.69   6
   2   6  -6 38290.1 1455.70  11
   2   6  -5 1163.87 358.162  11
  -2   6   5-49.2656 188.664  10
   2   6  -5 662.895 311.415   4
  -2   6   5 299.952 272.465   8
   2   6  -5-258.731 272.072   3
  -2   6   4 50364.0 1452.30  10
  -2   6   4 51057.8 1588.03   8
   2   6  -4 53665.4 1667.28   2
   2   6  -4 51450.8 1397.75  12
   2   6  -4 52378.3 1643.02  11
   2   6  -3 1871.96 366.302   4
   2   6  -3 2071.75 398.906   3
  -2   6   3 1532.43 328.989  10
  -2   6   3 1684.56 330.903   8
   2   6  -3 1704.24 388.766  11
  -2   6   2 74601.3 1723.25   8
  -2   6   2 76147.8 1935.82   7
   2   6  -2 76985.2 1933.02   1
   2   6  -2 78167.5 1909.76   3
   2   6  -2 71999.1 1871.98  11
  -2   6   2 71472.2 1796.76  10
   2   6  -1 4172.04 374.075  12
  -2   6   1 4363.13 486.589   7
   2   6  -1 4207.62 475.595   3
   2   6  -1 5118.30 494.048   4
   2   6  -1 3778.07 488.568   2
  -2   6   0 67829.2 1790.73  11
   2   6   0 69688.8 1812.16  11
   2   6   0 71295.4 1675.18   3
  -2   6   0 69351.3 1560.35   3
  -2   6  -1 1374.13 293.160   4
   2   6   1 1076.41 319.160   2
   2   6   1 1305.24 265.362   4
  -2   6  -1 1291.45 291.629   3
  -2   6  -2 58317.7 1731.42  12
  -2   6  -2 59147.8 1581.69   7
  -2   6  -2 60462.1 1689.85   4
   2   6   2 54268.5 1590.43   2
  -2   6  -2 59564.7 1674.85   3
   2   6   3 619.437 272.834   2
   2   6   3 265.863 180.266   4
  -2   6  -3 617.850 272.900   3
   2   6   3 1284.86 333.603  11
   2   6   3 698.699 318.580   1
   2   6   3 850.280 231.604   3
  -2   6  -4 43458.1 1593.68  10
   2   6   4 41240.6 1176.42   3
  -2   6  -4 43267.2 1563.66   3
   2   6   4 40958.2 1571.14   1
  -2   6  -4 46651.6 1431.78   7
   2   6   4 43041.4 1562.35   6
   2   6   4 40676.3 1380.09   2
  -2   6  -4 48993.8 1725.61   4
  -2   6  -4 44002.4 1364.47  11
  -2   6  -5 1334.73 362.415  10
  -2   6  -5 285.740 219.140   7
  -2   6  -5 873.609 336.620   3
   2   6   5 1135.06 363.930   6
   2   6   5 852.842 231.031   4
  -2   6  -5 1744.85 322.726  11
  -2   6  -6 37516.6 1620.60   3
  -2   6  -6 38949.9 1576.25  10
   2   6   6 36558.5 1568.14   6
   2   6   6 36779.7 1167.35   4
   2   6   6 36377.1 1319.71  11
  -2   6  -6 35819.7 660.999   1
  -2   6  -6 37678.3 1224.71  11
   2   6   6 38066.1 1177.54   3
  -2   6  -7 1652.27 309.986  11
  -2   6  -7 1871.22 437.903  10
   2   6   7 1472.28 299.625   4
   2   6   7 2044.07 481.158   6
   2   6   8 36259.3 1220.18   4
   2   6   8 40259.0 1795.07   6
   2   6   8 36808.3 1341.93  11
   2   6   9 614.995 249.484   4
  -2   6  -9 1745.59 455.623  10
  -2   6  -9 958.958 399.743   3
   2   6  10 43808.6 1531.00   4
  -2   6 -10 44655.4 2154.25   3
   2   6  10 47017.7 1514.00   4
  -2   6 -10 45446.8 1874.66  10
  -2   6 -11 1669.15 527.713   3
   2   6  11 789.626 432.647   6
  -2   6 -11 811.741 383.219  10
   2   6  12 14385.0 984.415   4
  -2   6 -12 13821.6 1344.18   3
   2   6  12 13784.9 1272.34   6
  -2   6 -13 255.330 317.347  10
   2   6  13 1834.74 576.364   6
  -2   6 -13 1386.25 634.146   3
  -2   6 -14 14978.7 1535.30   3
   2   6  14 18060.5 1553.27   6
  -2   6 -14 16499.2 1199.47  10
  -2   6 -15-353.898 491.831   3
   2   6  15 722.364 465.298   6
  -2   7  17 101.223 469.293   6
  -2   7  16 564.610 457.195   8
  -2   7  16 406.881 440.883   6
   2   7 -15 219.375 409.985   3
  -2   7  15 179.048 379.146   8
   2   7 -14 2935.27 788.041   3
   2   7 -14 3708.18 646.100  11
  -2   7  14 3115.88 679.673   6
   2   7 -13-642.648 395.767  11
   2   7 -13 123.085 374.159   3
  -2   7  13 224.732 368.133   8
   2   7 -12 246.426 390.859   3
  -2   7  12 379.702 389.132   8
   2   7 -12 985.339 412.296  11
  -2   7  12 139.318 314.181   6
   2   7 -11 961.120 493.475   3
  -2   7  11 602.306 121.758   4
  -2   7  11 1277.59 456.579   8
  -2   7  11 1162.77 471.893   6
  -2   7  10 4067.47 210.235   4
  -2   7  10 5681.53 749.072   6
   2   7 -10 6078.17 842.496   3
   2   7  -9 3774.53 661.456   3
  -2   7   9 3827.46 628.199   8
  -2   7   8 7681.09 589.275  10
  -2   7   8 6995.15 788.717   8
   2   7  -8 7130.47 749.244  11
  -2   7   8 7475.02 776.325   6
   2   7  -8 6869.47 825.585   3
  -2   7   7 633.351 246.635  10
   2   7  -7 1195.78 435.102   3
  -2   7   7 894.582 371.931   8
   2   7  -6 2026.97 468.344   3
  -2   7   6 2140.88 458.791   8
   2   7  -6 2552.44 432.043  12
  -2   7   6 2056.45 363.693  10
   2   7  -5 541.143 330.924  11
   2   7  -5 210.617 260.133   3
   2   7  -5 269.536 285.691   1
  -2   7   5 86.6061 257.731   8
  -2   7   5 308.265 236.955  10
  -2   7   5 96.7759 40.7477   3
   2   7  -5 45.3844 193.119  12
  -2   7   4 11195.3 814.318   8
   2   7  -4 11188.5 824.964   1
   2   7  -4 10812.0 846.309   3
   2   7  -4 10748.3 708.647  12
  -2   7   3 11643.7 792.241  10
   2   7  -3 13546.8 751.142  12
   2   7  -3 12024.0 867.710  11
  -2   7   2 76359.4 1997.48  10
   2   7  -2 83742.9 2060.02   3
  -2   7   1 7533.76 677.639  10
  -2   7   1 8369.46 520.700   3
   2   7  -1 8052.16 645.791   3
   2   7  -1 7931.09 624.003   4
   2   7   0 897.408 339.053  11
   2   7   0 1430.35 374.296   1
   2   7   0 1205.15 355.216   2
  -2   7   0 956.655 359.912  11
   2   7   0 629.038 248.021   3
  -2   7   0 617.494 247.350   7
   2   7   1 8436.27 711.782   2
  -2   7  -1 8844.58 631.216   3
   2   7   1 8853.15 761.103   1
  -2   7  -1 8330.25 710.542  11
   2   7   1 8928.59 611.401   3
  -2   7  -1 8711.51 642.623   4
  -2   7  -1 8829.16 651.530   3
   2   7   1 8749.46 589.733   4
   2   7   2 21257.2 1157.19   1
  -2   7  -2 22869.0 827.786   1
  -2   7  -2 21702.5 1009.93   7
  -2   7  -2 21949.1 1032.65   3
  -2   7  -2 22449.0 1075.90   4
   2   7   2 21875.3 1105.81   2
  -2   7  -2 23767.3 1135.76  11
   2   7   2 22329.1 1122.19  11
   2   7   2 19797.9 838.856   4
  -2   7  -2 22745.1 1085.18   3
  -2   7  -3 23519.2 1114.05  11
  -2   7  -3 22037.4 1098.53   3
   2   7   3 23106.9 1137.62   2
   2   7   3 24733.2 932.825   3
  -2   7  -3 22831.2 1156.65   3
  -2   7  -4 30153.4 1241.58  11
  -2   7  -4 30454.6 1364.43   3
   2   7   4 28739.4 1356.94   6
   2   7   5 11758.1 920.684   6
  -2   7  -5 12404.8 949.445   3
   2   7   5 11164.2 625.442   4
  -2   7  -5 13808.1 1000.76  10
  -2   7  -5 12586.4 814.543  11
  -2   7  -6 26700.0 1429.14   3
  -2   7  -6 28676.3 1187.19  11
   2   7   6 26549.0 962.397   3
   2   7   6 23582.8 1352.86   1
   2   7   6 25852.7 956.282   4
  -2   7  -7 5909.65 588.652   7
   2   7   7 5301.04 706.807   6
  -2   7  -7 6195.18 574.903  11
   2   7   7 5234.48 720.408   1
   2   7   7 5076.32 457.456   4
   2   7   7 4985.71 578.445  11
   2   7   8 15629.8 1181.83   1
   2   7   8 15521.9 809.062   4
  -2   7  -9 11600.5 1022.33  10
  -2   7  -9 11952.7 1131.70   3
   2   7   9 13861.2 1166.04   6
  -2   7  -9 12603.8 761.954  11
  -2   7 -10 44645.5 2224.02   3
  -2   7 -11 6690.04 825.422  10
  -2   7 -11 7440.55 1013.17   3
  -2   7 -12 12430.5 1101.75  10
  -2   7 -12 11556.7 1279.82   3
   2   7  12 12065.7 1228.04   6
  -2   7 -13 6252.27 1007.67   3
  -2   7 -14 19885.4 1390.20  10
   2   7  14 23190.7 1812.87   6
   2   8 -16 5197.14 1043.14   3
  -2   8  16 6313.08 1008.86   6
  -2   8  15 23385.5 1807.29   8
  -2   8  14 11116.6 1265.11   8
  -2   8  14 12216.7 1252.71   6
   2   8 -14 9250.14 1231.35   3
   2   8 -14 10499.1 1043.59  11
   2   8 -13 20215.4 1372.46  11
  -2   8  13 21743.3 1592.34   6
   2   8 -13 18171.0 1601.53   3
   2   8 -12 10694.5 1008.23  11
  -2   8  12 11370.1 1124.53   6
   2   8 -12 11730.9 1261.85   3
  -2   8  12 12511.3 1228.71   8
  -2   8  11 19237.3 1437.30   8
  -2   8  11 19465.2 1399.56   6
   2   8 -11 15637.6 1389.70   3
  -2   8  10 15304.7 1251.36   8
  -2   8  10 15219.2 1203.73   6
   2   8 -10 14232.0 1287.38   3
  -2   8   9 30721.7 1680.15   8
  -2   8   9 31326.4 1642.79   6
   2   8  -9 32230.9 1816.30   3
  -2   8   8 12122.2 789.464  10
  -2   8   8 12172.1 1048.48   8
   2   8  -8 10906.2 1051.30   3
   2   8  -8 11923.5 992.039  11
  -2   8   7 33523.6 1629.95   8
   2   8  -7 32756.0 1688.16   3
   2   8  -7 35027.5 1553.71   1
  -2   8   7 35677.4 1364.61  10
  -2   8   6 16013.9 1099.55   8
   2   8  -6 15711.1 1040.38   1
   2   8  -6 17712.8 1205.48   3
   2   8  -5 37143.0 1424.24  12
   2   8  -5 38587.1 1674.45   3
   2   8  -5 38502.9 1629.17  11
   2   8  -4 12853.6 923.944   1
   2   8  -4 12738.0 947.083   3
  -2   8   3 64168.5 1941.30  10
   2   8  -3 69987.1 2053.40   3
   2   8  -2 16671.6 1057.01  11
   2   8  -2 16452.7 1036.82   1
   2   8  -2 16379.3 861.674  12
   2   8  -1 28714.3 1361.74   1
   2   8  -1 27890.7 1195.63   3
  -2   8   1 26587.9 1303.29  10
  -2   8   1 27980.0 1364.01  11
   2   8  -1 27724.7 1334.41  11
   2   8   0 2489.94 392.873   3
  -2   8   0 2283.23 396.049   7
   2   8   0 2214.36 458.583  11
  -2   8   0 2206.19 351.399   3
  -2   8   0 2025.82 331.133   3
   2   8   0 1421.62 410.671   1
  -2   8   0 2395.85 477.335  11
  -2   8  -1 57664.8 1732.75   7
  -2   8  -1 54187.5 1568.66   3
  -2   8  -1 55368.2 1855.76  11
   2   8   1 58714.1 1541.23   4
   2   8   1 55366.7 1866.03  11
   2   8   2 13114.2 983.577   1
  -2   8  -2 12540.7 955.423  10
  -2   8  -2 13867.7 950.713  11
  -2   8  -2 12901.3 826.567   7
  -2   8  -2 12562.7 827.283   3
  -2   8  -2 13826.0 724.816   1
  -2   8  -2 14600.6 907.624   4
   2   8   2 14536.7 984.470  11
  -2   8  -2 14252.8 905.095   3
  -2   8  -3 57853.9 1835.62   3
  -2   8  -3 61238.0 1919.20  11
   2   8   3 56642.0 1417.94   3
   2   8   3 54658.4 1987.50   1
   2   8   3 56351.6 1890.35  11
   2   8   4 20401.4 834.645   3
  -2   8  -4 19325.5 1143.87   3
  -2   8  -4 20473.4 793.299   1
   2   8   4 18676.8 789.324   4
  -2   8  -5 48919.3 1892.72   3
   2   8   5 49243.6 1924.10   6
   2   8   5 50818.6 1275.38   4
   2   8   5 47264.5 1949.56   1
   2   8   5 46964.9 1742.83  11
   2   8   5 47104.9 1217.77   4
   2   8   6 1406.60 409.985  11
   2   8   6 1809.36 293.282   3
   2   8   6 1617.32 274.491   4
   2   8   6 1776.50 501.611   1
  -2   8  -6 1559.84 476.380  10
  -2   8  -7 30356.2 1655.43   3
   2   8   7 28334.4 1569.59   6
   2   8   7 29662.5 1001.30   4
  -2   8  -7 29632.5 1305.34  11
   2   8   7 29771.7 1406.46  11
   2   8   8 643.786 412.990   1
  -2   8  -8 986.797 332.672  11
  -2   8  -9 38171.0 2039.73   3
   2   8   9 39782.2 1993.37   6
   2   8   9 37541.6 1196.16   4
   2   8  10 7489.21 579.405   4
  -2   8 -10 7266.15 882.504  10
  -2   8 -10 8250.74 684.774  11
  -2   8 -11 8387.85 1078.34   3
   2   8  11 10599.9 1144.83   6
  -2   8 -12 2211.62 694.940   3
  -2   8 -12 1573.07 513.500  10
   2   8  12 1539.61 593.077   6
  -2   8 -13 11036.9 1103.77  10
   2   8  13 13040.9 1346.69   6
  -2   9  16 1037.45 517.267   6
   2   9 -15 2386.42 794.433   3
   2   9 -14 802.841 551.674   3
  -2   9  14 524.932 467.908   6
   2   9 -13 170.082 423.343   3
  -2   9  13 827.036 479.306   6
   2   9 -12 718.323 505.875   3
   2   9 -11 3522.44 654.903  11
   2   9 -11 3344.27 754.300   3
  -2   9  11 4126.12 723.167   6
   2   9 -10-90.8665 378.894  11
   2   9 -10 424.650 386.850   3
   2   9 -10-341.551 357.380   1
  -2   9   9 6925.49 628.114  10
   2   9  -9 6769.08 833.709  11
   2   9  -9 7674.80 835.298   1
   2   9  -9 6848.51 922.139   3
   2   9  -8-52.6843 306.203   1
  -2   9   8 670.876 293.141  10
   2   9  -8 409.032 388.995   3
   2   9  -7 10848.9 985.232  11
   2   9  -7 10975.3 1039.55   3
  -2   9   7 10992.0 839.523  10
   2   9  -6-96.2715 343.357  11
  -2   9   5 21655.5 1192.47  10
   2   9  -5 22114.3 1327.69   3
   2   9  -4 3683.68 619.062  11
  -2   9   4 3516.88 536.768  10
   2   9  -4 3686.77 574.403   1
  -2   9   3 27826.3 1392.29  10
   2   9  -3 27544.9 1222.48  12
   2   9  -3 28545.2 1465.63  11
   2   9  -2 1589.66 458.075  11
  -2   9   2 1283.89 410.717  10
   2   9  -2 912.197 305.443   4
  -2   9   2 1641.42 249.331   3
  -2   9   1 18443.8 1176.92  10
   2   9  -1 19812.0 1041.03   4
   2   9   0 937.391 284.006   4
   2   9   0 689.196 287.774   3
  -2   9   0 935.860 273.871   3
  -2   9   0 311.755 220.202   3
   2   9   0 1161.73 402.487   1
   2   9   0 693.293 365.141  11
   2   9   1 26881.9 1430.07   1
  -2   9  -1 27550.7 1150.91   1
  -2   9  -1 26864.8 1184.78   4
   2   9   1 27291.1 1406.86  11
  -2   9  -2 3319.92 578.982  10
  -2   9  -2 3205.49 560.345  11
   2   9   2 2768.14 560.896   1
  -2   9  -2 2290.77 366.975   1
  -2   9  -3 38564.6 1447.43   7
  -2   9  -3 39288.2 1790.38  10
  -2   9  -3 39066.7 1258.48   1
   2   9   3 38786.0 1679.51  11
  -2   9  -4 2869.67 524.186   3
   2   9   4 2234.87 492.715  11
   2   9   4 2101.33 316.094   3
  -2   9  -4 2403.07 537.766  10
  -2   9  -5 40428.1 1651.22  11
  -2   9  -5 34666.5 1662.40   3
   2   9   5 37412.0 1064.32   4
   2   9   5 36639.2 1806.41   1
  -2   9  -5 35614.3 1776.74  10
  -2   9  -6 1156.66 442.788   3
   2   9   6-33.3017 370.306   1
  -2   9  -6 1017.14 458.880  10
   2   9   6 705.469 200.287   3
   2   9   6 885.748 408.095  11
  -2   9  -7 27837.0 1651.96   3
  -2   9  -7 27996.5 1369.81  11
  -2   9  -8 447.700 416.789  10
   2   9   8-121.606 144.113   4
   2   9   8-152.744 391.008   6
  -2   9  -9 18625.7 1402.55  10
  -2   9  -9 21001.5 1573.22   3
  -2   9  -9 18600.4 1105.90  11
  -2   9 -10 2358.61 667.291   3
  -2   9 -10 1663.69 554.841  10
   2   9  10 2929.67 662.636   6
  -2   9 -12 833.835 480.719  10
  -2   9 -12 690.823 511.573   3
   2   9  12 1019.55 516.285   6
  -2   9 -13 12806.5 1250.19  10
   2   9  13 15810.5 1511.63   6
  -2   9 -14 444.756 530.827   3
  -2   9 -14 347.833 423.514  10
   2  10 -15 27416.7 1753.81   1
   2  10 -14 3161.19 672.546   1
  -2  10  13 14740.3 1417.45   6
   2  10 -12 14645.2 1486.49   3
   2  10 -12 13857.0 1231.09  11
   2  10 -11 32214.4 1746.29   1
   2  10 -10 10190.3 1168.26   3
   2  10  -9 24610.2 1475.61   1
   2  10  -9 24790.2 1698.89   3
   2  10  -8 3995.69 691.322  11
  -2  10   8 5271.28 637.340  10
   2  10  -8 4869.01 794.129   3
   2  10  -8 4299.52 675.751   1
  -2  10   7 14939.6 1036.30  10
   2  10  -7 16643.1 1307.56   3
  -2  10   6 8633.87 823.662  10
   2  10  -6 8723.12 879.947   1
   2  10  -6 9654.96 984.378   3
   2  10  -5 24770.8 1412.17   1
   2  10  -5 23798.7 1424.53   3
   2  10  -4 10083.4 932.117   1
   2  10  -4 11453.1 967.246   3
   2  10  -4 12516.0 1072.40  11
  -2  10   3 59316.1 2134.78  10
   2  10  -3 60568.4 2058.02   3
  -2  10   3 63973.8 2332.81  11
   2  10  -3 62377.2 2262.09  11
  -2  10   2 1436.50 443.508  10
   2  10  -2 93.1594 228.868   4
   2  10  -2 1354.59 386.363   3
   2  10  -2 1262.99 442.317   1
   2  10  -2 1684.41 486.474  11
  -2  10   2 1627.11 503.895  11
  -2  10   1 13740.3 1086.44  10
   2  10  -1 14056.5 931.862   3
  -2  10   1 16193.8 1189.22  11
   2  10  -1 15044.0 1125.04   1
   2  10  -1 14505.2 1121.83  11
  -2  10   0 10388.0 724.888   3
   2  10   0 11625.0 808.528   3
   2  10   0 8949.20 707.821   4
  -2  10   0 10325.1 957.963  11
  -2  10  -1 25716.0 1503.56  10
  -2  10  -1 27076.6 1231.82   1
  -2  10  -1 26133.7 1202.35   4
  -2  10  -1 28935.4 1543.48  11
   2  10   1 27510.5 1506.62  11
   2  10   1 27694.0 1537.08   1
  -2  10  -2 12024.0 1064.42  10
  -2  10  -2 11271.1 862.701   3
   2  10   2 11397.9 711.926   3
  -2  10  -2 12319.5 1026.41  11
   2  10   2 11557.2 708.822   4
   2  10   2 10711.8 1014.29   1
   2  10   2 11218.9 1001.84  11
  -2  10  -2 10328.8 840.760   3
  -2  10  -3 30740.5 1343.37   7
  -2  10  -3 29470.5 1192.56   1
   2  10   3 30923.0 1684.56   1
  -2  10  -3 31077.9 1579.15  11
  -2  10  -4 8971.35 964.297  10
   2  10   4 7960.57 922.628   1
   2  10   4 8143.93 533.177   3
  -2  10  -4 8956.82 885.883  11
   2  10   4 8541.42 888.454  11
  -2  10  -5 12166.2 1128.92  10
  -2  10  -5 11815.8 1038.72   3
   2  10   5 12233.8 587.811   4
   2  10   5 12640.7 1058.87  11
  -2  10  -6 8606.51 985.226  10
   2  10   6 8391.34 977.693   1
   2  10   6 8008.23 445.971   4
  -2  10  -6 9435.78 887.524  11
   2  10   6 8297.50 897.859  11
   2  10   7 9651.21 1075.08   1
  -2  10  -7 10078.9 913.491  11
   2  10   7 11124.1 1008.39  11
  -2  10  -8 4451.74 786.965  10
   2  10   8 4802.51 776.990   6
  -2  10  -8 6215.15 895.480   3
  -2  10  -8 5663.03 709.055  11
   2  10   9 23921.5 1665.45   6
  -2  10 -10 7430.72 1050.35   3
   2  10  10 8416.14 1071.07   6
  -2  10 -11 5993.20 1006.73   3
   2  10  11 6723.17 1012.75   6
  -2  10 -12 8070.49 1062.64  10
   2  10  12 10507.2 1248.99   6
  -2  10 -13 4344.26 953.309   3
   2  10  13 2948.99 795.116   6
   2  11 -13 796.170 561.013   3
   2  11 -13-610.733 439.243   1
   2  11 -12 3586.80 741.435  11
   2  11 -12 2124.24 733.425   3
   2  11 -12 2244.16 594.712   1
   2  11 -11 2188.66 581.100   1
   2  11 -11 2299.13 679.496   3
   2  11  -9 6643.97 849.650   1
   2  11  -8 9306.18 968.566   1
   2  11  -8 9796.63 1055.95  11
  -2  11   7 149.197 279.278  10
   2  11  -7 232.305 356.142   3
   2  11  -7-184.752 317.934   1
   2  11  -6 2865.21 636.312  11
  -2  11   6 2348.19 528.302  10
   2  11  -6 3211.66 645.839   3
   2  11  -6 3151.57 616.988   1
   2  11  -5 5084.13 767.935  11
  -2  11   5 4221.07 643.159  10
   2  11  -4 6696.33 816.329   1
  -2  11   4 6240.77 783.698  10
   2  11  -4 4672.65 682.848   3
   2  11  -3 3950.71 663.731   1
   2  11  -3 3140.44 559.911   3
   2  11  -3 4213.37 708.143  11
  -2  11   3 3532.36 667.936  11
  -2  11   2 11047.8 1031.47  10
  -2  11   2 10224.3 1039.86  11
   2  11  -2 12257.3 1101.44  11
   2  11  -1 9298.39 951.366   1
  -2  11   1 10101.6 1017.98  11
   2  11  -1 8882.25 961.239  11
   2  11   0 11413.0 1063.04   1
   2  11   0 10872.6 806.552   3
  -2  11   0 10522.3 1031.73  10
  -2  11   0 9626.47 729.851   3
  -2  11  -1 4816.13 740.209  11
  -2  11  -1 3895.23 522.988   3
   2  11   1 4569.49 731.167  11
  -2  11  -2 11292.0 893.077   3
   2  11   2 11118.9 711.005   3
   2  11   2 11325.9 1086.24   1
  -2  11  -2 12602.3 1105.94  11
   2  11   2 10044.1 1011.83  11
  -2  11  -3 5073.32 787.816  10
  -2  11  -3 4845.96 648.010   3
   2  11   3 5381.30 473.988   3
  -2  11  -3 5368.43 762.146  11
   2  11   3 6254.39 825.479  11
  -2  11  -4 10761.4 979.661   3
   2  11   4 7501.30 953.033   1
  -2  11  -4 10518.7 1007.77  11
   2  11   4 9300.79 989.464  11
  -2  11  -5 3855.48 676.648   3
  -2  11  -5 4385.41 772.829  10
  -2  11  -5 4342.85 675.512  11
  -2  11  -6 4565.00 807.665  10
  -2  11  -6 6183.12 847.665   3
  -2  11  -6 6818.69 826.248  11
   2  11   6 6707.17 861.216  11
   2  11   6 6227.54 928.623   1
  -2  11  -7 5414.91 754.047  11
  -2  11  -7 4481.05 806.003  10
  -2  11  -7 5733.22 843.638   3
   2  11   7 6202.75 847.277  11
   2  11   8 7857.29 1067.25   1
   2  11   8 11020.1 1081.53  11
  -2  11  -8 10581.7 979.537  11
  -2  11  -9 4901.47 860.513  10
  -2  11 -10 11593.9 1261.69  10
  -2  11 -11 3893.85 898.347   3
  -2  11 -11 3999.27 807.610  10
   2  11  11 5168.44 913.119   6
  -2  11 -12 17650.0 1737.48   3
   2  11  12 17694.8 1651.66   6
  -2  11 -12 15388.8 1474.46  10
  -2  11 -13 4137.01 838.066  10
   2  12 -14 12735.6 1308.61  11
   2  12 -13 2179.14 580.884   1
   2  12 -13 2745.20 665.473  11
   2  12 -12 39946.2 2085.92   1
   2  12 -11 477.535 405.735   1
   2  12 -11 168.908 460.789   3
   2  12 -11 1170.86 543.574  11
   2  12 -10 27574.3 1813.55  11
   2  12  -9 1340.61 547.799  11
   2  12  -9 478.298 467.038   3
   2  12  -9 654.151 446.603   1
  -2  12   7 3127.08 600.834  10
   2  12  -7 3534.85 722.987   3
   2  12  -7 3799.40 750.857  11
   2  12  -6 37717.8 1906.82   1
   2  12  -6 35114.3 1910.14   3
   2  12  -6 36489.2 1988.49  11
  -2  12   5 3789.38 669.731  10
   2  12  -5 2840.64 618.248   3
   2  12  -5 3340.71 698.851  11
   2  12  -4 20209.5 1420.87   1
   2  12  -4 21398.5 1391.41   3
  -2  12   4 21771.8 1457.36  10
   2  12  -4 20938.3 1504.46  11
  -2  12   3 690.454 408.011  10
   2  12  -3 700.735 384.564   3
  -2  12   3 1090.91 509.141  11
   2  12  -3 129.400 361.384   1
   2  12  -2 18371.0 1181.17   3
   2  12  -2 20890.7 1490.31  11
  -2  12   1 558.360 227.894   3
   2  12  -1 1021.39 494.250  11
   2  12   0 25685.8 1626.17   1
  -2  12   0 25325.7 1645.70  10
  -2  12   0 22040.7 1084.31   3
  -2  12   0 23513.6 1575.12  11
   2  12   0 23253.4 1561.59  11
  -2  12  -1-114.003 249.336   3
  -2  12  -1 526.114 414.879  10
   2  12   1 770.112 462.237   1
  -2  12  -1 702.296 464.689  11
  -2  12  -2 12572.5 1204.12  10
  -2  12  -2 13144.1 989.521   3
   2  12   2 12416.0 1197.66   1
   2  12   2 12520.1 1182.83  11
   2  12   3 852.941 492.884  11
  -2  12  -3-154.221 355.694  10
   2  12   3 752.290 231.679   3
  -2  12  -3-270.172 327.794   3
  -2  12  -3 660.381 294.671   1
   2  12   3 1011.22 514.930   1
  -2  12  -4 11100.5 1027.50   3
  -2  12  -4 10697.6 1084.99  11
   2  12   4 10413.6 1103.83  11
   2  12   5-61.6802 403.673  11
   2  12   5-119.312 363.861   1
  -2  12  -5 54.5844 355.127  11
  -2  12  -5-131.889 352.907   3
  -2  12  -5 449.416 443.039  10
  -2  12  -6 8976.25 1100.32  10
  -2  12  -6 9176.57 1041.47   3
   2  12   6 11030.7 1207.88   1
  -2  12  -6 11110.0 1089.86  11
   2  12   7 970.176 516.476  11
  -2  12  -7 1058.16 529.227  10
  -2  12  -7 1851.25 615.086   3
   2  12   7 1428.61 636.549   1
  -2  12  -7 1533.59 520.453  11
  -2  12  -8 7727.36 1062.94  10
  -2  12  -8 10206.3 1187.43   3
   2  12   8 7599.65 987.182  11
  -2  12  -8 7750.32 924.829  11
   2  12   9 62.9209 429.509  11
  -2  12 -10 5644.36 962.330  10
  -2  12 -10 6169.42 1023.20   3
  -2  12 -11 706.122 539.071   3
  -2  12 -11 254.954 443.484  10
  -2  12 -12 4690.51 893.920  10
   2  13 -13 688.537 516.487  11
   2  13 -12 328.726 392.591  11
   2  13 -12 1214.64 497.780   1
   2  13 -11 457.036 508.806  11
   2  13 -11 477.211 439.498   3
   2  13 -10 1113.64 513.730   1
   2  13  -8 1338.15 586.828  11
   2  13  -8 1977.07 580.004   1
   2  13  -8 2489.10 679.015   3
   2  13  -7 116.128 417.481   3
   2  13  -7 1205.71 487.889   1
   2  13  -6 2654.45 644.401   1
  -2  13   6 2451.75 593.664  10
   2  13  -6 2649.67 691.573  11
   2  13  -5 1489.90 571.074  11
  -2  13   5 1178.29 493.208  10
   2  13  -5 567.476 450.337   3
   2  13  -5 643.978 436.653   1
  -2  13   4 4594.60 780.655  10
   2  13  -4 3597.40 683.857   3
   2  13  -4 4044.15 786.612  11
  -2  13   3 4067.05 727.208  10
   2  13  -3 4009.44 667.432   3
   2  13  -3 4090.39 750.659   1
  -2  13   3 4841.02 845.123  11
   2  13  -2 5715.71 855.879   1
   2  13  -2 5944.21 918.476  11
   2  13  -2 6496.84 769.000   3
  -2  13   2 7408.72 1000.76  11
  -2  13   1 3391.18 724.160  10
   2  13  -1 2463.10 491.516   3
   2  13  -1 2895.92 706.700  11
  -2  13   1 3499.89 746.134  11
  -2  13   0 4444.84 801.935  10
   2  13   0 5248.96 841.290   1
   2  13   0 4996.82 605.222   3
   2  13   0 4534.13 816.166  11
  -2  13   0 5732.88 894.144  11
   2  13   1 2492.94 656.451  11
  -2  13  -1 2333.65 442.199   3
   2  13   1 3314.85 725.934   1
   2  13   1 2840.54 435.553   3
  -2  13  -1 2322.57 633.942  10
   2  13   2 3863.36 782.789   1
  -2  13  -2 3076.07 699.950  10
   2  13   3 3539.01 754.131  11
   2  13   3 2760.05 724.070   1
  -2  13  -3 3472.16 754.445  10
  -2  13  -3 2790.91 539.552   3
  -2  13  -4 17219.6 1506.76  10
  -2  13  -4 18876.6 1338.97   3
   2  13   4 18154.0 1546.91   1
  -2  13  -4 17864.0 1430.50  11
   2  13   4 18018.2 1478.27  11
  -2  13  -5 8889.66 1004.27   3
  -2  13  -5 8340.91 1107.44  10
   2  13   5 8593.55 1157.59   1
   2  13   5 8102.56 1051.58  11
  -2  13  -6 12420.2 1217.10   3
   2  13   6 11652.7 1319.10   1
  -2  13  -6 12348.8 1192.09  11
   2  13   6 11689.3 1233.37  11
  -2  13  -7 2529.18 704.352  10
   2  13   7 4143.42 910.214   1
  -2  13  -7 2938.13 685.061   3
  -2  13  -7 3856.66 732.072  11
  -2  13  -8 9706.67 1182.41   3
   2  13   8 9922.97 1273.46   1
   2  13   8 10843.6 1198.58  11
  -2  13  -9 2754.38 736.740  10
  -2  13  -9 3158.89 676.107  11
  -2  13 -10 7501.77 1134.53   3
  -2  13 -10 6956.90 1070.93  10
   2  14 -11 13761.5 1437.26  11
   2  14 -10 4239.33 906.794   3
   2  14 -10 3927.43 832.136  11
   2  14  -9 17928.0 1487.28   1
   2  14  -9 17360.6 1568.65  11
   2  14  -8 2790.00 736.520  11
   2  14  -8 2516.23 704.470   3
   2  14  -8 3927.07 751.119   1
   2  14  -7 10892.9 1164.14   1
   2  14  -7 9131.28 1130.90   3
   2  14  -7 11235.6 1287.49  11
   2  14  -6 11073.8 1182.81   1
   2  14  -6 11959.8 1238.98   3
   2  14  -5 26421.0 1769.64   1
   2  14  -5 27520.0 1901.66  11
   2  14  -4 4155.23 837.360  11
  -2  14   4 3887.27 762.787  10
   2  14  -4 5822.79 884.621   1
  -2  14   3 11655.8 1202.55  10
   2  14  -3 11206.9 1195.74   1
   2  14  -3 11457.1 1059.23   3
   2  14  -2 6047.98 974.638  11
   2  14  -2 4283.73 666.582   3
  -2  14   1 12042.9 1261.28  10
  -2  14   1 13156.9 1346.82  11
   2  14  -1 11924.8 1246.37   1
   2  14  -1 10972.9 1237.32  11
  -2  14   0 4887.50 894.557  11
  -2  14   0 6626.96 974.253  10
   2  14   0 6112.89 944.189   1
  -2  14  -1 16900.5 1510.35  10
   2  14   2 2936.57 750.228   1
  -2  14  -2 2577.63 529.549   3
   2  14   2 3614.05 813.803  11
  -2  14  -3 19202.4 1638.04  10
   2  14   3 15862.8 1502.32   1
  -2  14  -3 17654.1 1521.19  11
   2  14   3 19576.4 1610.13  11
   2  14   4 1784.13 649.611  11
   2  14   4 2049.17 674.472   1
  -2  14  -4 743.072 487.402  11
  -2  14  -4 1192.03 503.335   3
  -2  14  -4 1537.32 629.767  10
  -2  14  -5 3152.71 722.698  11
  -2  14  -6 4039.75 762.650   3
  -2  14  -6 4046.35 872.863  10
  -2  14  -7 12004.9 1397.98  10
   2  14   7 10548.9 1330.69   1
  -2  14  -8 569.845 514.017  10
  -2  14  -8 862.312 535.492  11
   2  14   8 1277.01 566.086  11
  -2  14  -9 2548.98 780.248   3
   2  15  -9 1042.88 602.516   3
   2  15  -9 2330.62 648.566   1
   2  15  -8 1036.08 466.532   1
   2  15  -7 664.032 565.687  11
   2  15  -7 1555.50 645.396   3
   2  15  -7 2023.94 670.693   1
   2  15  -5 5227.72 855.403   3
   2  15  -5 5965.37 933.279   1
   2  15  -5 6906.20 1089.53  11
   2  15  -4 1714.81 576.789   3
   2  15  -4 1938.24 627.658   1
   2  15  -4 1218.08 636.509  11
  -2  15   3 6604.57 976.727  10
   2  15  -2 1599.40 634.673  11
  -2  15   1 6104.94 1027.46  11
   2  15  -1 7623.99 1077.25   1
   2  15   0 340.572 492.565  11
  -2  15   0 697.545 475.744  10
   2  15   0 204.406 426.935   1
  -2  15   0 1111.53 530.671  11
   2  15   1 10423.8 1251.43   1
  -2  15  -1 12265.8 1352.92  11
   2  15   1 10571.2 1259.81  11
   2  15   2 798.838 558.677  11
   2  15   2 732.770 536.867   1
  -2  15  -2 268.466 439.059  10
  -2  15  -2 485.516 530.848  11
   2  15   3 8431.20 1162.93  11
   2  15   3 9667.72 1248.79   1
  -2  15  -3 8975.04 1199.28  10
  -2  15  -3 8110.05 1121.20  11
   2  15   4 1961.95 679.629  11
  -2  15  -5 7989.68 1112.10  11
  -2  15  -5 7486.22 1149.00  10
   2  15   5 8653.03 1157.80  11
   2  15   5 8415.46 1253.53   1
  -2  15  -6 243.942 395.437   3
  -2  15  -6 905.745 497.141  11
   2  15   6 483.526 594.759  11
  -2  15  -7 9663.85 1179.89   3
   2  15   7 9819.24 1275.71  11
  -2  15  -7 8602.06 1149.13  11
  -2  15  -8 109.517 480.606   3
   2  15   8-350.947 496.616  11
   2  16  -6 4302.99 848.206   1
   2  16  -5 11223.5 1305.97   1
  -2  16   1 10840.4 1353.57  11
   2  16   0 1901.73 725.327   1
  -2  16   0 1612.09 717.702  11
  -2  16  -1 11973.1 1390.76  10
   2  16   1 11947.0 1404.41   1
  -2  16  -1 10139.1 1301.33  11
  -2  16  -2 1373.31 663.107  11
  -2  16  -4 3650.10 891.792  11
   3 -16  -6 1397.73 607.219   7
   3 -16  -6 2739.36 713.547   5
   3 -16  -5 5507.94 988.032   7
   3 -16  -5 7417.05 1097.14   5
  -3 -16   4 1186.90 562.670   9
   3 -16  -4 1680.96 591.308   7
  -3 -16   3 3288.49 769.976   9
  -3 -16   1 7377.45 1096.99   9
   3 -16   2 1721.72 708.832   2
   3 -16   3 1823.27 776.966   2
   3 -16   4 1593.60 789.434   2
  -3 -15   9 5992.69 991.230   4
   3 -15  -9 5898.35 973.664   5
  -3 -15   8 940.438 486.292   4
  -3 -15   7 8923.39 1109.76   4
   3 -15  -6 168.451 476.729   9
  -3 -15   6 324.473 393.312   9
  -3 -15   6 1021.24 492.918   4
   3 -15  -6-245.462 352.490   7
   3 -15  -6-298.437 542.583  12
   3 -15  -6-108.686 379.018   5
  -3 -15   5 11823.1 1179.14   4
   3 -15  -5 16175.4 1593.06   2
   3 -15  -5 14738.3 1549.47  12
  -3 -15   4 2061.73 622.961   9
   3 -15  -3 14347.1 1496.50   2
   3 -15  -3 10033.7 1153.59   7
  -3 -15   2 215.372 457.779   9
   3 -15  -2 1347.50 640.503   2
   3 -15  -1 16023.5 1554.85  12
  -3 -15   1 11693.2 1326.23   9
   3 -15  -1 16299.0 1556.63   2
  -3 -15   0 659.284 526.857   9
   3 -15   0 914.931 599.568   2
  -3 -15  -1 11458.5 1315.88   9
   3 -15   1 12590.0 1398.36   2
  -3 -15  -2 432.462 441.158   9
   3 -15   2 165.223 560.611   2
  -3 -15  -3 13032.7 1437.65   9
  -3 -15  -3 11214.9 1350.28   5
   3 -15   3 8701.95 1208.35   2
   3 -15   4 38.6160 486.192   2
  -3 -15  -4-262.986 415.293   5
   3 -15   5 7797.61 1132.05   2
   3 -15   6 907.520 549.198   2
   3 -14 -11 7980.11 1065.03   5
   3 -14 -10 1624.68 574.314   9
  -3 -14  10 2564.08 701.509   4
   3 -14  -9 13177.2 1401.67   9
   3 -14  -9 12311.9 1427.41   7
   3 -14  -9 12856.9 1330.76   5
  -3 -14   9 10891.6 1273.37   4
   3 -14  -8 1286.78 632.318   2
   3 -14  -8 742.114 483.157   9
   3 -14  -8 1283.00 533.205   5
   3 -14  -8 1209.37 636.302  12
   3 -14  -7 13002.9 1407.43   9
  -3 -14   7 12739.1 1172.57   9
   3 -14  -7 12093.4 1355.44   7
   3 -14  -7 12951.6 1297.72   5
   3 -14  -7 13417.5 1434.67   2
   3 -14  -7 15068.1 1504.43  12
   3 -14  -6 1536.42 654.570   2
  -3 -14   6 2567.40 607.612   9
  -3 -14   6 1610.08 545.042   4
   3 -14  -6 1901.01 586.005   7
   3 -14  -6 1342.35 552.502   5
   3 -14  -6 1824.94 685.169  12
  -3 -14   5 11300.9 1125.53   4
   3 -14  -5 10861.7 1230.13   7
   3 -14  -5 11166.7 1315.29   2
   3 -14  -4 4097.24 848.565   2
   3 -14  -4 3463.85 785.929  12
  -3 -14   3 1808.63 576.777   9
   3 -14  -3 2560.90 632.080   7
   3 -14  -3 2337.13 699.413  12
   3 -14  -2 28.2243 395.962  12
   3 -14  -2 557.561 482.581   2
  -3 -14   2-67.8204 389.155   9
  -3 -14   2 118.969 310.883   4
   3 -14  -1 17292.1 1533.11   2
   3 -14   0 1375.86 595.440   2
   3 -14   0 538.786 524.698  12
  -3 -14  -1 9726.86 1192.58   9
   3 -14   1 12798.7 1308.26   2
   3 -14   2 312.834 504.364   2
   3 -14   3 2886.56 604.226   4
  -3 -14  -3 4206.31 846.037   9
   3 -14   3 2189.22 743.190   2
  -3 -14  -3 4229.32 896.996   5
  -3 -14  -4 2099.58 682.188   9
  -3 -14  -4 1465.13 593.939   5
   3 -14   5 5757.22 963.882   2
  -3 -14  -6 988.193 571.740   9
   3 -14   6 161.821 492.235   2
  -3 -14  -6 367.802 433.192   5
   3 -14   7 4194.39 824.893   4
   3 -14   7 5530.43 949.271   2
   3 -14   8 198.766 494.199   4
   3 -13 -12 4309.72 859.489   9
   3 -13 -12 4178.71 845.302   5
   3 -13 -11 1767.29 649.197   2
   3 -13 -11 1744.47 612.564   9
  -3 -13  11 2706.06 799.372   4
   3 -13 -11 2671.18 678.752   5
  -3 -13  10 5254.57 941.371   4
   3 -13 -10 6516.68 1054.27   7
   3 -13 -10 7820.77 1127.95   2
   3 -13 -10 6749.90 972.414   5
   3 -13 -10 6536.22 1081.41  12
   3 -13  -9 2768.51 737.260   2
   3 -13  -9 1744.34 573.223   9
  -3 -13   9 1833.66 632.649   4
   3 -13  -9 1087.19 568.702   7
   3 -13  -9 2762.34 779.077  12
   3 -13  -8 4394.93 858.968   9
   3 -13  -8 7136.03 1072.24   7
   3 -13  -8 6571.15 1033.66  12
   3 -13  -7 3205.65 767.812   2
   3 -13  -7 2893.50 682.627   5
   3 -13  -6 9466.73 1127.03   7
   3 -13  -6 12996.6 1330.90  12
   3 -13  -6 12249.1 1304.96   2
  -3 -13   6 9992.65 1093.70   4
  -3 -13   5 8894.07 984.353   4
   3 -13  -5 10262.2 1168.87   7
   3 -13  -5 9523.94 1147.06  12
   3 -13  -5 10622.6 1215.69   2
  -3 -13   4 18386.8 1332.92   4
  -3 -13   4 20037.6 1469.70   9
   3 -13  -4 20180.5 1598.29   2
   3 -13  -4 19476.8 1588.69  12
  -3 -13   3 1405.25 448.788   4
   3 -13  -3 2151.58 587.572   7
  -3 -13   2 6007.41 739.103   4
   3 -13  -2 6379.01 959.286  12
   3 -13  -2 6691.75 948.238   2
  -3 -13   2 7378.73 958.719   9
   3 -13  -2 4800.42 761.661   7
   3 -13  -1 9234.53 1096.59   2
  -3 -13   0 16915.8 1440.57   9
   3 -13   0 14753.6 983.793   4
  -3 -13   0 15900.3 1043.73   4
   3 -13   0 16529.7 1454.55  12
  -3 -13  -1 10123.2 1159.53   9
   3 -13   1 8502.28 817.528   4
   3 -13   1 10156.6 1129.43   2
  -3 -13  -2 20404.8 1623.89   9
   3 -13   2 19840.5 1285.19   4
   3 -13   2 21431.8 1566.99   2
   3 -13   3 6526.09 821.854   4
   3 -13   3 7392.72 1014.67   2
   3 -13   4 9625.11 1101.81   2
  -3 -13  -4 8873.48 1124.44   9
  -3 -13  -4 10219.4 900.270  12
   3 -13   4 8648.78 985.529   4
   3 -13   5 2416.39 698.818   2
   3 -13   5 2963.08 634.590   4
  -3 -13  -5 4163.67 829.482   2
  -3 -13  -5 4541.78 897.679   5
  -3 -13  -6 26624.7 1798.79   2
   3 -13   6 26027.0 1664.92   2
  -3 -13  -6 24909.1 1881.29   9
  -3 -13  -6 26250.1 1939.82   5
   3 -13   6 19568.8 1550.87   4
  -3 -13  -7 9360.43 1122.89   2
  -3 -13  -7 11554.1 1355.71   9
   3 -13   7 9349.17 1038.58   2
   3 -13   7 8012.28 1080.68   4
  -3 -13  -8 14130.1 1341.70   2
  -3 -13  -8 12367.6 1408.78   9
  -3 -13  -8 13142.4 1465.56   5
  -3 -13  -9 5030.82 861.793   2
   3 -12 -14 17843.2 1591.28   5
   3 -12 -12 11228.0 1246.30   5
   3 -12 -12 12377.2 1369.20   2
   3 -12 -11 415.065 406.840   2
  -3 -12  11 981.461 563.486   4
   3 -12 -11 328.692 454.686   7
   3 -12 -11 708.823 409.743   5
   3 -12 -10 12610.8 1287.71   9
   3 -12 -10 14523.8 1461.68  12
  -3 -12  10 14825.4 1455.54   4
   3 -12  -9 186.900 377.155   2
  -3 -12   9 243.280 393.830   4
   3 -12  -9-102.674 411.051   7
   3 -12  -9-292.379 369.741   5
   3 -12  -8 15483.1 1441.64  12
   3 -12  -8 14757.0 1286.63   5
   3 -12  -8 15896.0 1444.37   2
  -3 -12   8 13845.3 1317.23   4
  -3 -12   7 370.900 391.373   4
   3 -12  -7 427.403 397.064   5
   3 -12  -7 825.487 521.467  12
   3 -12  -6 15652.0 1392.98   7
  -3 -12   6 14157.8 1240.17   4
   3 -12  -6 17408.7 1452.72   2
   3 -12  -6 17294.5 1450.87  12
  -3 -12   5 1066.84 436.831   9
  -3 -12   5 743.209 424.496   4
   3 -12  -5 2308.35 606.740   2
   3 -12  -5 1427.54 544.759  12
  -3 -12   4 10861.7 1030.17   4
  -3 -12   4 13535.4 1155.55   9
   3 -12  -4 12655.0 1187.82   7
   3 -12  -3-581.972 463.903   2
  -3 -12   3-216.246 374.793   9
   3 -12  -3 705.340 474.927  12
  -3 -12   2 10450.9 924.115   4
   3 -12  -2 11700.5 1106.61   7
   3 -12  -2 12460.8 1219.79  12
   3 -12  -2 11141.8 1139.76   2
   3 -12  -1 756.090 281.415   4
   3 -12  -1 221.903 460.156   2
  -3 -12   1 476.126 412.192   9
  -3 -12   0 15317.8 1012.87   4
  -3 -12   0 16837.4 1370.13   9
   3 -12   0 18542.3 1426.50   2
   3 -12   0 15103.9 982.914   4
   3 -12   1 721.962 337.208   4
   3 -12   1 287.523 422.628   2
  -3 -12  -1 974.260 464.553   9
   3 -12   1 921.680 475.690  12
  -3 -12  -2 11098.5 779.128   4
   3 -12   2 11061.9 1105.87   2
   3 -12   3-54.4544 293.291   4
  -3 -12  -3 182.978 361.653   9
   3 -12   3 784.128 491.810   2
   3 -12   4 3357.50 719.838   2
  -3 -12  -4 4226.67 794.500   9
  -3 -12  -4 3800.00 742.057   2
   3 -12   5-95.1108 300.340   4
  -3 -12  -5 1026.51 499.033   9
   3 -12   5 435.182 491.432   2
  -3 -12  -5 591.634 321.007  12
  -3 -12  -6 9718.09 1090.70   2
   3 -12   7 1046.95 537.561   4
   3 -12   7 1032.77 503.772   2
  -3 -12  -7 394.770 444.803   2
  -3 -12  -7 973.345 541.833   5
   3 -12   8 9606.58 975.790   2
   3 -12   8 7614.68 1090.04   4
  -3 -12  -8 9288.89 1211.38   5
  -3 -12  -8 9166.75 1052.37   2
   3 -12   9 283.783 460.019   4
  -3 -12  -9 831.195 554.814   5
   3 -12  10 1417.06 664.083   4
  -3 -12 -10 2110.30 659.946   9
  -3 -12 -10 967.056 535.085   5
   3 -11 -15 218.487 420.194   5
   3 -11 -14 3354.35 791.903   2
   3 -11 -14 3435.48 760.449   5
   3 -11 -13 4641.44 915.232   2
   3 -11 -13 2521.12 629.878   9
   3 -11 -13 3242.66 800.432   7
  -3 -11  13 4037.77 901.054   4
   3 -11 -13 3117.14 739.755   5
   3 -11 -12 7995.52 1004.36   9
   3 -11 -12 9280.15 1229.75   7
  -3 -11  12 10298.8 1294.44   4
   3 -11 -12 7758.10 1006.96   5
   3 -11 -11 3254.65 794.831   7
   3 -11 -11 4130.35 756.883   5
   3 -11 -10 5795.26 874.927   9
   3 -11 -10 6464.86 1016.18   7
   3 -11 -10 5870.98 845.925   5
   3 -11  -9 3547.53 711.722   9
  -3 -11   9 3611.94 518.144   9
  -3 -11   9 4413.54 801.750   4
   3 -11  -9 2777.02 707.379   7
   3 -11  -9 3536.42 677.556   5
   3 -11  -8 3240.32 714.796  12
  -3 -11   8 3779.43 556.686   9
   3 -11  -8 2444.03 667.487   7
  -3 -11   8 1852.44 583.040   4
   3 -11  -7 11435.1 1188.13   7
   3 -11  -7 11870.4 1090.45   5
   3 -11  -7 11768.0 1178.38   2
  -3 -11   7 12057.7 1167.80   4
   3 -11  -7 11929.3 1220.31  12
   3 -11  -6 13691.3 1249.05  12
  -3 -11   6 14441.8 1074.07   9
   3 -11  -6 11210.7 1144.20   7
  -3 -11   5 1791.65 499.479   4
   3 -11  -5 2229.73 592.988   7
   3 -11  -5 2850.46 644.828  12
  -3 -11   4 15150.6 1151.41   4
   3 -11  -4 15384.9 1293.72  12
   3 -11  -4 14357.8 1230.69   7
   3 -11  -4 16495.6 1324.67   2
   3 -11  -4 11847.5 520.715   4
  -3 -11   3 17631.0 1191.65   4
   3 -11  -3 15268.4 731.593   4
   3 -11  -3 16645.6 1277.75   7
   3 -11  -3 18910.3 1388.88   2
  -3 -11   2 5235.66 745.925   9
   3 -11  -2 4532.89 707.018   7
   3 -11  -2 4718.30 764.517   2
  -3 -11   1 8203.13 779.214   4
   3 -11   0 28327.2 1649.31   2
   3 -11   0 30850.7 1774.46  12
   3 -11   0 27593.1 1294.50   4
  -3 -11   0 28037.7 1319.72   4
   3 -11   1 7205.64 913.127  12
  -3 -11  -1 7569.57 681.243   4
   3 -11   1 5853.19 678.617   4
   3 -11   1 8303.01 939.022   2
  -3 -11  -2 31651.8 1809.36   9
  -3 -11  -2 29216.0 1274.13  12
   3 -11   2 30902.4 1681.90   2
   3 -11   3 3834.24 646.667   4
  -3 -11  -3 4443.27 759.736   9
  -3 -11  -3 5025.58 763.815   2
  -3 -11  -3 3758.89 512.627  12
  -3 -11  -4 11016.2 1082.46   2
  -3 -11  -4 9967.54 796.679  12
  -3 -11  -4 10545.8 1111.34   9
  -3 -11  -4 11410.4 1174.44   5
   3 -11   4 8765.41 942.794   4
  -3 -11  -5 12902.7 1166.38   2
   3 -11   5 13772.8 1131.73   2
  -3 -11  -5 13763.5 1295.41   5
   3 -11   6 23015.7 1400.71   2
  -3 -11  -6 21037.2 1456.77   2
  -3 -11  -6 20587.4 1175.82  12
  -3 -11  -6 22269.2 1641.35   9
  -3 -11  -6 21234.8 1610.72   5
  -3 -11  -7 2792.18 695.277   9
   3 -11   7 3333.77 637.663   2
  -3 -11  -7 3597.76 689.654   2
  -3 -11  -7 2329.00 652.230   5
  -3 -11  -8 36694.4 1892.47   2
  -3 -11  -8 40265.7 2278.13   9
   3 -11   8 41100.7 1762.51   2
  -3 -11  -8 39800.4 1727.83  12
   3 -11   8 34962.6 2115.90   4
  -3 -11  -9 14124.4 1201.75   2
   3 -11   9 13694.7 1396.21   4
  -3 -11  -9 15307.7 1466.18   9
  -3 -11  -9 14182.0 1437.18   5
  -3 -11 -10 15793.3 1258.52   2
  -3 -11 -10 15735.1 1497.17   9
  -3 -11 -10 16077.0 1572.79   5
   3 -11  11 2534.90 783.850   4
  -3 -11 -11 3041.80 816.345   5
   3 -10 -16 2010.39 635.229   2
   3 -10 -15 12682.2 1316.80   5
  -3 -10  14 3605.60 838.433   4
   3 -10 -14 2048.80 672.173   7
   3 -10 -13 17648.6 1389.09   9
   3 -10 -13 21082.2 1574.64   5
   3 -10 -12 7278.63 908.727   9
   3 -10 -12 6115.87 1001.85   7
   3 -10 -12 7070.75 927.450   5
  -3 -10  12 9481.98 1199.98   4
   3 -10 -11 16719.3 1347.80   9
   3 -10 -11 19443.6 1659.52   7
   3 -10 -11 19141.6 1419.30   5
  -3 -10  11 17280.4 1535.18   4
  -3 -10  10 3806.23 773.259   4
   3 -10 -10 3744.32 707.534   9
   3 -10 -10 4505.55 848.140   7
  -3 -10   9 12769.4 1252.93   4
   3 -10  -9 11972.5 1084.47   5
  -3 -10   8 2830.59 455.445   9
  -3 -10   8 2457.20 598.178   4
   3 -10  -8 2190.65 620.381   7
   3 -10  -8 2444.70 544.990   5
   3 -10  -7 26574.3 1718.15   7
   3 -10  -7 26610.2 1504.43   5
  -3 -10   7 26245.6 1628.15   4
   3 -10  -6 7507.82 928.100   7
  -3 -10   6 7370.95 876.776   4
  -3 -10   5 17891.4 1144.88   9
   3 -10  -5 20793.8 1438.17   7
   3 -10  -5 20675.9 1431.08  12
  -3 -10   5 18791.2 1286.16   4
  -3 -10   4 2884.48 539.074   9
   3 -10  -4 3551.33 662.890  12
   3 -10  -4 3023.59 597.844   7
   3 -10  -3 18469.3 817.585   4
  -3 -10   3 19413.6 1243.82   9
   3 -10  -3 20864.0 1366.18   7
   3 -10  -3 19344.5 1359.90  12
   3 -10  -2 5095.58 702.585   7
   3 -10  -2 4271.87 696.244  12
  -3 -10   1 29163.9 1574.61   9
  -3 -10   1 25815.2 1288.86   4
   3 -10  -1 28874.9 1581.62   2
   3 -10   0 4688.67 527.431   4
  -3 -10   0 4588.82 697.878   9
   3 -10   0 4606.39 704.712  12
  -3 -10   0 4617.65 562.413   4
  -3 -10  -1 16558.1 1252.66   9
  -3 -10  -1 15861.6 949.203   4
   3 -10   1 14929.1 867.022   8
   3 -10   1 14492.1 987.344   4
   3 -10   1 16743.5 1255.72  12
   3 -10   2 8473.61 622.038   1
   3 -10   2 7176.85 822.144   2
  -3 -10  -3 5232.60 741.040   2
   3 -10   3 4326.75 661.543   4
  -3 -10  -3 3929.75 501.522   3
  -3 -10  -3 4774.50 755.281   9
   3 -10   3 4253.81 656.781   2
  -3 -10  -3 2968.18 632.073   5
  -3 -10  -3 4159.87 497.227  12
   3 -10   4-89.2416 326.176   4
   3 -10   4 1031.74 426.681   2
  -3 -10  -4 971.458 432.785   2
  -3 -10  -5 15798.5 1202.19   2
  -3 -10  -5 16351.6 965.572  12
  -3 -10  -5 17763.4 1387.55   9
   3 -10   5 17951.7 1195.91   2
  -3 -10  -5 17130.2 1363.02   5
   3 -10   6 4181.36 720.863   4
  -3 -10  -6 4409.27 742.753   9
  -3 -10  -6 4043.57 747.167   5
  -3 -10  -6 3495.86 508.901  12
   3 -10   7 3780.94 742.401   4
  -3 -10  -7 3723.46 738.048   5
   3 -10   8 2550.32 510.414   2
  -3 -10  -8 1433.57 483.613   2
  -3 -10  -8 2224.32 617.655   5
   3 -10   9 4142.51 830.446   4
  -3 -10  -9 5158.12 741.082   2
  -3 -10 -10 690.830 435.179   9
  -3 -10 -10 1182.27 446.659   2
  -3 -10 -10 621.561 531.185   5
   3 -10  11 3241.83 826.611   4
   3 -10  12 1675.66 679.985   4
  -3 -10 -12 1439.29 637.938   5
  -3  -9  15 7948.86 1187.11   4
   3  -9 -15 5473.04 1005.84   7
   3  -9 -15 5734.12 945.530   5
  -3  -9  14 214.477 415.941   4
   3  -9 -14-409.036 485.411   7
   3  -9 -13 11254.0 1056.76   9
   3  -9 -13 11434.9 1311.51   7
   3  -9 -13 11056.9 1130.51   5
  -3  -9  13 11608.5 1332.95   4
   3  -9 -12 631.303 379.902   9
  -3  -9  12 587.880 430.820   4
   3  -9 -12-376.110 443.009   7
   3  -9 -12-122.570 335.497   5
   3  -9 -11 11315.4 1061.91   5
  -3  -9  11 11449.9 1236.44   4
  -3  -9  10 1766.59 575.317   4
   3  -9 -10 98.8254 349.537   9
   3  -9  -9 10914.8 1141.55   7
   3  -9  -9 10793.8 984.258   5
  -3  -9   9 11806.0 1171.28   4
  -3  -9   8 1735.39 357.009   9
  -3  -9   8 1932.42 543.952   4
   3  -9  -8 2105.79 582.487   7
   3  -9  -8 887.300 366.868   5
  -3  -9   7 35015.1 1382.28   9
   3  -9  -7 37644.4 1953.15   7
   3  -9  -6 936.863 445.128  12
   3  -9  -6 278.904 77.4183   4
  -3  -9   6 1005.88 319.625   9
  -3  -9   6 1053.80 442.671   4
   3  -9  -5 34225.1 1744.92  12
   3  -9  -5 36683.3 1816.93   7
  -3  -9   5 32794.5 1632.12   4
  -3  -9   4 819.549 343.353   9
   3  -9  -4 896.134 402.286   7
   3  -9  -4 1184.06 427.282  12
  -3  -9   3 24468.5 1313.15   4
   3  -9  -3 23796.1 927.578   4
   3  -9  -3 24820.5 1445.47  12
  -3  -9   3 26322.3 1345.40   9
   3  -9  -3 24579.9 1423.32   7
  -3  -9   2 1233.69 365.826   4
   3  -9  -2 1461.15 301.724   4
   3  -9  -2 1358.94 408.425   7
   3  -9  -2 1142.46 425.324  12
   3  -9  -1 34572.2 1359.73   1
  -3  -9   1 35289.6 1625.14   9
   3  -9  -1 33905.3 1588.18   7
   3  -9  -1 35171.3 1643.13   2
   3  -9  -1 31123.1 1229.69   4
   3  -9  -1 33857.4 1666.28  12
   3  -9  -1 35063.5 1247.70   4
  -3  -9   0 2999.43 463.494   4
   3  -9   0 2810.93 430.405   1
  -3  -9   0 3913.69 629.172   9
   3  -9   0 3376.82 596.577  12
  -3  -9  -1 43299.9 1508.24   4
  -3  -9  -1 42658.1 1862.32   9
   3  -9   1 46950.4 1384.07   1
   3  -9   1 45748.1 1825.45   2
   3  -9   1 40004.7 1564.74   4
   3  -9   1 45753.1 1931.42  12
  -3  -9  -2 4285.22 504.926   4
  -3  -9  -2 3572.66 502.175   3
  -3  -9  -2 4334.13 662.807   9
  -3  -9  -2 3373.20 408.990  12
   3  -9   2 4137.65 415.206   1
   3  -9   2 3388.89 536.211   4
   3  -9   2 4285.07 614.217   2
  -3  -9  -3 52323.0 2153.83   9
   3  -9   3 56147.7 1974.72   2
  -3  -9  -3 51746.4 1650.75   3
  -3  -9  -3 50158.0 2107.46   5
   3  -9   4 795.188 376.329   4
   3  -9   4 927.044 367.306   2
  -3  -9  -4 312.624 231.821  12
  -3  -9  -4 1813.33 495.407   2
  -3  -9  -4 856.536 403.343   9
   3  -9   5 35986.0 1542.32   2
  -3  -9  -5 34469.2 1628.85   2
  -3  -9  -5 34739.1 1838.84   9
  -3  -9  -5 33677.5 1314.84   3
  -3  -9  -5 32387.5 1773.34   5
   3  -9   6 263.595 366.424   4
  -3  -9  -6-77.0233 214.919  12
   3  -9   6 480.487 341.266   2
  -3  -9  -7 25482.5 1407.43   2
  -3  -9  -7 26556.4 1679.15   9
   3  -9   7 25992.2 1259.00   2
   3  -9   8 1962.02 418.937   2
  -3  -9  -8 1659.24 467.745   2
  -3  -9  -8 1487.93 527.233   9
  -3  -9  -9 39599.9 2132.95   9
  -3  -9  -9 41044.3 2220.49   5
   3  -9   9 41108.9 2275.25   4
   3  -9  10 1955.86 662.822   4
  -3  -9 -10 2395.73 517.491   2
  -3  -9 -10 1408.27 566.665   5
  -3  -9 -13 20657.6 1792.74   5
   3  -9  13 17210.8 1726.89   4
   3  -8 -16 6612.69 1093.01   7
  -3  -8  15 19714.6 1799.12   4
   3  -8 -15 20729.4 1573.61   5
   3  -8 -14 11104.9 1138.86   5
   3  -8 -13 15580.2 1164.55   9
   3  -8 -13 15922.0 1501.69   7
  -3  -8  12 5941.91 947.385   4
   3  -8 -12 5108.38 867.141   7
   3  -8 -12 6025.91 793.432   5
   3  -8 -11 16885.2 1208.42   9
   3  -8 -11 18718.0 1520.64   7
   3  -8 -11 18941.7 1299.42   5
  -3  -8  11 19870.6 1559.53   4
  -3  -8  10 4672.40 783.040   4
   3  -8 -10 4359.57 668.231   9
   3  -8  -9 23872.8 1604.56   7
  -3  -8   9 21685.2 1505.89   4
   3  -8  -8 16197.4 431.585   4
   3  -8  -8 15256.5 402.320   3
   3  -8  -7 62151.2 2399.58   7
  -3  -8   7 62904.8 1690.31   9
   3  -8  -7 63297.0 2035.56   5
  -3  -8   7 59460.5 2280.94   4
   3  -8  -6 1355.85 190.214   4
  -3  -8   6 1704.29 343.705   9
  -3  -8   6 1846.93 495.475   4
  -3  -8   5 20245.3 1048.68   9
   3  -8  -5 20475.3 1315.54   7
   3  -8  -5 19684.3 1274.93  12
  -3  -8   5 17899.9 1182.42   4
   3  -8  -4 10492.6 930.684  12
  -3  -8   4 11660.4 837.249   9
   3  -8  -4 11480.8 978.849   7
  -3  -8   4 11619.6 928.278   4
  -3  -8   3 17523.2 1089.33   4
  -3  -8   3 19487.0 1094.75   9
   3  -8  -3 19504.7 1059.60   8
   3  -8  -3 18922.3 1199.23   7
   3  -8  -3 17495.8 797.334   4
  -3  -8   2 8096.00 734.719   4
  -3  -8   2 7793.69 734.271   9
   3  -8  -2 6885.20 741.901   7
   3  -8  -2 7292.94 568.134   4
   3  -8  -2 7546.16 660.999   1
  -3  -8   1 22277.5 1228.36   9
   3  -8  -1 20512.0 1193.57   7
   3  -8  -1 19620.9 967.755   4
   3  -8  -1 21572.6 1266.55  12
  -3  -8   0 1659.94 429.973   9
   3  -8   0 2441.90 357.865   8
  -3  -8   0 2540.88 420.242   4
   3  -8   0 2464.24 383.504   4
   3  -8   0 2417.01 366.479   1
   3  -8   0 2956.49 526.197  12
  -3  -8  -1 13250.4 1010.34   9
  -3  -8  -1 13035.9 825.837   4
  -3  -8  -1 12721.6 864.532   3
   3  -8   1 14077.0 982.977   2
   3  -8   1 13211.7 1010.40  12
  -3  -8  -1 13248.6 665.141  12
   3  -8   2 3104.56 524.075   2
  -3  -8  -3 6128.64 751.354   9
  -3  -8  -3 5166.60 698.412   5
  -3  -8  -3 6945.37 629.597   3
   3  -8   3 6650.36 676.910   2
  -3  -8  -3 5912.91 487.380  12
  -3  -8  -4 9409.18 627.975  12
  -3  -8  -4 10241.1 963.509   5
   3  -8   4 10258.1 811.157   2
   3  -8   5 13499.7 898.830  11
   3  -8   5 12800.3 878.346   2
  -3  -8  -5 12175.5 1068.35   5
  -3  -8  -5 13303.8 845.761   3
  -3  -8  -5 12677.4 953.444   2
   3  -8   6 1096.65 454.587   4
   3  -8   6 563.855 319.854   2
  -3  -8  -6 152.517 335.769   5
   3  -8   7 3534.92 691.104   4
   3  -8   8 2914.60 671.040   4
  -3  -8  -8 3375.31 663.260   9
   3  -8   8 3447.57 458.909   2
  -3  -8  -9 1086.57 374.413   2
   3  -8   9 966.478 502.632   4
   3  -8  10 807.108 524.653   4
  -3  -8 -10 245.087 237.005   3
  -3  -8 -10 112.443 384.803   5
   3  -8  11 2483.73 705.429   4
   3  -8  12 1780.41 640.704   4
   3  -8  13 1688.27 661.902   4
  -3  -8 -13 2344.86 720.693   5
   3  -7 -16 3729.91 839.210   7
  -3  -7  15 1702.40 660.004   4
   3  -7 -14 8588.33 819.899   9
   3  -7 -14 9853.93 1046.94   5
  -3  -7  14 8872.01 1167.60   4
   3  -7 -13 411.796 304.884   9
  -3  -7  13 1094.41 522.870   4
   3  -7 -13 1077.27 529.224   7
   3  -7 -12 4922.24 831.876   7
   3  -7 -12 4780.99 696.967   5
  -3  -7  12 4325.02 791.422   4
  -3  -7  11 7407.88 964.413   4
   3  -7 -11 5822.19 736.080   5
   3  -7 -11 7349.41 966.203   7
   3  -7 -10 8504.87 822.022   9
   3  -7 -10 10264.6 1074.35   7
   3  -7 -10 9361.52 862.585   5
   3  -7 -10 8217.10 472.523   3
   3  -7  -9 7919.06 925.851   7
   3  -7  -9 7647.46 764.503   5
   3  -7  -8 2893.56 283.263   3
  -3  -7   8 3854.85 645.980   4
   3  -7  -8 3813.25 551.257   5
   3  -7  -7 4050.20 488.997  10
  -3  -7   7 4798.94 451.995   9
  -3  -7   7 4740.73 685.644   4
   3  -7  -7 5080.84 710.388   7
   3  -7  -7 3170.31 489.064   5
  -3  -7   6 23118.2 1344.24   4
   3  -7  -5 4918.14 665.085   7
   3  -7  -5 4827.56 390.136   4
  -3  -7   5 5391.02 663.156   4
   3  -7  -4 21561.1 1241.80  12
   3  -7  -4 22788.0 1160.15   1
   3  -7  -4 21710.2 833.228   4
   3  -7  -3 14627.1 717.435   3
   3  -7  -3 14312.2 1014.70   7
  -3  -7   3 14739.3 967.797   4
   3  -7  -3 13688.1 707.163   4
   3  -7  -3 13904.2 876.394   1
   3  -7  -2 29086.5 1063.20   3
  -3  -7   2 30858.5 1308.07   9
   3  -7  -2 30710.3 1070.90   4
   3  -7  -2 32902.9 1245.90   1
   3  -7  -2 31897.0 1450.10   7
   3  -7  -2 33012.9 1332.34   6
   3  -7  -2 29126.6 1385.59  12
   3  -7  -1 16068.6 1041.82  12
   3  -7  -1 15502.3 1001.81   7
  -3  -7   1 16086.4 979.935   3
  -3  -7   0 19253.4 1104.81   9
   3  -7   0 17577.4 899.805   4
  -3  -7   0 18237.9 967.676   4
   3  -7   0 18577.9 1115.41  12
   3  -7   1 14514.7 996.031  12
  -3  -7  -1 14106.8 607.495  12
  -3  -7  -2 39777.1 1356.37   4
  -3  -7  -2 41898.5 1693.83   9
  -3  -7  -2 38875.4 1422.64   3
   3  -7   2 45644.1 1603.54  11
   3  -7   2 43743.9 1545.88   2
   3  -7   2 41282.4 1594.92   4
  -3  -7  -2 39504.4 1036.23  12
  -3  -7  -3 10115.4 694.247   4
  -3  -7  -3 10948.2 915.844   9
  -3  -7  -3 10029.6 872.135   5
  -3  -7  -3 10077.3 747.953   3
   3  -7   3 11242.2 802.506   2
  -3  -7  -3 9935.37 561.526  12
   3  -7   3 11172.2 808.080  11
   3  -7   4 48517.3 1578.41  11
  -3  -7  -4 41624.4 1776.18   9
  -3  -7  -4 39906.7 1441.03   3
   3  -7   4 43404.7 1796.04   4
   3  -7   4 48704.1 1565.67   2
  -3  -7  -5 10544.2 936.648   9
   3  -7   5 10196.8 938.204   4
   3  -7   5 11786.4 773.654   2
   3  -7   5 11290.3 768.875  11
   3  -7   6 53106.2 2160.16   4
  -3  -7  -6 50794.3 2058.22   9
  -3  -7  -6 47824.7 2010.24   5
   3  -7   6 54477.8 1566.46   2
  -3  -7  -7 7384.21 857.896   9
   3  -7   7 7583.17 598.838   2
   3  -7   7 7832.45 920.136   4
  -3  -7  -7 7505.70 870.132   5
  -3  -7  -8 54207.6 2296.35   5
   3  -7   8 58462.2 2472.21   4
  -3  -7  -9 4589.00 759.770   5
  -3  -7 -11 7835.33 749.641   3
   3  -7  11 5757.71 945.286   4
  -3  -7 -11 6433.07 933.448   5
  -3  -7 -12 24130.2 1786.71   5
   3  -7  12 25500.3 1932.80   4
   3  -7  13 6672.44 1083.93   4
  -3  -7 -13 8504.34 1144.96   5
  -3  -7 -14 25352.6 1967.18   5
  -3  -6  18 9582.03 1171.06   8
  -3  -6  17 2553.54 754.006   4
   3  -6 -17 171.786 468.681   7
   3  -6 -16 24550.4 1901.20   7
  -3  -6  16 27347.9 2060.02   4
  -3  -6  15 1158.59 560.088   4
   3  -6 -13 95.5986 228.754   9
   3  -6 -13 577.090 244.990   3
   3  -6 -13 193.120 428.859   7
   3  -6 -13 91.3392 272.420   5
   3  -6 -12 26067.6 1724.17   7
   3  -6 -12 26387.6 1469.77   5
   3  -6 -12 26026.2 1076.61   3
  -3  -6  12 29031.4 1844.93   4
   3  -6 -11 124.251 266.373   9
  -3  -6  11 526.780 387.053   4
   3  -6 -11-134.327 366.772   7
   3  -6 -11 797.613 340.967   5
   3  -6 -10 21793.6 1481.49   7
   3  -6 -10 21223.7 1205.63   5
   3  -6 -10 21129.3 883.186   3
  -3  -6  10 22667.6 1512.65   4
  -3  -6   9 43.1854 299.996   4
   3  -6  -9 200.612 304.216   7
   3  -6  -8 54861.8 2156.81   7
  -3  -6   8 54047.5 2126.35   4
   3  -6  -8 54923.5 1750.60   5
   3  -6  -7 1515.58 323.388  10
  -3  -6   7 2579.15 521.404   4
   3  -6  -7 1797.24 462.264   7
  -3  -6   6 8969.63 571.025   9
   3  -6  -6 9251.96 861.061   7
   3  -6  -6 8944.30 731.089   6
  -3  -6   5 762.737 321.095   4
  -3  -6   5 677.973 226.582   9
   3  -6  -5 1606.15 338.475   6
   3  -6  -5 668.198 254.058   5
   3  -6  -5 975.789 329.809   1
  -3  -6   4 19695.0 912.023   9
   3  -6  -4 18327.0 960.775   6
   3  -6  -4 20013.4 1038.47   1
   3  -6  -4 17773.2 764.400   3
  -3  -6   4 19669.6 1112.73   4
  -3  -6   3 4171.88 469.506   9
   3  -6  -3 4858.05 599.369   7
   3  -6  -3 4498.60 421.862   4
   3  -6  -3 3800.66 533.428  12
   3  -6  -2 48748.6 1330.54   4
  -3  -6   2 51270.0 1566.80   9
  -3  -6   2 50297.2 1638.72   4
  -3  -6   2 50039.6 1444.09   6
   3  -6  -2 50444.0 1442.72   1
   3  -6  -2 48131.0 1362.00   4
   3  -6  -2 51773.0 1714.94  11
   3  -6  -1 2460.73 448.340  12
   3  -6  -1 1441.59 361.104  11
  -3  -6   0 20609.2 1000.93   4
  -3  -6   0 22690.4 1101.78   3
   3  -6   0 23729.7 1167.92  12
   3  -6   0 22913.3 1111.47  11
   3  -6   1 704.842 286.865   4
  -3  -6  -1 353.440 233.164   4
   3  -6   1 974.193 197.337   1
   3  -6   1 889.244 324.701  12
  -3  -6  -1 701.714 154.250  12
   3  -6   2 8226.25 367.121   1
  -3  -6  -2 8443.00 739.346   5
   3  -6   2 9376.81 708.940  11
   3  -6   3 1585.62 348.626   2
  -3  -6  -3 1048.54 300.706   3
  -3  -6  -3 1519.58 385.133   9
  -3  -6  -3 1303.03 371.088   5
   3  -6   3 1430.71 330.745  11
  -3  -6  -4 6137.52 682.818   9
  -3  -6  -4 6923.93 714.931   5
   3  -6   4 8104.54 614.835   2
   3  -6   4 7670.52 604.747  11
   3  -6   5 1105.81 278.247  11
   3  -6   5 940.899 281.607   2
  -3  -6  -5 931.294 360.527   9
  -3  -6  -5 999.572 311.341   3
  -3  -6  -5 557.880 306.834   5
  -3  -6  -6 6383.18 741.046   9
  -3  -6  -6 5519.91 698.401   5
   3  -6   6 6944.87 813.081   4
   3  -6   6 6122.51 509.406  11
   3  -6   7 676.385 396.345   4
   3  -6   7 863.937 256.311   2
  -3  -6  -7 404.214 358.821   5
   3  -6   8 14481.0 1227.34   4
  -3  -6  -8 14168.1 1158.48   5
   3  -6   9 2488.29 634.731   4
  -3  -6  -9 1320.53 486.012   5
   3  -6  10 3157.32 701.232   4
  -3  -6 -10 4531.79 750.416   5
   3  -6  12 3641.65 821.096   4
  -3  -6 -12 3082.94 696.919   5
  -3  -6 -13 682.098 372.686   3
   3  -6  13 506.130 488.098   4
  -3  -6 -13-450.413 455.096   5
  -3  -5  18 7599.11 1065.74   8
   3  -5 -18 6529.71 1077.83   7
  -3  -5  17 1926.27 721.051   4
  -3  -5  16 5884.10 988.564   4
   3  -5 -16 4725.86 886.337   7
  -3  -5  15 1455.35 583.154   4
   3  -5 -15 640.383 542.616   7
   3  -5 -14 6794.49 987.299   7
   3  -5 -13 516.545 447.780   7
   3  -5 -12 11523.1 807.661   9
   3  -5 -12 12018.9 1153.43   7
   3  -5 -12 12386.0 829.746   3
  -3  -5  12 10852.1 1120.32   4
  -3  -5  11 10204.2 1051.61   4
  -3  -5  10 20590.1 1398.06   4
   3  -5 -10 17554.8 995.852   9
   3  -5 -10 19010.0 1336.23   7
   3  -5 -10 18350.7 1073.41   5
   3  -5  -9 4852.30 694.272   7
   3  -5  -9 5958.27 516.224   3
   3  -5  -9 6360.59 530.963   4
  -3  -5   9 4796.54 684.645   4
   3  -5  -8 14419.6 1082.75   7
   3  -5  -8 13955.2 844.358   5
   3  -5  -8 14908.5 756.026   4
  -3  -5   8 15549.4 1126.86   4
   3  -5  -7 6177.99 707.881   7
   3  -5  -7 6970.87 628.558   6
   3  -5  -7 6374.69 560.713   5
  -3  -5   7 6139.72 710.477   4
   3  -5  -6 20620.3 1001.39   6
  -3  -5   6 18667.1 1140.18   4
  -3  -5   5 2622.45 469.547   4
   3  -5  -5 2040.08 300.913   3
   3  -5  -5 2137.30 300.155   4
   3  -5  -4 16744.7 764.199   5
   3  -5  -4 16987.6 766.021   3
   3  -5  -3 4584.92 423.712   4
   3  -5  -3 4154.68 478.915  10
   3  -5  -3 5004.78 557.872  12
   3  -5  -3 4704.00 453.695   6
  -3  -5   3 5040.55 584.071   3
  -3  -5   3 4855.90 549.083   4
   3  -5  -2 41299.3 1414.13  10
  -3  -5   2 39513.6 1283.38   9
  -3  -5   2 40775.6 1176.19   6
   3  -5  -2 38952.7 1207.74   6
   3  -5  -2 41440.3 1226.72   1
   3  -5  -2 39745.1 1416.95  12
  -3  -5   2 40623.9 1431.97   4
   3  -5  -2 38241.2 1201.73   3
  -3  -5   1 14829.2 861.597   4
  -3  -5   1 16798.2 881.963   9
   3  -5  -1 13038.9 823.131  12
  -3  -5   1 14631.4 731.830   6
   3  -5  -1 13980.3 673.454   1
   3  -5  -1 14621.3 791.616   4
   3  -5  -1 15831.0 891.009  11
   3  -5  -1 14427.1 784.040   3
  -3  -5   0 27359.2 1155.23   9
   3  -5   0 25711.9 1090.36   4
   3  -5   0 27125.3 1162.29  12
   3  -5   0 26388.5 1105.92  11
   3  -5   1 18021.0 949.944   3
   3  -5   1 18681.6 975.162  12
  -3  -5  -1 19911.7 952.225   4
   3  -5   1 17522.2 944.274   4
   3  -5   1 19945.5 617.245   1
   3  -5   1 20466.6 959.343  11
   3  -5   2 62794.8 793.643   1
  -3  -5  -2 61192.2 1648.50   6
  -3  -5  -2 60269.8 1763.96   5
  -3  -5  -2 63819.4 1847.48   1
  -3  -5  -2 62979.5 1752.92   3
   3  -5   2 60461.9 1812.99   4
   3  -5   2 64617.3 1859.11   3
  -3  -5  -3 18153.4 954.789   6
  -3  -5  -3 18489.8 1026.70   1
   3  -5   3 19432.7 1099.51   4
   3  -5   3 21134.4 921.243  11
  -3  -5  -4 48240.6 1675.49   1
  -3  -5  -4 44531.3 1627.64   5
  -3  -5  -4 49263.0 1578.91   3
   3  -5   4 48178.1 1791.65   4
   3  -5   4 52243.7 1375.51  11
  -3  -5  -5 8370.50 768.348   5
  -3  -5  -5 9631.34 737.090   3
   3  -5   5 9322.14 565.126   2
  -3  -5  -6 35259.4 1580.22   5
   3  -5   6 39745.4 1078.98  11
  -3  -5  -6 36468.7 1423.29   3
   3  -5   6 38208.6 1757.03   4
  -3  -5  -7 9293.00 878.195   5
   3  -5   7 9882.89 958.796   4
  -3  -5  -8 42514.5 1877.03   5
   3  -5   9 14357.5 1242.24   4
  -3  -5  -9 17177.6 1273.75   5
  -3  -5 -10 56530.7 2341.72   5
   3  -5  10 59166.2 2568.91   4
  -3  -5 -11 9933.02 1068.75   5
   3  -5  12 26859.0 1893.41   4
  -3  -5 -12 24964.6 1418.88   3
  -3  -5 -12 26784.9 1774.67   5
  -3  -5 -13 11141.8 1019.08   3
  -3  -5 -14 34969.0 1821.48   3
   3  -5  14 36507.8 2357.39   4
  -3  -4  18 12783.5 1343.04   8
   3  -4 -18 10357.3 1290.02   7
  -3  -4  17 19856.5 1572.21   8
   3  -4 -17 17414.3 1591.78   7
  -3  -4  17 18229.4 1674.90   4
   3  -4 -16 6972.29 1016.62   7
  -3  -4  16 7654.95 1096.15   4
  -3  -4  15 18864.2 1587.17   4
   3  -4 -14 6745.76 952.138   7
   3  -4 -14 7342.41 764.455   3
   3  -4 -13 32014.5 1164.72   9
   3  -4 -13 32914.2 1476.11   3
   3  -4 -12 5905.33 532.579   9
   3  -4 -12 7099.29 889.191   7
  -3  -4  12 6114.78 849.135   4
   3  -4 -11 33621.4 1225.49   9
  -3  -4  11 37967.1 1905.61   4
   3  -4 -11 35599.7 1812.19   7
   3  -4 -11 36729.0 1423.47   3
  -3  -4  11 37615.7 1529.38  10
   3  -4 -11 37298.3 1438.29   4
  -3  -4  10 4264.96 565.069  10
   3  -4 -10 5172.06 717.159   7
  -3  -4  10 5111.47 719.903   4
   3  -4  -9 27121.5 1466.38   7
   3  -4  -9 23494.3 1089.99   5
   3  -4  -8 8554.19 822.794   7
   3  -4  -7 58883.7 1980.37   7
   3  -4  -7 58880.3 1511.57   3
   3  -4  -6 12134.6 717.000   6
   3  -4  -6 12746.9 687.863   4
  -3  -4   5 58573.8 1901.31   3
   3  -4  -4 12719.4 688.129   3
   3  -4  -3 34080.1 1086.23   4
  -3  -4   2 1431.32 341.207   3
  -3  -4   2 1615.17 358.167   4
   3  -4  -2 1254.22 266.242   4
   3  -4  -2 1043.83 232.041   6
  -3  -4   2 1117.70 272.454   9
   3  -4  -2 1332.49 311.217  12
   3  -4  -2 2033.04 366.786  11
  -3  -4   1 47679.8 1370.14   9
  -3  -4   1 47751.1 1467.82   4
   3  -4  -1 51015.5 1382.57   4
   3  -4  -1 47214.3 1380.87   4
   3  -4  -1 46622.8 1398.63  12
   3  -4  -1 46728.7 1369.27   3
  -3  -4   0 7768.88 613.544   4
   3  -4   0 9029.61 616.060   4
   3  -4   0 9517.04 667.823   3
  -3  -4   0 8664.26 634.183   9
  -3  -4   0 9963.35 721.378   3
   3  -4   0 8697.66 641.777   4
   3  -4   0 8521.54 624.733  12
   3  -4   0 9853.03 652.908  11
   3  -4   1 24445.8 1024.86  12
   3  -4   1 24740.7 973.704  11
   3  -4   2 13923.9 854.123  10
  -3  -4  -2 12058.7 730.285   4
  -3  -4  -2 12609.0 704.383   6
  -3  -4  -2 11645.0 739.174   5
  -3  -4  -2 12341.3 791.339   3
   3  -4   2 13632.7 864.523   4
  -3  -4  -2 10737.2 335.841  12
   3  -4   3 6606.39 610.845  10
  -3  -4  -3 5947.95 567.444   1
   3  -4   3 6448.21 639.414   3
  -3  -4  -3 5745.01 564.918   3
   3  -4   3 5201.31 591.451   4
  -3  -4  -3 5289.00 503.682   4
   3  -4   3 6600.31 483.905  11
  -3  -4  -4 49735.3 1589.26   1
  -3  -4  -4 46335.4 1566.60   5
   3  -4   4 51803.0 1805.11   4
  -3  -4  -5 12133.3 827.243   8
  -3  -4  -5 12399.8 840.560   1
   3  -4   5 12389.5 845.819  10
  -3  -4  -5 11783.9 851.438   5
  -3  -4  -5 11614.8 808.195   3
   3  -4   5 13619.4 993.584   4
   3  -4   5 12901.3 585.264  11
   3  -4   6 4738.75 340.711  11
   3  -4   6 5210.70 671.601   4
   3  -4   8 2236.53 528.725   4
  -3  -4  -8 3331.12 424.424  10
  -3  -4  -8 2631.71 518.897   5
   3  -4   9-29.4966 314.480   4
   3  -4  10 5481.56 812.342   4
  -3  -4 -11 4067.98 613.013   3
  -3  -4 -11 4863.39 759.582   5
   3  -4  12 3293.61 740.555   4
  -3  -4 -13 1103.33 419.653   3
   3  -4  13 194.869 401.802   4
  -3  -4 -14 1134.74 430.324   3
   3  -4  14 1382.73 624.005   4
  -3  -4 -15 267.634 345.927   3
   3  -4  15 2043.21 672.762   4
  -3  -3  19 5762.37 948.374   8
  -3  -3  18 602.303 562.929   4
   3  -3 -18 442.182 444.849   7
  -3  -3  17 5816.19 964.306   4
   3  -3 -17 3328.26 769.072   7
  -3  -3  16 364.764 428.293   4
   3  -3 -16 697.766 406.789   3
  -3  -3  16 96.8723 371.614   8
   3  -3 -15 14418.9 1338.06   7
   3  -3 -15 16724.4 1221.70   3
  -3  -3  15 15700.8 1413.15   4
  -3  -3  14 1169.84 542.763   4
   3  -3 -14-461.492 334.340   3
   3  -3 -14 524.572 399.717   7
   3  -3 -13 19907.3 1214.18   3
  -3  -3  13 22338.1 1548.03   4
   3  -3 -12 202.039 298.803   3
  -3  -3  12 226.899 319.105   4
   3  -3 -12-8.06231 315.967   7
   3  -3 -11 22522.5 886.470   9
   3  -3 -11 23788.5 1207.82   4
   3  -3 -11 25850.7 1494.80   7
  -3  -3  11 25238.4 1521.12   4
  -3  -3  10 1908.14 509.371   4
   3  -3 -10 2574.16 432.481   4
   3  -3 -10 1672.64 383.108   3
   3  -3 -10 2180.10 501.440   7
  -3  -3   9 26832.1 1432.82   4
   3  -3  -9 27458.0 1415.93   7
   3  -3  -8 5256.16 633.470   7
   3  -3  -8 4758.14 461.046   5
   3  -3  -8 5524.56 538.667   3
  -3  -3   8 6057.63 688.734   4
   3  -3  -7 96122.9 2412.10   7
   3  -3  -7 93507.6 1765.02   5
   3  -3  -7 95357.3 2020.10   3
   3  -3  -6 445.725 227.607   3
  -3  -3   6 80.2218 251.663   3
   3  -3  -6 679.641 297.624   7
   3  -3  -5 116720. 2057.14   4
   3  -3  -5 114691. 2080.69   3
  -3  -3   4 1383.19 226.474   7
   3  -3  -4 1473.67 297.868   3
   3  -3  -3 129187. 2213.66  10
  -3  -3   3 134148. 2597.35   3
   3  -3  -2 9818.30 644.149  10
  -3  -3   2 8983.33 696.816   3
   3  -3  -1 73802.8 1730.64  10
   3  -3  -1 70585.5 1673.30   3
  -3  -3   1 72348.1 1844.49   3
  -3  -3   0 3324.31 425.377   4
   3  -3   0 2437.21 382.831   3
   3  -3   0 2876.61 370.059  12
  -3  -3  -1 120267. 2214.28   4
   3  -3   1 125123. 2276.15   4
  -3  -3  -1 117767. 1981.48   5
   3  -3   1 119106. 2034.07  12
   3  -3   1 118907. 2326.27   4
   3  -3   1 119194. 2320.80   3
   3  -3   2 362.467 232.894  10
  -3  -3  -2 1191.41 297.695   4
  -3  -3  -2 1132.69 308.137   3
   3  -3   2 884.529 281.206   4
  -3  -3  -2 610.462 234.406   5
   3  -3   3 73921.8 1855.09  10
  -3  -3  -3 69199.3 1688.31   1
  -3  -3  -3 69904.2 1708.10   5
  -3  -3  -3 71465.4 1850.58   3
   3  -3   3 70262.5 1365.08  11
   3  -3   4 5891.68 568.781  10
   3  -3   4 6400.68 404.290  11
  -3  -3  -5 88454.5 2016.60   1
  -3  -3  -5 85370.4 2132.36   3
   3  -3   6 759.917 126.150  11
  -3  -3  -6 841.099 280.681   8
   3  -3   6 623.503 115.693   2
  -3  -3  -6 1120.63 336.311   5
   3  -3   7 63141.1 2234.46   4
  -3  -3  -8 1898.31 339.946  10
   3  -3   8 1951.77 498.293   4
  -3  -3  -8 1994.07 402.461   1
  -3  -3  -8 1728.56 377.375   8
  -3  -3  -8 1998.16 446.481   5
  -3  -3  -9 44140.2 1367.17  10
  -3  -3  -9 41356.2 1818.55   5
   3  -3  10 1862.75 539.745   4
  -3  -3 -11 25828.5 1456.93   3
   3  -3  11 30106.0 1840.97   4
  -3  -3 -12 626.967 388.541   3
   3  -3  12 1643.14 546.013   4
   3  -3  14 567.523 505.955   4
  -3  -3 -15 22642.2 1622.14   3
   3  -3  15 25218.4 1965.97   4
  -3  -3 -16 732.726 481.340   3
   3  -3  16 203.014 463.873   4
  -3  -2  19 28619.3 2017.65   8
  -3  -2  19 26965.2 2038.44   4
   3  -2 -19 24789.2 1890.44   7
  -3  -2  19 28304.2 1966.48   6
  -3  -2  18 8098.74 1119.33   4
  -3  -2  18 9600.72 1190.53   8
   3  -2 -18 7386.59 1044.03   7
  -3  -2  18 11069.9 1222.34   6
   3  -2 -18 8791.40 1068.30   3
   3  -2 -17 17884.4 1531.76   7
  -3  -2  17 19334.2 1551.38   8
  -3  -2  17 19230.3 1601.86   4
  -3  -2  16 9927.94 1091.28   8
   3  -2 -16 8974.16 1076.47   7
   3  -2 -16 7809.33 944.882   3
  -3  -2  15 22368.3 1542.60   8
   3  -2 -15 19930.3 1504.67   7
   3  -2 -15 21731.0 1439.22   3
  -3  -2  15 20577.7 1539.58   4
   3  -2 -14 2429.75 548.845   3
   3  -2 -14 2357.49 581.431   7
   3  -2 -13 43663.1 1853.03   3
  -3  -2  13 44107.1 2079.76   4
   3  -2 -12 14349.7 1128.97   7
  -3  -2  12 17548.3 1282.23   4
   3  -2 -11 37218.9 1713.68   7
   3  -2 -11 33687.6 1500.31   3
  -3  -2  11 37815.3 1783.22   4
  -3  -2  10 13045.7 1034.01   4
   3  -2 -10 12852.2 586.083   9
   3  -2 -10 12755.3 904.893   3
  -3  -2  10 13794.9 880.023   5
   3  -2 -10 12764.3 896.520   4
   3  -2  -9 61657.8 1833.31   4
   3  -2  -8 2922.47 437.183   3
   3  -2  -8 3179.92 495.031   7
   3  -2  -8 3463.54 454.235   4
  -3  -2   8 3754.12 538.885   4
   3  -2  -7 50401.7 1671.38   7
  -3  -2   7 54900.1 1853.44   3
   3  -2  -6 27704.2 1199.08   7
   3  -2  -6 28424.7 1096.77   4
   3  -2  -5 54370.8 1611.35   7
   3  -2  -5 57911.5 1543.24   3
   3  -2  -5 58481.8 1511.43   4
   3  -2  -4 10469.2 661.429   3
   3  -2  -4 11799.1 681.625   4
   3  -2  -3 69856.8 1591.39   4
  -3  -2   3 67109.0 1385.83   7
  -3  -2   3 68578.0 1812.38   3
   3  -2  -2 956.896 267.047   4
   3  -2  -1 85969.2 1780.85   4
  -3  -2   1 88936.8 1997.08   3
   3  -2   0 5715.60 504.716   4
   3  -2   0 4908.39 470.023  10
   3  -2   0 4872.46 401.292  12
  -3  -2   0 5724.09 555.751   3
   3  -2   1 55697.1 1496.62  10
   3  -2   1 56116.2 1515.68   4
  -3  -2  -1 51963.4 1175.18   5
  -3  -2  -1 55733.3 1583.25   3
   3  -2   1 52149.3 1217.41  12
  -3  -2  -2 20938.2 943.660   4
  -3  -2  -2 21729.7 1011.98   3
   3  -2   2 22811.9 986.121  10
   3  -2   3 44038.6 1375.36  10
   3  -2   3 40961.4 1401.85   4
  -3  -2  -3 41410.5 1197.95   1
  -3  -2  -3 40199.8 1213.22   5
   3  -2   3 39554.5 934.672  11
   3  -2   4 3215.43 418.543  10
   3  -2   4 2617.92 348.509   5
  -3  -2  -5 26094.6 1041.07  10
  -3  -2  -5 26041.3 1016.69   1
   3  -2   5 27067.4 583.707  11
  -3  -2  -6 4836.22 588.729   3
  -3  -2  -6 3524.08 430.027   1
   3  -2   6 4099.00 473.297  10
  -3  -2  -7 11057.6 738.110   1
   3  -2   7 10862.7 936.263   4
   3  -2   8 875.742 401.769   4
  -3  -2  -8 606.011 257.298   8
   3  -2  10 1268.41 472.804   4
   3  -2  11 6061.75 866.234   4
   3  -2  12 2836.74 675.147   4
  -3  -2 -14 1065.89 510.512   3
  -3  -2 -15 463.140 428.459   3
   3  -2  15 247.461 490.314   4
  -3  -2 -16 687.686 498.404   3
   3  -2  16 481.865 411.428   4
  -3  -1  19 1696.37 611.960   8
  -3  -1  19 170.853 470.758   4
  -3  -1  18 6192.83 999.600   4
  -3  -1  18 7413.12 1041.99   8
  -3  -1  18 6141.25 980.976   6
   3  -1 -17 1788.86 537.384   3
  -3  -1  17 2520.72 654.890   8
   3  -1 -17 1984.73 605.299   7
  -3  -1  17 1141.36 510.645   6
  -3  -1  17 841.195 514.241   4
  -3  -1  16 8869.32 1055.10   8
   3  -1 -16 9128.08 1038.17   7
  -3  -1  16 9624.10 1096.61   4
   3  -1 -15 1084.31 476.293   3
   3  -1 -15 1329.41 488.132   7
  -3  -1  15 1848.92 566.722   4
   3  -1 -14 1937.72 525.922   3
  -3  -1  14 1833.72 532.611   4
   3  -1 -14 1912.97 513.025   7
   3  -1 -13 4557.48 680.779   7
  -3  -1  13 6699.48 840.628   4
  -3  -1  12 25588.0 1479.57   4
   3  -1 -12 23294.2 1367.38   7
   3  -1 -12 22077.7 1324.10   3
  -3  -1  11 14842.4 779.286  10
   3  -1 -11 14418.6 1042.12   7
   3  -1 -11 14308.9 1037.44   3
   3  -1 -10 23729.2 575.787   9
   3  -1 -10 25505.2 1305.87   3
  -3  -1  10 27993.3 1211.58   5
  -3  -1  10 25780.2 1369.73   4
   3  -1  -9 28710.8 1324.64   3
   3  -1  -9 30874.1 1360.65   4
   3  -1  -8 22257.5 1112.17   7
  -3  -1   8 25049.6 1272.94   3
   3  -1  -8 21526.0 1106.67   3
  -3  -1   8 22691.3 1187.06   4
   3  -1  -7 14299.7 859.472   7
  -3  -1   7 14696.2 944.711   3
   3  -1  -7 12340.8 812.785   3
  -3  -1   7 14263.4 909.566   4
   3  -1  -6 45806.7 1451.13   7
  -3  -1   6 51215.6 1659.51   3
   3  -1  -6 47384.9 1462.58   4
  -3  -1   6 47126.9 1557.25   4
  -3  -1   5 25977.8 945.428   7
   3  -1  -5 24822.3 1036.43   7
  -3  -1   5 26401.4 1161.04   3
   3  -1  -5 25998.4 1086.39   3
   3  -1  -4 81877.9 1805.51   7
   3  -1  -4 83042.8 1859.55   3
   3  -1  -3 84973.9 1792.19   4
   3  -1  -3 82371.6 1819.13   3
  -3  -1   2 15514.2 719.428   7
   3  -1  -2 15741.3 785.291   4
  -3  -1   2 15883.5 858.831   3
   3  -1  -1 83296.0 1763.01   4
  -3  -1   1 84419.6 1913.59   3
   3  -1   0 118652. 2136.38   4
  -3  -1   0 110662. 1336.03   5
  -3  -1   0 119315. 2263.40   3
   3  -1   0 107034. 1501.50  12
   3  -1   2 103446. 2096.28   4
   3  -1   2 101899. 1259.00   1
  -3  -1  -2 107571. 2213.00   3
  -3  -1  -3 13040.4 734.080  10
   3  -1   3 13443.3 806.363   4
   3  -1   4 52364.7 1616.66   4
   3  -1   4 48866.4 1340.83   5
  -3  -1  -4 49279.6 1375.97   5
  -3  -1  -4 48460.7 1595.46   3
  -3  -1  -4 47061.1 1369.94  10
  -3  -1  -5 30921.2 1328.77   3
  -3  -1  -5 29653.1 1160.03   5
  -3  -1  -6 80392.8 1671.29   1
   3  -1   6 78339.1 2243.94   3
  -3  -1  -6 85769.1 2284.60   3
   3  -1   6 78607.4 2268.04   4
  -3  -1  -7 13184.8 732.936   1
  -3  -1  -7 13685.9 773.499  10
  -3  -1  -8 67646.9 1698.07  10
  -3  -1  -9 10096.5 679.550  10
  -3  -1 -10 34492.0 1235.05  10
  -3  -1 -10 34927.0 1372.49   1
  -3  -1 -10 32276.6 1623.54   3
   3  -1  10 35110.1 1818.63   4
  -3  -1 -11 12785.0 1095.55   3
  -3  -1 -11 13444.6 775.254  10
   3  -1  11 13397.7 1198.82   4
  -3  -1 -12 55017.7 1522.69  10
  -3  -1 -12 48787.3 2156.71   3
   3  -1  12 52334.9 2399.49   4
  -3  -1 -13 7813.40 944.116   3
  -3  -1 -14 44057.1 2237.56   3
  -3  -1 -16 16270.9 1507.23   3
  -3  -1 -17 4819.11 910.717   3
  -3   0  19 598.193 460.501   8
  -3   0  19-1930.44 649.164   6
  -3   0  18 45327.3 2446.27   8
  -3   0  18 42643.5 2313.91   4
   3   0 -17 831.666 468.219   3
  -3   0  17-1.45390 396.646   4
  -3   0  17 304.064 446.597   8
   3   0 -17 530.156 403.578   7
  -3   0  17-32.1426 384.206   6
   3   0 -16 41698.8 2045.31   7
  -3   0  16 46887.0 2195.61   6
   3   0 -15 348.911 373.952   3
  -3   0  15 644.100 435.923   4
  -3   0  15-80.7823 351.687   8
   3   0 -15 267.640 324.414   7
   3   0 -14 28101.9 1567.33   7
  -3   0  14 31058.6 1742.11   8
  -3   0  14 27821.1 1533.19   6
   3   0 -14 25867.1 1601.53   3
  -3   0  14 27739.1 1619.19   4
   3   0 -13 355.526 351.046   3
  -3   0  13-139.477 319.522   4
   3   0 -13-88.5483 298.534   7
  -3   0  13-136.330 295.649   6
  -3   0  12 55254.2 1220.87  10
  -3   0  12 54213.3 2103.21   8
   3   0 -12 53845.9 1965.17   7
  -3   0  12 53966.9 1883.60   6
  -3   0  12 53716.1 2058.61   4
   3   0 -11 35.2696 250.510   7
  -3   0  10 34998.0 1539.04   4
   3   0 -10 34659.7 1440.95   7
   3   0 -10 32624.5 1524.38   3
  -3   0  10 34556.7 1336.10   5
   3   0  -9-90.1510 245.496   3
  -3   0   9 486.901 282.926   4
  -3   0   8 21792.4 1147.10   3
   3   0  -7 143.912 235.097   3
  -3   0   7 477.042 264.483   4
   3   0  -7 343.099 224.876   7
  -3   0   6 64755.1 1755.75   4
   3   0  -6 63041.8 1600.20   7
   3   0  -6 61453.6 1772.03   3
  -3   0   5 432.636 262.751   3
  -3   0   5 353.402 240.996   4
   3   0  -5 383.472 276.369   3
   3   0  -5 226.979 195.868   7
  -3   0   4 71442.3 1603.61   7
   3   0  -4 69502.8 1565.15   7
   3   0  -3 207.755 222.633   4
  -3   0   3 383.813 246.558   3
   3   0  -2 9515.73 635.205   4
  -3   0   2 9892.30 677.343   3
   3   0  -1 615.798 249.052   4
   3   0   0 160106. 2485.48   4
  -3   0   0 160308. 2593.92   3
   3   0   1 293.523 224.663   4
  -3   0  -1 388.405 249.013   3
   3   0   2 21819.5 693.086   1
  -3   0  -2 21914.7 924.356  10
   3   0   3 689.673 182.613   1
  -3   0  -3 308.550 151.750  12
   3   0   4 28055.3 1173.77   4
  -3   0  -4 28266.9 1239.07   3
   3   0   4 27825.3 1035.52   5
   3   0   4 27286.3 803.075   1
  -3   0  -5 809.109 252.304  10
   3   0   5 861.930 206.432   1
  -3   0  -6 57882.0 1260.75   1
  -3   0  -6 58458.9 1568.66  10
   3   0   6 58735.7 1909.08   3
   3   0   6 59224.8 1931.02   4
   3   0   7 1187.18 390.933   4
  -3   0  -7 708.806 249.941  10
  -3   0  -8 32995.0 1218.07  10
  -3   0  -9 439.536 237.978  10
   3   0   9 739.668 399.040   4
   3   0  10 8004.78 898.375   4
  -3   0 -11 397.507 385.006   3
  -3   0 -11 820.446 275.972  10
  -3   0 -12 6443.80 583.035  10
  -3   0 -12 5699.22 804.732   3
   3   0  12 7405.28 935.354   4
  -3   0 -13 1368.51 513.263   3
   3   0  14 3107.70 720.477   4
   3   0  14 3642.32 740.675   6
   3   0  15 275.330 487.808   4
  -3   0 -15-28.9826 399.913   3
   3   0  16 1407.64 622.023   4
   3   0  16 415.618 548.510   6
  -3   0 -16 968.855 553.767   3
  -3   0 -17-460.954 494.188   3
   3   0  17 39.6024 398.351   4
   3   1 -19 901.109 534.669   3
  -3   1  19 282.244 341.540   4
  -3   1  19 386.750 468.814   6
   3   1 -18 5644.72 963.437   3
  -3   1  18 4221.15 798.014   4
   3   1 -17 2708.78 691.198   3
  -3   1  17 2083.89 551.448   4
  -3   1  17 1502.51 563.018   8
   3   1 -17 2282.16 563.774   7
  -3   1  16 10209.8 1127.75   8
  -3   1  16 8965.16 1031.99   6
   3   1 -15 733.774 469.568   3
  -3   1  15 1426.34 484.113   4
   3   1 -15 1023.93 408.352   7
   3   1 -14 2090.68 576.554   3
  -3   1  14 2899.17 579.470   4
  -3   1  14 2161.05 555.719   8
  -3   1  13 6121.76 781.904   8
   3   1 -13 5935.41 689.308   7
  -3   1  13 5141.87 687.190   6
   3   1 -13 6917.99 878.692   3
   3   1 -12 24638.0 1272.66   7
   3   1 -12 23630.2 1461.28   3
  -3   1  11 15886.8 1121.61   8
  -3   1  10 26124.1 1280.75   4
   3   1 -10 26234.9 1416.88   3
  -3   1   9 29828.1 937.597  10
  -3   1   9 33213.9 1413.53   3
  -3   1   9 29817.1 1157.55   5
   3   1  -8 23169.4 1001.97   7
  -3   1   8 22596.6 943.308   6
  -3   1   8 25766.5 1199.18   3
   3   1  -8 22959.6 1227.50   3
  -3   1   8 23457.6 1113.06   4
  -3   1   7 14432.2 847.518   4
  -3   1   7 14743.6 690.919  10
   3   1  -7 14713.7 771.013   7
  -3   1   7 13510.4 670.014   6
  -3   1   7 13865.1 663.353   5
   3   1  -7 14956.3 942.903   4
  -3   1   6 46318.0 1426.77   4
   3   1  -6 45374.9 1266.55   7
  -3   1   6 49871.6 1522.49   3
   3   1  -6 45514.2 1584.94   3
  -3   1   6 47039.9 1229.62  10
   3   1  -6 47195.5 1570.29   4
  -3   1   5 26775.6 1056.58   4
   3   1  -5 25453.1 919.483   7
   3   1  -5 25879.6 1128.99   4
  -3   1   4 83864.9 1671.34  10
  -3   1   4 86441.3 1863.12   7
  -3   1   4 83127.9 1864.53   3
  -3   1   4 84110.3 1797.14   4
  -3   1   3 83851.2 1759.41   4
  -3   1   3 81871.7 1668.61  10
   3   1  -2 17221.8 854.727   4
  -3   1   2 15788.9 792.833   7
  -3   1   2 15927.0 826.490   3
  -3   1   1 83806.9 1780.57   7
  -3   1   1 84536.4 1853.36   3
   3   1  -1 85073.4 1842.49   4
   3   1   0 118453. 2163.36   4
  -3   1   0 116402. 2204.22   3
   3   1   2 107579. 2125.84   4
   3   1   2 97952.4 1631.78   1
   3   1   3 12425.9 664.827   5
  -3   1  -3 14120.2 873.288   3
  -3   1  -4 47236.6 1399.21  10
   3   1   4 50882.1 1549.18   4
   3   1   4 49876.5 1533.00   9
  -3   1  -4 52187.6 1704.21   3
   3   1   4 47524.7 1201.60   1
   3   1   4 49363.3 1406.35   5
   3   1   4 47165.3 1565.36   4
   3   1   4 46918.9 1557.36   3
   3   1   5 32793.9 1294.41   4
   3   1   5 32889.7 1295.34   9
  -3   1  -5 29147.1 1123.96  10
   3   1   5 26522.8 1119.35   5
   3   1   5 29109.0 983.268   1
  -3   1  -5 31950.7 1402.13   3
   3   1   5 28210.3 621.799   2
   3   1   6 83786.7 2140.72   4
  -3   1  -6 79268.4 1236.34   1
   3   1   6 80517.6 1683.13   1
   3   1   6 84191.8 2116.30   5
   3   1   6 83492.3 2225.15   3
   3   1   7 13483.4 957.336   3
  -3   1  -7 13631.4 808.081  10
  -3   1  -7 13679.8 573.805   1
   3   1   7 13731.9 974.108   4
   3   1   8 67932.9 2210.01   4
  -3   1  -9 10695.5 603.292   1
   3   1   9 11879.2 1006.15   4
  -3   1 -10 34336.2 1331.83  10
  -3   1 -10 34040.0 1741.22   3
  -3   1 -12 50022.5 2281.14   3
  -3   1 -13 8295.55 1015.40   3
   3   1  13 8004.45 996.147   4
  -3   1 -14 47289.0 2424.24   3
   3   1  14 46834.9 2375.29   6
  -3   1 -15 4559.35 870.485   3
   3   1  15 4200.98 851.174   4
   3   1  15 5302.73 930.998   6
  -3   1 -16 16730.9 1606.68   3
   3   1  16 17413.1 1578.87   4
  -3   1 -17 5889.95 1030.09   3
  -3   2  19 30874.6 2070.62   6
   3   2 -19 25081.9 1999.14   3
   3   2 -18 8674.55 1201.04   3
  -3   2  18 9672.36 1177.72   6
  -3   2  17 20300.6 1642.06   8
  -3   2  17 16978.2 1347.41   4
  -3   2  17 19087.4 1509.19   6
   3   2 -17 16696.7 1547.22   3
  -3   2  16 8339.28 939.793   4
  -3   2  16 9846.64 1142.24   8
   3   2 -16 8547.89 877.168   7
  -3   2  16 8948.66 1013.17   6
  -3   2  15 20968.0 1525.88   8
  -3   2  15 23934.4 1528.84   6
   3   2 -15 21791.4 1643.33   3
  -3   2  15 22060.8 1400.14   4
   3   2 -14 3879.56 744.838   3
  -3   2  14 3759.18 627.088   4
  -3   2  14 3256.24 667.015   8
   3   2 -14 2256.08 449.913   7
  -3   2  14 2782.14 581.873   6
  -3   2  13 45094.1 1830.36   4
  -3   2  13 46718.9 2085.31   8
   3   2 -13 40314.6 2038.77   3
  -3   2  12 16301.7 516.656  10
  -3   2  12 17214.8 1231.50   8
   3   2 -12 16342.7 978.212   7
   3   2 -12 14023.4 1183.01   3
  -3   2  11 34226.3 1639.01   8
  -3   2  11 34657.5 1473.49   6
   3   2 -11 36758.5 1801.04   3
  -3   2  11 35340.1 1488.68   4
  -3   2  10 12633.5 577.097  10
  -3   2  10 13316.5 995.974   8
   3   2 -10 12979.3 785.953   7
  -3   2  10 11589.0 827.980   6
   3   2 -10 11825.1 1012.91   3
  -3   2  10 13989.4 909.754   4
  -3   2   9 60152.4 1764.83   4
  -3   2   9 59719.8 1965.41   8
  -3   2   9 57658.8 1661.26   6
  -3   2   8 3329.39 340.520  10
  -3   2   8 3347.44 415.737   6
  -3   2   8 3464.64 402.939   5
  -3   2   8 4199.50 487.421   4
   3   2  -7 50973.1 1294.20   7
  -3   2   7 50436.1 1337.80   6
   3   2  -7 54790.7 1834.60   4
   3   2  -6 27595.1 914.015   7
  -3   2   6 26733.3 899.662   6
  -3   2   6 27371.6 1096.32   3
  -3   2   5 56217.3 1459.26   4
  -3   2   5 55328.8 1165.66   6
  -3   2   5 60811.1 1579.69   3
   3   2  -5 60155.2 1765.18   4
  -3   2   4 12228.1 682.572   4
   3   2  -4 11317.6 531.048   9
  -3   2   4 12037.6 756.348   7
  -3   2   4 12103.4 716.306   3
  -3   2   3 68194.5 1701.78   7
  -3   2   3 71377.4 1672.82   3
   3   2  -3 69851.8 1775.28   4
   3   2  -2 534.588 210.043   9
  -3   2   2 847.553 268.327   3
  -3   2   2 913.279 286.149   7
   3   2  -1 86162.1 1894.21   4
  -3   2   1 83334.4 1846.81   7
  -3   2   1 85828.6 1854.18   3
   3   2   0 5188.32 504.200   4
  -3   2   0 5375.51 505.207   7
   3   2   0 4639.57 305.277   6
   3   2   0 5483.02 471.652   1
  -3   2   0 5986.48 543.521   3
   3   2   1 56908.6 1530.99   4
  -3   2  -1 56000.1 1597.85   3
   3   2   2 22092.2 979.301   4
   3   2   2 21626.1 766.922   2
  -3   2  -2 21980.2 833.791  12
   3   2   2 20775.6 993.215   3
  -3   2  -3 40591.2 1315.03  10
  -3   2  -3 42598.6 1508.40   3
   3   2   3 39820.7 1382.66   3
   3   2   4 2535.12 408.565   4
  -3   2  -4 2161.64 369.502  10
   3   2   4 2724.47 421.834   9
   3   2   4 2429.49 367.743   6
  -3   2  -5 25180.5 1081.73  10
   3   2   5 25730.2 1101.44   6
   3   2   6 4429.85 526.440   4
   3   2   6 4109.39 540.011   4
   3   2   6 4159.18 539.242   3
   3   2   7 9966.55 815.261   3
  -3   2  -7 10174.3 742.002  10
   3   2   7 11099.8 843.654   6
   3   2   7 10703.4 855.928   4
   3   2   7 9350.01 338.744  11
   3   2   8 1335.32 400.375   4
  -3   2  -9 12795.7 856.088  10
  -3   2  -9 12896.3 558.869   1
  -3   2  -9 12864.3 1071.90   3
   3   2   9 11641.0 976.716   4
  -3   2 -10 571.680 403.541   3
   3   2  10 852.594 387.981   6
  -3   2 -11 5138.86 786.327   3
   3   2  11 4942.33 731.847   4
   3   2  12 3430.18 658.353   4
  -3   2 -12 2756.68 649.563   3
  -3   2 -12 3541.81 509.491  10
   3   2  12 3464.07 688.310   6
  -3   2 -13 6021.49 928.960   3
   3   2  13 5387.24 819.714   4
   3   2  13 6137.31 905.347   6
  -3   2 -14 1844.30 630.773   3
   3   2  14 1944.16 618.357   6
   3   2  15 13.7264 366.639   4
   3   2  15 1059.08 550.351   6
  -3   2 -15 1043.56 558.980   3
  -3   2 -16-173.247 515.178   3
   3   2  16 717.692 406.476   4
   3   2  16 288.088 479.734   6
   3   2  17 850.690 493.745   4
   3   3 -18 358.362 477.026   3
  -3   3  18 766.592 486.299   6
   3   3 -17 4609.66 897.195   3
  -3   3  17 5320.78 772.859   4
  -3   3  17 5104.53 860.222   6
   3   3 -16-523.643 439.251   3
  -3   3  16 585.726 329.749   4
  -3   3  15 17914.1 1443.67   8
   3   3 -15 16097.9 1054.01   7
  -3   3  15 16034.3 1286.42   6
   3   3 -15 14953.8 1408.00   3
  -3   3  15 17169.8 1198.06   4
   3   3 -14 512.086 430.417   3
  -3   3  14 663.420 353.045   4
  -3   3  14-29.8701 319.766   8
  -3   3  14 336.548 382.468   6
  -3   3  13 22200.6 1476.22   8
  -3   3  13 21493.1 1337.13   6
   3   3 -13 19985.5 1502.91   3
  -3   3  13 21494.9 1222.00   4
  -3   3  12 176.621 78.5129  10
   3   3 -12-209.947 356.359   3
  -3   3  12 233.580 254.741   4
   3   3 -12-231.961 210.201   7
   3   3 -11 25982.7 1576.81   3
  -3   3  11 23985.2 1176.95   4
  -3   3  10 1414.39 332.045   4
   3   3 -10 1912.98 499.648   3
  -3   3  10 2160.80 470.629   8
  -3   3  10 1774.81 396.688   6
  -3   3   9 25939.0 857.112  10
  -3   3   9 25602.3 1162.58   6
   3   3  -9 26155.4 1451.83   3
  -3   3   8 6064.21 445.193  10
  -3   3   8 5197.98 611.012   8
   3   3  -8 5151.98 414.373   7
   3   3  -8 6563.37 738.871   3
  -3   3   7 95811.4 1733.36  10
  -3   3   7 100837. 1996.55   4
   3   3  -7 96557.7 1601.18   7
  -3   3   7 97344.0 1970.54   6
   3   3  -6 90.6905 263.791   4
  -3   3   6 813.591 232.125  10
  -3   3   6 759.494 232.569   4
  -3   3   6 473.716 208.797   6
  -3   3   5 111458. 1954.27  10
  -3   3   5 117997. 2477.17   7
  -3   3   5 115266. 2001.92   4
  -3   3   4 1205.17 267.857   4
  -3   3   4 2155.34 378.114   7
  -3   3   3 131504. 2474.90   7
  -3   3   3 134500. 2256.28   3
  -3   3   3 128775. 2069.77   4
   3   3  -3 132231. 2517.76   4
   3   3  -2 9832.64 591.697   9
  -3   3   2 9500.61 548.809   8
   3   3  -2 10320.3 716.296   4
   3   3  -1 75789.8 1820.26   4
   3   3   0 2775.07 395.223   1
  -3   3   0 4129.51 469.114   7
  -3   3   0 3013.14 269.395   8
   3   3   0 2908.82 426.294   3
  -3   3   0 4037.84 464.142   3
   3   3   1 119876. 1972.63   2
   3   3   1 118918. 1794.45   6
   3   3   1 121520. 2333.88   3
   3   3   1 115079. 1922.91  11
   3   3   2 789.660 279.885   1
   3   3   2 625.629 256.166   9
   3   3   2 806.731 271.228   4
  -3   3  -2 678.519 290.727   3
  -3   3  -2 1143.23 270.232  12
   3   3   3 71667.5 1775.87   4
  -3   3  -3 72994.1 1831.69  10
   3   3   3 65590.7 1403.71   2
   3   3   3 66148.9 1574.59   6
  -3   3  -3 76500.2 2059.43   3
   3   3   3 66205.7 1771.35   3
   3   3   5 87083.4 2183.69   5
   3   3   5 89183.0 2084.20   4
   3   3   5 84971.4 2115.99   4
   3   3   5 83447.4 2091.48   3
   3   3   6 953.398 208.367  11
   3   3   6 1241.31 347.233   4
  -3   3  -6 1220.30 325.280  10
   3   3   6 1162.46 335.228   3
  -3   3  -6 638.188 286.059  12
   3   3   6 939.101 312.772   1
   3   3   7 60146.8 1903.93   3
  -3   3  -7 59558.0 1810.29  10
   3   3   7 61936.7 1971.40   6
   3   3   7 61926.3 1946.58   4
   3   3   7 57441.4 1135.16  11
  -3   3  -8 2184.62 504.475   3
  -3   3  -8 1921.08 407.462  10
   3   3   8 1756.27 417.520   4
   3   3   8 2336.11 480.245   6
  -3   3  -9 41919.8 695.816   1
   3   3   9 44590.1 1805.74   4
   3   3  10 1598.30 449.835   4
  -3   3 -10 1478.58 390.253  10
  -3   3 -11 27911.7 1355.32  10
   3   3  12 188.752 349.152   4
  -3   3 -12 1005.33 360.699  10
   3   3  12 261.866 401.597   6
  -3   3 -13 32131.0 1477.94  10
   3   3  13 28562.7 1706.62   4
  -3   3 -14 1437.59 573.479   3
   3   3  14 312.088 425.814   6
  -3   3 -15 25580.5 1969.43   3
   3   3  15 31153.4 2082.28   6
  -3   3 -16 1643.05 679.103   3
   3   3  16 985.201 409.012   4
  -3   4  18 10545.3 1244.05   6
  -3   4  17 18498.9 1620.38   8
  -3   4  17 21044.2 1630.46   6
   3   4 -17 15569.9 1589.14   3
   3   4 -16 6060.16 1013.67   3
  -3   4  16 7271.15 1027.81   8
  -3   4  16 6937.14 936.255   6
  -3   4  15 18178.9 1488.64   8
  -3   4  15 20812.5 1483.94   6
   3   4 -15 20297.1 1665.92   3
  -3   4  14 6919.48 715.554   4
  -3   4  14 10027.9 1081.81   8
  -3   4  14 9212.71 975.661   6
  -3   4  13 34783.0 1878.15   8
  -3   4  13 34219.4 1457.70   4
  -3   4  12 6385.11 290.240  10
  -3   4  12 6200.57 800.981   8
  -3   4  12 5358.72 704.022   6
   3   4 -12 7641.70 953.946   3
  -3   4  11 38952.9 1413.04   4
   3   4 -11 35982.7 1129.68   7
   3   4 -11 33904.2 1845.69   3
  -3   4  10 4492.91 488.579   4
  -3   4  10 4661.72 651.370   8
  -3   4  10 4440.42 372.529  10
   3   4 -10 4931.41 735.780   3
  -3   4   9 24574.1 1332.40   8
  -3   4   9 26028.9 1105.63   3
  -3   4   9 26321.3 1232.24   6
  -3   4   8 8087.69 534.278  10
  -3   4   8 8028.89 758.577   8
  -3   4   7 59802.8 1461.74   4
  -3   4   7 60729.0 1451.92  10
  -3   4   7 61093.0 1666.15   6
  -3   4   6 12855.6 673.317   4
  -3   4   6 12419.8 837.456   8
  -3   4   6 11934.0 717.747   6
  -3   4   5 55328.3 1446.43  10
   3   4  -5 58371.4 1874.36   4
  -3   4   5 59118.6 1462.76   3
  -3   4   5 57350.3 1649.34   8
  -3   4   4 11243.1 683.025  10
  -3   4   4 13103.7 662.281   4
   3   4  -4 12697.1 649.136   9
  -3   4   4 12028.1 732.581   8
  -3   4   4 13319.7 873.017   7
  -3   4   3 31255.1 1131.54  10
  -3   4   3 31543.8 1087.57   8
  -3   4   3 34250.9 1132.02   3
  -3   4   2 1773.10 340.233  10
   3   4  -2 1431.94 328.774   4
   3   4  -2 1647.16 375.454   3
  -3   4   2 1858.14 326.194   3
  -3   4   2 1389.85 334.866   7
   3   4  -1 47653.7 1407.14   2
   3   4  -1 49516.2 1421.51   9
   3   4  -1 47348.7 1466.86   1
   3   4  -1 47858.5 1533.41   3
  -3   4   1 50663.0 1437.88   3
  -3   4   1 47573.3 1127.39   8
   3   4   0 8851.13 657.150   4
   3   4   0 9631.12 655.454   2
   3   4   0 8744.48 655.530   1
  -3   4   0 9558.43 708.044   7
   3   4   0 8808.60 679.609   3
  -3   4   0 8936.70 654.224   3
   3   4   1 25906.8 1075.40   4
  -3   4  -1 27235.3 1158.01   3
  -3   4  -1 26601.2 1073.96  12
   3   4   1 25390.4 1088.15   1
  -3   4  -1 24532.4 1099.13   7
   3   4   1 24964.4 918.610   6
   3   4   2 12802.2 771.170   4
   3   4   2 12670.5 794.307   1
   3   4   2 12835.5 820.587   9
  -3   4  -2 15359.5 882.977   7
   3   4   2 12890.0 718.202   6
   3   4   2 12986.9 806.802   3
  -3   4  -2 14082.7 881.389   3
   3   4   2 12052.0 695.481  11
   3   4   3 5047.14 505.812   4
  -3   4  -3 6453.51 605.434  10
   3   4   3 6097.32 606.401   9
  -3   4  -3 6543.37 582.048  12
   3   4   3 6721.24 599.510   3
  -3   4  -4 52285.0 1667.81  10
   3   4   4 49044.7 1536.94   6
   3   4   4 49515.6 1562.17   3
   3   4   5 12760.2 801.413   4
   3   4   5 11992.5 827.703   6
   3   4   5 12575.7 826.958   4
   3   4   5 12424.9 822.424   3
   3   4   5 11977.2 658.242  11
  -3   4  -6 4991.82 579.601  10
   3   4   6 4849.03 585.970   1
   3   4   6 5790.43 603.693   4
   3   4   6 5800.13 602.356   3
   3   4   7 10930.3 826.784   3
   3   4   7 10413.2 836.739   1
   3   4   7 10653.4 820.408   4
   3   4   7 10404.7 589.343  11
  -3   4  -8 2966.15 563.194   3
   3   4   8 2902.88 486.850   4
   3   4   8 2998.26 549.500   6
   3   4   8 2451.22 486.609   1
  -3   4  -9 614.621 390.561   3
  -3   4  -9 808.367 358.711  10
   3   4   9 1052.93 434.186   6
   3   4  10 4433.91 699.558   6
   3   4  10 5386.87 689.563   4
   3   4  11 3666.73 675.397   6
  -3   4 -12 3381.31 719.620   3
   3   4  12 3530.31 644.001   4
  -3   4 -12 3358.19 547.747  10
   3   4  12 2819.72 655.520   6
  -3   4 -13 919.256 513.612   3
   3   4  13 806.938 456.590   4
  -3   4 -13 1058.93 370.791  10
   3   4  13 1131.53 525.512   6
  -3   4 -15 1268.22 585.231   3
   3   4  15 1410.39 524.112   4
   3   4  15 1427.18 600.048   6
  -3   5  18 5587.81 948.682   6
  -3   5  17 390.527 464.824   8
   3   5 -16 4698.95 960.669   3
  -3   5  16 4807.03 867.507   8
  -3   5  16 4546.62 804.396   6
  -3   5  15 1993.03 608.590   8
  -3   5  14 6767.96 869.506   6
  -3   5  13 839.886 286.813   4
  -3   5  13 1921.13 536.777   8
  -3   5  12 11155.5 423.729  10
  -3   5  12 13080.5 1149.56   8
  -3   5  12 12685.3 804.941   4
  -3   5  11 10717.3 1012.21   8
  -3   5  11 12287.8 762.366   3
   3   5 -11 12097.2 1163.46   3
  -3   5  10 19656.6 1287.31   8
   3   5 -10 18854.3 1371.27   3
  -3   5   9 5841.97 487.779   4
  -3   5   9 6093.70 659.638   6
   3   5  -9 4793.69 700.075   3
  -3   5   8 14774.3 1036.82   8
   3   5  -8 14639.5 1128.12   3
  -3   5   7 5794.54 498.635  10
  -3   5   7 7248.44 707.071   8
  -3   5   7 6702.76 621.716   6
  -3   5   7 6881.00 509.526   3
   3   5  -7 6093.79 720.986   3
  -3   5   6 18207.4 869.331  10
  -3   5   6 19566.0 1071.48   8
   3   5  -6 18940.9 1178.82   3
  -3   5   5 3320.18 415.236  10
   3   5  -5 3081.22 512.548   3
  -3   5   4 18184.1 908.126  10
   3   5  -4 19141.1 1027.14   2
   3   5  -4 16738.4 816.556   9
  -3   5   4 18158.1 1054.63   7
   3   5  -4 17895.8 1070.25   3
  -3   5   3 4379.60 487.465  10
  -3   5   3 4288.10 455.869   8
  -3   5   3 5346.65 588.092   7
   3   5  -3 5589.05 587.449  11
   3   5  -3 5763.08 616.880   3
   3   5  -3 5858.38 589.820   2
  -3   5   3 4863.24 450.671   3
   3   5  -3 4250.20 534.395   4
  -3   5   2 40234.5 1381.20  10
   3   5  -2 41254.4 1345.82   9
  -3   5   2 40430.8 1208.06   8
   3   5  -2 42192.5 1439.56   2
   3   5  -2 40962.4 1462.65   1
   3   5  -2 41330.0 1506.14   3
   3   5  -1 15700.2 893.826   2
  -3   5   1 15449.0 698.491   8
   3   5  -1 15930.8 931.086   3
   3   5  -1 15559.5 876.716  11
   3   5   0 26093.2 1110.78   2
   3   5   0 26794.7 1181.72   1
  -3   5   0 26298.8 822.583   8
   3   5   1 19049.7 944.689   4
   3   5   1 18201.5 1000.26   1
   3   5   1 21870.6 1085.16   9
   3   5   1 20323.4 999.863   3
   3   5   1 18903.1 943.131  11
   3   5   2 61293.1 1666.49   4
   3   5   2 58860.9 1599.11   6
  -3   5  -2 69699.3 1876.62  12
  -3   5  -2 68144.9 1941.28   3
   3   5   2 61069.0 1638.98  11
   3   5   3 17849.9 947.687   6
   3   5   3 16846.5 989.538   1
  -3   5  -3 19283.7 1060.09  10
  -3   5  -3 19913.4 1045.74  12
   3   5   3 18111.3 951.513   3
   3   5   3 18652.4 907.467   2
   3   5   3 17554.0 889.749  11
  -3   5  -4 46306.3 1658.37  10
   3   5   4 47653.8 1596.93   6
   3   5   4 47535.4 1532.12   3
   3   5   4 45929.5 1638.33   1
   3   5   4 46263.6 1403.62  11
   3   5   5 8738.88 669.737   4
  -3   5  -5 10388.1 834.960  10
   3   5   5 10707.5 822.850   6
   3   5   5 9281.37 711.228   4
   3   5   5 9018.61 633.628   2
   3   5   5 8552.34 768.501   1
   3   5   5 8503.21 684.864   3
  -3   5  -6 39155.4 1717.04   3
   3   5   6 35829.3 1536.52   6
   3   5   6 36343.8 1554.34   1
   3   5   6 35314.5 1388.44   4
   3   5   6 35930.8 1395.80   3
   3   5   7 8945.97 743.878   3
   3   5   7 9260.63 724.985   4
  -3   5  -7 10432.3 879.053  10
   3   5   7 9761.97 872.127   6
   3   5   7 8427.62 733.836   4
   3   5   8 45960.9 1631.67   4
  -3   5  -8 45842.8 1805.68  10
   3   5   8 46520.0 1681.67   3
   3   5   8 46735.0 1922.72   6
   3   5   8 43115.9 1781.04   1
   3   5   8 44040.6 1310.30  11
  -3   5  -9 14932.4 1070.00  10
  -3   5  -9 15374.3 1249.16   3
   3   5   9 15314.2 1172.01   6
   3   5   9 14936.4 1022.05   4
  -3   5 -10 54304.1 2042.74  10
  -3   5 -10 59139.5 2504.06   3
   3   5  10 60805.7 2391.78   6
   3   5  10 58544.2 2063.34   4
   3   5  11 9042.53 1010.58   6
   3   5  11 8754.05 868.310   4
  -3   5 -12 28235.7 1908.71   3
   3   5  13 11471.1 1065.71   4
  -3   5 -14 39149.1 2427.56   3
   3   5  14 41757.1 2358.24   6
   3   5  15 7604.31 1128.03   6
  -3   6  18 9933.16 1225.02   6
   3   6 -17 1540.60 647.671   3
  -3   6  17 1994.36 637.714   8
  -3   6  16 28513.1 1980.88   8
   3   6 -16 26670.6 2084.95   3
   3   6 -15 75.8882 452.973   3
  -3   6  15 170.366 367.200   6
  -3   6  13 579.945 230.723   4
  -3   6  13 712.075 444.171   8
  -3   6  12 27025.6 1556.43   6
   3   6 -12 25574.1 1769.09   3
   3   6 -11 1652.12 473.247  11
   3   6 -11 551.743 412.394   3
  -3   6  11 1625.53 489.360   8
  -3   6  10 21285.8 848.015   4
   3   6 -10 24622.2 1375.47  11
  -3   6  10 22024.9 1414.77   8
   3   6 -10 19548.1 1445.09   3
  -3   6   9 334.707 199.030  10
   3   6  -9 374.857 351.348   3
  -3   6   9 899.072 387.212   8
  -3   6   8 55618.0 2031.80   8
  -3   6   8 54599.8 1853.71   6
   3   6  -8 58535.3 2264.61   3
   3   6  -8 57426.6 1978.68  11
   3   6  -7 2497.37 498.912  11
  -3   6   7 1712.31 334.564  10
   3   6  -7 1766.09 473.120   3
  -3   6   7 1984.73 450.687   8
   3   6  -6 10590.1 849.003  11
   3   6  -5 786.787 346.275   3
  -3   6   4 17669.0 953.386  10
  -3   6   4 19879.4 1020.32   8
   3   6  -4 19286.0 1080.95  11
   3   6  -4 19030.0 1087.51   1
  -3   6   3 4052.81 469.795   8
   3   6  -3 4210.48 556.749   1
   3   6  -3 4301.46 564.212  11
   3   6  -2 52752.1 1642.13   9
  -3   6   2 47830.8 1591.22  10
   3   6  -2 48134.7 1667.40   1
   3   6  -2 55114.5 1785.82   3
  -3   6   2 51565.1 1420.91   3
   3   6  -2 50487.9 1664.31  11
   3   6  -1 685.902 328.491   1
  -3   6   1 1342.17 365.398  10
   3   6  -1 1295.22 383.394   2
  -3   6   1 1347.32 354.445   7
   3   6  -1 981.349 357.250  11
   3   6   0 21879.1 1143.04   1
   3   6   0 22757.3 1101.02   3
   3   6   0 20519.2 1060.45  11
   3   6   0 21876.0 1052.84   4
   3   6   1 425.292 290.677  11
   3   6   1 680.509 313.635   1
   3   6   1 456.020 241.060   4
   3   6   1 875.450 297.002   3
   3   6   2 8542.16 692.187   2
   3   6   2 9167.37 721.298  11
   3   6   3 1295.26 343.527  11
   3   6   3 1065.15 277.682   4
   3   6   3 1080.62 381.722   1
   3   6   3 1215.55 338.531   6
  -3   6  -4 8428.89 791.053  10
  -3   6  -4 8101.21 716.323   7
   3   6   4 7428.01 701.960   6
   3   6   4 6991.04 628.727   2
   3   6   4 6923.25 611.981   3
   3   6   4 7643.35 758.092   1
   3   6   5 1078.39 304.802   4
   3   6   5 1347.98 336.230  11
  -3   6  -5 706.448 332.230  10
   3   6   5 329.761 336.402   1
  -3   6  -6 6546.69 733.322  10
  -3   6  -6 6741.34 780.380   3
   3   6   6 6311.81 721.533   6
   3   6   6 6418.03 607.649   4
   3   6   6 6784.56 627.697   3
  -3   6  -7 557.613 364.139   3
  -3   6  -7 1413.81 430.977  10
   3   6   7 214.247 343.340   1
  -3   6  -8 12886.7 1035.15  10
  -3   6  -8 15317.3 1224.58   3
   3   6   8 14448.9 1135.30   6
   3   6   8 15285.7 961.397   3
   3   6   8 13568.7 915.098   4
   3   6   9 3028.63 613.101   6
  -3   6 -10 3707.31 739.546   3
   3   6  10 3977.29 704.128   6
   3   6  11 205.475 283.217   4
  -3   6 -12 3112.04 609.138  10
   3   6  12 1912.74 470.748   4
   3   6  12 2524.14 653.526   6
  -3   6 -12 3143.39 781.443   3
   3   6  13 2070.96 641.134   6
  -3   6 -13 495.567 470.296   3
   3   6  14 857.063 524.192   6
   3   6  15 617.400 497.151   6
   3   7 -16 4272.92 769.516  11
  -3   7  16 3941.48 814.615   8
  -3   7  16 4824.26 834.813   6
   3   7 -15 1801.01 652.656   3
  -3   7  15 1211.10 574.377   8
  -3   7  15 1204.66 524.451   6
  -3   7  14 7244.16 1009.25   8
  -3   7  14 9383.49 1059.95   6
   3   7 -14 10375.5 1286.33   3
   3   7 -13 497.036 480.304   3
  -3   7  13 432.613 408.780   8
  -3   7  13 327.520 360.590   6
   3   7 -12 6498.67 978.407   3
  -3   7  12 4107.47 741.248   8
  -3   7  12 6097.01 829.659   6
  -3   7  11 6071.34 414.132   4
   3   7 -11 4672.27 810.893   3
  -3   7  11 7836.73 939.269   8
  -3   7  11 6737.54 816.606   6
   3   7 -11 6548.22 808.940  11
  -3   7  11 6694.12 520.994  10
   3   7 -10 8985.94 910.794  11
  -3   7  10 8127.40 447.214   4
  -3   7  10 10189.3 1020.88   8
  -3   7   9 7083.03 408.438   4
  -3   7   9 8488.58 899.418   8
  -3   7   9 7546.78 792.932   6
   3   7  -9 9323.60 1007.18   3
   3   7  -9 8395.49 868.012  11
  -3   7   8 3587.02 467.416  10
   3   7  -8 4531.29 720.600   3
  -3   7   8 3640.89 613.264   8
   3   7  -7 4424.27 694.135   3
   3   7  -7 4853.53 673.146  11
  -3   7   6 20395.7 1052.12  10
   3   7  -6 23207.4 1081.63  12
   3   7  -6 22595.3 1370.83   3
   3   7  -6 22939.1 1285.35  11
  -3   7   5 4555.06 537.971  10
  -3   7   5 4626.99 583.322   8
   3   7  -5 5486.84 665.093   1
   3   7  -5 4768.39 655.267   3
   3   7  -5 4431.57 619.516  11
  -3   7   4 21938.6 1124.29   8
   3   7  -4 23780.1 1273.74   1
  -3   7   4 23239.2 878.953   3
   3   7  -4 23637.7 1260.84  11
  -3   7   3 14178.2 867.740   8
   3   7  -3 13397.3 963.460  11
   3   7  -3 14961.8 1006.46   1
   3   7  -3 15576.1 1037.22   3
   3   7  -3 13518.0 693.628  12
  -3   7   2 30686.6 1364.12  10
  -3   7   2 30791.1 1198.36   8
   3   7  -2 32538.3 1455.81   1
   3   7  -2 34354.1 1464.65   3
   3   7  -2 32401.4 1433.83  11
  -3   7   1 14850.2 985.410  10
   3   7  -1 16111.3 1043.45   1
   3   7  -1 15720.0 976.393   3
   3   7  -1 16585.8 979.974   4
   3   7  -1 15484.4 1003.12  11
  -3   7   0 18702.7 1107.59  10
   3   7   0 17933.9 982.552   4
   3   7   0 18170.8 1016.61   3
  -3   7   0 17751.2 959.557   3
   3   7   0 18160.4 1068.31  11
   3   7   1 13923.7 938.676  11
  -3   7  -1 15812.8 991.911   7
   3   7   1 15775.0 901.382   4
  -3   7  -2 42773.3 1709.82  10
   3   7   2 43392.3 1454.32   4
  -3   7  -2 43012.1 1602.88   7
   3   7   2 41227.8 1448.13   3
   3   7   2 41473.1 1566.40  11
   3   7   3 10612.6 909.245   1
  -3   7  -3 10848.7 852.159   3
   3   7   3 10814.9 758.017   3
   3   7   3 9928.11 709.247   4
  -3   7  -4 44046.7 1806.36  10
  -3   7  -4 46186.3 1794.87   3
   3   7   4 43104.9 1687.52   6
   3   7   4 43474.0 1468.00   3
   3   7   4 42134.2 1769.03   1
   3   7   5 10434.7 728.063   4
  -3   7  -5 11080.5 962.400  10
   3   7   5 10043.0 881.657   6
   3   7   5 9956.47 730.709   3
   3   7   5 10016.6 792.163  11
  -3   7  -6 47925.4 1959.15  10
   3   7   6 46900.1 1650.89  11
  -3   7  -7 8402.61 880.899  10
  -3   7  -7 8999.68 957.026   3
   3   7   7 7966.87 862.478   6
   3   7   7 7386.15 845.727   1
   3   7   7 7964.10 709.557  11
  -3   7  -8 59175.8 2422.43   3
   3   7   8 58622.2 2294.84   6
   3   7   8 55153.8 1763.41   4
   3   7   8 54537.2 1742.70   3
  -3   7  -9 6036.07 800.840  10
   3   7  10 35312.8 1948.34   6
   3   7  10 33625.0 1486.64   4
  -3   7 -11 5771.60 811.894  10
  -3   7 -11 7373.31 1038.96   3
   3   7  11 7510.31 994.881   6
  -3   7 -12 23524.0 1854.80   3
  -3   7 -13 6422.35 1079.85   3
   3   7  13 8123.41 1105.39   6
  -3   7 -13 7680.99 945.107  10
  -3   7 -14 22850.8 1972.35   3
   3   7  14 25853.3 1949.17   6
  -3   8  16 8242.34 1110.90   6
  -3   8  15 21129.5 1743.93   8
  -3   8  15 20097.6 1620.79   6
   3   8 -15 20420.9 1508.45  11
  -3   8  14 14308.5 1400.65   8
  -3   8  14 11095.0 1188.43   6
   3   8 -14 13164.5 1218.45  11
  -3   8  13 18629.3 1542.47   8
  -3   8  13 17397.8 1407.40   6
   3   8 -13 19485.4 1427.97  11
   3   8 -12 6434.91 984.494   3
  -3   8  12 6927.88 945.730   8
  -3   8  12 6006.38 830.711   6
   3   8 -11 19034.4 1364.73  11
   3   8 -11 17023.8 1479.42   3
  -3   8  10 5443.34 551.236  10
   3   8 -10 4854.83 843.967   3
   3   8 -10 5453.54 775.930  11
  -3   8   9 22366.0 1106.06  10
   3   8  -9 25025.6 1657.35   3
   3   8  -9 23149.4 1434.44  11
  -3   8   8 28574.4 1582.05   8
   3   8  -8 28789.2 1707.91   3
  -3   8   7 64911.6 1933.65  10
  -3   8   7 64321.0 2263.88   8
   3   8  -7 64121.5 2436.24   3
   3   8  -7 64664.4 2252.34   1
   3   8  -7 64065.2 2254.28  11
   3   8  -6 2046.52 533.819  11
   3   8  -6 1072.30 420.896   1
   3   8  -6 1701.03 366.259  12
   3   8  -6 2047.60 531.826   3
  -3   8   6 1967.42 470.488   8
  -3   8   5 18968.0 1156.31   8
   3   8  -5 20794.6 1264.85   1
   3   8  -5 19087.3 1269.36   3
  -3   8   4 11071.8 868.147  10
   3   8  -4 10231.7 904.179   1
   3   8  -4 12428.1 995.622   3
   3   8  -4 11210.6 732.917  12
   3   8  -4 11889.8 984.251  11
  -3   8   3 18334.7 1116.46  10
   3   8  -3 18242.3 1170.38   1
   3   8  -3 18087.3 1152.79   3
   3   8  -3 18802.5 1186.47  11
   3   8  -2 7655.46 794.108   1
   3   8  -2 7790.88 759.784   3
   3   8  -2 7092.14 777.228  11
   3   8  -1 22017.7 1276.49   1
  -3   8   1 22137.1 1253.27  10
   3   8  -1 22197.4 1258.46  11
   3   8   0 3779.21 576.145  11
  -3   8   0 2991.93 532.167  10
   3   8   0 3231.68 485.353   3
  -3   8   0 2254.59 406.306   3
   3   8   1 12673.6 1011.02   1
  -3   8  -1 13881.8 889.273   3
   3   8   1 13172.4 875.273   3
  -3   8  -1 13354.1 908.755   3
   3   8   1 13912.4 876.831   4
   3   8   1 13537.0 992.366  11
  -3   8  -2 2545.39 454.400   3
  -3   8  -2 2927.29 542.287  10
   3   8   2 2351.61 494.438  11
   3   8   2 2557.58 523.905   1
  -3   8  -3 6964.00 787.903  10
   3   8   3 6163.08 698.274  11
   3   8   3 5732.27 561.929   4
   3   8   3 5931.53 744.766   1
  -3   8  -4 9951.95 950.213  10
   3   8   4 8779.04 905.446   1
   3   8   4 9748.95 846.306  11
  -3   8  -5 14136.4 1096.85   3
   3   8   5 12936.1 1037.07   6
   3   8   5 12535.5 952.130  11
   3   8   6 795.871 354.354  11
  -3   8  -6 759.590 393.742   3
   3   8   6 839.762 445.355   1
  -3   8  -6 1318.32 465.539  10
   3   8   7 2982.11 523.091  11
  -3   8  -7 3487.41 660.769   3
   3   8   7 3026.11 441.450   4
   3   8   7 2927.07 608.175   6
  -3   8  -7 3775.18 644.911  10
   3   8   7 4298.25 711.737   1
   3   8   7 3365.55 455.757   3
  -3   8  -8 3673.98 708.599   3
   3   8   8 2480.65 416.516   4
  -3   8  -8 2029.28 546.978  10
   3   8   8 2417.61 562.065   6
   3   8   9 460.914 265.842   4
  -3   8  -9 1713.44 573.275   3
  -3   8  -9 836.061 438.119  10
   3   8   9 927.439 469.607   6
   3   8   9 1082.54 354.479  11
  -3   8 -10-54.5321 409.876   3
   3   8  10-10.4989 218.202   4
   3   8  10 761.450 453.033   6
  -3   8 -11 1429.32 592.215   3
  -3   8 -11 2227.12 606.007  10
   3   8  11 1983.25 609.896   6
  -3   8 -12 1170.77 481.649  10
   3   8  12 1334.66 583.001   6
  -3   8 -12 1656.40 674.717   3
  -3   8 -13 2282.40 750.973   3
  -3   8 -13 2470.51 612.612  10
   3   9 -16-914.269 481.803  11
   3   9 -15 8036.97 1247.38   3
  -3   9  15 7942.35 1162.68   8
  -3   9  15 8771.65 1140.75   6
   3   9 -14 865.243 535.867   3
  -3   9  13 11935.1 1302.80   8
  -3   9  13 14200.9 1315.75   6
   3   9 -13 12885.5 1424.51   3
   3   9 -12 315.202 421.841  11
  -3   9  12 582.002 463.167   8
  -3   9  11 12580.3 1245.01   8
   3   9 -11 12105.2 1304.54   3
   3   9 -11 11745.7 1146.16  11
   3   9 -10 1307.18 543.521   3
  -3   9  10 690.527 435.393   8
  -3   9   9 11697.4 1121.73   8
   3   9  -9 10859.6 1150.31   3
   3   9  -9 12628.5 1132.94  11
   3   9  -8 1578.30 535.706   3
   3   9  -8 1923.98 545.741  11
  -3   9   8 1752.10 529.319   8
  -3   9   7 38295.9 1598.13  10
  -3   9   7 36229.8 1787.22   8
   3   9  -7 38079.6 1810.60   1
   3   9  -7 37764.5 1837.21  11
   3   9  -6 1191.12 481.530  11
   3   9  -6 1184.20 481.565   3
  -3   9   6 1442.02 446.642   8
   3   9  -5 33547.7 1712.81   3
   3   9  -5 33795.4 1693.86  11
  -3   9   4 1578.32 432.518  10
  -3   9   3 24640.4 1358.41  10
   3   9  -3 26561.9 1471.42   1
  -3   9   3 25166.0 921.393   3
  -3   9   2 1713.06 466.725  10
   3   9  -2 1676.29 487.069   1
  -3   9   1 34601.0 1642.49  10
  -3   9   1 35873.7 1279.76   3
  -3   9   1 34170.6 1295.97   3
   3   9  -1 34386.7 1646.10  11
  -3   9   0 2601.74 419.362   3
   3   9   0 2995.53 495.410   3
  -3   9   0 3205.38 577.870  10
   3   9   1 46275.8 1956.64   1
  -3   9  -1 45086.0 1922.84  10
  -3   9  -1 44818.1 1610.12   3
   3   9   1 43932.5 1834.24  11
   3   9   2 4180.61 649.148  11
  -3   9  -2 3846.99 553.501   3
   3   9   2 3937.73 660.111   1
   3   9   2 4209.51 525.666   3
  -3   9  -3 54516.6 2182.37  10
   3   9   3 56464.9 1710.98   3
   3   9   3 54698.1 2036.00  11
   3   9   3 54850.7 2197.19   1
   3   9   3 52058.8 1625.35   4
  -3   9  -4 1073.63 417.906   3
  -3   9  -4 1509.28 499.515  10
   3   9   4 818.457 449.616   1
   3   9   4 563.620 389.009  11
  -3   9  -5 34684.8 1821.91  10
   3   9   5 35757.0 1326.39   3
   3   9   5 30916.0 1552.24  11
   3   9   6 535.484 371.398  11
  -3   9  -6 1282.08 479.198   3
  -3   9  -7 25192.9 1625.10  10
  -3   9  -8 1319.27 522.292   3
   3   9   8 959.952 293.391   4
  -3   9  -8 724.939 456.408  10
   3   9   8 1755.98 458.129  11
  -3   9  -9 38103.0 2058.57  10
  -3   9  -9 39189.7 2191.44   3
  -3   9 -10 1814.41 637.302   3
  -3   9 -10 1477.78 559.955  10
   3   9  10 1395.17 542.918   6
   3   9  11 18336.2 1554.67   6
  -3   9 -12 238.023 443.680   3
   3   9  12 451.611 475.871   6
  -3   9 -13 18656.8 1543.93  10
  -3   9 -13 19536.4 1842.54   3
   3  10 -15 15278.9 1425.23  11
   3  10 -14 2362.07 696.459  11
   3  10 -14 1198.93 646.873   3
   3  10 -14 2708.01 680.962   1
   3  10 -13 22287.5 1658.51  11
   3  10 -13 22075.3 1600.62   1
   3  10 -12 6756.01 1093.28   3
   3  10 -12 7622.57 980.224   1
   3  10 -11 20011.7 1678.15   3
   3  10 -11 20974.1 1547.33  11
   3  10 -10 5040.41 840.176  11
   3  10 -10 4464.30 860.696   3
  -3  10  10 4541.43 570.606  10
   3  10 -10 4736.38 781.828   1
   3  10  -9 12950.4 1294.31   3
   3  10  -9 13396.1 1218.89  11
   3  10  -8 1417.28 542.732   3
   3  10  -7 31197.0 1826.58   3
   3  10  -7 30130.2 1728.34  11
  -3  10   6 8777.89 868.104  10
   3  10  -6 9097.91 954.975   1
   3  10  -6 9394.44 1016.31   3
   3  10  -6 8472.59 965.296  11
  -3  10   5 20052.8 1278.14  10
   3  10  -5 21418.5 1401.67   1
   3  10  -5 20539.0 1402.37   3
   3  10  -4 3506.17 658.450  11
  -3  10   4 2711.26 280.058   3
   3  10  -4 3060.27 603.332   1
   3  10  -3 21134.7 1388.92   1
   3  10  -2 3977.07 667.683   1
  -3  10   1 27788.4 1570.13  10
  -3  10   1 27273.8 1148.66   3
   3  10  -1 28273.9 1409.21   3
  -3  10   1 27705.0 1195.84   3
   3  10  -1 27805.1 1560.04  11
   3  10   0 5093.76 741.240  11
  -3  10   0 5014.02 739.253  10
   3  10   1 17450.6 1297.63   1
  -3  10  -1 15906.4 1012.55   3
   3  10   1 18151.9 1060.25   3
  -3  10  -1 15588.6 1231.30  10
   3  10   1 15922.0 1201.05  11
   3  10   2 7958.68 881.455  11
   3  10   2 6240.70 846.983   1
   3  10   3 3407.10 465.164   4
   3  10   3 4865.82 770.526   1
  -3  10  -3 4262.36 702.446  10
   3  10   4 319.162 373.114  11
  -3  10  -4 980.491 453.981  10
   3  10   4 777.706 292.566   3
  -3  10  -5 16044.8 1327.05  10
   3  10   5 16577.0 903.251   3
   3  10   5 15781.2 1196.76  11
   3  10   6 3548.25 733.550   1
  -3  10  -6 4144.65 760.621  10
  -3  10  -6 3733.59 690.997   3
   3  10   7 3940.73 682.726  11
  -3  10  -7 4499.39 792.214   3
   3  10   7 5968.65 897.484   1
  -3  10  -8 1301.47 552.490  10
   3  10   8 417.474 475.521   1
  -3  10  -9 5194.47 914.567   3
  -3  10  -9 4414.30 811.960  10
   3  10   9 4412.45 797.825   6
  -3  10 -10-116.791 428.767  10
   3  10  10 239.478 316.108  11
  -3  10 -11 3286.60 842.110   3
  -3  10 -11 1373.86 551.050  10
   3  10  11 2398.93 704.161   6
   3  10  12 1995.00 679.061   6
  -3  10 -12 1394.50 667.401   3
  -3  10 -13 1687.52 551.797  10
   3  11 -13 4984.21 875.031  11
   3  11 -13 3816.72 795.443   1
   3  11 -12 10391.8 1152.89   1
   3  11 -12 9239.55 1264.10   3
   3  11 -11 4469.53 832.771  11
   3  11 -11 4537.02 811.643   1
   3  11 -10 8051.41 1033.47  11
  -3  11   9 5418.51 698.043  10
   3  11  -9 5107.59 893.545   3
   3  11  -9 4198.67 756.325   1
   3  11  -8 3564.01 737.090  11
   3  11  -8 2718.21 648.708   1
   3  11  -8 3400.85 757.722   3
   3  11  -7 13650.8 1216.76   1
   3  11  -7 12838.2 1249.03   3
  -3  11   6 14153.3 1137.64  10
   3  11  -6 15047.1 1255.53   1
   3  11  -6 16372.7 1333.68  11
  -3  11   5 2749.35 586.060  10
   3  11  -5 3512.46 682.247   3
   3  11  -5 1803.92 530.350   1
  -3  11   4 14290.4 1165.45  10
   3  11  -4 14007.8 1158.88   3
   3  11  -4 15038.5 1266.08  11
   3  11  -3 19544.7 1410.25  11
   3  11  -3 19411.0 1305.07   3
  -3  11   2 5439.13 777.738  10
   3  11  -2 5296.51 802.007  11
  -3  11   2 5687.61 525.222   3
   3  11  -1 7995.44 944.313   1
   3  11  -1 8451.54 824.390   3
  -3  11   1 8401.18 955.775  10
   3  11  -1 9057.97 991.742  11
   3  11   0 30005.6 1741.43   1
  -3  11   0 31538.6 1784.30  10
  -3  11  -1 8646.21 992.801  10
  -3  11  -1 8056.86 761.032   3
   3  11   1 9196.68 788.140   3
   3  11   1 8128.29 932.308  11
  -3  11  -2 29252.1 1757.05  10
   3  11   2 28510.5 1663.10  11
  -3  11  -2 27458.9 1428.72   3
   3  11   2 31797.9 1829.25   1
   3  11   3 3205.52 668.085  11
  -3  11  -3 4240.01 649.263   3
  -3  11  -4 9654.87 1075.16  10
  -3  11  -4 11563.0 1042.78   3
   3  11   4 10578.2 1136.12   1
  -3  11  -4 10030.5 990.639  11
  -3  11  -5 13010.3 1278.51  10
  -3  11  -5 12903.5 1163.06   3
  -3  11  -5 13299.5 1120.81  11
   3  11   5 14535.0 833.642   3
   3  11   5 14800.0 1234.11  11
  -3  11  -6 20474.0 1588.66  10
   3  11   6 20474.1 1592.82   1
   3  11   6 20147.3 1428.78  11
  -3  11  -7 2513.82 668.047   3
   3  11   7 2052.23 648.808   1
   3  11   7 2462.86 608.024  11
  -3  11  -8 37586.1 2201.19  10
  -3  11  -8 35736.4 2144.96   3
   3  11   8 35264.2 2149.74   1
  -3  11  -9 15025.1 1439.38  10
  -3  11  -9 15418.3 1498.72   3
   3  11   9 12929.6 1392.46   1
   3  11   9 14052.0 1215.24  11
  -3  11 -10 15972.9 1582.57   3
   3  11  10 15695.6 1269.35  11
  -3  11 -11 4078.33 914.969   3
   3  11  11 4959.62 919.473   6
  -3  11 -12 19845.2 1717.42  10
  -3  11 -13 3137.02 763.889  10
   3  12 -13 523.036 501.438  11
   3  12 -11 132.382 542.925   3
   3  12 -11 961.052 564.343  11
   3  12 -10 15533.7 1385.20   1
   3  12 -10 15449.6 1545.87   3
   3  12 -10 15066.4 1433.46  11
   3  12  -9 689.732 497.459  11
   3  12  -9 277.745 425.214   3
  -3  12   8 17315.2 1268.68  10
   3  12  -8 15867.9 1360.47   1
   3  12  -8 13751.5 1381.06   3
   3  12  -7-37.4357 362.327  11
  -3  12   7 757.206 424.215  10
   3  12  -7 200.376 430.974   3
   3  12  -7 1058.07 484.807   1
  -3  12   6 17617.9 1320.69  10
   3  12  -6 16913.5 1371.77   1
   3  12  -6 16433.1 1414.89  11
   3  12  -6 16259.6 1374.41   3
   3  12  -5 1692.20 601.897  11
  -3  12   5 1507.34 504.865  10
   3  12  -5 1876.35 562.027   3
   3  12  -4 16116.7 1329.42   1
   3  12  -4 12323.6 1141.04   3
   3  12  -3 224.873 405.702   1
  -3  12   3 177.595 388.776  10
   3  12  -3 294.451 435.928  11
   3  12  -2 12860.2 1212.01   1
  -3  12   2 12367.5 752.804   3
   3  12  -2 12375.7 1047.19   3
  -3  12   1 141.882 386.212  10
   3  12   0 17316.4 1402.30   1
  -3  12   0 16033.5 1020.26   3
   3  12   0 18333.4 1157.91   3
   3  12   0 16026.8 1339.09  11
   3  12   1-183.618 411.017  11
  -3  12  -1 240.633 269.354   3
   3  12   1 200.490 428.617   1
   3  12   2 10642.9 819.545   3
   3  12   2 11599.5 1201.87   1
   3  12   2 10892.6 1130.96  11
  -3  12  -3-143.987 326.176   3
  -3  12  -3 960.809 509.378  10
   3  12   4 5170.30 886.569   1
   3  12   4 5594.45 873.774  11
   3  12   5-326.878 447.977   1
  -3  12  -5 806.697 432.261  11
  -3  12  -5 637.999 425.759   3
   3  12   5 106.062 448.357  11
  -3  12  -5 1117.84 515.749  10
   3  12   6 8596.64 1027.36  11
   3  12   6 7594.95 1073.60   1
  -3  12  -7-116.762 452.023   3
  -3  12  -8 8868.08 1168.18  10
  -3  12  -8 8289.60 1118.31   3
   3  12   8 7532.69 1106.36   1
  -3  12  -9 1580.28 648.572   3
   3  12   9 1332.01 555.269  11
  -3  12 -10 2277.98 691.963   3
  -3  12 -10 2374.88 743.510  10
  -3  12 -11-143.345 379.658  10
   3  13 -12 6364.69 968.815   1
   3  13 -11 1626.96 693.716   3
   3  13 -11 1413.08 632.644  11
   3  13 -11 1841.23 634.691   1
   3  13 -10 6761.02 1040.25  11
   3  13 -10 8658.89 1092.84   1
   3  13  -9 3223.87 789.873  11
   3  13  -9 2704.18 775.647   3
   3  13  -9 2851.42 735.362   1
   3  13  -8 8356.38 1117.49  11
   3  13  -7 4466.24 867.275  11
  -3  13   7 2833.98 636.730  10
   3  13  -7 3979.75 801.500   1
   3  13  -6 13118.5 1282.24   1
   3  13  -6 12922.3 1277.05   3
   3  13  -5 8960.88 1049.06   3
  -3  13   4 19303.7 1490.97  10
   3  13  -4 20568.1 1484.52   3
   3  13  -4 21237.6 1634.08  11
   3  13  -3 3141.26 738.649  11
  -3  13   3 2126.76 614.439  10
   3  13  -3 1813.85 543.605   3
   3  13  -3 2726.76 672.929   1
   3  13  -2 6428.34 959.336  11
  -3  13   2 6037.93 916.335  10
   3  13  -2 7647.45 861.716   3
   3  13  -2 5952.21 918.574   1
  -3  13   0 18095.9 1513.68  10
  -3  13   0 16424.4 1050.14   3
   3  13   0 17488.9 1146.54   3
   3  13   0 16616.3 1437.23  11
   3  13   0 17287.2 1475.85   1
  -3  13  -1 9973.66 1167.41  10
  -3  13  -1 9079.07 853.082   3
   3  13   1 10216.0 1187.06   1
   3  13   1 9677.95 1143.45  11
  -3  13  -2 19505.7 1601.69  10
  -3  13  -2 20822.3 1331.55   3
   3  13   2 20517.8 1636.86   1
  -3  13  -3 7863.75 1075.92  10
   3  13   3 7575.67 1073.43   1
  -3  13  -3 8394.67 927.897   3
   3  13   3 7574.25 1022.13  11
  -3  13  -4 9745.46 1194.05  10
  -3  13  -4 9728.44 1036.15   3
   3  13   4 10869.8 1199.05  11
   3  13   5 3542.81 785.546  11
  -3  13  -5 3582.65 722.652   3
  -3  13  -5 4270.83 854.493  10
  -3  13  -6 22186.7 1659.33   3
  -3  13  -7 8006.98 1077.17   3
   3  13   7 10159.2 1286.24   1
   3  13   7 9644.02 1135.28  11
   3  13   8 10624.5 1357.25   1
   3  13   8 13314.5 1332.62  11
  -3  13  -9 3957.43 913.349  10
   3  13   9 2653.10 721.674  11
   3  14 -10 3392.81 931.440   3
   3  14  -9 13813.1 1408.80   1
   3  14  -9 12215.2 1438.68   3
   3  14  -8 1591.12 684.499  11
   3  14  -7 15616.1 1448.90   1
  -3  14   7 14088.5 1290.34  10
   3  14  -7 13430.0 1413.38  11
   3  14  -6 2545.60 757.032  11
   3  14  -6 2425.14 692.813   1
  -3  14   6 2624.14 670.598  10
   3  14  -6 3149.54 763.463   3
   3  14  -5 12490.8 1313.38   1
  -3  14   5 12641.4 1268.53  10
   3  14  -5 12347.3 1250.93   3
   3  14  -5 13881.1 1431.71  11
   3  14  -4 3698.41 838.456  11
   3  14  -4 3152.15 766.682   1
  -3  14   3 3306.65 738.127  10
   3  14  -2 277.158 498.806  11
  -3  14   2-153.094 426.693  10
   3  14  -2-193.235 396.321   3
   3  14  -2 280.906 464.379   1
  -3  14   1 17820.3 1555.21  10
   3  14  -1 16846.0 1513.41   1
  -3  14   0 1021.96 539.840  10
   3  14   0 650.580 536.292   1
  -3  14  -1 8880.48 1154.55  10
   3  14   1 9384.25 1182.64  11
   3  14   2-180.834 499.612  11
  -3  14  -2 1328.45 617.295  10
  -3  14  -3 3239.00 654.748   3
   3  14   3 3451.64 820.804   1
   3  14   4 1450.48 651.836   1
  -3  14  -4 1213.92 529.836   3
  -3  14  -4 1530.19 657.268  10
   3  14   4 998.060 608.172  11
   3  14   5 7641.04 1088.77  11
  -3  14  -5 5576.28 995.484  10
   3  14   5 6034.73 1063.52   1
  -3  14  -6 1360.26 605.822  10
   3  14   6 677.456 588.589   1
   3  14   6 1105.40 568.402  11
  -3  14  -7 5117.83 959.461   3
  -3  14  -8-345.981 486.564   3
   3  14   8 2236.38 698.069  11
   3  15  -9 7186.34 1204.77   3
   3  15  -8 1311.45 612.766   3
   3  15  -8 563.877 450.867   1
   3  15  -7 12766.3 1370.42   3
  -3  15   6-26.5588 316.461  10
   3  15  -6 570.410 578.625   3
  -3  15   5 13811.6 1407.90  10
   3  15  -5 14024.7 1498.88  11
  -3  15   4 997.564 530.285  10
   3  15  -4 992.506 509.920   3
   3  15  -4 1357.22 636.382  11
   3  15  -2-139.834 519.668  11
  -3  15   1 14515.0 1487.91  10
   3  15  -1 14335.6 1483.93   1
  -3  15  -1 14995.4 1551.67  10
   3  15   1 13087.6 1453.46   1
  -3  15  -2 1441.32 575.234  10
   3  15   3 10650.5 1359.29   1
   3  15   3 10115.0 1277.16  11
   3  15   5 11618.8 1365.37  11
   3  15   6-477.599 544.475  11
  -3  16   5 6784.18 1028.92  10
  -3  16   4 1496.11 612.069  10
  -3  16   3 2915.82 715.312  10
  -3  16   2 3277.14 802.038  10
  -4 -15   8 296.135 463.750   4
  -4 -15   7 7110.41 1043.51   4
   4 -15  -7 8582.82 1120.95   5
  -4 -15   6 442.089 406.844   4
   4 -15  -6 509.217 447.012   7
   4 -15  -6 511.189 520.971   5
  -4 -15   5 19014.5 1591.57   9
   4 -15  -5 16374.1 1480.61   5
  -4 -15   4 1230.05 520.242   9
  -4 -15   3 11780.3 1310.15   9
  -4 -15   2 771.896 487.563   9
   4 -15  -2 1409.82 649.154   2
  -4 -15   1 12774.8 1415.14   9
   4 -15  -1 14072.3 1483.86   2
   4 -15   0 272.119 559.875   2
  -4 -15  -1 19170.8 1721.89   9
   4 -15   2 550.387 568.336   2
   4 -15   3 15738.7 1556.70   2
   4 -15   4 747.217 681.793   2
  -4 -14   9 7561.51 1108.69   4
  -4 -14   8 430.894 405.374   4
   4 -14  -8 777.419 532.954   7
   4 -14  -8 212.201 374.692   5
  -4 -14   7 3637.40 764.466   4
   4 -14  -7 5186.67 957.725   7
   4 -14  -7 2797.29 696.573   5
   4 -14  -6 451.791 547.340   2
  -4 -14   6 1475.14 530.678   9
  -4 -14   6 1315.34 537.693   4
   4 -14  -6 1694.72 606.394   7
   4 -14  -6 1434.73 629.062  12
   4 -14  -5 1309.43 637.954   2
  -4 -14   5 1895.93 599.820   9
   4 -14  -5 1405.39 608.765  12
   4 -14  -4 153.693 481.673   2
  -4 -14   4 355.533 378.655   4
  -4 -14   3 4047.97 686.322   4
   4 -14  -2 1209.45 636.534   2
   4 -14  -2-92.4643 428.101  12
   4 -14  -1 1528.25 646.444   2
  -4 -14   1 1313.98 602.630   9
   4 -14  -1 1054.04 585.756  12
   4 -14   0 728.593 608.756   2
  -4 -14  -1 2213.07 671.213   9
  -4 -14  -2 1542.32 558.576   9
   4 -14   2 975.779 570.946   2
  -4 -14  -2-286.925 358.456   5
  -4 -14  -3 1115.38 603.254   9
   4 -14   4 472.648 532.987   2
  -4 -14  -4-146.716 423.872   5
   4 -14   5-29.6139 355.501   4
  -4 -14  -5 1052.24 590.115   5
   4 -14   6-184.827 415.433   4
   4 -14   7-277.848 455.025   4
   4 -13 -11 5944.91 1008.25   9
   4 -13 -10 6314.07 1007.59   9
  -4 -13  10 7076.73 1107.06   4
   4 -13 -10 6584.79 913.600   5
   4 -13  -9 6679.86 935.445   5
   4 -13  -9 8459.10 1205.37  12
  -4 -13   8 8840.00 1146.11   4
   4 -13  -8 6859.85 1082.81   7
   4 -13  -8 9746.20 1262.18   2
   4 -13  -8 7704.00 1130.01  12
  -4 -13   7 3204.87 634.459   9
  -4 -13   7 2190.79 669.558   4
   4 -13  -7 3813.77 832.456   7
   4 -13  -7 2827.17 649.281   5
  -4 -13   6 12013.9 1257.50   4
  -4 -13   6 11920.8 1136.03   9
   4 -13  -6 11460.6 1280.74   7
   4 -13  -6 14460.2 1446.12   2
   4 -13  -6 12974.5 1380.54  12
   4 -13  -5 4723.65 899.361   2
  -4 -13   5 5810.64 833.237   9
  -4 -13   5 4458.49 776.930   4
   4 -13  -5 4489.68 847.186   7
   4 -13  -5 6066.63 998.062  12
  -4 -13   4 9735.18 1051.67   4
   4 -13  -4 10755.6 1204.06   7
   4 -13  -3 7507.90 1053.28   2
   4 -13  -3 6801.18 1044.28  12
  -4 -13   2 20022.1 1369.27   4
  -4 -13   2 21445.0 1602.73   9
   4 -13  -2 20662.9 1640.05   2
   4 -13  -2 17036.6 1534.89  12
  -4 -13   1 6177.13 762.767   4
   4 -13  -1 6639.56 996.635  12
   4 -13  -1 6074.46 964.900   2
  -4 -13   1 5796.70 918.373   9
   4 -13   0 17051.4 1471.91   2
   4 -13   0 19084.4 1585.72  12
   4 -13   1 4732.47 695.227   4
  -4 -13  -1 4982.53 896.202   9
  -4 -13  -2 19707.1 1645.56   9
   4 -13   2 18975.2 1355.22   4
   4 -13   3 3099.37 661.541   4
  -4 -13  -3 3583.50 787.298   9
   4 -13   3 4994.86 852.044   2
  -4 -13  -3 5274.50 941.825   5
  -4 -13  -4 23604.8 1823.03   5
   4 -13   4 22171.5 1599.04   4
   4 -13   5 1691.74 598.042   4
  -4 -13  -5 3183.39 769.866   9
   4 -13   5 2661.11 723.370   2
   4 -13   6 20042.0 1501.16   2
  -4 -13  -6 23592.3 1918.55   9
  -4 -13  -6 19314.6 1711.33   5
   4 -13   6 19156.4 1602.07   4
   4 -13   7 5196.30 965.267   4
  -4 -13  -7 6922.63 1113.11   5
   4 -13   8 14193.1 1508.39   4
   4 -12 -13 1424.86 504.096   9
   4 -12 -12 5581.35 918.808   9
   4 -12 -11 1193.45 607.838   7
   4 -12 -11-179.555 454.401  12
   4 -12 -10 6446.93 972.044   9
   4 -12 -10 8675.49 1223.98   7
   4 -12 -10 8394.48 980.374   5
   4 -12 -10 8635.30 1175.66  12
  -4 -12   9 901.377 523.200   4
   4 -12  -9 1193.77 590.469   7
   4 -12  -9 604.496 391.166   5
   4 -12  -9-124.351 442.193  12
   4 -12  -8 4875.97 912.520  12
  -4 -12   8 4748.53 853.023   4
   4 -12  -8 5762.74 984.556   7
   4 -12  -8 3551.41 664.197   5
   4 -12  -7 424.171 492.506   2
  -4 -12   7-349.120 391.891   4
   4 -12  -7 315.515 404.295   7
   4 -12  -6 6377.86 955.956   7
   4 -12  -6 5686.30 910.057  12
  -4 -12   5 321.912 359.756   4
   4 -12  -5 798.617 470.056   7
   4 -12  -5 703.656 503.983  12
  -4 -12   4 5414.06 790.422   4
   4 -12  -4 6030.05 946.982   2
  -4 -12   4 6752.27 860.462   9
   4 -12  -4 6450.72 906.623   7
   4 -12  -3 886.247 492.283   2
  -4 -12   3 877.002 442.463   9
  -4 -12   3 235.605 324.551   4
   4 -12  -3 232.733 462.862  12
   4 -12  -2 2934.83 679.736   2
  -4 -12   2 2993.92 645.952   9
  -4 -12   2 2016.49 509.996   4
   4 -12  -1 924.068 349.059   4
   4 -12  -1 514.665 488.025   2
   4 -12  -1 1024.46 492.308  12
  -4 -12   0 4093.24 772.075   9
  -4 -12   0 3382.68 560.282   4
   4 -12   0 4321.51 810.475  12
  -4 -12  -1 509.346 437.414   9
  -4 -12  -1 435.956 302.214   4
   4 -12   2 2915.75 594.601   4
  -4 -12  -2 2514.82 471.282   4
  -4 -12  -2 2378.51 641.698   9
  -4 -12  -2 3228.87 743.373   5
  -4 -12  -3-103.827 389.819   9
   4 -12   3-341.295 454.728   2
  -4 -12  -3-175.837 429.211   5
   4 -12   4 1436.23 506.612   4
  -4 -12  -4 1377.20 589.467   9
   4 -12   4 1001.31 492.211   2
  -4 -12  -4 1264.43 571.351   5
   4 -12   5 560.677 449.262   4
   4 -12   5 326.288 450.329   2
  -4 -12  -5 631.431 499.221   5
   4 -12   6 983.915 530.748   4
  -4 -12  -6 3139.05 748.452   9
   4 -12   6 2385.44 641.501   2
   4 -12   7 802.084 534.256   4
  -4 -12  -7-209.197 439.560   5
  -4 -12  -8-391.644 498.860   9
   4 -12   9 699.568 540.709   4
   4 -11 -13 297.840 353.478   5
   4 -11 -12 9851.01 1128.10   9
   4 -11 -12 11836.7 1404.88   7
   4 -11 -12 10360.5 1115.71   5
  -4 -11  12 9657.02 1281.99   4
   4 -11 -11 3224.27 721.051   9
  -4 -11  11 3082.64 780.717   4
   4 -11 -11 3756.41 850.429   7
   4 -11 -11 3327.22 677.210   5
   4 -11 -10 12097.9 1337.95  12
   4 -11 -10 10872.3 1329.31   7
  -4 -11  10 11662.4 1322.26   4
  -4 -11   9 2828.92 698.399   4
   4 -11  -9 2363.40 551.239   5
  -4 -11   8 16683.9 1082.01   9
   4 -11  -8 15712.6 1451.37  12
   4 -11  -8 18073.8 1574.02   7
   4 -11  -8 16488.8 1239.65   5
  -4 -11   7 2410.08 507.299   9
   4 -11  -7 2450.62 562.642   5
  -4 -11   6 20856.0 1511.09   4
   4 -11  -6 22740.8 1672.83   7
   4 -11  -6 21346.2 1377.26   5
  -4 -11   5 3459.98 669.420   4
   4 -11  -5 3850.45 741.635   7
   4 -11  -5 2312.56 625.197  12
  -4 -11   4 19538.0 1333.35   9
   4 -11  -4 18153.0 1430.25   7
   4 -11  -4 19483.5 1520.33  12
   4 -11  -3 8155.69 1022.86  12
  -4 -11   3 10029.0 1005.85   9
   4 -11  -3 8894.22 1008.37   7
   4 -11  -3 6883.11 617.912   4
  -4 -11   2 27351.8 1520.87   4
  -4 -11   2 27885.9 1645.57   9
   4 -11  -2 25522.3 1638.17   2
  -4 -11   1 6828.02 903.635   9
  -4 -11   1 6001.71 738.812   4
  -4 -11   0 36395.2 1649.42   4
  -4 -11   0 38780.1 2010.57   9
   4 -11   0 37279.6 1929.06   2
   4 -11   0 33944.9 1576.05   4
   4 -11   0 35239.1 1964.32  12
  -4 -11  -1 6130.11 696.317   4
   4 -11   1 6319.57 873.533   2
  -4 -11  -2 20145.5 1169.69   4
   4 -11   2 19743.2 1337.88   4
   4 -11   2 22318.0 1491.47   2
  -4 -11  -3 7779.17 735.740   4
   4 -11   3 9914.67 1025.31   2
  -4 -11  -4 23141.7 1697.96   9
   4 -11   4 30251.9 1661.23   2
  -4 -11  -5 10164.8 1177.24   9
   4 -11   5 10751.8 1153.15   4
   4 -11   5 10790.7 1045.23   2
   4 -11   6 35901.8 1747.79   2
  -4 -11  -6 33886.2 2095.78   9
  -4 -11  -6 35054.5 2107.38   5
   4 -11   6 30136.7 1925.77   4
  -4 -11  -7 12255.6 1319.14   5
   4 -11   8 17214.5 1578.12   4
   4 -11   9 6584.80 1064.46   4
  -4 -11  -9 5470.65 987.254   5
  -4 -11 -10 18723.5 1740.55   5
   4 -11  10 19535.0 1800.31   4
   4 -10 -13 9988.09 1073.71   9
   4 -10 -13 12263.4 1187.49   5
  -4 -10  12 1592.06 629.714   4
   4 -10 -12 1694.00 543.656   5
   4 -10 -11 6861.28 938.764   9
   4 -10 -11 8146.90 929.740   5
  -4 -10  11 8340.09 1142.93   4
  -4 -10  10 3823.79 804.032   4
   4 -10 -10 3838.51 830.146   7
   4 -10  -9 8376.93 1094.52   7
   4 -10  -9 7533.28 843.086   5
  -4 -10   9 9063.63 1098.33   4
  -4 -10   8 305.643 243.246   9
  -4 -10   8 669.067 448.284   4
   4 -10  -8-379.735 421.993   7
   4 -10  -8 232.508 304.925   5
   4 -10  -7 5593.59 889.730   7
  -4 -10   6 3130.85 529.393   9
  -4 -10   6 3884.82 681.482   4
   4 -10  -6 2615.47 649.651   7
   4 -10  -6 2107.04 479.198   5
  -4 -10   5 6559.70 850.060   4
  -4 -10   5 6692.58 747.039   9
   4 -10  -5 5270.45 821.914   7
   4 -10  -5 6838.16 528.799   4
   4 -10  -5 6937.55 920.740  12
  -4 -10   4 3738.93 613.935   9
   4 -10  -4 3867.10 712.983   7
  -4 -10   3 12478.8 1053.09   4
  -4 -10   3 14259.1 1114.75   9
   4 -10  -3 12028.3 804.586   4
   4 -10  -3 13844.4 1207.16  12
  -4 -10   2 2779.31 571.027   9
  -4 -10   2 3518.59 600.430   4
  -4 -10   1 3559.21 640.633   9
   4 -10  -1 2667.66 597.526   2
   4 -10  -1 2440.61 609.901  12
   4 -10   0 1468.10 505.516   2
  -4 -10   0 440.681 371.659   9
  -4 -10   0 949.320 358.965   4
   4 -10   0 1321.87 487.557  12
   4 -10   1 459.897 331.829   4
   4 -10   1 1112.11 456.751  12
   4 -10   2 2180.29 499.379   4
   4 -10   2 2094.51 539.117   2
  -4 -10  -2 1922.87 422.934   4
  -4 -10  -2 1884.20 538.182   5
  -4 -10  -3 5709.65 825.665   9
  -4 -10  -3 5954.71 865.250   5
   4 -10   3 6640.54 810.533   2
   4 -10   4 1188.36 488.829   4
   4 -10   4 3013.75 611.807   2
  -4 -10  -4 2618.38 620.108   9
  -4 -10  -4 1778.12 318.452  12
   4 -10   5 94.8277 354.189   4
   4 -10   5 490.936 392.116   2
  -4 -10  -6 702.051 476.602   9
   4 -10   6 0.91202 330.027   2
  -4 -10  -6-34.7651 393.302   5
   4 -10   7-104.074 388.191   4
  -4 -10  -7 475.876 432.289   9
   4 -10   7 931.574 403.804   2
  -4 -10  -7 1178.04 544.172   5
   4 -10   8 525.634 448.459   4
  -4 -10  -8 91.7344 426.040   5
  -4 -10  -9 1510.54 585.649   5
   4 -10  11 1164.43 563.363   4
  -4 -10 -11 649.815 551.534   5
   4  -9 -14 1358.42 619.246   7
   4  -9 -14-558.648 443.317   5
  -4  -9  13 26573.2 2015.29   4
   4  -9 -12 729.418 513.049   7
   4  -9 -11 26979.4 1927.47   7
  -4  -9  11 25577.9 1851.81   4
   4  -9 -10 65.7971 360.678   7
   4  -9 -10 236.757 311.686   5
   4  -9  -9 43572.7 2304.04   7
  -4  -9   9 44863.2 2281.45   4
  -4  -9   8 1027.67 288.055   9
   4  -9  -8 1276.47 509.731   7
   4  -9  -8 1300.82 399.893   5
  -4  -9   7 45015.5 2144.89   4
  -4  -9   7 46329.5 1623.89   9
   4  -9  -7 41337.4 1122.91   4
   4  -9  -7 44296.3 2141.61  12
   4  -9  -6 2305.90 576.913   7
  -4  -9   5 33159.7 1483.68   9
   4  -9  -5 34822.7 1882.00   7
   4  -9  -5 33409.7 1797.92  12
   4  -9  -5 34068.1 1489.67   5
  -4  -9   4 1550.94 423.037   9
  -4  -9   4 1361.24 439.847   4
   4  -9  -4 2010.79 549.611  12
  -4  -9   3 44813.4 1896.51   4
  -4  -9   3 47042.9 1862.59   9
   4  -9  -3 45191.8 2035.55  12
   4  -9  -3 49809.3 2143.21   7
   4  -9  -3 42834.8 1476.64   4
  -4  -9   2 2759.33 527.065   4
   4  -9  -2 1431.20 392.519   1
  -4  -9   1 34248.3 1575.49   4
   4  -9  -1 37505.5 1390.31   1
  -4  -9   1 35874.6 1711.86   9
   4  -9  -1 34281.4 1756.52  12
   4  -9   0 302.791 292.960   4
   4  -9   0-79.8034 322.143  12
  -4  -9  -1 38225.1 1593.77   4
  -4  -9  -1 41191.4 1918.72   9
   4  -9   1 38323.7 1696.27   4
   4  -9   1 39696.4 1889.10  12
   4  -9   2 847.926 368.919   4
   4  -9   2 572.662 402.788   2
  -4  -9  -2 249.770 339.916   9
  -4  -9  -2 694.631 314.853   4
  -4  -9  -2 641.638 389.772   5
  -4  -9  -3 27271.6 1302.40   4
   4  -9   3 27827.8 1577.54   4
  -4  -9  -3 29194.2 1694.40   9
  -4  -9  -3 26640.3 896.736  12
   4  -9   4 951.198 376.329   2
  -4  -9  -4 1163.17 468.157   5
   4  -9   4 2012.78 522.503   4
  -4  -9  -5 35713.1 1946.22   9
  -4  -9  -5 36047.1 1914.84   5
   4  -9   5 35829.1 1913.11   4
  -4  -9  -5 37474.0 1199.34  12
   4  -9   5 42149.7 1691.15   2
   4  -9   6 2876.45 655.672   4
  -4  -9  -6 1683.29 527.845   9
   4  -9   6 2089.41 476.929   2
  -4  -9  -6 2653.63 607.097   5
  -4  -9  -7 21768.7 1598.84   5
   4  -9   7 19587.8 1554.76   4
   4  -9   8 470.048 501.271   4
  -4  -9  -9 28679.3 1919.54   5
   4  -9  11 22838.8 1929.54   4
  -4  -9 -12 765.506 573.706   5
   4  -8 -15 15122.2 1581.40   7
  -4  -8  15 14269.1 1574.94   4
  -4  -8  14 2762.29 771.854   4
   4  -8 -14 3305.34 802.295   7
   4  -8 -13 4325.73 651.677   9
  -4  -8  13 6031.49 991.455   4
   4  -8 -12 3591.83 641.718   9
  -4  -8  12 3817.05 823.245   4
  -4  -8  11 9676.96 1144.16   4
  -4  -8  10 1762.23 557.536   4
   4  -8 -10 2268.69 629.095   7
  -4  -8   8 1660.14 541.933   4
   4  -8  -8 1918.03 541.013   7
   4  -8  -7 9795.52 1038.78   7
  -4  -8   6 2377.74 564.195   4
   4  -8  -6 1685.35 300.442   3
   4  -8  -6 1707.98 371.499   5
   4  -8  -6 1436.56 488.175  12
  -4  -8   5 3719.49 506.729   9
  -4  -8   5 4462.80 691.740   4
   4  -8  -5 3542.08 421.434   3
   4  -8  -5 3717.11 496.233   5
   4  -8  -5 4530.36 705.537  12
   4  -8  -4 1679.42 339.523   4
  -4  -8   4 1622.95 397.685   9
  -4  -8   4 1229.64 408.666   4
   4  -8  -4 1333.42 471.086   7
   4  -8  -4 1596.79 477.990  12
   4  -8  -3 3503.93 515.662   1
  -4  -8   3 3540.22 580.953   4
   4  -8  -3 5024.41 717.401   7
  -4  -8   3 3321.82 532.952   9
   4  -8  -3 4015.17 494.053   4
   4  -8  -3 4603.16 671.508  12
   4  -8  -2 566.806 272.489   4
   4  -8  -2 789.862 330.870   1
  -4  -8   2 1332.34 385.678   9
  -4  -8   2 846.325 346.950   4
   4  -8  -2 743.757 302.586   3
  -4  -8   1 3082.97 547.255   9
  -4  -8   1 3826.78 578.585   4
   4  -8  -1 3454.76 458.502   1
   4  -8   0 585.902 321.604   4
  -4  -8   0 730.769 320.832   4
   4  -8   0 823.577 253.899   1
   4  -8   0 107.575 317.562  12
  -4  -8  -1 1778.14 472.691   9
   4  -8   1 2645.95 549.083  12
   4  -8   2 1060.68 382.720   4
   4  -8   2 1541.21 446.042   2
  -4  -8  -2 1026.85 426.400   9
  -4  -8  -2 858.229 302.645   4
  -4  -8  -2 962.030 412.697   5
  -4  -8  -3 7667.33 706.698   4
  -4  -8  -3 6491.64 806.591   9
  -4  -8  -3 7285.97 841.180   5
   4  -8   3 9283.49 820.878   2
   4  -8   3 7878.19 863.873   4
   4  -8   4 1888.32 438.025   2
   4  -8   5 1347.53 498.272   4
   4  -8   5 805.728 354.187   2
  -4  -8  -5 1731.24 509.049   5
  -4  -8  -5 1553.51 272.074  12
   4  -8   6 1116.04 496.329   4
   4  -8   6 450.481 320.772   2
   4  -8   7 1010.09 465.677   4
  -4  -8  -7 440.196 395.818   5
   4  -8   9 279.889 428.347   4
  -4  -8  -9 756.470 482.423   5
   4  -8  10 1510.82 598.917   4
   4  -8  11 321.825 489.496   4
   4  -8  12 823.248 597.067   4
  -4  -8 -12-1106.04 586.099   5
   4  -7 -16 13601.6 1510.01   7
   4  -7 -15 6271.57 1075.10   7
   4  -7 -14 19854.6 1706.57   7
   4  -7 -13 10866.7 1258.30   7
  -4  -7  13 11337.3 1287.28   4
   4  -7 -12 17160.1 1172.41   9
   4  -7 -12 18777.4 1564.01   7
   4  -7 -12 18450.9 1225.63   5
   4  -7 -11 16743.7 1433.31   7
  -4  -7  11 15509.2 1386.92   4
   4  -7 -10 23842.3 1654.16   7
   4  -7 -10 21664.4 1215.39   5
   4  -7 -10 21165.6 944.953   3
   4  -7  -9 16222.2 1341.10   7
  -4  -7   9 16901.5 1353.80   4
   4  -7  -8 61265.3 2468.92   7
   4  -7  -8 60608.6 1567.35   3
  -4  -7   8 62231.3 2456.52   4
   4  -7  -7 18842.6 891.448   3
  -4  -7   7 18118.8 1313.48   4
   4  -7  -6 43388.2 1973.47   7
  -4  -7   6 42032.1 1905.50   4
  -4  -7   5 10231.1 952.683   4
  -4  -7   5 10707.5 754.358   9
   4  -7  -5 10832.4 825.886   6
   4  -7  -5 10240.3 717.116   5
   4  -7  -5 10750.8 715.586   4
   4  -7  -5 10892.1 976.614  12
   4  -7  -4 62631.2 2272.07   7
  -4  -7   4 62115.5 1751.32   6
  -4  -7   4 62078.4 2170.55   4
   4  -7  -4 59927.1 1681.01   4
   4  -7  -4 64220.7 1712.63   4
  -4  -7   3 21114.8 1257.78   4
   4  -7  -3 19963.1 1276.82   7
   4  -7  -3 20670.4 1077.33   1
   4  -7  -3 18918.7 981.790   3
  -4  -7   2 70837.1 2204.90   4
  -4  -7   2 71897.7 2101.85   9
   4  -7  -2 74654.9 2011.62   6
   4  -7  -2 72845.7 1867.69   1
   4  -7  -2 67947.5 1918.92   4
   4  -7  -1 23807.2 1149.36   4
   4  -7  -1 22120.9 1138.83   3
  -4  -7   1 24043.3 1266.27   9
   4  -7  -1 23835.1 1009.23   1
   4  -7  -1 22846.0 1303.40  12
   4  -7   0 49512.4 1881.18  12
  -4  -7   0 52574.1 1689.80   6
   4  -7   0 46371.6 1710.65   4
   4  -7   0 47572.3 1714.34   3
  -4  -7  -1 10971.0 924.593   9
  -4  -7  -1 12037.9 856.816   6
   4  -7   1 11905.5 924.348   4
  -4  -7  -1 10879.2 846.460   4
   4  -7   1 11906.9 951.844  12
  -4  -7  -2 21902.2 1311.48   9
  -4  -7  -2 21256.5 1144.53   4
  -4  -7  -2 22297.8 1288.39   5
   4  -7   2 20864.9 1255.70   4
  -4  -7  -3 6038.35 635.497   4
  -4  -7  -3 6573.16 746.686   5
  -4  -7  -3 5509.31 322.921  12
  -4  -7  -4 103779. 2856.38   5
   4  -7   4 107557. 3045.72   4
   4  -7   5 12671.9 1119.63   4
   4  -7   5 12069.5 810.119   2
   4  -7   5 14128.9 884.965  11
   4  -7   7 4858.50 494.170   2
   4  -7   7 4728.45 801.781   4
  -4  -7  -8 22301.7 1543.20   5
   4  -7   9 11475.1 1256.62   4
  -4  -7 -10 33927.1 1509.48  10
  -4  -7 -10 34404.3 2028.04   5
   4  -7  10 32102.8 2099.64   4
   4  -7  11 9250.68 1230.49   4
  -4  -7 -11 8574.33 1127.80   5
  -4  -7 -12 23387.7 1820.61   5
   4  -7  12 23166.6 1943.11   4
  -4  -7 -13 6624.48 1031.65   5
   4  -6 -16 11261.8 1371.55   7
   4  -6 -14 18370.9 1599.56   7
  -4  -6  13 451.073 396.197   4
   4  -6 -12 9190.15 1092.84   7
   4  -6 -12 9044.35 721.762   3
  -4  -6  12 10746.0 1176.87   4
  -4  -6  11 39.5257 364.286   4
   4  -6 -11 438.293 245.425   3
   4  -6 -11 497.414 397.004   7
   4  -6 -11-581.353 323.161   5
   4  -6 -10 9095.70 1020.77   7
   4  -6 -10 8148.25 730.628   5
   4  -6  -9 734.556 272.286   4
  -4  -6   9 1361.29 490.763   4
   4  -6  -9 834.578 257.722   3
   4  -6  -8 14026.0 1170.55   7
   4  -6  -8 14494.9 831.089   4
  -4  -6   8 14939.1 1198.08   4
  -4  -6   7 344.478 335.453   4
   4  -6  -7 289.467 209.062   3
   4  -6  -7 259.627 215.924   5
  -4  -6   6 5589.74 724.894   4
   4  -6  -6 5778.57 739.420   7
   4  -6  -6 5315.43 492.704   5
   4  -6  -6 5853.68 539.326   3
   4  -6  -5 238.171 184.114   5
   4  -6  -4 7981.66 633.042   4
   4  -6  -4 8652.30 728.320   1
   4  -6  -4 7641.75 630.160   3
  -4  -6   3 558.982 332.247   4
   4  -6  -3 789.635 343.163   7
   4  -6  -3 328.408 224.462   6
   4  -6  -3 890.718 309.248   1
   4  -6  -3 889.152 356.077  12
  -4  -6   2 29466.7 1401.01   4
   4  -6  -2 29305.5 1223.94   4
   4  -6  -2 28230.1 1116.78   1
   4  -6  -2 27235.7 1214.87   4
   4  -6  -2 26970.1 1205.55   3
   4  -6  -1 619.103 289.193   4
   4  -6  -1 875.177 313.422   3
   4  -6  -1 1286.27 391.071  12
   4  -6  -1 424.647 223.900   1
  -4  -6   0 8087.86 638.387   6
   4  -6   0 8430.18 767.596  12
   4  -6   0 8684.76 754.906   3
   4  -6   1 568.642 284.088  11
   4  -6   1 710.196 339.195   4
  -4  -6  -1 383.596 274.930   4
   4  -6   1 912.376 347.020   3
   4  -6   2 597.443 297.777  11
   4  -6   2 538.096 313.284   4
  -4  -6  -2 791.833 305.051   4
  -4  -6  -2 420.291 312.684   5
   4  -6   2 894.570 348.960   3
   4  -6   2 449.413 86.0249   1
  -4  -6  -3 3835.36 513.334   4
   4  -6   3 4388.58 641.828   4
  -4  -6  -3 3765.69 219.222  12
  -4  -6  -4 10789.6 914.583   5
   4  -6   4 11599.9 764.589   2
   4  -6   4 9905.55 952.436   4
  -4  -6  -4 9899.33 447.521  12
   4  -6   4 11560.2 776.725  11
   4  -6   5 1665.58 338.537  11
   4  -6   5 1648.56 503.457   4
   4  -6   5 2036.78 361.986   2
  -4  -6  -5 1741.28 452.915   5
   4  -6   6 745.935 234.288  11
   4  -6   6 1496.79 499.101   4
  -4  -6  -6 1140.75 412.783   5
   4  -6   7 1506.01 526.201   4
   4  -6   8 2799.43 655.924   4
  -4  -6  -8 2382.22 577.871   5
   4  -6   9 357.126 400.792   4
  -4  -6 -10 1355.34 369.690  10
   4  -6  10 1348.58 567.015   4
  -4  -6 -10 971.531 480.110   5
  -4  -6 -11 1169.18 498.417   5
   4  -6  12 682.307 482.985   4
  -4  -6 -12 1978.91 629.738   5
  -4  -5  17 7180.12 1123.19   4
   4  -5 -17 6948.00 1100.50   7
   4  -5 -16 5322.59 983.259   7
   4  -5 -15 4807.41 886.003   7
   4  -5 -13 14677.0 905.259   9
   4  -5 -13 16943.5 1457.31   7
   4  -5 -13 15132.1 1019.53   3
  -4  -5  13 18014.7 1518.42   4
   4  -5 -12 15063.8 1327.97   7
   4  -5 -11 21759.4 1520.75   7
   4  -5 -11 22885.9 1165.21   3
   4  -5 -10 18142.8 1349.46   7
   4  -5 -10 16796.2 973.490   5
   4  -5 -10 18304.3 1017.52   3
  -4  -5  10 18331.3 1373.23   4
   4  -5  -9 48711.0 1530.13   5
   4  -5  -9 47513.7 1574.47   3
   4  -5  -8 59244.6 2254.73   7
   4  -5  -8 55796.7 1669.28   3
  -4  -5   8 61233.1 2302.75   4
  -4  -5   7 8903.90 892.409   4
  -4  -5   6 37122.1 1692.52   4
   4  -5  -6 35689.6 1663.34   7
  -4  -5   5 19230.4 1198.51   4
   4  -5  -5 20407.9 1240.14   7
   4  -5  -4 33372.6 1536.66   7
   4  -5  -4 32270.5 1136.65   6
   4  -5  -4 31814.4 955.977   5
  -4  -5   3 34288.7 1505.78   4
   4  -5  -3 32486.6 1393.99  12
   4  -5  -3 31428.3 1268.06   3
  -4  -5   2 109981. 2608.13   4
   4  -5  -2 117230. 2410.17   4
   4  -5  -2 108532. 2459.97  12
   4  -5  -2 109745. 2029.74   6
  -4  -5   1 35397.9 1465.50   4
   4  -5  -1 35493.1 1415.08   4
  -4  -5   0 78451.5 2151.87   4
   4  -5   0 79490.7 2085.29  12
   4  -5   0 77070.9 2126.82   3
  -4  -5  -1 17831.6 984.621   5
   4  -5   1 20032.1 639.663   1
   4  -5   1 17914.9 1090.23   4
   4  -5   1 19353.0 1052.89  12
   4  -5   1 17454.3 1065.38   3
   4  -5   2 58165.3 1975.54   3
   4  -5   2 53016.6 620.911   1
  -4  -5  -2 60447.9 1827.95   5
   4  -5   2 57653.7 1984.47   4
  -4  -5  -3 11149.9 829.005   4
   4  -5   3 10397.2 895.861   3
   4  -5   3 12498.1 774.985  11
   4  -5   4 88831.4 2649.86   4
   4  -5   4 94786.3 1992.46  11
  -4  -5  -5 7950.90 789.433   5
   4  -5   5 8207.72 583.362  11
  -4  -5  -6 47102.1 1889.80   5
   4  -5   6 51629.1 2196.05   4
   4  -5   6 51071.0 1254.42   2
   4  -5   7 11049.9 1097.87   4
  -4  -5  -8 47099.9 1718.28  10
  -4  -5  -8 47843.2 2060.80   5
   4  -5   8 48740.5 2307.78   4
  -4  -5  -9 8838.25 966.692   5
   4  -5   9 8483.48 1037.31   4
  -4  -5 -10 50727.7 1749.98  10
  -4  -5 -10 51609.5 2322.59   5
  -4  -5 -11 11565.0 1191.49   5
  -4  -5 -12 28919.1 1662.77   3
   4  -5  12 31693.1 2163.13   4
   4  -5  13 14709.1 1554.88   4
  -4  -5 -13 12868.8 1153.46   3
  -4  -4  18 2726.71 719.750   8
   4  -4 -17 15666.8 1541.82   7
  -4  -4  17 18018.5 1698.73   4
  -4  -4  16 2932.92 779.205   4
   4  -4 -16 1675.00 600.056   7
   4  -4 -15 15901.8 1463.61   7
   4  -4 -15 15786.6 1178.78   3
  -4  -4  15 18135.2 1584.30   4
  -4  -4  14 2882.73 713.886   4
   4  -4 -14 3421.33 592.388   3
   4  -4 -13 13535.4 771.563   9
   4  -4 -13 15148.1 1327.92   7
   4  -4 -12 3228.12 419.694   9
   4  -4 -12 3177.42 657.260   7
  -4  -4  12 3370.17 696.341   4
   4  -4 -11 14747.3 1221.82   7
  -4  -4  11 14180.9 1232.36   4
   4  -4 -10 1650.61 491.374   7
   4  -4  -9 30522.7 1620.41   7
   4  -4  -9 26324.1 1239.54   3
  -4  -4   9 29337.7 1621.39   4
   4  -4  -8 30576.3 1571.12   7
   4  -4  -8 29675.8 1052.60   5
   4  -4  -8 29969.7 1285.59   3
   4  -4  -8 34600.5 1360.33   4
  -4  -4   8 32783.2 1652.93   4
  -4  -4   7 5508.87 698.669   4
   4  -4  -7 5100.97 674.770   7
   4  -4  -7 4467.91 407.072   5
   4  -4  -7 5424.59 552.776   4
  -4  -4   6 1357.09 398.101   4
  -4  -4   6 1113.78 246.308   7
   4  -4  -5 25694.1 1329.72   7
   4  -4  -5 24795.2 1105.09   4
   4  -4  -4 3155.75 435.203   4
   4  -4  -4 3999.03 496.365   3
   4  -4  -3 8001.57 672.618   3
  -4  -4   2 6189.60 651.890   4
   4  -4  -2 5284.46 547.405  12
   4  -4  -2 5540.24 581.974   3
  -4  -4   1 7425.95 690.729   4
  -4  -4   1 7432.05 727.967   3
   4  -4  -1 7615.74 676.958   3
   4  -4   0 1303.81 351.676   4
  -4  -4   0 1327.98 359.641   4
   4  -4   0 930.674 325.748   3
   4  -4   0 1145.14 308.581  12
   4  -4   0 1964.67 368.773  11
  -4  -4  -1 1627.44 359.977   4
   4  -4   1 1454.69 324.007  12
   4  -4   1 1079.01 291.284  11
   4  -4   2 4320.15 586.755   4
   4  -4   2 4599.27 476.302  11
   4  -4   2 3885.14 560.506   3
   4  -4   3 11105.7 909.897   3
  -4  -4  -3 11526.3 802.618   5
   4  -4   3 10262.4 892.081   4
   4  -4   4 12171.5 985.099   3
   4  -4   4 9964.61 913.303   4
   4  -4   5 1146.19 429.969   4
   4  -4   5 571.940 198.777   2
   4  -4   5 766.628 277.406   5
   4  -4   7 1538.76 493.322   4
  -4  -4  -7 1513.88 373.686  10
  -4  -4  -7 1603.38 435.384   5
   4  -4   7 1402.78 163.517  11
   4  -4   8 1578.30 506.612   4
  -4  -4  -8 1358.40 437.212   5
  -4  -4  -9 528.245 277.058  10
  -4  -4  -9 678.064 409.222   5
  -4  -4 -10 965.133 323.804  10
   4  -4  10 867.617 476.083   4
  -4  -4 -11 952.715 321.209  10
   4  -4  11 1323.84 556.383   4
   4  -4  12 245.230 443.875   4
  -4  -4 -13 1392.03 474.243   3
   4  -4  13 1568.68 601.361   4
  -4  -4 -14-48.9882 287.110   3
   4  -4  14 192.067 539.251   4
  -4  -3  18 540.996 462.387   4
  -4  -3  18 1011.88 509.285   8
   4  -3 -18 831.874 444.836   7
  -4  -3  18 456.973 383.457   6
  -4  -3  17 24886.4 1832.98   8
  -4  -3  17 22466.0 1809.48   4
  -4  -3  16 1448.89 580.480   4
   4  -3 -16 401.794 340.427   3
   4  -3 -16 1526.04 596.805   7
  -4  -3  14-259.820 403.271   4
   4  -3 -14-119.800 329.682   3
   4  -3 -14 209.294 377.673   7
  -4  -3  13 42647.7 2175.40   4
  -4  -3  12 3163.99 667.416   4
   4  -3 -12 2825.80 532.427   3
   4  -3 -11 34955.4 1779.05   7
   4  -3 -11 32416.4 1518.24   3
  -4  -3  11 36092.5 1873.23   4
  -4  -3   9 39603.4 1828.00   4
   4  -3  -8 410.345 309.447   7
  -4  -3   7 94674.5 2625.88   4
   4  -3  -7 91864.5 2516.45   7
   4  -3  -7 96718.8 2274.34   4
  -4  -3   6 7780.64 566.428   7
   4  -3  -6 7396.98 737.480   7
   4  -3  -6 8671.91 693.458   4
  -4  -3   5 121604. 2127.97   7
   4  -3  -5 120248. 2732.76   7
   4  -3  -4 10450.1 740.124   4
   4  -3  -4 8701.77 300.855   5
   4  -3  -4 11070.0 784.162   3
  -4  -3   3 35309.7 1520.56   3
   4  -3  -2 1308.18 323.034   4
   4  -3  -2 1144.01 338.484   3
   4  -3  -2 1332.58 302.765  12
  -4  -3   1 69756.5 1456.56   5
  -4  -3   1 74879.6 2162.72   3
   4  -3  -1 69307.0 1950.72   3
   4  -3  -1 68952.9 1675.22  12
  -4  -3   0 3122.55 468.662   4
   4  -3   0 3463.98 506.158   3
   4  -3   1 83052.9 2156.12   4
  -4  -3  -1 77054.4 2053.19   4
  -4  -3  -1 77286.5 1674.22   5
  -4  -3  -1 83017.1 2270.64   3
   4  -3   1 76018.0 1749.33  12
   4  -3   2 349.786 277.783   4
  -4  -3  -2 256.317 255.030   3
  -4  -3  -2 397.829 259.944   4
   4  -3   2 778.693 207.230   5
   4  -3   3 61410.2 2063.27   4
   4  -3   3 65812.5 1506.22  11
   4  -3   3 62309.7 2060.91   3
   4  -3   4 1322.44 384.966   4
  -4  -3  -4 1408.70 338.807   5
   4  -3   6 604.175 134.299  11
  -4  -3  -6 34.4024 230.618   1
  -4  -3  -6 464.108 282.929  10
   4  -3   6 679.064 337.326   4
   4  -3   6 403.689 124.751   2
  -4  -3  -6 118.519 227.580   8
  -4  -3  -6 128.014 243.599   5
  -4  -3  -7 66778.8 1966.32  10
  -4  -3  -7 65597.3 1939.65   8
  -4  -3  -7 69053.9 1993.61   1
  -4  -3  -7 67463.0 2183.06   5
   4  -3   7 69921.4 2541.28   4
  -4  -3  -8 876.166 317.204  10
   4  -3   8-93.3771 310.982   4
   4  -3   9 35027.7 1962.79   4
   4  -3  10 2329.14 615.166   4
   4  -3  12 108.533 362.668   4
  -4  -3 -13 32210.5 1882.64   3
   4  -3  13 38187.8 2361.62   4
  -4  -2  18 10461.2 1140.29   6
  -4  -2  17 19889.1 1633.69   8
   4  -2 -17 16718.2 1490.54   7
  -4  -2  17 19614.7 1473.35   6
  -4  -2  17 17483.4 1562.94   4
  -4  -2  16 2073.17 628.686   4
  -4  -2  16 2622.39 696.278   8
   4  -2 -16 1844.50 588.399   7
  -4  -2  16 744.302 452.078   6
   4  -2 -15 23852.4 1653.92   7
  -4  -2  15 22178.2 1644.54   4
  -4  -2  14 2930.12 660.502   4
   4  -2 -14 2771.28 596.931   3
   4  -2 -13 21710.5 1461.84   7
   4  -2 -13 18375.8 1289.91   3
   4  -2 -12 4233.49 318.395   9
  -4  -2  12 5470.05 805.793   4
   4  -2 -12 4612.80 701.606   7
   4  -2 -11 19126.9 1272.80   7
  -4  -2  10 9880.89 722.427   5
  -4  -2  10 8620.51 898.391   4
   4  -2  -9 32871.5 1548.31   7
   4  -2  -9 30654.7 1435.09   3
  -4  -2   9 33563.6 1639.94   4
  -4  -2   8 182.661 284.222   4
   4  -2  -8 166.442 245.350   3
   4  -2  -8 346.989 295.010   7
  -4  -2   7 17191.6 1116.81   4
   4  -2  -7 17728.3 1081.09   7
   4  -2  -7 14767.0 955.323   3
   4  -2  -6 11884.1 870.504   7
   4  -2  -6 11258.5 803.110   4
  -4  -2   5 13764.3 766.905   7
   4  -2  -5 11635.4 825.168   3
  -4  -2   4 2552.84 470.132   3
   4  -2  -4 2902.08 436.563   4
  -4  -2   3 16690.6 849.016   7
  -4  -2   3 17825.1 1076.36   3
  -4  -2   2 519.810 296.931   3
   4  -2  -2 1015.52 302.503   4
   4  -2  -2 841.777 318.457   3
   4  -2  -2 755.606 247.830  12
  -4  -2   1 10751.6 837.457   3
   4  -2  -1 10343.8 790.896   3
   4  -2   0 2243.04 434.922   3
  -4  -2   0 2510.13 279.495   5
   4  -2   0 2462.29 327.284  12
  -4  -2  -1 4503.24 541.136   4
  -4  -2  -1 4556.97 580.964   3
  -4  -2  -2 8120.60 698.864   4
  -4  -2  -2 8037.05 550.288   5
  -4  -2  -2 8352.95 756.778   3
  -4  -2  -3 1026.82 264.244   5
  -4  -2  -4 2001.73 394.631  10
   4  -2   4 1008.09 268.073   5
   4  -2   4 2057.48 274.604  11
  -4  -2  -5 1783.23 383.033  10
   4  -2   5 1827.41 453.487   4
   4  -2   5 2345.12 489.304   3
   4  -2   5 1539.71 338.959   5
  -4  -2  -5 1340.08 346.376   5
   4  -2   5 1434.86 208.936  11
   4  -2   6 396.216 89.3830   2
  -4  -2  -6 720.021 252.725   8
  -4  -2  -6 906.511 325.146   5
  -4  -2  -7 2519.91 444.718  10
  -4  -2  -7 1946.10 378.080   8
  -4  -2  -8 2025.26 405.116  10
   4  -2   8 1793.95 506.283   4
  -4  -2  -8 1101.29 322.942   1
   4  -2   9 1347.51 517.180   4
  -4  -2 -10 805.402 315.889  10
   4  -2  11 513.116 438.145   4
  -4  -2 -12 925.993 470.632   3
   4  -2  12 2178.53 634.295   4
  -4  -2 -13 730.226 462.058   3
   4  -2  13 851.175 521.294   4
  -4  -2 -15 333.315 464.969   3
  -4  -2 -16 466.499 390.203   3
  -4  -1  19 2109.91 612.881   6
  -4  -1  18 3454.97 757.460   4
   4  -1 -18 3170.18 749.063   3
  -4  -1  18 4227.54 877.365   8
   4  -1 -18 3571.70 763.933   7
   4  -1 -17 4561.60 834.746   7
  -4  -1  17 4186.45 753.644   6
  -4  -1  16 10521.0 1191.59   8
   4  -1 -16 10773.5 1145.78   7
   4  -1 -16 10653.0 1151.20   3
  -4  -1  16 8891.53 1097.60   4
  -4  -1  15 1512.14 539.514   4
  -4  -1  15 1095.07 509.282   8
   4  -1 -15 1693.78 521.648   7
  -4  -1  15 1227.94 461.426   6
   4  -1 -14 12340.2 1116.01   7
  -4  -1  14 11384.5 972.929   6
   4  -1 -14 12267.6 1137.97   3
  -4  -1  13 4712.20 736.955   4
   4  -1 -13 4467.17 705.757   3
  -4  -1  13 5012.00 631.900   6
   4  -1 -12 22539.6 1379.62   7
  -4  -1  12 22076.5 1168.23   6
   4  -1 -12 21363.4 1381.33   3
  -4  -1  12 22061.2 1434.69   4
  -4  -1  11 13079.2 1095.43   4
   4  -1 -10 13515.9 1004.37   7
  -4  -1  10 14062.6 1088.73   4
  -4  -1   9 3825.03 597.470   4
   4  -1  -9 3186.52 512.332   7
   4  -1  -9 4393.12 609.617   3
   4  -1  -8 39243.9 1561.06   7
   4  -1  -8 38043.5 1597.07   3
  -4  -1   7 7563.61 733.982   4
   4  -1  -7 7343.53 712.562   3
   4  -1  -7 6633.22 666.879   4
   4  -1  -6 37046.9 1433.03   7
   4  -1  -6 36406.8 1482.14   3
   4  -1  -6 40274.4 1518.31   4
  -4  -1   5 9471.07 675.064   7
  -4  -1   5 9869.11 825.193   3
   4  -1  -5 9148.22 757.274   3
   4  -1  -5 9748.41 752.030   4
   4  -1  -4 65925.7 1867.18   4
   4  -1  -4 57709.5 1794.81   3
  -4  -1   3 11658.5 740.936   7
  -4  -1   3 12226.6 883.826   3
   4  -1  -3 10920.4 798.908   3
   4  -1  -2 64408.7 1823.92   4
   4  -1  -2 59964.7 1329.11  12
  -4  -1   2 64769.0 1709.77   7
  -4  -1   2 59281.2 753.742   5
  -4  -1   2 68406.1 2009.68   3
   4  -1  -2 61412.7 1840.00   3
   4  -1  -1 24054.8 1131.60   4
   4  -1   0 135775. 2678.41   4
   4  -1   1 21919.5 1116.78   4
  -4  -1  -1 21398.9 1152.67   3
  -4  -1  -2 101817. 2287.34  10
   4  -1   2 114005. 2556.63   4
   4  -1   2 108345. 1593.23   1
  -4  -1  -2 106738. 1790.49   5
  -4  -1  -2 111906. 2623.07   3
  -4  -1  -3 9435.21 735.657  10
  -4  -1  -4 75698.2 2013.84  10
   4  -1   4 79234.9 1825.97   5
   4  -1   4 75815.9 2286.88   3
  -4  -1  -5 14075.7 897.327  10
  -4  -1  -5 16143.3 783.061   8
   4  -1   5 14161.5 1051.45   4
   4  -1   5 15760.7 549.447  11
   4  -1   5 16388.0 1120.98   3
   4  -1   6 86611.1 2599.68   3
  -4  -1  -6 82914.5 2151.67  10
   4  -1   6 85446.9 2606.03   4
   4  -1   6 84811.4 804.234  11
  -4  -1  -7 23440.7 1166.70  10
   4  -1   7 24293.2 1455.43   3
  -4  -1  -7 21881.3 951.747   1
   4  -1   7 22524.3 1417.34   4
  -4  -1  -8 71036.1 2022.22  10
  -4  -1  -8 76069.9 1829.98   1
   4  -1   8 74838.4 2631.91   4
  -4  -1  -9 10805.1 818.286  10
   4  -1   9 12313.8 1150.92   4
   4  -1  10 34147.1 1933.96   4
  -4  -1 -11 12395.1 883.876  10
  -4  -1 -11 12219.1 1147.51   3
   4  -1  11 12245.9 1230.74   4
   4  -1  12 48558.3 2459.92   4
  -4  -1 -12 45023.6 2215.86   3
  -4  -1 -13 8549.85 1050.20   3
   4  -1  13 9094.55 1174.20   4
  -4  -1 -14 21277.1 1654.59   3
   4  -1  15 8242.78 1144.41   6
   4  -1  15 9098.98 1243.60   4
  -4  -1 -16 15065.5 1525.88   3
   4   0 -19-548.076 458.381   3
  -4   0  19 40.8546 436.647   4
  -4   0  19-226.316 398.960   6
  -4   0  18 18826.5 1676.51   8
   4   0 -17-72.2532 349.677   3
  -4   0  17-402.786 424.456   4
   4   0 -17-648.571 426.037   7
  -4   0  16 19914.1 1585.84   8
   4   0 -16 17476.2 1483.83   3
  -4   0  16 18877.4 1492.20   4
   4   0 -15 47.8437 372.022   3
  -4   0  15 318.652 398.054   4
   4   0 -15-277.624 363.749   7
  -4   0  14 17404.1 1383.92   8
   4   0 -14 16519.9 1347.98   3
   4   0 -13 903.790 444.270   3
  -4   0  13 402.104 354.528   4
  -4   0  13 102.375 275.077   6
   4   0 -12 12356.2 985.772   7
   4   0 -12 12505.3 1110.98   3
  -4   0  12 13417.1 1101.07   4
  -4   0  11 207.507 186.519  10
   4   0 -10 25477.6 1293.60   7
  -4   0   9 87.8392 253.104   4
   4   0  -8 24987.8 1193.62   7
  -4   0   8 23496.6 869.668   6
  -4   0   7-27.1236 228.678   4
   4   0  -7 413.364 299.077   3
   4   0  -7 499.696 259.425   7
  -4   0   6 25465.1 1231.28   4
  -4   0   6 24723.2 1133.21   7
   4   0  -6 23328.2 1086.11   7
   4   0  -6 25247.6 1278.88   3
  -4   0   5-271.539 268.710   3
   4   0  -5 508.487 261.802   4
   4   0  -5 238.352 271.282   3
  -4   0   4 12268.2 874.543   3
   4   0  -4 10326.2 777.082   4
   4   0  -2 44008.8 1011.19  12
  -4   0   2 45698.5 1482.77   7
  -4   0   2 48691.5 1673.59   3
   4   0  -1 247.668 250.994   4
   4   0  -1 308.625 139.398  12
   4   0   0 5646.25 590.605   4
  -4   0   0 7780.75 711.158   3
   4   0   1 285.396 190.235   1
   4   0   2 9479.50 765.102   4
  -4   0  -2 9616.48 804.125   3
  -4   0  -2 8185.52 446.156  12
   4   0   3 698.834 202.044   1
   4   0   4 719.220 344.112   4
  -4   0  -4 732.964 281.643  10
   4   0   4 730.995 212.182   1
   4   0   4 393.078 322.356   3
   4   0   4 489.261 218.286   5
   4   0   5 1125.88 178.578  11
   4   0   5 826.981 352.546   4
  -4   0  -5 1371.32 349.258  10
   4   0   5 1533.86 427.780   3
   4   0   6 10782.9 945.345   3
  -4   0  -6 10080.1 785.546  10
   4   0   6 10199.6 324.045  11
   4   0   7 559.856 358.830   4
   4   0   7 1216.37 433.708   3
   4   0   8 1420.45 484.814   4
  -4   0  -8 1453.19 375.475  10
   4   0   9 527.790 406.594   4
  -4   0 -11 876.527 459.324   3
  -4   0 -11 870.652 331.422  10
   4   0  11 1388.92 534.628   4
   4   0  12 2141.51 626.486   4
  -4   0 -13 684.294 507.130   3
   4   0  13 1190.95 545.063   4
   4   0  13 588.980 458.968   6
   4   0  14 1063.36 555.387   4
  -4   0 -15 795.956 550.613   3
   4   0  15 328.010 458.573   4
   4   0  15 485.698 495.999   6
  -4   0 -16 956.701 594.751   3
   4   0  16 265.250 312.198   4
   4   1 -19 2987.39 814.833   3
  -4   1  19 2355.83 682.619   6
   4   1 -18 4083.09 858.462   3
  -4   1  18 4891.14 860.661   4
  -4   1  18 2544.24 768.032   8
  -4   1  18 3644.30 738.245   6
   4   1 -17 4026.23 848.687   3
  -4   1  17 4025.06 760.046   6
  -4   1  16 11308.9 1235.03   8
   4   1 -16 10709.1 1035.37   7
  -4   1  16 8415.72 971.552   6
   4   1 -16 9622.90 1176.28   3
  -4   1  16 11889.8 1165.41   4
   4   1 -15 2218.57 661.507   3
  -4   1  15 2359.82 612.181   8
   4   1 -15 2018.49 505.901   7
   4   1 -14 11797.8 994.822   7
  -4   1  14 12667.6 1035.63   6
  -4   1  14 13020.3 1128.97   4
  -4   1  13 5480.50 446.313  10
   4   1 -13 4085.66 745.026   3
  -4   1  13 4882.89 765.935   8
   4   1 -13 4713.28 646.184   7
  -4   1  13 4840.19 636.939   6
  -4   1  13 5397.06 734.666   4
  -4   1  12 23808.5 1398.07   4
  -4   1  12 23195.5 1468.87   8
  -4   1  12 22507.3 1208.45   6
   4   1 -12 21545.7 1469.25   3
  -4   1  11 13662.4 887.121   6
   4   1 -11 12541.7 1110.77   3
   4   1 -10 14463.6 935.664   7
   4   1 -10 13774.5 1107.20   3
   4   1  -9 3536.48 605.827   3
  -4   1   9 3431.39 539.361   4
  -4   1   9 3546.43 415.125   6
  -4   1   9 3495.66 404.581   5
  -4   1   8 39520.9 1567.12   4
   4   1  -8 39211.7 1401.53   7
  -4   1   8 40696.1 1338.72  10
  -4   1   7 7993.11 713.344   4
   4   1  -7 6662.76 418.615   9
   4   1  -7 7480.51 617.184   7
  -4   1   7 7222.92 596.309  10
  -4   1   7 6673.23 443.308   6
  -4   1   7 8022.36 739.542   3
   4   1  -7 7724.89 776.237   3
  -4   1   6 36841.9 1432.68   4
  -4   1   6 40730.4 1560.70   3
   4   1  -6 35910.6 1559.95   3
  -4   1   5 10755.8 777.402   4
  -4   1   5 9590.46 691.566  10
  -4   1   5 9978.09 788.469   3
   4   1  -5 11509.4 858.159   4
  -4   1   4 61707.3 1777.35   4
  -4   1   4 68921.7 1976.87   3
   4   1  -3 12613.6 860.634   4
  -4   1   3 11489.8 760.404  10
  -4   1   3 11358.6 781.740   4
  -4   1   3 12592.8 819.417   7
  -4   1   2 70310.9 1890.38   7
  -4   1   2 67315.6 1942.89   3
  -4   1   1 24634.3 1139.97   7
   4   1  -1 22622.3 527.561  12
   4   1   0 123949. 1348.33   6
  -4   1   0 136507. 2796.57   3
   4   1   1 21674.2 1109.00   4
   4   1   1 19527.3 661.255   6
  -4   1  -1 20874.9 1134.67   3
   4   1   2 109663. 2491.82   4
  -4   1  -2 101562. 2300.41  10
   4   1   2 104445. 1911.12   1
  -4   1  -2 113874. 2669.39   3
  -4   1  -3 8461.26 548.967  12
   4   1   3 9161.24 802.102   3
   4   1   4 75423.6 1773.45   6
   4   1   4 75428.5 2248.84   4
   4   1   4 74588.6 2231.34   3
   4   1   4 79783.8 1699.68   1
   4   1   5 15021.1 579.055   2
  -4   1  -5 15449.4 823.134  12
  -4   1  -5 15411.0 948.224  10
   4   1   5 16016.3 900.077   6
   4   1   5 15750.9 789.680   1
   4   1   6 87928.7 2212.21   6
   4   1   6 85860.9 2548.23   4
   4   1   6 85616.3 2520.83   3
   4   1   7 21750.3 1330.73   3
  -4   1  -7 21654.6 1151.25  10
   4   1   7 21855.2 1195.09   6
   4   1   7 22432.4 1361.46   4
   4   1   8 75935.7 2540.43   3
  -4   1  -8 69536.9 2071.16  10
   4   1   8 79271.4 2371.42   6
   4   1   8 72947.8 2513.41   4
   4   1   9 10975.9 1052.81   4
  -4   1 -10 32290.6 1466.22  10
   4   1  10 37357.4 1956.52   4
  -4   1 -11 13448.1 975.822  10
  -4   1 -11 13424.6 1250.06   3
   4   1  11 13670.9 1193.82   6
   4   1  11 15574.2 1340.29   4
  -4   1 -12 48514.5 2383.04   3
   4   1  12 51669.8 2361.57   6
   4   1  12 50774.4 2430.11   4
  -4   1 -13 8036.00 1060.56   3
   4   1  13 9137.90 1106.33   6
  -4   1 -14 26031.3 1902.46   3
   4   1  14 24225.1 1819.41   4
   4   1  15 6706.17 1025.04   4
   4   1  16 12667.2 1418.01   4
  -4   2  19 5310.54 895.888   6
   4   2 -18 8434.10 1192.17   3
  -4   2  18 8409.70 1043.31   6
  -4   2  17 18982.8 1631.05   8
  -4   2  17 18233.7 1448.29   6
   4   2 -17 19214.0 1707.85   3
   4   2 -16 1512.49 597.362   3
  -4   2  16 1773.68 542.772   6
   4   2 -15 22766.3 1334.21   7
   4   2 -15 23836.2 1756.05   3
   4   2 -14 2387.71 638.939   3
  -4   2  14 1992.77 506.440   4
  -4   2  14 3861.79 726.625   8
   4   2 -14 2287.84 458.024   7
  -4   2  13 20845.9 1316.52   4
  -4   2  13 22165.8 1513.67   8
  -4   2  13 21293.0 1267.76   6
   4   2 -13 18816.1 1476.40   3
   4   2 -12 3616.24 708.221   3
  -4   2  12 3272.32 619.604   8
  -4   2  11 19044.7 1294.10   8
   4   2 -11 19834.0 1054.75   7
  -4   2  11 20777.7 1107.12   6
   4   2 -11 19483.2 1395.29   3
  -4   2  10 10058.7 654.434  10
  -4   2  10 9384.21 891.330   8
   4   2 -10 10248.5 738.825   7
  -4   2  10 10311.0 746.008   6
   4   2 -10 10104.3 991.436   3
  -4   2   9 30887.4 1171.47   6
   4   2  -9 31929.5 1656.17   3
   4   2  -8 813.350 396.746   3
  -4   2   8 187.017 243.262   4
  -4   2   7 17877.3 1002.11   4
  -4   2   7 17458.3 894.785  10
   4   2  -7 17058.7 1157.02   3
  -4   2   6 12673.9 832.562   4
  -4   2   6 13089.6 879.618   3
  -4   2   5 13263.8 838.522   4
  -4   2   5 12154.7 771.677  10
  -4   2   5 13613.8 909.410   7
  -4   2   4 2933.12 429.831  10
   4   2  -4 2654.88 341.078   9
   4   2  -4 2501.05 452.054   4
  -4   2   4 2862.97 462.228   3
  -4   2   3 15447.5 879.680  10
  -4   2   3 15481.2 886.741   4
   4   2  -3 14954.7 772.534   9
  -4   2   3 16275.6 962.380   7
   4   2  -3 15933.4 983.742   4
   4   2  -2 857.360 256.481   9
   4   2  -2 486.833 276.971   4
  -4   2   2 1050.45 307.770   4
   4   2  -1 10320.5 784.286   4
  -4   2   1 10472.4 749.390   4
   4   2  -1 10469.8 708.820   9
  -4   2   1 10378.6 771.658   7
   4   2   0 2571.68 436.311   4
   4   2   1 4399.04 539.191   4
   4   2   1 4944.97 538.363   9
   4   2   1 3868.56 448.211   1
   4   2   1 4370.68 354.611   6
   4   2   1 5006.48 597.701   3
   4   2   2 8469.01 730.971   4
  -4   2  -2 7630.51 672.458  10
   4   2   2 7186.90 493.984   6
   4   2   3 918.650 251.245   6
   4   2   3 1165.44 369.932   3
   4   2   4 1577.91 426.156   4
  -4   2  -4 1679.34 386.067  10
   4   2   4 1559.63 276.955   2
   4   2   4 1348.54 393.117   3
  -4   2  -4 1694.98 321.091  12
   4   2   5 2051.91 455.615   4
  -4   2  -5 1839.76 405.458  10
   4   2   5 1782.10 343.062   1
   4   2   5 1635.54 359.334   6
   4   2   5 1308.26 406.408   3
   4   2   6 804.301 295.854   1
  -4   2  -6 1016.07 343.968  10
   4   2   7 3028.99 562.962   4
  -4   2  -7 2410.77 456.741  10
   4   2   7 1953.16 440.026   6
   4   2   7 2264.15 500.085   3
   4   2   7 2307.08 412.768   1
   4   2   8 1833.47 496.451   4
   4   2   8 857.890 401.747   3
   4   2   9 931.127 419.907   6
   4   2  10 1114.42 474.249   4
  -4   2 -10 637.609 437.400   3
  -4   2 -11 1398.96 522.188   3
  -4   2 -11 1457.71 413.157  10
   4   2  11 819.883 445.682   6
  -4   2 -12 1147.65 536.993   3
   4   2  12 1652.01 547.736   4
  -4   2 -12 951.181 352.123  10
   4   2  13 1395.64 557.665   4
  -4   2 -13 1988.47 616.427   3
  -4   2 -14 874.425 514.751   3
   4   2  14 1016.98 521.731   4
   4   2  14 84.5148 433.998   6
  -4   2 -15 1455.39 655.652   3
   4   2  16 495.566 384.538   4
  -4   3  18 1818.60 548.539   6
  -4   3  17 24669.6 1870.61   8
   4   3 -17 18581.7 1716.19   3
  -4   3  16 579.999 409.840   4
  -4   3  16 1389.69 553.085   8
  -4   3  15 29731.5 1893.66   8
   4   3 -14 568.991 465.210   3
  -4   3  14 321.763 339.742   4
  -4   3  14 396.420 397.862   8
   4   3 -14 316.056 234.991   7
  -4   3  13 44245.5 2133.40   8
   4   3 -13 37068.2 2089.66   3
  -4   3  12 3974.62 395.497  10
   4   3 -12 3810.12 736.689   3
  -4   3  12 3430.91 549.637   4
   4   3 -12 3715.26 473.264   7
  -4   3  11 35475.5 1524.83   4
  -4   3  11 36302.0 1786.20   8
   4   3 -11 35380.7 1298.00   7
   4   3 -11 37277.4 1969.64   3
   4   3 -10 4078.85 699.055   3
  -4   3  10 3254.55 590.858   8
  -4   3  10 3855.31 506.872   6
   4   3  -9 38985.1 1877.54   3
  -4   3   8 596.145 249.846  10
  -4   3   8 538.001 339.475   8
  -4   3   7 101785. 2374.71   3
   4   3  -7 93085.2 2702.02   3
  -4   3   6 7869.47 653.412   4
  -4   3   6 7569.35 686.981   8
  -4   3   5 123956. 2411.48  10
  -4   3   4 10071.8 720.023  10
  -4   3   4 11353.0 751.688   4
   4   3  -4 11045.2 662.806   9
  -4   3   3 32652.4 1279.47  10
   4   3  -3 33936.5 1187.96   9
   4   3  -3 36369.7 1500.69   4
  -4   3   2 1324.43 323.337  10
  -4   3   2 1178.55 340.197   3
  -4   3   2 1783.22 365.202   4
   4   3  -1 77315.6 2115.22   4
  -4   3   1 78921.8 2130.78   7
   4   3   0 4328.46 543.070   4
  -4   3   0 4422.00 549.763   7
   4   3   0 4013.46 494.267   1
   4   3   0 3366.53 503.480   3
   4   3   1 83325.7 2181.27   4
   4   3   1 76599.4 1899.55   1
   4   3   1 76623.4 1495.87   6
   4   3   1 79373.8 2197.02   3
   4   3   2 774.858 297.010   1
  -4   3  -2 572.992 114.261   8
   4   3   2 495.855 268.723   4
   4   3   2 1158.52 286.728   2
   4   3   2 591.648 308.571   3
   4   3   2 748.845 226.305   6
  -4   3  -3 59517.7 1859.67  10
  -4   3  -3 65320.2 1726.15  12
   4   3   3 65105.4 2035.29   3
   4   3   3 61432.9 1497.86  11
  -4   3  -4 1320.80 364.538  10
   4   3   4 1367.78 290.610   2
   4   3   4 1400.60 350.096   1
   4   3   4 1493.86 331.839   6
   4   3   4 1583.95 395.018   3
  -4   3  -4 1095.86 304.835  12
  -4   3  -5 56576.7 1888.15  10
   4   3   5 60289.6 1805.04   6
   4   3   5 56468.1 1975.77   4
  -4   3  -5 61196.2 1815.44  12
   4   3   5 60311.3 2030.56   3
   4   3   6 607.632 297.933   1
   4   3   6 295.460 282.589   4
  -4   3  -6 353.869 273.904  10
   4   3   6 1209.70 363.240   6
   4   3   6-12.6680 281.158   3
  -4   3  -7 67280.6 2139.50  10
   4   3   7 62382.6 1910.04   1
   4   3   7 69502.6 2316.78   4
   4   3   7 67437.2 2264.81   3
  -4   3  -9 31682.8 1534.08  10
   4   3   9 36029.6 1755.85   6
  -4   3 -10 2515.72 607.313   3
   4   3  10 2562.16 588.679   4
  -4   3 -10 609.090 358.689  10
   4   3  10 1905.31 521.327   6
  -4   3 -11 35402.5 1671.64  10
   4   3  11 39024.9 2000.18   6
   4   3  12 12.1810 354.134   4
   4   3  12-175.761 428.316   6
   4   3  13 37432.0 2146.42   6
   4   3  13 36894.3 2076.80   4
   4   3  14 81.7393 408.418   4
  -4   3 -15 32702.1 2297.43   3
   4   3  15 36685.7 2321.28   6
   4   3  15 31754.6 2062.67   4
  -4   4  18 1477.94 567.718   6
  -4   4  17 17681.7 1636.38   8
  -4   4  17 18472.1 1496.48   6
   4   4 -17 17026.6 1709.54   3
   4   4 -16 2281.37 689.390   3
  -4   4  16 1894.61 567.708   6
  -4   4  15 20622.7 1616.69   8
  -4   4  15 18949.1 1386.02   6
   4   4 -15 18370.6 1646.76   3
  -4   4  14 5774.57 699.522   4
   4   4 -14 4219.73 842.148   3
  -4   4  14 4598.10 813.390   8
  -4   4  14 4372.42 682.695   6
   4   4 -13 15447.5 853.201   7
  -4   4  13 14436.8 1105.60   6
   4   4 -13 14758.8 1386.22   3
  -4   4  12 2190.23 309.745  10
   4   4 -12 2507.67 647.191   3
  -4   4  12 2647.17 600.755   8
   4   4 -12 2584.30 369.721   7
  -4   4  11 14447.5 949.699   4
  -4   4  11 15806.0 1219.88   8
  -4   4  11 13782.1 979.444   6
   4   4 -11 13584.6 1257.09   3
  -4   4  10 1969.16 411.692   3
  -4   4  10 1690.80 313.755  10
   4   4 -10 1892.34 547.417   3
  -4   4  10 2396.93 530.908   8
  -4   4  10 1472.02 375.731   6
  -4   4   9 29384.7 1250.38   4
  -4   4   9 26471.1 1447.74   8
  -4   4   9 31374.4 1347.40   3
   4   4  -9 27129.2 1617.33   3
  -4   4   8 32581.7 1278.83   4
  -4   4   8 32302.7 1217.81  10
  -4   4   8 31491.6 1500.65   8
   4   4  -8 32416.7 1704.88   3
  -4   4   7 5078.89 524.478  10
  -4   4   7 5414.24 634.554   8
  -4   4   7 4981.87 542.396   3
   4   4  -7 6202.62 756.789   3
  -4   4   6 1133.26 311.827  10
   4   4  -6 1347.89 261.401   9
   4   4  -6 1444.57 413.773   3
  -4   4   5 24129.4 1104.28  10
  -4   4   5 23246.0 1119.56   8
  -4   4   4 3616.18 474.165  10
  -4   4   4 3435.52 430.961   4
   4   4  -4 4554.73 468.484   9
  -4   4   4 4008.31 475.716   8
  -4   4   4 4214.15 510.690   3
  -4   4   3 8816.73 701.263  10
  -4   4   3 9664.02 694.241   4
  -4   4   3 9898.65 659.247   8
  -4   4   2 6459.35 622.400  10
  -4   4   2 5790.90 488.012   8
   4   4  -2 6129.74 630.704   1
   4   4  -2 6035.08 670.906   3
   4   4  -2 6698.13 687.870   4
   4   4  -1 7695.42 656.435   9
   4   4  -1 6958.93 663.628   1
   4   4  -1 6347.54 671.605   3
   4   4   0 1297.13 362.023   1
  -4   4   0 1384.94 226.674   8
   4   4   0 2220.79 444.317   3
   4   4   0 1719.01 372.012   2
  -4   4  -1 1761.58 209.817   8
   4   4   1 1213.26 335.053   4
   4   4   1 2271.79 389.785  11
   4   4   1 1608.61 353.805   2
   4   4   2 3653.47 451.424   2
  -4   4  -2 4357.78 569.304  10
   4   4   2 4574.66 555.736   1
  -4   4  -2 3783.14 207.573   8
   4   4   2 3676.65 424.277   6
   4   4   3 10269.0 693.265   2
  -4   4  -3 10039.3 827.828  10
   4   4   3 11577.8 840.801   1
  -4   4  -3 11810.6 811.781  12
   4   4   3 9946.12 834.218   3
  -4   4  -4 10795.6 868.147  10
   4   4   4 10466.8 765.258   6
   4   4   4 10644.1 686.968   2
   4   4   4 10094.1 671.708  11
   4   4   5 761.043 241.118  11
   4   4   5 804.235 342.514   4
   4   4   5 415.433 298.990   1
   4   4   5 1016.02 344.598   6
   4   4   5 673.234 343.506   3
   4   4   6 1205.97 276.152  11
   4   4   6 2281.08 472.826   1
   4   4   6 1924.62 455.830   4
  -4   4  -6 1942.22 455.441  10
   4   4   6 1341.72 417.374   3
   4   4   7 1721.90 456.263   4
  -4   4  -7 1926.60 469.698  10
   4   4   7 1798.85 456.285   3
   4   4   7 1710.93 433.149   1
  -4   4  -8 1837.01 467.499  10
   4   4   8 1728.27 477.051   6
   4   4   8 704.238 384.267   1
  -4   4  -9 1310.51 493.057   3
   4   4   9 299.449 346.490   4
  -4   4  -9 526.794 366.987  10
   4   4  10 666.760 388.832   4
  -4   4 -10 296.906 329.634  10
   4   4  10 1695.78 506.108   6
  -4   4 -10 1029.19 490.054   3
  -4   4 -11 1193.76 553.353   3
   4   4  11 1632.92 516.455   4
   4   4  11 1676.00 541.488   6
  -4   4 -12 570.601 469.934   3
   4   4  12 639.980 424.819   4
   4   4  12 1486.65 527.844   6
  -4   4 -13 3222.80 801.592   3
   4   4  13 1939.41 570.761   4
  -4   4 -13 2235.88 522.429  10
   4   4  13 1521.26 577.755   6
  -4   4 -14 815.994 561.461   3
   4   4  14 432.566 485.576   4
   4   4  15 1061.02 502.975   4
  -4   5  18 4635.61 858.970   6
   4   5 -17 9830.04 1358.32   3
  -4   5  17 7334.33 1027.26   6
  -4   5  16 6968.77 1052.56   8
  -4   5  16 6341.71 912.666   6
  -4   5  15 4039.15 731.237   6
  -4   5  14 34627.1 2045.87   8
  -4   5  13 16304.4 1369.13   8
  -4   5  13 15590.3 992.742   4
   4   5 -13 15350.8 1474.42   3
  -4   5  12 16108.4 979.288   4
  -4   5  11 23327.7 1127.61   4
  -4   5  11 21683.0 1457.38   8
  -4   5  10 18456.7 982.627   4
  -4   5  10 19103.2 932.285  10
   4   5 -10 18464.8 1425.09   3
  -4   5   9 48648.0 1532.10   4
  -4   5   9 51898.9 1559.38  10
  -4   5   9 49206.4 1704.87   6
   4   5  -9 48201.3 2190.79   3
  -4   5   8 59477.6 1655.39   4
  -4   5   8 61325.9 2128.46   8
   4   5  -7 10674.0 1000.55   3
  -4   5   6 37744.0 1410.34  10
  -4   5   6 35049.8 1476.22   8
   4   5  -6 37817.1 1771.31   3
  -4   5   5 20233.2 1053.91  10
   4   5  -5 21887.9 1323.02   3
  -4   5   4 34675.7 1389.61  10
  -4   5   4 33874.1 1310.34   8
  -4   5   4 36805.4 1375.75   3
   4   5  -4 34598.7 1611.76   3
  -4   5   3 33788.0 1391.16  10
   4   5  -3 31328.6 1413.77   1
   4   5  -3 35354.9 1593.24   3
  -4   5   2 109082. 2507.12  10
   4   5  -2 113591. 2445.39   9
  -4   5   2 109549. 2059.72   8
   4   5  -2 110994. 2602.71   1
   4   5  -2 111336. 2736.43   3
  -4   5   1 36743.0 1489.19  10
   4   5  -1 37428.6 1516.26   1
   4   5  -1 41004.2 1648.20   3
   4   5   0 74937.1 2188.51   3
   4   5   0 74273.3 1974.76  11
  -4   5  -1 18034.5 1085.64  10
   4   5   1 18355.8 995.857  11
   4   5   2 63427.8 1798.00   2
  -4   5  -2 62134.0 2019.77  10
   4   5   2 61399.2 1949.77   1
   4   5   3 9599.26 811.879   1
  -4   5  -3 10992.1 898.659  10
   4   5   3 11391.9 890.068   3
   4   5   3 10725.2 760.640  11
  -4   5  -4 88853.0 2489.90  10
   4   5   4 88720.6 2407.69   3
   4   5   4 87713.6 2043.16  11
  -4   5  -5 7216.48 766.383  10
   4   5   5 7986.57 751.182   6
   4   5   5 6815.99 732.107   1
  -4   5  -6 48616.2 1927.32  10
   4   5   6 51726.7 1904.64   6
   4   5   6 50345.9 1887.95   4
   4   5   6 48435.4 1465.65   2
   4   5   6 47944.8 1861.88   1
   4   5   6 51377.0 1901.92   3
   4   5   7 9433.20 890.098   1
   4   5   7 9623.68 882.842   4
   4   5   7 11186.4 709.852  11
   4   5   7 10453.6 909.136   3
   4   5   8 45443.6 1875.51   3
  -4   5  -8 51274.2 2287.15   3
   4   5   8 48768.3 2025.47   6
   4   5   8 42620.0 1834.64   1
   4   5   8 47898.3 1940.19   4
  -4   5  -9 7851.24 875.805  10
  -4   5  -9 9256.35 1053.04   3
   4   5   9 8003.05 909.978   6
   4   5   9 8274.92 878.868   4
   4   5  10 52507.3 2301.95   6
  -4   5 -11 10551.1 1025.13  10
  -4   5 -11 13089.5 1334.56   3
  -4   5 -12 29155.3 2025.17   3
   4   5  12 28795.3 1876.17   6
   4   5  12 28012.3 1690.13   4
   4   5  13 15199.5 1448.65   6
   4   5  13 13336.9 1214.73   4
  -4   5 -14 15602.2 1614.04   3
   4   6 -17 367.907 408.771  11
  -4   6  17 462.010 479.702   6
   4   6 -15 830.928 489.538  11
   4   6 -15 675.660 555.493   3
  -4   6  15 390.728 458.410   8
  -4   6  15 53.6402 384.686   6
  -4   6  14 24202.2 1761.13   8
  -4   6  14 20592.5 1457.96   6
   4   6 -13 362.611 474.256   3
  -4   6  13 787.069 457.929   8
  -4   6  13 337.477 348.143   6
  -4   6  12 9791.14 710.094   4
  -4   6  12 9737.27 1070.60   8
  -4   6  12 8382.68 888.452   6
   4   6 -12 8297.04 1080.62   3
   4   6 -11 209.566 359.058   3
  -4   6  11 218.021 364.727   8
  -4   6  10 7869.24 614.790   4
  -4   6  10 8660.99 940.004   8
  -4   6  10 7950.52 788.164   6
  -4   6   9 701.264 281.259  10
   4   6  -9 1127.36 490.489   3
  -4   6   9 1162.36 453.382   8
  -4   6   9 667.788 247.869   4
  -4   6   8 15558.7 930.121  10
   4   6  -8 15906.7 1279.55   3
   4   6  -7 741.239 383.581   3
  -4   6   7 250.426 189.258   4
  -4   6   6 6643.84 645.757  10
  -4   6   6 5946.38 516.321   4
  -4   6   6 5028.18 637.449   8
  -4   6   6 5319.88 533.403   3
   4   6  -6 5692.71 764.641   3
  -4   6   5 271.458 261.138  10
  -4   6   5 491.942 274.241   8
  -4   6   4 8485.09 746.512  10
   4   6  -4 8882.13 714.765   9
  -4   6   4 8409.81 705.394   8
   4   6  -4 9071.89 838.330   1
   4   6  -4 8630.54 863.036   3
  -4   6   3 761.998 280.064   8
   4   6  -3 654.631 366.497   3
   4   6  -3 1498.97 421.866   1
   4   6  -2 30467.3 1448.66   1
   4   6  -2 28835.3 1445.16   3
  -4   6   2 32520.9 1343.23   3
   4   6  -2 26612.7 1305.51  11
   4   6  -1 1110.96 415.775   1
  -4   6   1 535.787 314.536  10
  -4   6   1 468.530 220.182   8
   4   6   0 9151.10 833.847   1
  -4   6   0 9360.98 806.867   3
   4   6   0 8480.28 762.538  11
   4   6   1 437.110 321.198   1
   4   6   1 504.100 323.500   3
   4   6   2 193.583 302.483  11
  -4   6  -2 1129.07 375.122  10
   4   6   2 247.445 290.765   3
   4   6   3 4271.02 619.568   1
  -4   6  -3 3765.87 603.627  10
   4   6   3 4145.71 576.102   3
  -4   6  -4 10659.4 930.358  10
   4   6   4 9413.04 755.166  11
   4   6   4 10239.9 910.524   1
   4   6   5 1200.09 333.105  11
   4   6   6 948.258 367.649   4
   4   6   6 892.307 438.703   1
   4   6   6 586.542 283.839   2
   4   6   6 1770.26 442.418   3
   4   6   7 875.292 293.163  11
   4   6   7 412.022 372.187   1
  -4   6  -7 756.863 435.265   3
  -4   6  -7 361.429 346.080  10
   4   6   7 609.716 380.028   6
  -4   6  -8 2876.89 628.404   3
  -4   6  -8 1326.08 468.050  10
   4   6   8 2256.77 554.238   6
   4   6   8 2549.11 570.937   1
   4   6   8 2563.67 401.156  11
  -4   6  -9 761.061 453.350   3
   4   6   9 216.833 319.757   4
  -4   6  -9 413.445 342.943  10
   4   6   9 251.401 363.962   6
   4   6   9 120.513 351.127   1
  -4   6 -10 2442.96 661.947   3
   4   6  10 1612.09 467.826   4
  -4   6 -10 1068.17 447.731  10
   4   6  10 1463.65 505.320   6
   4   6  11 1094.56 431.357   4
  -4   6 -11 806.008 435.127  10
   4   6  11 749.689 458.784   6
  -4   6 -12 722.769 507.079   3
   4   6  12 1581.58 448.993   4
   4   6  12 1406.08 546.915   6
  -4   6 -13 494.059 405.554  10
   4   6  14 5802.43 969.153   6
  -4   7  17 2670.77 687.115   6
   4   7 -16 15584.7 1404.77  11
  -4   7  15 6759.42 1024.24   8
  -4   7  15 4504.84 797.523   6
  -4   7  14 23549.6 1767.54   8
  -4   7  14 25061.6 1636.48   6
  -4   7  13 11364.0 1218.59   8
  -4   7  13 10792.2 1066.86   6
   4   7 -13 11183.0 1327.47   3
   4   7 -13 11084.3 1132.05  11
  -4   7  12 19032.5 1503.97   8
   4   7 -12 18650.1 1623.06   3
   4   7 -12 22351.5 1520.37  11
  -4   7  11 17332.0 830.243   4
  -4   7  10 24958.2 1584.10   8
  -4   7   9 16908.1 1269.73   8
   4   7  -9 15873.1 1365.00   3
  -4   7   8 60247.9 2248.33   8
  -4   7   8 63159.4 1613.30   3
   4   7  -8 66445.5 2619.88   3
   4   7  -8 63470.8 2310.68  11
  -4   7   7 19003.8 1089.74  10
   4   7  -7 19817.8 1417.50   3
  -4   7   6 44483.3 1783.83   8
  -4   7   6 46996.5 1441.68   3
   4   7  -6 46679.4 2079.81   3
  -4   7   5 11685.7 891.452  10
   4   7  -5 9977.81 933.335   1
   4   7  -5 11936.5 1060.10   3
  -4   7   4 64348.8 2054.69  10
   4   7  -4 64986.0 2309.70   3
  -4   7   4 64280.5 1782.61   3
   4   7  -4 60276.6 1405.77  12
   4   7  -4 63815.5 2159.63  11
  -4   7   3 19070.0 1153.95  10
  -4   7   3 19499.0 1032.26   8
   4   7  -3 19004.9 1224.95   1
   4   7  -3 20241.4 1291.12   3
   4   7  -3 19668.5 1219.50  11
  -4   7   2 73361.9 1860.66   8
   4   7  -2 73098.5 2322.97   1
   4   7  -2 75445.6 2371.16   3
   4   7  -2 68474.8 2182.19  11
  -4   7   1 22859.1 1290.93  10
  -4   7   1 23920.2 1002.08   8
  -4   7   1 25815.2 1248.56   3
   4   7  -1 23305.2 1290.16  11
  -4   7   0 52977.6 1970.85  10
   4   7   0 52657.3 1985.21   1
   4   7   0 51517.8 1864.03  11
  -4   7  -1 10985.2 941.757  10
   4   7   1 11752.4 982.734   1
   4   7   1 13034.5 965.136   3
   4   7   1 11857.6 923.474  11
  -4   7  -2 22904.4 1346.22  10
   4   7   2 23710.4 1281.67   3
   4   7   2 21345.2 1200.69  11
  -4   7  -3 6666.29 783.641  10
   4   7   3 6880.49 720.092   3
   4   7   4 107129. 2711.87   6
   4   7   4 106303. 2654.87   3
  -4   7  -5 12118.3 1068.89  10
   4   7   5 13109.1 1030.11   6
   4   7   5 11573.2 1035.02   1
   4   7   5 10330.0 839.469  11
  -4   7  -6 45773.6 2037.77  10
   4   7   6 40151.1 1806.31   6
   4   7   6 41554.8 1698.49   4
   4   7   6 41881.4 1940.37   1
   4   7   7 4613.94 754.994   1
  -4   7  -7 4827.59 777.373   3
  -4   7  -7 4188.81 707.247  10
   4   7   7 4787.42 580.930  11
  -4   7  -8 23662.1 1536.53  10
   4   7   8 22698.7 1313.55   4
  -4   7  -9 10196.5 1161.31   3
   4   7   9 11183.4 1115.31   6
   4   7   9 9850.70 1046.11   1
   4   7   9 9704.30 898.995   4
  -4   7 -10 36062.0 2162.38   3
  -4   7 -11 6884.62 927.778  10
  -4   7 -11 9107.04 1191.85   3
   4   7  11 8611.03 1078.67   6
   4   7  11 7331.40 836.694   4
  -4   7 -12 22924.1 1628.42  10
  -4   7 -12 22631.8 1879.52   3
   4   7  12 23992.2 1792.20   6
   4   7  13 6376.89 1013.77   6
   4   8 -16 2503.15 653.505  11
   4   8 -15 17212.8 1776.43   3
   4   8 -15 17243.1 1486.82  11
   4   8 -14 2542.48 674.289  11
   4   8 -14 2278.58 798.645   3
  -4   8  14 4356.67 746.437   6
   4   8 -13 4871.15 828.291  11
   4   8 -13 5031.50 958.578   3
  -4   8  13 7198.49 1018.18   8
   4   8 -12 4791.92 827.155  11
   4   8 -12 3684.80 825.971   3
  -4   8  12 4882.07 841.155   8
  -4   8  11 9949.08 1100.17   8
   4   8 -11 9151.86 1168.58   3
   4   8 -10 3282.38 670.752  11
   4   8 -10 3529.89 761.645   3
  -4   8  10 2433.84 595.647   8
  -4   8   9 20681.3 1441.03   8
   4   8  -9 20952.0 1591.85   3
   4   8  -8 1980.08 559.518  11
   4   8  -8 1958.28 605.500   3
  -4   8   8 1676.34 492.258   8
  -4   8   7 8244.06 785.100  10
  -4   8   7 9568.08 924.129   8
   4   8  -7 8838.16 939.879   1
  -4   8   6 1550.81 432.605  10
   4   8  -6 1691.68 506.084   1
   4   8  -6 868.804 448.238   3
  -4   8   6 2165.46 492.896   8
  -4   8   5 3588.64 561.511  10
   4   8  -5 3725.48 667.440   3
  -4   8   5 3360.48 557.746   8
   4   8  -4 1420.23 505.343  11
  -4   8   4 2192.44 486.102  10
   4   8  -4 1488.29 474.133   3
  -4   8   4 1414.37 391.876   8
   4   8  -4 1765.77 497.261   1
   4   8  -3 3910.09 662.354  11
  -4   8   3 3793.18 602.236  10
   4   8  -3 3610.80 618.933   3
   4   8  -3 4654.94 680.015   1
   4   8  -2 461.638 401.541  11
  -4   8   2 1037.02 405.289  10
   4   8  -2 913.574 388.973   3
  -4   8   2 934.109 327.891   3
   4   8  -2 849.849 423.390   1
  -4   8   1 4093.53 635.144  10
   4   8  -1 3871.35 605.063   3
   4   8  -1 3968.17 661.254   1
  -4   8   0 536.882 362.961  10
   4   8   0 1080.63 424.641   1
   4   8   0 634.414 340.656   3
  -4   8  -1 2696.97 555.141  10
   4   8   1 2518.69 553.886   1
   4   8   2 540.410 371.371  11
   4   8   2-45.6508 271.669   3
   4   8   2 652.171 406.848   1
   4   8   3 7196.81 849.529   1
   4   8   3 8164.89 788.740   3
   4   8   3 7843.74 797.143  11
  -4   8  -4 2556.03 577.110  10
   4   8   4 2452.30 477.206   3
  -4   8  -5 1489.57 473.696   3
  -4   8  -5 1154.89 456.665  10
   4   8   5 786.879 465.097   1
   4   8   6-31.7922 293.480  11
  -4   8  -6 700.516 402.647   3
   4   8   6 512.325 286.596   4
  -4   8  -6 665.905 406.514  10
   4   8   6 613.916 387.022   6
   4   8   7-576.812 435.601   1
  -4   8  -7 944.881 476.885   3
  -4   8  -7 664.371 427.340  10
   4   8   7 194.452 383.375   6
  -4   8  -8 343.617 374.478  10
   4   8   8 595.160 415.319   6
   4   8   8 300.584 323.063   3
   4   8   9 828.919 341.788   4
  -4   8  -9 681.202 445.771  10
   4   8   9-194.032 419.833   1
  -4   8 -10 1221.29 602.804   3
   4   8  10 968.248 504.861   6
  -4   8 -11 409.640 510.417   3
  -4   8 -11 1178.84 591.713  10
   4   8  11 822.157 499.691   6
  -4   8 -12 717.234 546.837   3
  -4   8 -12 506.510 389.382  10
  -4   8 -13 443.157 426.058  10
   4   8  13 417.133 441.302   6
   4   9 -14 1188.86 611.058   3
  -4   9  13 26484.9 1914.28   8
   4   9 -13 24821.7 2013.72   3
   4   9 -13 27613.4 1843.16  11
   4   9 -12 157.055 419.476  11
   4   9 -11 29069.4 2038.76   3
   4   9 -11 27663.0 1777.02  11
   4   9 -10 1214.97 553.332  11
   4   9 -10 697.774 493.593   3
  -4   9   9 46159.2 1801.13  10
  -4   9   9 44428.3 2138.84   8
   4   9  -9 45242.9 2374.66   3
   4   9  -9 46370.7 2203.40  11
  -4   9   8 1225.15 390.654  10
   4   9  -7 48483.8 2304.57   3
   4   9  -7 49177.7 2190.44  11
   4   9  -6 2283.21 599.675   1
   4   9  -6 2886.90 646.774  11
   4   9  -6 2449.33 600.161   3
  -4   9   6 1440.51 444.263   8
  -4   9   5 38068.0 1735.04  10
  -4   9   5 34905.5 1645.54   8
   4   9  -5 35697.0 1827.45   1
   4   9  -5 35057.3 1805.62  11
   4   9  -4 1473.57 514.244  11
   4   9  -4 1653.17 508.556   1
  -4   9   4 2297.87 519.222  10
   4   9  -4 2492.48 579.591   3
  -4   9   3 46915.9 1976.43  10
   4   9  -3 48072.2 2082.87   1
   4   9  -3 47261.3 2032.84   3
  -4   9   2 1839.73 486.984  10
   4   9  -2 1969.34 498.987   3
  -4   9   1 34316.7 1733.32  10
   4   9  -1 37720.8 1855.18   1
   4   9  -1 36427.7 1697.70   3
  -4   9   1 37442.7 1542.00   3
   4   9  -1 34074.0 1724.76  11
   4   9   0 1291.85 495.572   1
  -4   9   0 457.668 363.869  10
   4   9   0 455.101 337.268   3
   4   9   1 39515.8 1918.36   1
  -4   9  -1 42976.7 1987.40  10
   4   9   1 41131.7 1726.16   3
   4   9   2 562.044 393.918  11
  -4   9  -2-150.522 313.985   3
  -4   9  -2 536.496 364.083  10
   4   9   2 800.537 366.840   3
   4   9   2 485.044 403.380   1
  -4   9  -3 28299.7 1672.23  10
  -4   9  -3 27488.1 1523.33   3
   4   9   3 28656.8 1413.82   3
   4   9   3 27204.1 1649.62   1
  -4   9  -4 1082.68 421.942   3
  -4   9  -4 1499.95 511.258  10
   4   9   4 1076.46 489.027   1
   4   9   4 1515.61 423.678   3
  -4   9  -5 41050.5 2066.31  10
  -4   9  -5 36504.3 1877.68   3
   4   9   5 34760.8 1915.11   1
   4   9   5 36463.1 1723.06  11
   4   9   6 1844.74 495.586  11
   4   9   6 1594.32 397.404   4
  -4   9  -6 2588.05 612.305  10
   4   9   6 1777.19 430.542   3
  -4   9  -6 2674.88 626.484   3
   4   9   7 19998.7 1447.60   6
   4   9   7 19254.5 1256.96  11
  -4   9  -8 884.189 462.770  10
  -4   9  -9 28099.2 1860.41  10
   4   9   9 29032.0 1857.09   6
  -4   9 -11 26327.6 1864.81  10
   4   9  11 24182.4 1821.79   6
  -4  10  13 14303.6 1475.49   8
   4  10 -13 13436.8 1362.31   1
   4  10 -13 15139.8 1443.90  11
   4  10 -12 1641.76 670.728   3
   4  10 -12 1070.29 548.445   1
  -4  10  12 2844.00 713.438   8
  -4  10  11 7902.61 1045.58   8
   4  10 -11 9092.81 1098.94   1
   4  10 -11 9412.79 1244.74   3
   4  10 -11 8947.04 1103.53  11
   4  10 -10 3610.92 763.285  11
   4  10 -10 4134.83 851.928   3
  -4  10  10 3254.43 727.605   8
   4  10 -10 4317.70 802.310   1
   4  10  -9 11355.1 1176.47   1
   4  10  -8 412.569 446.479  11
   4  10  -8 461.901 439.767   1
  -4  10   8 202.640 303.882  10
   4  10  -8-44.2993 375.692   3
  -4  10   8 708.499 413.852   8
  -4  10   7 6634.25 797.806  10
  -4  10   7 5596.40 784.418   8
   4  10  -7 6081.10 888.648   1
  -4  10   6 2880.51 568.363  10
   4  10  -6 3443.83 683.477   1
   4  10  -6 2823.69 672.053   3
  -4  10   5 7088.92 840.943  10
   4  10  -5 7685.17 944.378   1
   4  10  -5 7298.80 935.512   3
   4  10  -4 3001.19 668.398  11
  -4  10   4 1988.63 505.965  10
  -4  10   3 13743.0 1154.23  10
   4  10  -3 12744.7 1158.46  11
   4  10  -2 4249.74 736.967   1
   4  10  -2 2637.89 569.396   3
  -4  10   2 3800.20 504.315   3
   4  10  -1 2838.12 625.074  11
  -4  10   1 2657.44 456.727   3
   4  10  -1 3150.77 666.537   1
  -4  10   1 2627.63 589.128  10
  -4  10   0 772.226 332.350   3
  -4  10   0 1089.41 486.193  10
   4  10   0 1574.51 463.895   3
   4  10   1-251.821 361.679  11
  -4  10  -1 960.748 374.825   3
   4  10   1 742.627 441.814   1
   4  10   2 1767.74 512.554  11
  -4  10  -2 1617.75 474.728   3
  -4  10  -2 2301.43 599.991  10
   4  10   2 2101.02 477.750   3
   4  10   2 1962.80 577.915   1
  -4  10  -3 6793.92 901.869  10
  -4  10  -3 5531.96 746.384   3
  -4  10  -4 2172.98 563.485   3
  -4  10  -4 3034.20 668.943  10
   4  10   4 2236.40 456.570   3
  -4  10  -5 507.955 402.690   3
  -4  10  -5 89.3133 407.233  10
   4  10   6-807.183 455.774  11
   4  10   6 356.254 451.624   1
  -4  10  -6 396.362 438.501  10
  -4  10  -7 536.328 480.306   3
  -4  10  -7 1263.39 538.194  10
   4  10   7-6.03096 439.291   1
  -4  10  -8 75.5621 437.419   3
   4  10   8 637.276 564.895   1
  -4  10  -9 1489.30 594.228  10
   4  10   9 1192.48 538.322   6
   4  10   9 392.191 508.224   1
  -4  10 -10 741.254 503.400   3
  -4  10 -11 755.090 540.821   3
  -4  10 -11 1208.30 584.995  10
  -4  10 -12-156.139 404.661  10
   4  11 -13 166.685 481.079  11
   4  11 -13 2055.11 638.661   1
   4  11 -12 13068.9 1365.14   1
   4  11 -12 12446.4 1482.71   3
   4  11 -11 2862.57 714.660   1
   4  11 -11 3386.49 880.716   3
   4  11 -10 12805.8 1413.52   3
  -4  11   9 1919.22 517.740  10
   4  11  -9 2969.01 791.715   3
   4  11  -9 2292.51 651.943   1
  -4  11   8 17943.3 1290.74  10
   4  11  -8 16005.8 1414.57   1
   4  11  -8 17256.9 1485.21  11
   4  11  -7 3812.10 759.403   1
  -4  11   7 2834.82 606.231  10
  -4  11   6 19369.6 1375.96  10
   4  11  -6 22845.9 1611.84   1
   4  11  -6 22017.2 1621.13   3
   4  11  -5 2413.09 658.475  11
   4  11  -5 2800.39 681.217   3
   4  11  -4 18733.9 1449.41   1
  -4  11   4 19207.6 1398.77  10
   4  11  -4 20277.9 1514.03  11
  -4  11   3 9341.21 1013.24  10
   4  11  -3 11404.8 1167.91   1
   4  11  -2 27013.4 1728.89   1
  -4  11   2 26228.5 1202.10   3
   4  11  -2 27732.3 1601.66   3
  -4  11   2 25448.4 1634.14  10
  -4  11   1 6715.53 887.141  10
   4  11  -1 6559.17 927.318   1
  -4  11   1 5769.71 641.630   3
   4  11  -1 7369.96 850.937   3
   4  11   0 36052.7 2004.85   1
  -4  11   0 38494.2 2035.83  10
  -4  11   0 36833.8 1594.95   3
   4  11   0 41427.0 1838.81   3
   4  11   0 37485.9 1974.98  11
  -4  11  -1 5787.84 709.386   3
   4  11   1 8026.73 833.717   3
  -4  11  -2 21709.1 1602.31  10
   4  11   2 23730.4 1338.53   3
   4  11   2 22321.0 1621.12   1
   4  11   3 7715.66 780.278   3
   4  11   4 22085.6 1661.81   1
   4  11   4 25544.7 1331.61   3
   4  11   4 23640.7 1577.84  11
  -4  11  -5 9743.75 1067.04   3
   4  11   5 10304.7 1196.45   1
  -4  11  -6 31005.5 1916.00   3
   4  11   6 30331.3 1773.98  11
  -4  11  -7 12037.9 1307.30  10
  -4  11  -7 13060.6 1328.07   3
   4  11   7 9519.55 1224.79   1
   4  11   7 9836.91 1047.59  11
  -4  11  -8 18753.1 1643.57   3
  -4  11  -9 4663.64 919.786   3
  -4  11  -9 5540.33 982.530  10
   4  11   9 4484.20 948.526   1
  -4  11 -10 19335.1 1723.67  10
  -4  11 -10 19286.0 1779.29   3
   4  12 -11 895.049 583.057  11
   4  12 -11-150.726 561.116   3
   4  12 -10 9764.18 1194.88   1
   4  12 -10 10172.8 1229.63  11
   4  12  -9 2305.72 651.553   1
  -4  12   9 1619.40 487.933  10
   4  12  -9 838.004 591.117   3
   4  12  -8 3871.84 844.371  11
   4  12  -8 3935.20 833.948   3
   4  12  -8 6464.00 982.840   1
  -4  12   7 224.977 358.569  10
   4  12  -7 59.1440 391.490   3
   4  12  -7 816.179 461.240   1
  -4  12   6 5698.98 850.090  10
   4  12  -6 6109.61 942.424   1
   4  12  -5-118.804 438.228   3
   4  12  -5-248.929 433.339   1
  -4  12   4 6870.30 939.595  10
   4  12  -4 6072.33 885.300   3
   4  12  -4 9228.25 1112.60  11
   4  12  -3 527.446 455.667  11
   4  12  -3-45.2322 411.050   1
  -4  12   3 424.182 450.855  10
   4  12  -3-935.968 459.158   3
   4  12  -2 3136.15 728.427  11
  -4  12   2 3961.26 761.736  10
   4  12  -2 2620.19 592.404   3
   4  12  -2 4219.88 829.396   1
   4  12  -1 375.921 471.345  11
  -4  12   1 589.462 314.355   3
   4  12  -1 527.684 501.065   1
  -4  12   0 4411.17 812.911  10
   4  12   0 3389.75 619.201   3
   4  12   0 3174.57 733.050   1
   4  12   0 3979.81 768.039  11
   4  12   1 629.569 477.626  11
   4  12   1 681.095 477.379   1
  -4  12  -2 2540.46 590.045   3
  -4  12  -2 3098.20 702.329  10
   4  12   2 2376.34 708.936   1
   4  12   2 3025.30 579.624   3
  -4  12  -3 1097.14 521.088  10
  -4  12  -4 951.992 457.317   3
  -4  12  -4 2165.45 676.505  10
   4  12   4 1284.35 602.143   1
   4  12   5 633.614 489.851  11
  -4  12  -5-235.529 418.265   3
   4  12   5 354.539 475.002   1
  -4  12  -5 555.788 482.868  10
   4  12   6 3280.13 727.234  11
  -4  12  -6 2278.13 710.782   3
  -4  12  -6 2793.47 770.033  10
  -4  12  -7 582.709 489.581  10
   4  12   7 553.361 529.104   1
   4  12   8 1069.48 645.439   1
   4  12   8 728.800 340.177  11
  -4  12  -9 1007.39 586.775  10
  -4  12  -9-30.8711 449.919   3
   4  13 -10 6528.29 1148.00   3
   4  13 -10 7020.95 1085.30   1
   4  13  -9 8313.34 1127.11   1
   4  13  -9 9085.67 1215.47  11
  -4  13   8 9107.39 1042.87  10
   4  13  -8 10398.5 1250.26   1
   4  13  -8 10715.0 1309.12   3
   4  13  -7 2922.64 777.013  11
  -4  13   7 1944.29 583.397  10
  -4  13   6 12691.0 1248.46  10
   4  13  -6 12674.2 1330.13   3
   4  13  -6 13186.8 1387.24  11
   4  13  -5 5993.50 979.087  11
  -4  13   5 5587.58 875.804  10
   4  13  -5 4763.32 863.079   3
  -4  13   4 12032.2 1244.90  10
   4  13  -4 14134.6 1397.74   1
   4  13  -4 10883.5 1180.83   3
   4  13  -3 6132.08 986.188  11
  -4  13   3 6608.52 965.990  10
   4  13  -3 5595.28 847.494   3
   4  13  -2 21758.3 1709.68   1
   4  13  -2 20867.1 1473.10   3
   4  13  -1 7053.61 1007.09   1
  -4  13   1 5603.67 935.699  10
   4  13  -1 7545.68 916.226   3
  -4  13   0 19518.0 1631.38  10
   4  13   1 3567.18 782.492  11
  -4  13  -1 4560.94 858.802  10
  -4  13  -2 20792.9 1719.64  10
  -4  13  -2 21285.3 1431.82   3
   4  13   2 19658.9 1593.73  11
   4  13   3 4485.74 873.429  11
  -4  13  -4 24502.8 1893.30  10
  -4  13  -4 23456.7 1630.09   3
   4  13   4 25311.5 1788.57  11
   4  13   5 3219.86 738.698  11
  -4  13  -5 3778.21 867.877  10
  -4  13  -6 20634.8 1816.33  10
  -4  13  -6 20894.4 1699.78   3
   4  13   6 17557.2 1685.56   1
   4  13   6 21962.3 1674.68  11
  -4  13  -7 5667.04 1012.72   3
  -4  13  -8 15425.4 1578.02   3
   4  14  -9 7558.36 1247.06   3
  -4  14   8 624.537 465.019  10
   4  14  -8 1885.56 657.228   1
   4  14  -8 574.719 572.226   3
   4  14  -7 3277.57 848.360   3
   4  14  -6 2436.96 743.128   1
   4  14  -5 1463.96 654.589   1
  -4  14   5 1660.45 601.151  10
   4  14  -4 337.501 494.660  11
  -4  14   4-318.911 423.969  10
   4  14  -4-16.0161 451.577   3
   4  14  -4 236.414 485.222   1
   4  14  -3 2999.19 826.374  11
  -4  14   3 2450.21 709.550  10
   4  14  -3 2270.31 630.319   3
   4  14  -2-345.618 497.875  11
  -4  14   2 157.121 465.664  10
   4  14  -2-12.0519 452.630   1
  -4  14   1 1230.60 542.645  10
   4  14   0-73.9747 503.747   1
  -4  14  -1 1518.57 595.028  10
   4  14   1 843.453 530.207   1
   4  14   2-110.674 480.134  11
  -4  14  -3 1758.44 718.009  10
  -4  14  -5 701.611 490.340   3
   4  14   6 917.174 566.146  11
  -4  14  -6-640.985 520.312   3
  -4  14  -7-280.049 373.832   3
   4  14   7 1070.02 588.420  11
   4  15  -8-1.91874 525.864   3
  -4  15   7 10325.7 1221.71  10
   4  15  -7 6734.11 1134.09   3
  -4  15   6 898.435 500.600  10
   4  15  -6 129.950 439.368   3
   4  15  -5 15732.5 1478.39   3
  -4  15   4 421.649 538.968  10
  -4  15   1 13522.4 1468.39  10
  -5 -15   3 8289.35 1121.27   9
  -5 -14   7-404.389 465.965   4
  -5 -14   6 38.1851 338.549   4
  -5 -14   5-197.607 418.024   9
  -5 -14   5 182.181 357.643   4
  -5 -14   4 605.206 434.349   4
   5 -14  -3-588.316 592.747   2
  -5 -14   3-543.136 479.962   9
  -5 -14   3 339.847 413.827   4
   5 -14  -2 19.3519 491.077   2
  -5 -14   2 422.203 358.268   9
  -5 -14   1-328.844 450.392   9
   5 -14   0 872.853 644.842   2
  -5 -14   0 533.449 477.669   9
  -5 -14  -1 321.150 427.184   9
   5 -14   2 1426.89 668.464   2
  -5 -14  -2 1639.05 584.893   5
   5 -13  -7 2829.68 815.445  12
   5 -13  -7 2135.00 744.173   2
  -5 -13   7 2658.69 683.138   4
   5 -13  -7 2417.95 741.654   7
   5 -13  -6 22996.8 1878.74   7
   5 -13  -6 18911.4 1726.71  12
  -5 -13   4 22260.7 1615.99   9
   5 -13  -4 21603.4 1764.97   2
   5 -13  -3 4877.80 924.050  12
  -5 -13   2 13490.3 1349.43   9
   5 -13  -2 15019.9 1479.74   2
   5 -13  -2 12915.0 1402.87  12
   5 -13  -1 4533.71 911.106   2
  -5 -13   1 5586.69 797.853   4
   5 -13  -1 4650.85 910.115  12
  -5 -13   0 15154.8 1212.96   4
  -5 -13   0 13461.6 1377.02   9
   5 -13   1 6212.46 995.051   2
  -5 -13  -1 5195.67 937.355   9
  -5 -13  -1 4031.64 853.032   5
  -5 -13  -2 16286.7 1555.18   9
  -5 -13  -2 15061.0 1483.12   5
   5 -13   2 14716.0 1433.60   2
   5 -13   3 3983.30 761.860   4
  -5 -13  -3 4938.70 917.244   9
  -5 -13  -3 4541.31 896.356   5
   5 -13   4 8620.38 1103.48   4
   5 -13   4 12010.6 1289.23   2
   5 -13   5 3339.68 772.990   4
  -5 -13  -5 2717.94 763.933   5
   5 -13   6 8640.11 1188.82   4
  -5 -12  10 3750.60 854.321   4
  -5 -12   9-75.6774 435.709   4
   5 -12  -9 982.392 531.714   7
   5 -12  -9 995.575 661.913  12
  -5 -12   8 184.176 397.395   4
   5 -12  -8 702.423 575.223  12
   5 -12  -7 504.912 516.135   7
  -5 -12   6 1461.64 448.067   9
  -5 -12   6 979.961 535.753   4
   5 -12  -6 1454.72 586.415   7
   5 -12  -6 1300.29 454.434   5
   5 -12  -6 1708.97 631.057  12
  -5 -12   5 338.316 393.969   4
   5 -12  -5 389.740 309.668   5
   5 -12  -5 521.947 506.108  12
   5 -12  -4-50.0177 484.336   2
   5 -12  -4 990.827 544.506  12
   5 -12  -3 955.880 557.564   2
  -5 -12   3 25.5661 356.248   9
  -5 -12   3 683.706 428.801   4
   5 -12  -3 192.049 420.042  12
  -5 -12   2-538.489 450.856   9
  -5 -12   2-179.868 340.208   4
   5 -12  -2 153.128 457.885  12
   5 -12  -1 196.002 277.283   4
  -5 -12   1 318.148 418.112   9
  -5 -12   1 1110.33 427.825   4
   5 -12  -1-57.7193 439.629  12
   5 -12   0-548.669 546.433   2
  -5 -12   0-454.537 326.181   4
   5 -12   1 129.045 322.269   4
   5 -12   1-168.294 453.854   2
  -5 -12  -1 1192.72 526.625   9
  -5 -12  -1 880.430 478.813   5
   5 -12   2 307.123 358.365   4
   5 -12   2 158.771 484.210   2
  -5 -12  -2 920.202 359.307   4
  -5 -12  -2 576.492 474.506   5
   5 -12   3 180.399 360.254   4
  -5 -12  -3 879.235 523.125   9
  -5 -12  -4 742.996 510.674   5
   5 -12   5-519.394 396.433   4
   5 -12   6-748.572 593.656   4
  -5 -12  -6-267.084 411.982   5
  -5 -12  -7-543.759 482.125   5
   5 -11 -12 14832.7 1384.30   9
   5 -11 -11 5707.56 1061.24   7
  -5 -11  10 20512.6 1757.61   4
   5 -11 -10 19502.4 1779.73   7
   5 -11  -9 8826.66 1210.88   7
   5 -11  -9 9951.07 1231.62  12
  -5 -11   8 18594.9 1583.29   4
   5 -11  -8 20065.1 1680.66  12
   5 -11  -7 8769.52 1156.22   7
   5 -11  -7 6936.34 1031.48  12
  -5 -11   6 24286.7 1708.48   4
   5 -11  -6 27951.3 1945.47   7
   5 -11  -6 27289.1 1480.03   5
   5 -11  -6 25345.5 1809.29  12
  -5 -11   5 5190.03 843.151   4
   5 -11  -5 5744.68 725.584   5
   5 -11  -5 6316.15 968.746  12
  -5 -11   4 33351.7 1781.39   9
   5 -11  -4 33164.6 2036.81  12
  -5 -11   3 5856.30 828.270   4
   5 -11  -3 5469.90 645.750   4
   5 -11  -3 5633.40 930.849  12
  -5 -11   2 24114.7 1604.07   9
  -5 -11   1 9235.35 968.230   4
  -5 -11   1 8863.74 1032.96   9
   5 -11  -1 7348.70 964.534   2
   5 -11  -1 6947.13 976.777  12
   5 -11   0 33427.2 1896.42   2
   5 -11   0 34570.8 2026.86  12
   5 -11   1 3059.17 611.280   4
   5 -11   1 2725.49 651.226   2
  -5 -11  -1 4084.07 769.245   9
  -5 -11  -1 4082.96 649.359   4
   5 -11   2 36108.6 1930.68   4
  -5 -11  -2 39647.4 1798.91   4
  -5 -11  -2 42992.8 2281.47   9
  -5 -11  -3 5239.78 674.840   4
   5 -11   3 5709.78 849.652   2
  -5 -11  -3 5502.74 880.447   5
  -5 -11  -4 14982.6 1386.04   5
   5 -11   4 16744.4 1444.75   4
   5 -11   5 5960.39 946.111   4
   5 -11   5 5861.86 799.766   2
  -5 -11  -6 18695.0 1605.86   5
   5 -11   6 19519.2 1659.27   4
   5 -11   7 3420.71 778.487   4
  -5 -11  -8 22173.1 1837.17   5
   5 -11   8 25349.8 2000.45   4
   5 -10 -12 1090.73 488.227   9
   5 -10 -11 1412.93 619.140   7
  -5 -10  10 1852.48 704.124   4
   5 -10 -10 1005.98 577.679   7
   5 -10 -10 1078.96 591.882  12
   5 -10  -9 435.279 458.236   7
   5 -10  -9 484.040 297.703   5
   5 -10  -9-46.7443 440.481  12
   5 -10  -8 79.3557 335.223   7
   5 -10  -8-284.502 287.903   5
   5 -10  -8-133.287 448.305  12
  -5 -10   7 1197.97 496.363   4
   5 -10  -7 1748.78 647.479   7
   5 -10  -7 966.378 539.930  12
  -5 -10   6 1518.65 553.355   4
   5 -10  -6 2662.82 648.612  12
   5 -10  -5 661.310 272.446   4
   5 -10  -5 1252.74 525.190   7
   5 -10  -5 1096.10 508.801  12
   5 -10  -4 2216.27 432.047   4
  -5 -10   4 2597.73 603.973   4
   5 -10  -3 778.163 321.096   4
   5 -10  -3 128.306 350.618  12
  -5 -10   2 317.217 340.492   9
  -5 -10   2 312.142 331.771   4
   5 -10  -2 810.441 466.186  12
   5 -10  -1 782.720 358.071   4
  -5 -10   1 212.978 326.133   9
  -5 -10   1 340.482 345.210   4
   5 -10  -1 351.806 424.366  12
   5 -10   0 49.6256 281.665   4
   5 -10   0 538.389 435.012  12
  -5 -10  -1 1167.28 400.176   4
  -5 -10  -1 1392.24 496.212   5
   5 -10   2-306.346 424.109   2
  -5 -10  -2 756.745 434.522   5
   5 -10   3 2498.57 620.373   4
   5 -10   3 2947.30 606.424   2
  -5 -10  -3 3469.02 589.851   4
  -5 -10  -3 2128.25 602.847   5
   5 -10   4 232.874 387.985   4
  -5 -10  -4 106.326 382.940   5
   5 -10   5 1122.75 521.239   4
  -5 -10  -5 2110.05 609.409   5
  -5 -10  -7 446.530 501.913   5
  -5 -10  -8-644.548 542.690   5
   5 -10   9 4552.08 982.475   4
   5  -9 -13 25395.2 2038.00   7
  -5  -9  13 20925.5 1837.90   4
  -5  -9  12 1343.13 612.567   4
   5  -9 -12 545.306 513.424   7
  -5  -9  11 20862.0 1752.69   4
   5  -9 -11 18720.2 1687.95   7
  -5  -9  10 159.766 385.754   4
   5  -9 -10 172.492 220.188   5
  -5  -9   9 22323.7 1696.33   4
   5  -9  -9 22211.5 1733.74   7
   5  -9  -9 21727.2 1229.83   5
  -5  -9   8 492.008 434.976   4
   5  -9  -8 898.693 448.804   7
   5  -9  -8 953.811 330.730   5
   5  -9  -8 85.2213 364.980  12
  -5  -9   7 37744.8 2069.12   4
   5  -9  -7 36822.7 1506.24   5
   5  -9  -7 39341.5 1424.34   4
   5  -9  -7 38334.4 2076.73  12
   5  -9  -7 37908.6 1378.74   3
  -5  -9   6 496.330 403.903   4
   5  -9  -6 454.905 447.047   7
   5  -9  -6 465.173 230.093   3
   5  -9  -6 91.8885 230.644   5
   5  -9  -6 688.739 455.748  12
   5  -9  -5 25844.2 1225.34   3
  -5  -9   5 27511.1 1690.71   4
   5  -9  -5 29354.8 1831.80   7
   5  -9  -5 24600.0 1210.28   5
   5  -9  -5 25338.5 1643.87  12
   5  -9  -4 2195.09 432.789   3
   5  -9  -4 2276.80 599.690  12
   5  -9  -3 39247.3 1615.97   3
  -5  -9   3 40616.4 1951.96   4
   5  -9  -3 37210.6 1587.20   4
   5  -9  -3 40176.4 2011.61  12
   5  -9  -2 1411.42 404.189   4
   5  -9  -2 810.433 455.965  12
  -5  -9   1 39518.5 1853.65   4
   5  -9  -1 35027.7 1657.76   4
   5  -9   0 632.630 370.991   4
  -5  -9   0 685.835 386.416   4
   5  -9   0 1170.15 499.504  12
  -5  -9  -1 41043.3 1947.59   5
   5  -9   2 2300.63 552.244   2
  -5  -9  -2 2690.63 535.914   4
  -5  -9  -3 40615.2 1783.34   4
   5  -9   3 44780.5 1899.81   2
   5  -9   4 592.806 436.178   4
   5  -9   4 969.115 431.884   2
   5  -9   5 43295.7 2253.98   4
   5  -9   5 46799.6 1840.68   2
   5  -9   6 998.104 494.626   4
   5  -9   6 1560.61 446.448   2
  -5  -9  -6 1739.26 592.342   5
   5  -9   7 32392.6 2089.48   4
   5  -9   8-189.607 406.959   4
  -5  -9  -8 301.159 473.466   5
  -5  -9  -9 37367.7 2253.36   5
   5  -9   9 42571.4 2558.93   4
  -5  -9 -10 600.405 559.111   5
  -5  -8  14 1037.46 596.333   4
  -5  -8  13 5663.73 1000.63   4
   5  -8 -13 4393.61 911.403   7
   5  -8 -12-28.8298 364.463   7
  -5  -8  11 3290.31 753.084   4
   5  -8 -11 2722.10 484.249   5
  -5  -8  10 722.367 499.488   4
   5  -8 -10 121.783 392.910   7
   5  -8 -10 624.735 322.483   5
  -5  -8   9 8175.41 1039.49   4
   5  -8  -9 6341.60 934.732   7
   5  -8  -9 7452.20 701.409   5
  -5  -8   8 810.487 460.709   4
   5  -8  -8 540.868 433.309   7
   5  -8  -8 803.558 291.788   5
  -5  -8   7 2071.71 597.031   4
   5  -8  -7 1680.91 543.083   7
   5  -8  -7 2886.75 439.870   3
   5  -8  -7 3018.14 437.320   5
   5  -8  -7 1725.88 562.885  12
  -5  -8   6 888.247 414.890   4
   5  -8  -6 742.316 414.171   7
   5  -8  -6 471.972 256.113   3
   5  -8  -5 588.083 285.397   4
  -5  -8   5 531.213 407.983   4
   5  -8  -5 608.143 436.271   7
   5  -8  -5 614.052 246.749   5
   5  -8  -4 334.090 262.124   4
   5  -8  -4 88.1292 272.383   3
   5  -8  -4 506.630 379.130  12
  -5  -8   3 942.780 420.995   4
   5  -8  -3 879.251 348.926   3
   5  -8  -3 728.528 419.607  12
   5  -8  -2 578.458 317.529   4
   5  -8  -2 276.180 345.948  12
   5  -8  -1 666.569 352.325   4
  -5  -8   1 891.313 383.417   4
   5  -8  -1 745.587 369.661   3
   5  -8  -1 332.509 374.514  12
  -5  -8   0 45.8340 301.120   5
   5  -8   0 498.349 322.896   3
   5  -8   0 557.185 402.067  12
   5  -8   1 1784.10 510.602   4
  -5  -8  -1 1565.44 435.677   4
  -5  -8  -1 1527.46 456.947   5
   5  -8   2 577.982 375.642   4
  -5  -8  -2-64.8381 304.214   5
   5  -8   3 639.152 374.401   2
  -5  -8  -3 505.210 319.281   4
  -5  -8  -4 1017.76 433.065   5
   5  -8   5 1756.13 571.235   4
   5  -8   6 2618.61 437.525   2
   5  -8   7 2338.31 665.706   4
  -5  -8  -7 1533.86 568.387   5
   5  -8   8 1761.52 643.208   4
  -5  -8  -8 574.596 487.331   5
   5  -8  10 1489.77 668.292   4
   5  -7 -14 15945.2 1601.82   7
  -5  -7  14 16506.5 1631.69   4
   5  -7 -13 6406.55 1063.08   7
   5  -7 -12 15789.8 1492.84   7
   5  -7 -11 10244.9 1201.73   7
   5  -7 -11 8553.75 761.502   5
  -5  -7  10 23865.8 1721.15   4
   5  -7 -10 22551.8 1677.76   7
   5  -7 -10 23034.4 1155.82   3
  -5  -7   9 10161.7 1125.35   4
  -5  -7   8 48578.2 2291.34   4
  -5  -7   7 6632.58 880.895   4
   5  -7  -7 6457.18 885.381   7
   5  -7  -7 6323.31 639.513   3
  -5  -7   6 44161.6 2079.37   4
   5  -7  -6 48159.7 2216.34   7
   5  -7  -6 44194.9 1627.73   3
   5  -7  -5 2138.77 429.067   4
  -5  -7   5 2942.00 611.228   4
   5  -7  -5 2670.78 578.671   7
   5  -7  -5 2367.78 547.604  12
   5  -7  -4 45729.3 1961.30  12
   5  -7  -3 24005.9 1282.32   4
   5  -7  -3 26872.4 1495.93  12
   5  -7  -3 26269.0 1335.63   3
  -5  -7   2 69024.1 2380.49   4
   5  -7  -2 68570.1 1865.81   1
   5  -7  -2 62570.7 2104.86   4
   5  -7  -2 67784.9 2325.92  12
   5  -7  -2 63751.8 2106.48   3
  -5  -7   1 15412.8 1140.03   4
   5  -7  -1 13240.4 1024.69   4
   5  -7  -1 13816.5 1082.09  12
   5  -7  -1 14583.6 1059.90   3
   5  -7   0 37481.6 1713.56   3
  -5  -7   0 39205.2 1754.73   4
  -5  -7   0 39700.5 1672.98   5
   5  -7   0 37431.4 1725.64   4
   5  -7   1 6603.41 789.429   3
   5  -7   1 7653.45 431.433   1
  -5  -7  -1 7553.57 805.128   4
  -5  -7  -1 6922.55 762.870   5
   5  -7   1 7696.24 846.668   4
  -5  -7  -2 69305.8 2281.56   4
   5  -7   2 68663.8 2448.64   3
  -5  -7  -2 73910.0 2359.69   5
   5  -7   2 69940.4 2495.35   4
  -5  -7  -3 13496.0 1066.60   5
   5  -7   3 13641.2 1176.81   4
   5  -7   4 61048.0 2492.49   4
  -5  -7  -6 40596.8 1987.38   5
   5  -7   6 38271.0 2128.71   4
   5  -7   7 9102.15 1118.42   4
  -5  -7  -8 22283.0 1596.70   5
   5  -7   8 23440.5 1786.17   4
  -5  -7  -9 17725.2 1255.12  10
  -5  -7  -9 17875.5 1493.91   5
   5  -7   9 17135.7 1593.83   4
  -5  -7 -10 23552.0 1763.09   5
   5  -7  10 23311.3 1907.80   4
  -5  -7 -11 10233.2 1237.81   5
   5  -7  11 11106.0 1390.69   4
   5  -6 -16 5770.26 1063.94   7
  -5  -6  15 215.578 448.994   4
   5  -6 -15 316.204 443.594   7
   5  -6 -14 9050.48 1213.34   7
  -5  -6  14 9372.62 1242.11   4
  -5  -6  13 210.795 384.406   4
   5  -6 -13 35.2536 391.704   7
   5  -6 -12 4361.29 816.514   7
  -5  -6  11 210.021 393.938   4
   5  -6 -11 535.497 479.603   7
   5  -6 -11 365.566 264.714   3
  -5  -6  10 3451.12 703.035   4
   5  -6 -10 2344.30 619.830   7
   5  -6 -10 2960.91 492.218   3
  -5  -6   9 1439.33 528.623   4
   5  -6  -9 2337.92 436.838   3
   5  -6  -9 1648.54 343.331   5
  -5  -6   8 5652.40 801.065   4
   5  -6  -8 5913.83 840.201   7
   5  -6  -8 5576.89 629.289   3
  -5  -6   6 1121.91 435.479   4
   5  -6  -6 2155.24 538.772   7
  -5  -6   5 1295.46 295.209   7
   5  -6  -5 1589.27 472.326   7
   5  -6  -5 1692.79 412.361   3
   5  -6  -5 1253.73 435.387  12
  -5  -6   4 6749.17 809.803   4
   5  -6  -4 6846.13 758.350  12
   5  -6  -3 780.900 356.298   4
   5  -6  -3 578.260 255.239   6
   5  -6  -3 1121.27 400.531  12
   5  -6  -2 365.084 296.978   4
  -5  -6   2 900.088 381.950   4
   5  -6  -2 1421.09 406.197   3
   5  -6  -1 337.879 234.839   1
   5  -6  -1 615.431 345.410  12
   5  -6   0 685.936 360.458   4
  -5  -6   0 328.697 308.015   4
  -5  -6   0 1176.31 311.726   6
   5  -6   0 981.016 415.529   3
  -5  -6   0 466.802 278.801   5
   5  -6   0 1110.29 387.000  12
   5  -6   1 1169.72 423.764   4
   5  -6   1 533.439 159.555   1
  -5  -6  -1 804.342 368.165   4
  -5  -6  -2 1535.60 409.263   4
  -5  -6  -2 1199.73 390.206   5
   5  -6   2 1698.84 466.873   3
   5  -6   3 3653.09 652.381   4
  -5  -6  -3 2025.99 471.663   4
  -5  -6  -3 2275.80 489.523   5
   5  -6   3 2904.10 595.071   3
   5  -6   4 2149.32 570.766   4
  -5  -6  -4 1694.84 469.132   5
   5  -6   5 674.870 445.598   4
  -5  -6  -5 1026.07 413.413   5
   5  -6   6 1121.93 514.043   4
   5  -6   6 1507.40 324.549   2
   5  -6   7 529.828 430.390   4
  -5  -6  -7 964.701 444.204   5
  -5  -6  -8 1023.60 384.943  10
  -5  -6  -8 52.3924 407.099   5
  -5  -6  -9 1477.00 450.720  10
   5  -6   9 1851.11 616.378   4
  -5  -6  -9 843.727 494.198   5
  -5  -6 -10 3541.82 590.847  10
   5  -6  10 3675.51 834.804   4
  -5  -6 -10 3714.79 774.447   5
  -5  -6 -11 531.490 471.874   5
   5  -6  12 8560.58 1275.83   4
   5  -5 -17 3719.80 874.015   7
   5  -5 -16 19889.8 1773.94   7
  -5  -5  16 19846.9 1788.35   4
  -5  -5  15 2703.89 767.090   4
   5  -5 -14 20112.6 1663.53   7
   5  -5 -13 7378.57 1031.01   7
  -5  -5  13 9890.92 1196.43   4
  -5  -5  12 32731.3 2021.23   4
   5  -5 -12 27896.8 1846.56   7
   5  -5 -11 12142.9 1210.60   7
  -5  -5  10 41822.3 2151.39   4
   5  -5 -10 41263.5 2100.40   7
   5  -5  -9 7990.80 955.627   7
   5  -5  -9 5261.03 629.238   3
  -5  -5   8 52078.5 2257.96   4
   5  -5  -8 53203.4 2267.22   7
   5  -5  -8 51828.1 1845.35   3
  -5  -5   7 3578.41 638.409   4
   5  -5  -7 3651.30 660.030   7
  -5  -5   6 52206.5 2153.09   4
   5  -5  -6 51003.0 2128.02   7
   5  -5  -6 49136.8 1777.27   3
   5  -5  -5 15612.4 1093.84  12
   5  -5  -5 15139.8 1012.67   3
   5  -5  -4 65013.1 2067.78   3
   5  -5  -3 22952.7 1238.11  12
   5  -5  -3 23668.9 1280.12   3
  -5  -5   2 84724.2 2537.55   4
   5  -5  -2 83688.6 2301.20  12
   5  -5  -2 81002.7 2369.43   3
  -5  -5   1 35879.1 1652.48   4
  -5  -5   1 33562.8 1298.46   5
   5  -5  -1 33842.6 1577.98   4
   5  -5  -1 35499.4 1493.51  12
   5  -5  -1 34209.3 1582.67   3
  -5  -5   0 71254.9 2289.93   4
  -5  -5   0 71982.8 1924.38   5
   5  -5   0 70511.2 2313.83   4
   5  -5   0 71982.1 2101.87  12
   5  -5   0 68454.0 2274.19   3
   5  -5   1 26011.2 1446.23   3
  -5  -5  -2 46325.7 1840.36   4
   5  -5   2 43038.0 1918.28   4
   5  -5   3 18362.1 1300.69   3
  -5  -5  -3 16996.4 1067.94   5
   5  -5   3 17147.2 1268.44   4
   5  -5   3 18960.6 1025.78  11
   5  -5   4 58514.9 2344.05   3
   5  -5   4 60595.0 2404.91   4
  -5  -5  -5 16678.7 1144.29   5
   5  -5   5 16943.7 859.814   2
   5  -5   6 32807.5 1899.75   4
  -5  -5  -7 24657.5 1403.50  10
   5  -5   7 24415.0 1708.83   4
  -5  -5  -8 27183.5 1472.09  10
   5  -5   8 28712.4 1911.81   4
   5  -5   9 16293.1 1511.27   4
  -5  -5  -9 14577.2 1097.46  10
  -5  -5  -9 15615.9 1308.64   5
  -5  -5 -10 32145.2 1591.08  10
   5  -5  10 31770.4 2138.80   4
   5  -5  12 17543.3 1731.15   4
  -5  -5 -13 2542.31 639.318   3
   5  -4 -17 5088.24 979.377   7
  -5  -4  15 4214.26 872.682   4
   5  -4 -15 4410.12 692.971   3
   5  -4 -15 3860.19 806.698   7
  -5  -4  14 1023.36 538.787   4
   5  -4 -14 154.875 306.368   3
  -5  -4  13 6956.52 1005.71   4
   5  -4 -13 6597.01 955.449   7
  -5  -4  12 2669.73 684.189   4
  -5  -4  11 8239.76 1017.14   4
   5  -4 -11 8687.27 1004.15   7
   5  -4 -10 1017.00 370.853   3
   5  -4 -10 1308.96 473.130   7
   5  -4  -9 1143.44 397.694   3
   5  -4  -9 2009.75 529.358   7
  -5  -4   8 1151.20 415.638   4
   5  -4  -8 990.368 374.004   3
   5  -4  -8 1380.29 470.523   7
   5  -4  -7 4454.30 683.161   7
   5  -4  -7 4658.49 605.093   3
  -5  -4   6 342.748 230.972   7
   5  -4  -6 359.904 337.117   7
   5  -4  -6 284.082 320.524   3
  -5  -4   5 1351.86 426.914   4
   5  -4  -5 1023.25 365.537   3
  -5  -4   4 367.649 296.240   4
  -5  -4   4 270.103 217.543   7
   5  -4  -4 474.507 324.251   3
   5  -4  -4 540.551 293.116  12
  -5  -4   3 2281.81 489.499   4
  -5  -4   3 2935.70 436.868   7
   5  -4  -3 2478.01 488.240   3
   5  -4  -2 1024.49 333.911  12
   5  -4  -1 1194.37 392.413   3
   5  -4   0 680.627 363.997   4
  -5  -4   0 222.150 279.946   4
   5  -4   0 342.794 329.246   3
  -5  -4   0 817.156 258.062   5
   5  -4   0 511.533 161.515   5
   5  -4   0 499.996 267.735  12
   5  -4   1 1382.47 442.280   4
  -5  -4  -1 1056.61 383.207   4
   5  -4   1 1504.59 457.151   3
   5  -4   2 3121.48 594.441   4
   5  -4   2 2619.12 556.370   3
   5  -4   2 2277.28 401.571  11
  -5  -4  -3 4249.78 537.230   5
   5  -4   3 3219.19 615.039   3
   5  -4   3 4985.61 716.891   4
   5  -4   3 4969.08 527.897  11
   5  -4   4 1172.18 298.578  11
   5  -4   4 1807.53 496.210   3
   5  -4   5 1726.06 314.422  11
   5  -4   5 1718.67 512.441   4
  -5  -4  -5 1024.67 371.946   5
  -5  -4  -6 5378.30 685.326  10
  -5  -4  -6 6092.71 724.019   5
   5  -4   6 5442.95 818.177   4
  -5  -4  -7 4823.78 666.750  10
  -5  -4  -7 5442.54 727.578   5
   5  -4   7 6560.18 919.072   4
   5  -4   8 1312.40 530.889   4
   5  -4  12 463.182 471.523   4
   5  -4  13 2955.48 804.885   4
   5  -3 -18-1003.92 587.686   7
   5  -3 -17 29639.5 2050.52   7
   5  -3 -16-468.351 483.259   7
  -5  -3  15 41833.9 2365.24   4
   5  -3 -15 39010.8 2006.19   3
  -5  -3  14 308.839 425.614   4
   5  -3 -14 1464.02 475.627   3
   5  -3 -14 1178.53 543.727   7
  -5  -3  13 42783.4 2262.12   4
   5  -3 -13 42139.4 2169.37   7
  -5  -3  12 1077.97 485.478   4
   5  -3 -12 750.590 386.802   3
   5  -3 -12 467.719 391.748   7
  -5  -3  11 32652.7 1874.63   4
   5  -3 -11 30557.2 1751.99   7
  -5  -3  10 875.903 437.193   4
   5  -3 -10 685.339 396.269   7
  -5  -3   9 79908.5 2743.00   4
   5  -3  -9 73064.8 2534.77   7
  -5  -3   8 1001.87 411.041   4
   5  -3  -8 1110.70 382.165   3
   5  -3  -8 316.878 319.764   7
  -5  -3   7 60768.3 2274.22   4
   5  -3  -7 57850.4 2151.93   7
   5  -3  -7 55885.2 1978.22   3
  -5  -3   6 974.512 397.452   4
   5  -3  -6 1143.47 376.630   3
  -5  -3   5 63259.8 2214.93   4
   5  -3  -5 60981.5 2043.29   3
   5  -3  -4 514.101 293.237  12
  -5  -3   3 58344.4 2059.94   4
  -5  -3   3 63179.6 1849.13   7
   5  -3  -3 57253.3 1983.28   3
  -5  -3   2 510.533 312.287   4
   5  -3  -2 903.605 297.189  12
  -5  -3   1 44627.9 1777.38   4
   5  -3  -1 46931.8 1476.19  12
   5  -3  -1 43679.8 1780.57   3
  -5  -3   0 1004.49 359.855   4
  -5  -3   0 1514.55 269.918   5
   5  -3   0 710.445 268.494  12
  -5  -3  -1 36594.8 1606.42   4
  -5  -3  -1 38828.5 1232.68   5
   5  -3   1 37960.7 1727.35   4
   5  -3   1 36095.1 1680.25   3
  -5  -3  -2 12153.2 745.721   5
   5  -3   2 13037.9 1060.95   4
   5  -3   2 11544.9 1005.29   3
   5  -3   3 96202.7 2865.44   4
   5  -3   3 96693.4 2855.81   3
   5  -3   4 743.977 375.330   4
   5  -3   4 730.415 371.459   3
  -5  -3  -4 275.866 259.999   5
   5  -3   5 51869.2 2217.33   3
  -5  -3  -5 52003.0 1944.42  10
   5  -3   5 53357.7 2267.45   4
  -5  -3  -6 2383.53 484.739  10
   5  -3   6 3170.21 639.488   4
   5  -3   6 3344.82 665.039   3
   5  -3   6 2861.94 282.577   2
  -5  -3  -6 3860.39 362.342  12
  -5  -3  -7 40250.1 1735.20  10
  -5  -3  -8 1775.83 454.763  10
   5  -3   8 1652.71 557.604   4
  -5  -3  -9 43242.1 1804.50  10
   5  -3   9 46535.6 2418.97   4
  -5  -3 -10 114.641 251.602  10
  -5  -3 -11 41008.5 1741.14  10
   5  -3  11 39090.6 2365.97   4
   5  -3  12-94.0544 422.845   4
   5  -3  13 31733.1 2279.30   4
  -5  -3 -14 1602.45 571.628   3
  -5  -2  18 3860.45 819.421   4
   5  -2 -18 4180.49 893.238   7
   5  -2 -17 5701.26 935.829   7
  -5  -2  16 1258.12 551.958   4
   5  -2 -16 1608.46 544.278   3
   5  -2 -16 641.697 475.019   7
  -5  -2  15 3259.56 758.280   4
   5  -2 -15 1259.84 515.586   7
  -5  -2  15 2570.24 557.197   6
   5  -2 -14-46.5559 312.975   3
  -5  -2  14 117.657 264.464   6
  -5  -2  13 1797.42 535.320   4
   5  -2 -13 1247.45 460.286   3
   5  -2 -13 2294.20 599.219   7
  -5  -2  13 2198.35 426.936   6
  -5  -2  12 2199.83 576.218   4
   5  -2 -12 1504.29 486.037   3
   5  -2 -12 2060.18 539.389   7
  -5  -2  12 2238.53 414.586   6
  -5  -2  11 6989.31 891.148   4
   5  -2 -11 6153.28 817.416   7
   5  -2 -11 7007.79 836.995   3
   5  -2 -10 5692.35 743.898   3
   5  -2  -9 1192.67 412.381   3
   5  -2  -9 1973.11 477.777   7
  -5  -2   8 426.991 367.064   4
   5  -2  -8 722.398 354.022   3
  -5  -2   7 916.336 396.551   4
   5  -2  -7 1284.87 397.460   3
   5  -2  -7 929.357 370.151   7
  -5  -2   7 1054.64 147.444   6
  -5  -2   6 3302.35 561.689   4
   5  -2  -6 3433.93 557.439   3
  -5  -2   5 3792.97 587.401   4
  -5  -2   5 2604.72 425.050   7
   5  -2  -5 3852.99 579.447   3
  -5  -2   4 1357.50 399.431   4
  -5  -2   3 132.537 240.662   4
   5  -2  -3-169.962 285.934   3
   5  -2  -3 110.094 199.770  12
  -5  -2   2 1076.79 367.533   4
   5  -2  -2 739.710 344.671   3
   5  -2  -2 745.452 258.752  12
  -5  -2   1 833.964 348.970   4
   5  -2  -1 1399.34 283.235  12
  -5  -2   0 1145.54 372.846   4
   5  -2   0 749.946 364.296   3
   5  -2   0 1104.22 255.877  12
   5  -2   1 1676.78 451.682   3
   5  -2   2 3944.46 612.156   4
   5  -2   2 4300.13 362.495   1
   5  -2   3 1494.60 452.285   4
  -5  -2  -3 1268.22 395.470  10
   5  -2   3 849.084 402.459   3
  -5  -2  -3 1145.25 284.662   5
   5  -2   4 2365.98 545.375   4
  -5  -2  -4 1882.23 451.163  10
   5  -2   4 3130.53 584.853   3
   5  -2   5 3451.71 637.812   4
   5  -2   5 1843.98 508.366   3
   5  -2   6 1435.10 201.641  11
   5  -2   6 1795.73 519.903   4
  -5  -2  -6 1621.76 425.335  10
   5  -2   6 2516.22 583.752   3
  -5  -2  -7 2369.32 497.374  10
   5  -2   7 3077.99 664.405   4
   5  -2   7 4068.62 719.728   3
  -5  -2  -8 2303.37 486.586  10
   5  -2   9 2471.93 657.251   4
  -5  -2 -10 495.437 311.724  10
   5  -2  10 904.359 519.138   4
   5  -2  11 6570.92 1035.02   4
  -5  -2 -12 1255.10 565.061   3
   5  -2  12 3080.05 785.693   4
  -5  -2 -13 9270.49 1153.05   3
  -5  -1  18 23056.9 1828.76   4
  -5  -1  17 10134.5 1216.51   4
  -5  -1  17 11707.8 1336.86   8
  -5  -1  16 28997.0 1936.42   4
   5  -1 -16 30991.2 1891.40   7
   5  -1 -16 27957.6 1875.64   3
   5  -1 -15 14046.0 1268.98   7
  -5  -1  14 23551.6 1658.32   4
  -5  -1  14 25313.2 1209.85  10
   5  -1 -14 23624.2 1559.60   7
   5  -1 -14 22645.7 1600.33   3
  -5  -1  13 11704.4 1158.63   4
  -5  -1  13 13522.6 911.060  10
   5  -1 -13 12897.6 1142.32   7
   5  -1 -13 10446.9 1083.27   3
  -5  -1  12 45531.7 2147.40   4
  -5  -1  11 21044.1 1433.07   4
  -5  -1  11 21949.6 1012.34   6
   5  -1 -11 19579.4 1382.21   3
   5  -1 -10 93456.6 2858.14   3
  -5  -1   9 34299.9 1724.86   4
   5  -1  -9 32052.9 1563.64   7
   5  -1  -9 32549.4 1657.00   3
   5  -1  -8 31352.7 1510.26   7
   5  -1  -8 28492.7 1518.95   3
  -5  -1   7 5929.08 725.304   4
   5  -1  -7 5921.50 719.011   3
  -5  -1   6 98135.5 2694.73   4
   5  -1  -6 94697.3 2639.19   3
  -5  -1   5 8866.17 746.107   7
   5  -1  -5 8945.42 835.037   3
  -5  -1   4 105505. 2708.74   4
   5  -1  -4 103565. 2705.90   3
  -5  -1   3 26388.0 1358.52   4
   5  -1  -3 25590.7 980.559  12
  -5  -1   2 63399.1 2072.26   4
   5  -1  -2 62265.3 1435.42  12
  -5  -1   1 13925.9 989.563   4
   5  -1  -1 13888.5 1032.75   3
   5  -1  -1 12354.8 302.499   6
  -5  -1   0 74238.7 2230.91   4
   5  -1   0 73130.6 2326.59   3
  -5  -1  -1 786.085 320.559   4
   5  -1   1 820.888 367.227   3
  -5  -1  -2 76971.5 2261.38  10
   5  -1   2 79816.6 2509.80   3
   5  -1   4 24891.8 1489.21   4
   5  -1   4 25800.2 1506.34   3
  -5  -1  -5 6753.71 728.165  10
  -5  -1  -5 6641.17 496.428  12
  -5  -1  -6 47219.5 1847.38  10
  -5  -1  -6 49014.7 1407.16  12
   5  -1   6 51162.6 988.417  11
   5  -1   7 6166.08 841.263   3
  -5  -1  -7 7408.70 780.189  10
   5  -1   7 5668.41 819.336   4
  -5  -1  -8 28367.3 1458.40  10
  -5  -1  -9 10915.5 930.741  10
   5  -1   9 11197.9 1185.24   4
  -5  -1 -10 19174.1 1216.98  10
   5  -1  10 20223.2 1630.01   4
  -5  -1 -12 20140.6 1620.19   3
   5  -1  12 18769.4 1686.51   4
  -5  -1 -13 7096.11 1033.20   3
   5  -1  13 7851.23 1164.84   4
  -5  -1 -14 15624.3 1516.00   3
   5  -1  14 17547.1 1592.52   6
   5  -1  14 17743.2 1720.89   4
  -5   0  18 5048.43 913.145   4
   5   0 -18 4725.28 966.031   3
  -5   0  17-191.791 435.371   4
   5   0 -17-353.662 464.800   3
  -5   0  17 681.562 490.620   8
  -5   0  16 6199.50 922.094   4
   5   0 -16 4548.00 855.005   3
   5   0 -16 4416.44 736.292   7
  -5   0  15 731.668 420.267   4
  -5   0  15 643.814 493.046   8
  -5   0  14 4496.64 778.720   8
   5   0 -14 3180.95 630.769   7
  -5   0  13-258.250 200.440  10
  -5   0  13-134.401 362.008   4
   5   0 -13 103.539 378.496   3
  -5   0  12 1168.17 343.420  10
   5   0 -12 896.966 418.186   7
  -5   0  11 156.088 355.485   4
   5   0 -11 873.738 426.954   3
   5   0 -11 251.069 308.504   7
  -5   0  11 13.3972 197.392   6
  -5   0  10 14155.3 1136.36   4
   5   0 -10 15140.9 620.260   9
   5   0 -10 13836.2 1166.12   3
  -5   0   9 715.519 300.608  10
   5   0  -9 87.6037 321.799   3
   5   0  -9 488.709 306.577   7
  -5   0   8 1120.10 341.796  10
  -5   0   8 1076.60 401.512   4
   5   0  -8 908.577 402.759   3
   5   0  -7 677.743 395.305   3
  -5   0   6 4321.89 609.368   4
   5   0  -6 4250.51 634.907   3
  -5   0   5 149.588 228.472  10
  -5   0   5 522.074 324.569   4
   5   0  -5 255.405 307.542   3
  -5   0   4 1757.31 405.220  10
  -5   0   4 1092.82 378.586   4
   5   0  -4 1568.82 432.715   3
  -5   0   3 742.768 332.960  10
  -5   0   3 441.036 304.904   4
   5   0  -3 925.916 372.668   3
  -5   0   2 917.013 325.353  10
   5   0  -1 873.716 189.570  12
  -5   0   0 3699.30 531.437  10
   5   0   0 3639.02 244.523   6
  -5   0  -2 2191.66 453.971  10
   5   0   3 627.203 339.277   4
  -5   0  -3 1265.12 394.355  10
  -5   0  -4 10050.2 871.381  10
   5   0   4 10852.7 1001.70   4
   5   0   4 11028.4 1005.39   3
   5   0   5 1146.29 433.517   4
  -5   0  -5 601.818 327.063  10
   5   0   5 878.190 404.422   3
   5   0   6 1776.62 520.108   4
  -5   0  -6 1364.79 422.989  10
   5   0   6 2933.69 606.430   3
  -5   0  -6 2203.31 384.676  12
  -5   0  -7 306.118 266.870  10
   5   0   8 3488.40 690.327   4
  -5   0  -8 2999.62 542.514  10
   5   0   8 2713.03 615.925   3
   5   0   9-225.020 390.227   4
  -5   0  -9 451.480 308.028  10
   5   0   9-479.029 383.464   6
  -5   0 -10 5044.28 678.463  10
   5   0  10 5870.77 822.643   6
  -5   0 -11 971.484 380.281  10
   5   0  11-403.315 462.825   4
   5   0  11-526.141 461.743   6
  -5   0 -12 6420.38 970.441   3
   5   0  12 6743.27 1038.15   4
   5   0  12 6967.93 977.538   6
  -5   0 -13 1084.98 540.427   3
   5   0  13 873.112 520.360   4
   5   0  13-551.629 466.286   6
   5   0  14 3442.39 840.393   4
  -5   1  18 21562.8 1680.11   4
   5   1 -18 22010.0 1873.69   3
  -5   1  17 11264.7 1330.92   8
   5   1 -17 8749.05 1218.41   3
  -5   1  16 32316.4 1939.96   4
  -5   1  16 31973.4 2074.22   8
   5   1 -16 29324.7 1670.56   7
  -5   1  16 35765.7 1804.41   6
   5   1 -16 31282.2 2098.15   3
  -5   1  15 14275.9 1268.80   4
   5   1 -15 14392.3 1165.73   7
  -5   1  14 23455.9 1558.04   4
  -5   1  14 25955.7 1382.58   6
   5   1 -14 22456.6 1683.22   3
  -5   1  13 12354.3 1125.26   4
  -5   1  13 12782.7 1215.24   8
   5   1 -13 11533.2 982.700   7
  -5   1  13 13496.1 943.192   6
   5   1 -13 10719.4 1163.45   3
  -5   1  12 47583.6 1601.32  10
   5   1 -12 41553.6 2133.08   3
  -5   1  11 21134.3 1364.83   4
   5   1 -11 20790.9 1218.68   7
   5   1 -11 19991.6 1461.40   3
  -5   1  10 97921.8 2812.00   4
  -5   1  10 104026. 2426.33  10
   5   1 -10 94864.7 2486.81   7
  -5   1  10 102649. 2038.33   6
   5   1 -10 94137.1 3016.41   3
  -5   1   9 34631.9 1641.52   4
   5   1  -9 33071.9 1765.82   3
  -5   1   8 31272.5 1526.98   4
  -5   1   8 31666.4 895.280   6
   5   1  -8 30899.4 1671.28   3
  -5   1   7 6893.80 742.948   4
  -5   1   7 6146.62 638.097  10
   5   1  -7 6969.26 525.026   9
   5   1  -7 6993.09 825.333   3
  -5   1   6 95484.0 2543.64   4
   5   1  -6 96032.3 2778.34   3
  -5   1   5 9340.97 822.382   4
  -5   1   4 106849. 2541.74  10
  -5   1   4 101953. 2578.98   4
   5   1  -4 106059. 2831.59   3
  -5   1   3 25086.6 1285.48   4
   5   1  -3 25976.7 1404.49   3
  -5   1   2 61410.1 1955.33  10
  -5   1   2 62918.6 2011.12   4
   5   1  -2 65488.6 2199.49   3
   5   1  -2 63442.4 1068.88  12
  -5   1   1 15363.3 1006.72  10
  -5   1   1 13325.7 954.448   4
   5   1  -1 14205.0 1054.13   3
   5   1   0 73075.5 1042.05   6
   5   1   0 72973.4 1852.61   1
   5   1   0 73471.3 2340.99   3
   5   1   1 1269.62 316.888   1
   5   1   1 1454.10 412.862   3
  -5   1  -3 15136.0 1047.63  10
   5   1   3 14565.2 770.297   6
   5   1   4 24819.3 1049.61   1
   5   1   4 24243.2 921.350   2
   5   1   4 24944.5 1088.12   6
   5   1   5 7469.87 668.601   6
   5   1   6 47893.5 1725.81   6
   5   1   6 45778.9 2077.75   4
   5   1   6 47993.3 2111.19   3
   5   1   7 6226.23 834.306   3
  -5   1  -7 6286.93 723.533  10
   5   1   7 6419.55 840.213   4
   5   1   8 29931.3 1770.60   3
   5   1   8 27546.0 1483.93   6
   5   1   8 26992.7 1694.09   4
  -5   1  -9 10687.6 954.859  10
   5   1   9 9062.96 1057.11   4
  -5   1 -10 20321.7 1307.04  10
   5   1  10 19247.6 1394.28   6
   5   1  10 19250.3 1534.21   4
   5   1  11 10053.5 1190.44   4
  -5   1 -12 20719.7 1679.34   3
   5   1  12 19130.7 1639.37   4
  -5   1 -13 8355.25 1146.26   3
  -5   1 -14 19659.4 1749.49   3
   5   1  14 18106.0 1682.42   4
   5   2 -18 3386.95 848.430   3
  -5   2  17 8124.00 1019.92   4
  -5   2  17 8184.06 1166.00   8
  -5   2  16 1183.04 490.320   4
  -5   2  16 1118.29 548.877   8
   5   2 -15 2694.32 718.915   3
  -5   2  15 4050.76 784.122   8
  -5   2  15 3085.84 589.704   6
  -5   2  14-93.2111 325.406   4
  -5   2  14 1401.96 508.830   8
   5   2 -13 3125.91 717.476   3
  -5   2  13 1949.12 567.886   8
   5   2 -13 1750.06 423.991   7
   5   2 -12 1143.63 541.986   3
  -5   2  12 2539.86 540.250   4
  -5   2  12 1824.58 544.707   8
   5   2 -12 2058.83 437.184   7
  -5   2  11 7942.33 848.095   4
  -5   2  11 6603.96 850.786   8
  -5   2  10 6377.79 743.403   4
  -5   2  10 6322.25 632.364  10
  -5   2   9 1495.30 356.405  10
   5   2  -9 1315.28 471.580   3
  -5   2   9 1047.33 365.144   4
  -5   2   9 1627.65 288.330   6
  -5   2   8-15.3211 226.436  10
  -5   2   8 446.618 312.901   4
   5   2  -8 635.968 407.911   3
  -5   2   7 1099.27 333.364  10
  -5   2   7 1209.34 382.815   4
   5   2  -7 627.767 391.645   3
  -5   2   6 3523.33 545.755   4
   5   2  -6 2112.74 510.790   3
  -5   2   5 2395.60 469.586   4
   5   2  -5 3467.09 589.726   3
  -5   2   4 1686.67 387.255  10
   5   2  -4 1922.04 461.884   3
  -5   2   3 418.518 305.187   4
  -5   2   2 838.655 341.881  10
  -5   2   2 117.831 258.355   4
   5   2  -2 1154.28 388.600   3
  -5   2   1 1477.64 367.741  10
  -5   2   1 1099.56 352.092   4
   5   2  -1 1313.87 402.220   3
  -5   2   0 992.891 340.232  10
   5   2   0 977.243 330.082   1
   5   2   1 1678.73 364.022   1
   5   2   1 1183.10 221.820   6
   5   2   2 4480.94 668.213   3
  -5   2  -3 1211.60 377.679  10
   5   2   3 1767.55 497.988   3
   5   2   4 2512.10 366.099  11
   5   2   4 1867.98 483.895   4
  -5   2  -4 1624.77 441.268  10
  -5   2  -4 2353.93 208.131   8
   5   2   4 1151.03 438.732   3
  -5   2  -4 2314.90 387.189  12
  -5   2  -5 3453.74 565.462  10
   5   2   5 2919.68 595.566   3
  -5   2  -5 2587.38 421.877  12
   5   2   6 1144.97 341.402   1
   5   2   6 1928.87 525.213   4
  -5   2  -6 1009.82 375.873  10
   5   2   6 1454.52 412.306   6
   5   2   6 1844.01 526.241   3
   5   2   7 3443.77 646.874   4
  -5   2  -7 3052.05 561.324  10
   5   2   7 2768.69 531.748   6
   5   2   7 3827.87 683.666   3
  -5   2  -8 1918.77 497.219  10
   5   2   9 2785.79 665.600   4
   5   2   9 1970.80 541.837   6
   5   2  10 251.890 407.132   4
   5   2  10-225.620 377.533   6
   5   2  11 6389.35 972.750   4
  -5   2 -11 7715.74 1068.97   3
  -5   2 -12 3947.23 838.848   3
   5   2  12 2107.57 641.179   4
  -5   2 -12 1968.91 494.294  10
   5   2  12 2354.14 644.101   6
  -5   2 -13 11186.4 1328.93   3
   5   2  13 9186.66 1204.10   4
   5   2  14 1524.23 603.170   4
  -5   3  16 423.938 373.448   6
  -5   3  15 42165.3 2002.66   4
   5   3 -14 1971.86 664.039   3
  -5   3  14 1543.32 478.517   4
  -5   3  14 2227.07 626.826   8
  -5   3  13 42766.4 2186.68   8
   5   3 -13 36549.5 2166.36   3
   5   3 -12 1099.75 512.521   3
  -5   3  12 354.010 332.300   4
  -5   3  12 366.200 378.305   8
  -5   3  11 29616.2 1511.02   4
  -5   3  11 29986.7 1265.30  10
   5   3 -11 30054.8 1876.58   3
  -5   3  10 471.641 272.236  10
   5   3 -10 547.748 421.852   3
  -5   3  10 864.178 433.489   8
  -5   3   9 78899.9 2111.98  10
  -5   3   9 77009.6 2510.51   8
   5   3  -9 77992.1 2819.35   3
  -5   3   8 991.375 374.896   8
   5   3  -8 758.480 432.713   3
  -5   3   7 61835.3 2003.51   4
   5   3  -7 61972.0 2397.51   3
  -5   3   6 1256.55 345.819  10
   5   3  -6 1068.12 436.870   3
  -5   3   6 513.618 298.843   4
  -5   3   5 60558.4 1937.27   4
   5   3  -5 60753.1 1689.37   9
   5   3  -4 418.935 294.392   3
  -5   3   3 59412.4 1945.34  10
  -5   3   3 60522.5 1931.82   4
   5   3  -3 58171.2 2147.19   3
  -5   3   2 1111.83 352.409  10
  -5   3   2 1031.20 329.445   4
   5   3  -2 915.289 362.938   3
  -5   3   1 45786.5 1741.47  10
   5   3  -1 45359.7 1874.20   3
  -5   3   0 916.266 325.803  10
   5   3   0 979.123 403.111   3
   5   3   1 39168.7 1503.63   1
   5   3   1 39674.9 1104.31   6
   5   3   1 39287.2 1760.64   3
  -5   3  -2 11827.6 942.847  10
   5   3   2 12434.5 799.071   2
  -5   3  -3 99109.9 2669.96  10
   5   3   3 97396.5 2361.48   1
   5   3   3 102109. 2127.21   6
  -5   3  -3 102395. 2303.97  12
   5   3   3 96065.5 2786.51   3
   5   3   3 98756.1 2101.38  11
   5   3   4 606.560 307.544   1
   5   3   4 922.127 301.947   6
   5   3   4 1301.27 451.462   3
  -5   3  -5 53431.8 2033.20  10
   5   3   5 54368.2 1787.45   6
   5   3   5 52644.2 1785.47   1
   5   3   6 2960.14 498.308   1
   5   3   7 43307.6 1796.44   6
   5   3   7 41419.5 1643.91   1
   5   3   8 3114.29 646.225   4
   5   3   8 2362.55 531.065   6
   5   3   8 2182.87 578.086   3
   5   3   9 47261.1 2229.10   3
  -5   3  -9 43751.4 1964.36  10
   5   3   9 47102.1 2076.54   6
   5   3   9 45579.2 2203.23   4
   5   3  10 234.437 391.773   4
  -5   3 -10 265.380 337.923  10
   5   3  10 121.307 357.462   6
  -5   3 -11 38560.5 1911.26  10
   5   3  11 43526.3 2186.23   6
  -5   3 -12 888.663 512.192   3
   5   3  12 233.634 387.814   4
  -5   3 -12-72.1830 312.805  10
   5   3  12-228.468 407.866   6
  -5   3 -13 30751.7 2172.19   3
   5   3  13 27569.1 1935.91   4
   5   3  14 2487.30 664.698   4
   5   3  14 2182.34 676.620   6
   5   4 -17 7997.59 1227.03   3
   5   4 -16 678.387 545.029   3
  -5   4  16 1188.19 584.724   8
  -5   4  15 4692.40 696.163   4
  -5   4  15 4795.53 874.373   8
   5   4 -14 486.201 507.809   3
  -5   4  14 706.638 362.464   4
  -5   4  13 8168.88 1017.59   8
   5   4 -13 7633.17 1086.32   3
   5   4 -12 3563.82 772.815   3
  -5   4  12 2886.19 519.347   4
  -5   4  11 9124.20 734.122  10
  -5   4  11 8832.79 988.692   8
   5   4 -11 8254.05 1057.65   3
  -5   4  10 681.970 302.592  10
  -5   4  10 1622.22 495.681   8
  -5   4  10 601.162 332.464   4
  -5   4   9 1617.22 399.364   4
  -5   4   8 1077.04 343.584  10
   5   4  -8 1466.67 497.629   3
  -5   4   8 965.191 353.051   4
  -5   4   7 4121.51 550.993   4
   5   4  -7 3402.51 636.618   3
  -5   4   6 573.472 300.275  10
   5   4  -6 162.252 199.076   9
  -5   4   6 454.009 303.436   8
   5   4  -6 287.554 338.038   3
  -5   4   6 1027.78 328.651   4
   5   4  -5 1107.16 421.277   3
  -5   4   5 1299.21 358.077   4
  -5   4   4 150.643 275.413  10
   5   4  -4 341.130 223.977   9
  -5   4   4 527.073 275.745   8
   5   4  -4 1112.32 410.349   3
  -5   4   4 365.354 281.037   4
   5   4  -3 1817.02 486.577   3
  -5   4   2 1149.09 385.066  10
  -5   4   2 1317.41 301.471   8
  -5   4   1 658.610 303.537  10
  -5   4   0 1276.85 383.717  10
   5   4   0 813.962 361.669   1
   5   4   0 324.051 328.259   3
   5   4   1 1479.12 464.264   3
   5   4   2 2606.52 439.602  11
  -5   4  -2 2694.87 511.008  10
   5   4   2 3339.13 535.629   1
  -5   4  -2 2108.71 196.618   8
   5   4   2 2231.55 364.306   6
  -5   4  -3 4806.51 662.641  10
   5   4   3 3851.72 642.001   3
   5   4   3 3279.37 537.294   1
   5   4   3 4415.78 529.889  11
   5   4   4 1574.86 359.843  11
  -5   4  -4 1551.58 430.392  10
   5   4   4 506.703 286.203   2
   5   4   5 1853.83 510.660   4
  -5   4  -5 2022.48 492.591  10
   5   4   5 1395.68 337.308   2
   5   4   5 1538.24 425.320   1
   5   4   5 1816.23 500.678   3
  -5   4  -6 6202.28 770.670  10
   5   4   6 6151.38 710.294   6
   5   4   6 6649.55 826.887   4
   5   4   6 4891.09 660.106   1
   5   4   6 5669.97 780.610   3
  -5   4  -7 4587.62 703.156  10
   5   4   7 5624.32 721.219   6
   5   4   7 3574.38 600.422   1
  -5   4  -8 530.117 360.493  10
   5   4   8 942.127 452.384   3
   5   4   9 1426.02 529.965   4
  -5   4  -9 2377.74 557.464  10
   5   4   9 2412.87 620.219   3
   5   4  10 1070.58 497.751   4
  -5   4 -10 1896.85 527.295  10
   5   4  10 898.166 442.822   6
  -5   4 -11 6099.04 979.323   3
   5   4  11 4966.39 848.236   4
  -5   4 -12 681.668 504.608   3
  -5   4 -13 2352.41 741.131   3
   5   4  13 3165.06 709.530   4
   5   4  13 3319.82 780.520   6
   5   4  14 817.755 484.432   4
   5   5 -16 19321.2 1843.40   3
   5   5 -15 1521.64 652.106   3
  -5   5  15 2205.12 661.086   8
  -5   5  15 1780.76 522.887   6
  -5   5  14 24173.0 1467.53   6
   5   5 -14 20292.3 1775.47   3
  -5   5  13 8322.07 808.725   4
  -5   5  13 8004.26 1016.66   8
  -5   5  13 9279.42 895.801   6
   5   5 -13 8985.40 1210.90   3
  -5   5  12 31466.2 1473.30   4
  -5   5  12 30167.9 1830.45   8
   5   5 -12 27500.3 1947.85   3
  -5   5  11 11227.4 1111.94   8
  -5   5  10 39568.8 1583.27   4
  -5   5  10 40170.7 1948.95   8
   5   5 -10 41892.3 2231.01   3
  -5   5   9 6706.74 673.030   4
  -5   5   9 7731.94 724.231  10
  -5   5   9 8508.23 906.435   8
  -5   5   8 52352.4 1814.19  10
  -5   5   8 52693.5 2062.73   8
   5   5  -8 52590.5 2361.88   3
  -5   5   7 3697.50 510.943   4
  -5   5   7 4795.05 648.745   8
   5   5  -7 3662.92 686.122   3
  -5   5   6 50397.1 1708.29   4
   5   5  -6 48889.6 2172.74   3
  -5   5   5 17529.3 1098.89  10
  -5   5   5 14578.7 937.323   4
  -5   5   4 66415.8 2120.28  10
  -5   5   4 65135.2 1906.91   8
   5   5  -4 68773.9 2466.89   3
  -5   5   3 24052.3 1306.08  10
  -5   5   3 23198.6 1088.11   8
   5   5  -3 24921.9 1377.49   1
  -5   5   2 82213.8 2407.83  10
  -5   5   2 83420.7 1911.80   8
  -5   5   1 35385.0 1612.44  10
  -5   5   1 37145.1 1190.19   8
   5   5  -1 35443.7 1602.97   1
   5   5  -1 39301.8 1796.87   3
   5   5  -1 36931.8 1552.08  11
  -5   5   0 68640.1 2262.03  10
  -5   5   0 73800.2 1514.08   8
   5   5   0 72078.2 2251.44   1
   5   5   0 73186.1 2431.93   3
   5   5   0 72623.5 2117.82  11
  -5   5  -1 25656.3 1419.57  10
  -5   5  -2 45870.7 1908.46  10
   5   5   2 45647.0 1814.35   1
   5   5   2 46494.8 1948.29   3
  -5   5  -3 19397.1 1281.00  10
   5   5   4 62967.8 2162.83   1
  -5   5  -4 63926.8 2323.04  10
   5   5   4 64853.4 2334.89   3
   5   5   4 65010.8 1895.45  11
  -5   5  -5 15570.9 1181.28  10
   5   5   5 16654.9 1084.92   6
   5   5   5 15158.3 1168.00   4
   5   5   5 15568.0 1132.45   1
   5   5   5 16938.2 1233.53   3
  -5   5  -6 33676.3 1756.41  10
   5   5   6 33266.1 1586.07   6
   5   5   6 33844.5 1751.91   4
   5   5   6 34079.1 1755.09   3
  -5   5  -7 24928.3 1539.41  10
  -5   5  -8 24694.1 1559.98  10
   5   5   8 25733.3 1539.52   6
   5   5   8 25103.2 1573.52   4
  -5   5  -9 14555.1 1237.72  10
   5   5   9 14844.6 1192.45   1
   5   5   9 16812.4 1330.35   4
  -5   5 -10 31459.4 1820.03  10
   5   5  10 33411.6 1909.87   6
  -5   5 -11 13988.1 1265.69  10
  -5   5 -11 15323.5 1515.01   3
   5   5  11 17085.5 1460.51   6
   5   5  11 16400.0 1391.66   4
  -5   5 -12 20821.8 1805.97   3
   5   5  12 19106.7 1573.43   6
   5   5  12 19037.4 1538.07   4
   5   5  13 1567.83 552.162   4
   5   5  13 3155.01 786.808   6
   5   6 -15 452.894 531.384   3
  -5   6  15 502.017 370.657   6
   5   6 -14 8646.65 1228.73   3
  -5   6  14 8540.12 1109.79   8
   5   6 -13 281.026 507.731   3
  -5   6  13 10.7292 428.319   8
  -5   6  11 481.775 252.067  10
   5   6 -11 1031.35 504.470   3
  -5   6  11 204.638 215.628   4
   5   6 -10 3795.40 784.886   3
  -5   6  10 3313.66 653.416   8
  -5   6  10 2839.82 444.942   4
  -5   6   9 1639.75 398.194  10
   5   6  -9 1816.32 595.276   3
  -5   6   9 2615.70 592.967   8
  -5   6   9 1780.54 377.703   4
  -5   6   8 6404.23 694.269  10
  -5   6   8 5996.03 609.019   4
  -5   6   8 6105.94 769.792   8
   5   6  -8 6554.48 914.499   3
  -5   6   7 639.668 310.262  10
   5   6  -7-145.191 371.463   3
  -5   6   7 843.805 364.020   8
  -5   6   6 2330.93 485.607  10
  -5   6   6 2466.77 498.746   8
   5   6  -6 1433.81 507.651   3
  -5   6   5 1278.37 408.467  10
  -5   6   5 1220.55 377.716   8
  -5   6   4 6480.00 738.297  10
  -5   6   4 7466.00 697.229   8
   5   6  -4 7568.14 894.097   3
  -5   6   3 1164.63 388.598  10
   5   6  -3 1479.02 488.559   1
  -5   6   3 968.355 317.465   8
   5   6  -3 1451.12 487.565   3
   5   6  -2 1659.26 473.604  11
  -5   6   2 1322.72 426.997  10
   5   6  -2 723.116 392.155   3
   5   6  -2 1291.72 454.969   1
   5   6  -1 1046.93 405.989  11
  -5   6   1 656.008 237.640   8
   5   6   0 2094.10 483.615  11
  -5   6   0 1640.73 452.676  10
   5   6   0 1412.16 454.904   3
   5   6   0 1199.53 442.035   1
  -5   6  -1 959.095 402.080  10
   5   6   1 534.759 368.030   1
   5   6   1 463.000 380.836   3
   5   6   2 920.060 414.123   1
  -5   6  -2 1089.59 411.824  10
   5   6   2 1241.06 435.373   3
   5   6   3 2770.65 504.388  11
  -5   6  -3 2418.70 543.135  10
   5   6   3 2932.44 588.457   3
   5   6   3 3064.42 593.242   1
  -5   6  -4 2081.83 543.157  10
   5   6   4 1735.44 493.362   1
   5   6   4 1597.10 503.747   3
   5   6   5 746.658 324.829  11
   5   6   5 1068.25 403.442   4
  -5   6  -5 609.031 415.895  10
   5   6   5 246.448 339.117   3
   5   6   6 1594.72 464.583   6
   5   6   7 974.105 327.111  11
   5   6   7 1923.82 556.042   1
   5   6   7 1126.22 458.806   4
   5   6   7 950.779 427.593   6
   5   6   7 1341.52 476.501   3
   5   6   8 627.994 396.047   4
  -5   6  -8 987.247 464.456  10
   5   6   8 1029.84 425.533   6
   5   6   8 826.544 448.139   1
  -5   6  -9 385.476 464.108   3
   5   6   9 1123.59 505.910   1
  -5   6 -10 4582.92 891.029   3
  -5   6 -10 3981.90 744.604  10
   5   6  11 470.336 472.105   6
  -5   6 -12 7206.74 1142.28   3
   5   6  12 7182.24 970.363   4
   5   6  13 1050.16 554.431   6
   5   7 -16 13383.5 1382.11  11
   5   7 -15 6777.64 1034.61  11
  -5   7  15 6470.85 1034.24   8
  -5   7  14 17291.6 1579.46   8
   5   7 -14 15440.9 1642.31   3
   5   7 -14 17429.3 1490.12  11
  -5   7  12 16025.5 1417.53   8
   5   7 -12 18503.7 1488.45  11
  -5   7  11 9480.33 1071.45   8
   5   7 -11 10675.1 1128.96  11
  -5   7  10 24351.2 1293.48  10
   5   7 -10 24473.3 1808.03   3
   5   7 -10 25752.0 1653.57  11
  -5   7   9 9616.13 850.785  10
  -5   7   9 9604.19 717.066   4
  -5   7   8 53240.8 1952.21  10
   5   7  -8 55200.4 2533.03   3
   5   7  -8 52181.1 2237.61  11
  -5   7   7 6726.55 752.966  10
  -5   7   7 6617.52 780.070   8
   5   7  -7 6268.13 917.062   3
  -5   7   6 48431.8 1906.76  10
   5   7  -6 46787.6 2087.81   1
   5   7  -6 47630.8 2243.67   3
   5   7  -6 47996.6 2070.11  11
  -5   7   5 2024.64 485.453  10
   5   7  -5 2555.66 615.575   3
   5   7  -5 2346.45 565.380   1
  -5   7   4 50033.3 1777.74   8
   5   7  -4 50230.3 2048.86  11
  -5   7   3 25170.4 1434.58  10
  -5   7   3 26882.3 1239.78   8
   5   7  -3 27482.2 1569.26   1
   5   7  -3 27040.0 1502.40  11
   5   7  -2 69969.6 2502.72   3
   5   7  -2 67347.9 2307.28  11
  -5   7   1 14930.4 1149.90  10
   5   7  -1 15551.3 1195.30   3
   5   7  -1 14884.3 1112.54  11
  -5   7   0 39938.3 1855.59  10
   5   7   0 37221.8 1800.13   1
   5   7   0 42440.4 1908.24   3
   5   7   0 41178.1 1778.26  11
  -5   7  -1 7013.17 832.120  10
   5   7   1 7665.37 860.412   3
  -5   7  -2 76658.2 2629.80  10
   5   7   2 69001.0 2457.78   1
   5   7   2 77809.0 2555.26   3
   5   7   2 72068.4 2290.79  11
  -5   7  -3 14274.8 1191.98  10
  -5   7  -4 65220.5 2510.27  10
   5   7   4 66034.2 2373.67   3
   5   7   4 61307.5 2069.46  11
   5   7   5 17105.4 1310.74   1
   5   7   5 19275.1 1327.22   3
  -5   7  -6 46775.1 2206.33  10
   5   7   6 43557.7 1933.13   6
   5   7   6 41463.7 1917.23   4
   5   7   6 38969.9 1966.03   1
   5   7   6 40888.4 1648.04  11
   5   7   6 43001.7 1954.12   3
   5   7   7 6311.35 883.188   1
  -5   7  -7 8687.89 1016.92  10
  -5   7  -7 8425.21 1053.53   3
   5   7   7 8506.55 938.137   6
   5   7   7 8604.82 923.781   4
   5   7   7 8205.15 918.985   3
  -5   7  -8 27404.1 1869.21   3
   5   7   8 24732.3 1604.05   6
   5   7   8 23202.5 1489.00   4
   5   7   9 17377.5 1325.54   3
  -5   7  -9 17965.1 1478.51  10
  -5   7  -9 20284.4 1673.14   3
   5   7   9 17563.3 1416.40   6
   5   7   9 18043.5 1441.53   1
   5   7   9 17944.8 1333.09   4
  -5   7 -10 24568.5 1903.43   3
   5   7  10 24911.4 1735.37   6
   5   7  10 23298.9 1552.70   4
  -5   7 -11 7535.86 1171.31   3
   5   7  11 10928.4 1230.13   6
   5   8 -14 791.013 598.057   3
   5   8 -13 7754.03 1090.65  11
   5   8 -13 5765.37 1085.20   3
  -5   8  12 605.256 466.385   8
   5   8 -11 3723.10 791.093  11
   5   8 -11 3410.73 822.755   3
   5   8 -10 291.447 460.166  11
  -5   8  10 122.102 292.029  10
   5   8 -10 970.980 550.181   3
  -5   8   9 6540.65 755.686  10
   5   8  -9 7375.88 1055.59   3
   5   8  -9 9590.25 1075.81  11
  -5   8   8 1059.64 402.280  10
   5   8  -8 695.382 462.710   3
  -5   8   8 1349.48 456.260   8
   5   8  -7 3602.36 717.143  11
  -5   8   7 2659.05 553.291  10
   5   8  -7 1867.69 560.122   1
   5   8  -7 2596.84 668.258   3
   5   8  -6 1545.97 539.240  11
   5   8  -6-110.767 380.698   3
   5   8  -5-240.765 421.890  11
   5   8  -5 784.337 451.312   1
  -5   8   5 332.165 306.053   8
   5   8  -5 572.383 415.953   3
  -5   8   4-73.1054 319.735  10
  -5   8   4 173.925 263.705   8
   5   8  -4 411.370 414.623   1
  -5   8   3 884.238 329.723   8
   5   8  -3 938.287 456.153   3
   5   8  -2-51.1612 358.186   1
   5   8  -1 984.320 491.915  11
  -5   8   1 1538.96 467.474  10
   5   8  -1 1439.75 487.220   3
   5   8  -1 943.059 466.921   1
  -5   8   0 981.006 436.109  10
   5   8   0 416.364 396.899   1
   5   8   0 874.410 403.393   3
   5   8   1 1059.08 471.170  11
   5   8   1 1780.92 533.860   1
  -5   8  -1 1307.23 460.009  10
   5   8   2 547.697 362.202  11
  -5   8  -2 481.222 362.969  10
   5   8   2 408.178 393.948   3
   5   8   2 393.949 412.277   1
   5   8   3 300.120 362.267  11
  -5   8  -3 522.807 380.846  10
   5   8   3 491.535 398.434   3
   5   8   3 288.042 406.601   1
  -5   8  -4 486.210 429.172  10
   5   8   4 1078.59 432.915   3
   5   8   5 650.513 474.873   1
   5   8   5 1086.40 454.300   3
   5   8   6 1845.43 487.584   4
  -5   8  -6 1004.36 500.276  10
   5   8   6 1398.85 466.529   6
   5   8   6 1851.32 527.272   3
  -5   8  -7 2832.74 718.538   3
   5   8   7 2114.11 616.661   1
   5   8   7 2674.59 576.292   4
  -5   8  -7 3191.09 685.284  10
   5   8   7 1959.84 540.621   3
  -5   8  -8 1668.47 592.931   3
   5   8   8 894.337 435.906   4
  -5   8  -8 2495.17 678.125  10
   5   8   8 1063.45 483.614   6
   5   8   8 1264.14 489.458   3
   5   8   9 1669.10 623.741   1
  -5   8 -10 705.195 558.549   3
  -5   8 -10 1474.53 524.248  10
   5   8  11 1277.56 612.135   6
   5   9 -13 24496.2 2068.22   3
   5   9 -13 22883.8 1797.44  11
   5   9 -12 730.560 587.109   3
  -5   9  12 953.891 535.907   8
  -5   9  11 20170.7 1609.30   8
   5   9 -11 21227.2 1832.07   3
  -5   9  10 669.713 359.892  10
   5   9 -10 327.392 480.927   3
  -5   9  10 27.3374 373.050   8
   5   9 -10 573.450 452.734   1
   5   9  -9 22245.1 1648.88   1
   5   9  -9 21357.9 1735.70   3
   5   9  -8 663.304 537.797  11
   5   9  -8 911.624 516.122   1
  -5   9   8 716.799 389.211  10
   5   9  -8 91.1990 438.559   3
  -5   9   8 1533.71 499.232   8
  -5   9   7 39632.0 1924.24   8
   5   9  -7 43634.1 2192.37   1
   5   9  -7 40832.2 2243.35   3
   5   9  -7 41677.2 2128.31  11
  -5   9   6 708.795 405.027  10
   5   9  -6 708.415 492.866   3
  -5   9   6 375.171 341.645   8
  -5   9   5 29835.4 1655.68  10
  -5   9   5 29130.6 1529.70   8
   5   9  -5 27954.6 1735.68   1
   5   9  -5 27940.6 1785.54   3
   5   9  -5 25252.7 1634.05  11
   5   9  -4 2381.85 625.728  11
   5   9  -4 2389.84 617.831   1
  -5   9   4 2698.51 586.862  10
   5   9  -3 40210.1 2036.22   1
   5   9  -3 41636.7 2068.92   3
   5   9  -3 42905.3 2054.43  11
   5   9  -2 1299.95 540.287  11
   5   9  -2 471.872 439.508   1
   5   9  -1 39619.8 2017.48   1
   5   9  -1 42096.7 2000.93   3
   5   9  -1 41303.1 1976.17  11
   5   9   0 1.14686 413.400  11
  -5   9   0 696.830 408.576  10
   5   9   0 1197.08 478.569   3
  -5   9  -1 44512.4 2152.60  10
   5   9   1 40329.4 2056.96   1
   5   9   1 43419.0 1992.21  11
   5   9   2 2787.85 604.125  11
  -5   9  -2 4189.20 743.020  10
   5   9   2 2596.00 562.296   3
   5   9   2 2422.32 646.146   1
   5   9   3 41449.7 2132.43   1
  -5   9  -3 45472.2 2236.57  10
   5   9   3 42371.6 1930.57   3
  -5   9  -4 1991.67 548.906   3
   5   9   4 567.266 471.662   1
   5   9   4 1110.37 444.512   3
  -5   9  -5 41430.9 2152.91   3
   5   9   5 39584.9 2132.08   1
   5   9   5 45088.6 1979.30   3
   5   9   5 43426.7 1939.95  11
   5   9   6 2296.48 550.690  11
  -5   9  -6 1937.32 622.527   3
  -5   9  -6 2529.01 661.388  10
  -5   9  -7 32870.2 2032.45  10
  -5   9  -7 29019.5 1936.39   3
  -5   9  -8 1190.78 588.737   3
  -5   9  -8 546.576 447.602  10
   5   9   8 506.795 416.530   6
  -5   9  -9 38360.5 2263.60  10
  -5   9  -9 41586.4 2469.95   3
   5   9   9 39173.7 2191.56   6
   5   9   9 34920.1 2150.20   1
  -5   9 -10-63.8158 369.243  10
   5  10 -13 4246.02 916.877  11
   5  10 -12 2148.12 712.007  11
  -5  10  12 2465.97 670.760   8
   5  10 -10 2535.33 775.345   3
  -5  10  10 1997.05 598.502   8
   5  10  -9 541.724 477.105  11
   5  10  -9 548.389 476.309   1
  -5  10   9 979.334 499.226   8
   5  10  -8-174.152 452.369  11
   5  10  -8 501.076 473.304   1
  -5  10   8-164.769 350.121  10
  -5  10   8 592.569 433.533   8
   5  10  -7 885.788 541.596  11
  -5  10   7 1022.56 462.469  10
   5  10  -7 1073.53 562.115   3
  -5  10   7 1385.49 481.267   8
   5  10  -7 736.269 479.533   1
   5  10  -6 2406.18 657.205  11
  -5  10   6 2099.27 560.922  10
   5  10  -6 1694.51 615.573   1
   5  10  -6 1514.23 584.786   3
  -5  10   6 1864.82 512.569   8
   5  10  -5 354.227 507.830  11
   5  10  -5-379.209 423.521   1
  -5  10   4 2850.25 620.356  10
   5  10  -4 3048.08 666.762   3
   5  10  -3-128.112 454.011  11
  -5  10   3 635.398 427.977  10
   5  10  -3 410.366 441.213   1
   5  10  -2 632.721 476.602  11
  -5  10   2 505.494 400.087  10
   5  10  -2 832.676 430.947   3
   5  10  -1 215.591 415.446  11
  -5  10   1 9.37989 365.922  10
   5  10  -1 670.042 458.431   3
  -5  10   0 65.8854 329.454  10
   5  10   0 307.426 438.966   1
  -5  10  -2 1427.71 528.036  10
   5  10   2 570.648 500.553   1
   5  10   3 2201.73 584.140  11
  -5  10  -3 2462.36 592.403   3
  -5  10  -3 3371.64 753.279  10
   5  10   3 1456.33 601.997   1
  -5  10  -4 144.497 383.778   3
  -5  10  -4-97.8248 373.506  10
  -5  10  -5 1356.07 534.300   3
  -5  10  -5 1927.66 631.998  10
   5  10   5 2008.58 539.147   3
   5  10   6 313.977 393.857  11
   5  10   6 621.044 536.532   1
  -5  10  -6 629.982 449.003  10
   5  10   6-376.204 347.958   3
   5  10   7 1271.98 473.299  11
  -5  10  -7 2438.85 709.160  10
  -5  10  -8 433.904 428.724  10
   5  10   8 836.753 614.947   1
  -5  10  -9 4340.94 907.238   3
  -5  10  -9 6368.99 1025.12  10
   5  10   9 3671.15 864.843   1
  -5  10 -10 462.367 477.891  10
   5  10  10-1124.13 527.904   6
   5  11 -11 6711.04 1174.79   3
  -5  11  11 6477.61 996.808   8
  -5  11  10 19520.2 1621.64   8
   5  11 -10 20781.4 1856.36   3
  -5  11   9 12028.2 1134.28  10
   5  11  -9 11821.0 1316.62   1
   5  11  -9 10950.3 1280.94  11
  -5  11   8 19271.0 1413.12  10
   5  11  -8 21641.7 1700.49   1
  -5  11   7 9304.51 1016.43  10
   5  11  -7 10073.7 1216.08   1
   5  11  -7 8886.76 1165.74  11
   5  11  -6 28565.8 1908.63   1
   5  11  -6 26054.7 1861.41   3
   5  11  -6 23132.6 1735.15  11
   5  11  -5 6147.52 951.673  11
  -5  11   5 6620.66 910.764  10
   5  11  -5 6989.33 1003.74   3
   5  11  -5 6688.08 981.746   1
  -5  11   4 33387.6 1934.97  10
   5  11  -4 36807.0 2120.65   1
   5  11  -4 33347.6 1984.20   3
   5  11  -3 5630.63 911.129  11
   5  11  -3 7733.47 1006.36   3
  -5  11   2 25642.6 1728.05  10
  -5  11   2 25925.6 1349.50   3
   5  11  -2 24241.9 1632.00   3
   5  11  -2 25085.1 1723.85  11
  -5  11   1 8721.63 1078.78  10
  -5  11   1 8859.11 866.528   3
   5  11  -1 7919.84 953.509   3
   5  11  -1 7423.62 1011.74  11
  -5  11   0 36212.8 2089.20  10
  -5  11   0 31741.9 1625.81   3
   5  11   0 33112.4 1804.39   3
   5  11   0 34174.7 1953.91  11
   5  11   1 3072.73 707.804  11
  -5  11  -1 3527.85 652.048   3
   5  11   1 3417.25 683.188   3
   5  11   1 2256.57 693.054   1
   5  11   2 41191.1 2287.61   1
  -5  11  -2 48460.2 2467.69  10
  -5  11  -2 41318.8 1999.85   3
   5  11   2 42009.7 1964.97   3
   5  11   2 42840.1 2164.54  11
   5  11   3 5857.78 887.082  11
  -5  11  -3 4686.40 770.942   3
  -5  11  -3 6138.65 956.618  10
   5  11   3 5127.88 751.728   3
  -5  11  -4 18152.4 1571.60  10
  -5  11  -4 15013.3 1328.50   3
   5  11   4 16879.1 1543.55   1
  -5  11  -5 4830.58 844.270   3
   5  11   5 5338.69 968.609   1
  -5  11  -5 5372.93 945.676  10
  -5  11  -6 20368.7 1723.25  10
  -5  11  -6 16739.8 1511.33   3
   5  11   7 1912.26 560.862  11
  -5  11  -7 1544.73 626.294   3
   5  11   7 2615.88 801.392   1
  -5  11  -8 24127.2 1936.84  10
   5  12 -10 759.416 574.973   3
   5  12  -9-586.040 536.347  11
   5  12  -9 1409.08 669.805   1
   5  12  -8 817.228 604.515  11
  -5  12   8 250.478 408.986  10
   5  12  -8 1621.10 659.327   3
   5  12  -8 884.846 580.156   1
   5  12  -7-581.513 544.715  11
  -5  12   7-144.118 402.566  10
   5  12  -6 922.357 609.664  11
   5  12  -6-190.398 563.111   3
   5  12  -5 1399.72 579.284  11
  -5  12   5 1399.98 537.917  10
   5  12  -5 102.867 533.874   3
   5  12  -5 1014.67 555.459   1
   5  12  -4-270.292 470.528  11
   5  12  -4-189.795 476.991   1
   5  12  -4-183.211 456.365   3
  -5  12   3 143.888 401.487  10
   5  12  -3 646.918 467.118   3
   5  12  -2 259.407 457.424   1
  -5  12   2-395.434 465.653  10
   5  12  -2 500.038 452.971   3
  -5  12   1 718.290 496.162  10
   5  12  -1-442.947 406.931   3
   5  12  -1 147.998 473.457   1
   5  12   0 571.331 527.094  11
  -5  12   0 48.5776 306.682   3
  -5  12   0-176.035 448.913  10
   5  12   0-301.905 430.200   3
   5  12   0 718.202 533.499   1
   5  12   1 245.804 439.981  11
  -5  12  -1-99.2396 369.165  10
   5  12   1-28.2585 473.252   1
   5  12   2 497.312 479.388  11
  -5  12  -2 28.8666 417.445  10
   5  12   2 527.338 520.674   1
   5  12   2 765.258 444.406   3
   5  12   3-101.503 423.359  11
   5  12   4 893.401 498.278  11
  -5  12  -4 771.259 517.480  10
   5  12   4-157.747 530.683   1
  -5  12  -5 623.433 456.298   3
   5  12   5 1025.11 581.344   1
  -5  12  -5 880.474 538.727  10
  -5  12  -6 995.377 518.108   3
   5  13  -9 4689.68 994.771   3
  -5  13   8 13448.9 1321.25  10
  -5  13   7 2714.67 688.556  10
   5  13  -7 1906.20 762.180   3
   5  13  -7 2193.14 745.498   1
  -5  13   6 20563.4 1648.18  10
   5  13  -6 22938.1 1852.84   1
   5  13  -5 8080.08 1143.85   1
   5  13  -5 8311.77 1161.43   3
   5  13  -4 25692.1 1923.55   1
   5  13  -4 23196.4 1838.91  11
  -5  13   3 4203.36 829.538  10
   5  13  -3 4710.45 940.133   1
   5  13  -2 13445.3 1430.61   1
  -5  13   2 13014.6 1371.15  10
   5  13  -2 12576.7 1380.37  11
   5  13  -1 4471.43 897.370  11
  -5  13   1 5159.42 937.039  10
   5  13  -1 5617.55 866.158   3
   5  13  -1 5718.99 1004.20   1
  -5  13   0 13652.8 1444.70  10
   5  13   0 17851.7 1378.73   3
   5  13   0 17730.2 1582.05  11
  -5  13  -1 6275.13 1045.40  10
   5  13   2 13035.2 1350.68  11
   5  13   3 3157.64 795.796  11
  -5  13  -3 4077.33 765.487   3
  -5  13  -3 4545.58 919.816  10
  -5  13  -4 9401.83 1165.93   3
   5  13   4 11165.4 1289.86  11
   5  13   5 3712.81 756.057  11
  -5  13  -5 3107.05 761.781   3
   5  13   6 8866.75 1158.14  11
  -5  13  -6 10272.5 1235.28   3
  -5  14   7-591.341 425.445  10
   5  14  -7-1178.09 647.876   3
   5  14  -6-1639.40 698.994   3
  -5  14   5 316.672 466.895  10
   5  14  -5-742.181 552.584   3
  -5  14   4 254.953 415.442  10
   5  14  -4-233.584 494.831   3
   5  14  -3 593.884 498.529   3
  -5  14   2 656.264 482.333  10
   5  14  -1-451.435 512.850  11
  -5  14   1 667.678 519.096  10
   5  14   0-108.819 434.910  11
   5  14   2 1141.15 599.022  11
  -6 -14   1 518.498 510.159   5
  -6 -13   6 17108.5 1592.19   4
  -6 -13   5 9903.12 1207.11   4
  -6 -13   4 25492.5 1820.98   4
   6 -13  -3 7572.19 1152.25   2
  -6 -13   3 6092.83 928.800   4
  -6 -13   2 12650.4 1277.03   4
  -6 -13   1 6653.99 910.259   4
  -6 -13   1 6040.32 999.003   5
  -6 -13   0 12902.2 1414.41   5
   6 -13   0 13112.4 1417.00   2
   6 -13   1 7568.19 1114.02   2
  -6 -13  -1 4188.18 897.341   5
   6 -13   2 20566.0 1679.21   2
  -6 -13  -3 8284.28 1150.70   5
  -6 -12   8 364.816 460.667   4
  -6 -12   7 731.532 519.900   4
   6 -12  -7 149.747 452.418  12
  -6 -12   6 214.208 415.579   4
   6 -12  -6 319.930 553.197  12
  -6 -12   5 605.352 497.837   4
  -6 -12   4 926.260 505.153   4
   6 -12  -4 273.496 483.493  12
   6 -12  -3 735.295 598.849   2
  -6 -12   3 545.997 430.567   4
   6 -12  -3-431.027 501.888  12
   6 -12  -2 938.773 594.649   2
   6 -12  -2 1578.10 611.496  12
   6 -12  -1 97.4934 520.881   2
  -6 -12   1 61.0157 290.330   4
   6 -12  -1 177.697 472.516  12
  -6 -12   0 457.443 343.797   4
  -6 -12   0 1657.66 600.511   5
   6 -12   1-829.897 571.103   2
  -6 -12  -1 1214.73 441.782   4
   6 -12   2 1917.81 650.317   2
  -6 -12  -2 1816.21 618.939   5
   6 -12   3-222.848 349.111   4
   6 -12   3 1234.76 598.722   2
   6 -12   4 1418.72 599.617   4
  -6 -12  -4 2013.34 626.240   5
   6 -12   5 1131.83 545.288   4
  -6 -12  -5 540.571 446.425   5
   6 -11  -8 16951.3 1651.41   7
   6 -11  -8 17033.6 1622.45  12
  -6 -11   7 11253.2 1295.04   4
   6 -11  -6 20723.3 1722.67  12
  -6 -11   5 4880.81 867.482   4
   6 -11  -4 25782.1 1875.94  12
  -6 -11   3 13589.5 1293.18   4
   6 -11  -3 15838.1 1494.81  12
  -6 -11   2 17342.8 1428.02   4
   6 -11  -2 16089.2 1248.74   4
   6 -11  -2 17880.2 1567.49  12
  -6 -11   1 11733.6 1178.79   4
  -6 -11   1 8543.84 1063.19   5
   6 -11  -1 10990.8 1225.43   2
  -6 -11   0 13820.4 1242.40   4
   6 -11   0 15708.3 1320.48   4
  -6 -11  -1 11023.0 1099.46   4
   6 -11   1 10058.2 1130.84   4
  -6 -11  -2 18366.7 1363.68   4
  -6 -11  -2 16302.2 1423.14   5
   6 -11   2 17264.2 1419.82   2
   6 -11   2 16766.3 1445.62   4
   6 -11   3 4191.39 820.036   4
   6 -11   3 5544.53 860.965   2
   6 -11   4 6350.43 993.169   4
  -6 -11  -4 7831.59 1067.29   5
  -6 -11  -5 12746.5 1361.08   5
   6 -11   5 11278.0 1327.19   4
   6 -10 -11-737.253 573.001  12
  -6 -10  10 342.486 455.693   4
   6 -10 -10 444.305 476.823   7
  -6 -10   9 800.493 504.007   4
   6 -10  -9 530.308 481.851   7
   6 -10  -9-397.687 509.972  12
  -6 -10   8-112.028 405.009   4
   6 -10  -8 595.693 457.800   7
   6 -10  -8 1145.66 572.330  12
  -6 -10   7 795.446 488.540   4
   6 -10  -7 1004.47 573.679  12
  -6 -10   6-9.45599 402.032   4
   6 -10  -6 630.345 490.333  12
  -6 -10   5 123.696 368.720   4
   6 -10  -5-257.082 463.617  12
  -6 -10   4 646.910 447.832   4
   6 -10  -4 1593.27 608.786  12
   6 -10  -2 1061.84 424.953   4
  -6 -10   2 704.394 400.071   4
   6 -10  -2 347.998 450.401  12
   6 -10  -1 3592.84 757.493  12
  -6 -10   0 2484.26 592.919   4
   6 -10   1 5081.58 831.154   4
  -6 -10  -1 4481.59 771.103   5
   6 -10   2 412.515 384.099   4
   6 -10   2 968.351 493.578   2
  -6 -10  -2 517.305 415.375   5
   6 -10   3 3811.09 792.509   4
   6 -10   3 2526.03 640.936   2
  -6 -10  -3 3407.30 734.371   5
   6 -10   4 1233.61 566.548   4
   6 -10   4 1163.65 507.920   2
   6 -10   5 4043.88 857.680   4
  -6 -10  -5 6646.37 971.104   5
   6 -10   6 1192.00 547.955   4
  -6 -10  -6-980.844 535.625   5
   6 -10   7 5152.93 1004.02   4
  -6 -10  -7 2610.58 791.704   5
  -6 -10  -8 685.866 597.957   5
  -6  -9  11 27580.9 2063.05   4
   6  -9 -11 29917.9 2173.68   7
  -6  -9  10-718.672 545.900   4
   6  -9 -10 1761.52 652.263   7
   6  -9  -9 18757.9 1672.93   7
   6  -9  -9 18291.5 1582.88  12
  -6  -9   8 704.131 519.048   4
  -6  -9   7 36325.5 2155.58   4
   6  -9  -6 1005.77 354.775   4
   6  -9  -6 469.274 308.189   3
   6  -9  -6-175.214 436.479  12
   6  -9  -5 31212.6 1560.89   4
   6  -9  -5 31023.4 1889.91  12
   6  -9  -5 32281.8 1572.74   3
   6  -9  -4 1196.99 418.198   4
  -6  -9   4 1717.67 539.345   4
   6  -9  -4 1533.83 449.002   3
   6  -9  -4 1426.28 609.212  12
   6  -9  -3 22110.6 1375.95   3
  -6  -9   3 23280.5 1606.59   4
   6  -9  -3 21926.3 1382.38   4
   6  -9  -3 22668.4 1605.20  12
   6  -9  -2 2316.13 542.224   4
  -6  -9   2 2251.85 602.106   4
   6  -9  -2 2944.64 586.183   3
   6  -9  -2 2348.56 636.271  12
   6  -9  -1 26458.6 1587.40   3
  -6  -9   1 28006.8 1708.97   4
   6  -9  -1 28062.8 1650.71   4
  -6  -9   0 1574.90 495.085   4
  -6  -9   0 1890.56 545.800   5
  -6  -9  -1 26917.2 1615.65   5
   6  -9   2 972.318 492.978   2
   6  -9   2 387.996 392.736   4
  -6  -9  -2 258.458 354.866   4
  -6  -9  -2-254.366 357.899   5
   6  -9   3 24676.1 1749.34   4
   6  -9   4 1662.41 607.522   4
   6  -9   4 1586.66 495.238   2
  -6  -9  -4 2575.63 638.973   5
   6  -9   5 26110.2 1910.79   4
  -6  -9  -6 299.441 415.331   5
  -6  -9  -7 23271.3 1763.59   5
   6  -9   7 24690.6 1964.46   4
   6  -9   8 455.111 554.402   4
  -6  -9  -8-669.582 595.759   5
  -6  -9  -9 18131.6 1662.41   5
   6  -8 -13-345.111 444.391   7
  -6  -8  12 1022.14 582.952   4
   6  -8 -12 603.663 492.498   7
  -6  -8  11 263.448 463.690   4
   6  -8 -11 819.324 513.453   7
  -6  -8  10 1164.37 572.986   4
   6  -8 -10 1290.26 561.962   7
   6  -8  -9 154.053 453.646  12
   6  -8  -8 312.337 265.184   4
   6  -8  -8 180.076 265.072   3
   6  -8  -8 1032.19 541.446  12
   6  -8  -7 55.7373 276.175   4
  -6  -8   7 103.330 374.042   4
   6  -8  -7 162.429 461.097  12
   6  -8  -5 2771.14 530.583   4
   6  -8  -5 2625.39 531.021   3
   6  -8  -5 2710.39 648.651  12
  -6  -8   4 572.399 409.819   4
   6  -8  -4 608.259 442.692  12
   6  -8  -3 1759.90 466.851   4
   6  -8  -3 2422.53 543.394   3
   6  -8  -3 1404.75 514.203  12
   6  -8  -2 2106.38 544.798   4
  -6  -8   2 1670.00 495.308   4
   6  -8  -2 2284.06 581.734  12
   6  -8  -1 193.174 322.190   4
   6  -8  -1 661.597 377.704   3
  -6  -8   0 846.586 380.940   4
  -6  -8   0 790.625 395.032   5
   6  -8   0 1171.64 478.973  12
   6  -8   1 1583.50 524.718   4
  -6  -8  -1 2287.36 532.321   5
   6  -8   1 1871.23 565.832   3
  -6  -8  -2 1510.91 482.151   4
  -6  -8  -2 1423.46 454.268   5
   6  -8   3 6055.74 923.963   4
  -6  -8  -3 6929.77 862.598   5
   6  -8   3 5876.99 754.688   2
  -6  -8  -5 7205.57 965.521   5
   6  -8   5 7110.01 1035.39   4
   6  -8   6 5183.06 930.445   4
   6  -8   8 3433.34 861.797   4
  -6  -8 -10 2578.04 761.182   5
   6  -7 -14 29083.5 2197.20   7
  -6  -7  13 7872.36 1191.97   4
  -6  -7  12 32574.5 2208.62   4
   6  -7 -12 29992.2 2124.47   7
  -6  -7  11 9834.29 1219.19   4
   6  -7 -11 8374.86 1156.85   7
  -6  -7  10 35140.6 2181.42   4
   6  -7 -10 34812.9 2171.92   7
   6  -7 -10 36672.7 1660.07   3
  -6  -7   9 5097.57 862.637   4
   6  -7  -9 3832.63 590.568   3
  -6  -7   8 44821.5 2342.28   4
   6  -7  -8 44099.8 2336.40   7
   6  -7  -8 45571.6 2222.11  12
  -6  -7   7 6195.83 909.902   4
   6  -7  -7 3893.54 610.442   3
  -6  -7   6 27532.4 1769.26   4
   6  -7  -6 28338.4 1689.79  12
   6  -7  -6 29385.0 1525.57   3
  -6  -7   5 8441.15 1009.15   4
   6  -7  -5 9545.24 999.739  12
   6  -7  -4 16166.6 1178.99   4
   6  -7  -4 18334.9 1332.51  12
  -6  -7   3 7927.06 931.620   4
   6  -7  -3 6114.41 775.882   4
   6  -7  -3 6308.23 819.667  12
   6  -7  -3 6385.49 805.225   3
  -6  -7   2 30059.2 1735.69   4
  -6  -7   2 27667.4 1385.34   5
   6  -7  -2 27601.2 1579.60   4
   6  -7  -2 27690.5 1572.90  12
   6  -7  -2 25043.8 1507.51   3
  -6  -7   1 9973.79 1025.97   4
  -6  -7   1 11476.1 927.556   5
   6  -7  -1 10263.8 1019.95   4
   6  -7  -1 9499.17 960.385  12
   6  -7  -1 9959.98 1006.61   3
  -6  -7   0 17003.9 1297.19   4
   6  -7   0 17965.5 1277.03  12
   6  -7   0 16846.4 1299.01   3
  -6  -7  -1 8665.37 942.908   4
  -6  -7  -1 8621.01 853.392   5
  -6  -7  -2 13916.2 1162.26   4
  -6  -7  -2 14928.8 1118.86   5
   6  -7   2 14691.8 1290.21   4
   6  -7   3 4854.79 815.187   4
  -6  -7  -3 3780.14 645.599   5
   6  -7   4 29690.9 1429.54   2
   6  -7   4 25009.2 1751.62   4
  -6  -7  -5 5491.22 794.245   5
   6  -7   5 7030.96 1026.25   4
  -6  -7  -6 8202.74 989.620   5
   6  -7   6 9705.74 1196.38   4
  -6  -7  -8 6797.50 888.087  10
   6  -7   8 7075.32 1119.41   4
  -6  -7  -8 7237.10 976.498   5
  -6  -7  -9 5811.68 820.038  10
   6  -7   9 4426.89 945.358   4
  -6  -7  -9 4256.33 855.015   5
  -6  -7 -10 10615.5 1283.33   5
   6  -6 -15 1184.83 649.889   7
   6  -6 -14-335.474 480.363   7
  -6  -6  13 1217.67 565.761   4
   6  -6 -13 244.146 411.158   7
   6  -6 -12 597.261 465.943   7
  -6  -6  11 1495.74 588.758   4
   6  -6 -11 1798.21 597.568   7
  -6  -6  10 4908.26 872.483   4
   6  -6 -10 3526.29 797.138   7
  -6  -6   9 537.656 459.736   4
   6  -6  -9 9.08075 372.279   7
   6  -6  -9 372.281 325.026   3
  -6  -6   8 589.040 446.537   4
   6  -6  -8 449.417 426.653   7
  -6  -6   7 599.353 424.320   4
   6  -6  -7 523.790 400.454  12
   6  -6  -5 609.692 384.509  12
  -6  -6   4 3907.84 709.222   4
   6  -6  -3 61.0312 295.455   3
   6  -6  -3 162.119 76.8320   5
   6  -6  -3 390.672 347.226  12
   6  -6  -2 2750.72 568.377   4
   6  -6  -2 2944.40 593.502   3
   6  -6  -2 2361.53 538.199  12
   6  -6  -1 369.926 346.858   4
  -6  -6   1 1509.45 482.308   4
   6  -6  -1 551.898 384.690   3
  -6  -6   0 5694.38 771.285   4
   6  -6   0 4466.67 710.304   4
   6  -6   0 5772.12 721.621  12
   6  -6   0 5657.43 807.346   3
   6  -6   1 490.278 415.586   4
  -6  -6  -1 566.640 356.134   4
   6  -6   1 592.135 401.006   3
  -6  -6  -1 641.792 306.463   5
   6  -6   2 9055.11 1007.10   3
  -6  -6  -2 9336.08 845.875   5
   6  -6   2 9545.30 1058.69   4
   6  -6   3-217.869 380.854   4
  -6  -6  -3-93.6598 308.650   5
   6  -6   3 545.007 430.281   3
   6  -6   4 4736.26 826.987   4
   6  -6   4 4884.92 829.730   3
   6  -6   5 612.713 486.502   4
   6  -6   5 308.911 247.620   2
   6  -6   6 2567.34 686.281   4
  -6  -6  -7 1469.75 460.264  10
   6  -6   7 1379.74 599.510   4
  -6  -6  -8 10327.6 1045.10  10
  -6  -6  -9 1131.67 470.483  10
  -6  -6  -9 478.841 416.567   5
   6  -6  10 12884.6 1536.20   4
   6  -5 -16 15627.2 1612.66   7
  -6  -5  14 35265.0 2325.32   4
   6  -5 -14 35040.7 2260.44   7
  -6  -5  13 9929.66 1245.34   4
   6  -5 -13 6350.63 1004.86   7
  -6  -5  12 40296.8 2362.51   4
   6  -5 -12 39499.1 1876.28   3
  -6  -5  11 22434.0 1720.08   4
   6  -5 -11 21898.4 1679.78   7
   6  -5 -11 22765.6 1417.43   3
  -6  -5  10 23449.3 1721.75   4
   6  -5 -10 22694.4 1662.29   7
  -6  -5   9 4834.60 825.201   4
   6  -5  -9 5147.29 828.501   7
   6  -5  -9 3977.20 644.819   3
  -6  -5   8 60534.0 2606.71   4
  -6  -5   6 44817.9 2156.18   4
   6  -5  -6 43294.0 1904.05  12
  -6  -5   5 8840.58 977.711   4
   6  -5  -5 7647.68 819.712  12
   6  -5  -5 8444.22 880.976   3
  -6  -5   4 29273.8 1701.24   4
   6  -5  -4 31698.4 1545.21  12
   6  -5  -4 29867.4 1594.23   3
  -6  -5   3 14096.4 827.622   5
   6  -5  -2 46581.9 2036.75   4
   6  -5  -2 50593.6 1884.07  12
   6  -5  -2 47755.2 2053.54   3
  -6  -5   1 4847.27 731.543   4
  -6  -5   0 32560.7 1722.71   4
   6  -5   0 32807.7 1770.79   4
   6  -5   0 34278.2 1531.75  12
   6  -5   0 32612.3 1767.02   3
   6  -5   1 2378.18 579.804   4
  -6  -5  -1 2626.17 562.708   4
   6  -5   1 2770.58 624.954   3
  -6  -5  -1 2907.28 460.432   5
  -6  -5  -2 17630.1 1058.97   5
   6  -5   3 3660.85 700.856   3
   6  -5   4 23957.9 1672.92   3
  -6  -5  -4 27664.6 1432.27   5
   6  -5   4 25284.7 1716.34   4
   6  -5   5 5490.49 901.853   4
  -6  -5  -5 6233.10 766.209   5
   6  -5   5 6458.61 943.591   3
  -6  -5  -6 13075.3 1148.97  10
   6  -5   6 13860.4 1384.09   4
   6  -5   7 8316.34 1111.81   4
  -6  -5  -8 17475.9 1333.34  10
   6  -5   8 17100.6 1609.70   4
   6  -5   9 9092.97 1252.96   4
   6  -5  10 16426.4 1670.78   4
   6  -4 -16-1384.82 620.319   7
  -6  -4  15-168.079 469.444   4
   6  -4 -15 861.464 506.746   7
  -6  -4  14 524.800 528.345   4
   6  -4 -14 602.701 508.368   7
  -6  -4  13 779.059 518.165   4
   6  -4 -13 636.037 382.529   3
   6  -4 -13 492.228 434.637   7
  -6  -4  12 834.720 523.230   4
   6  -4 -12 592.878 442.633   7
  -6  -4  11 772.769 501.982   4
   6  -4 -11 297.329 415.080   7
  -6  -4  10 124.399 387.638   4
   6  -4 -10-557.264 359.124   3
   6  -4 -10 98.9021 350.669   7
  -6  -4   9 2063.13 597.630   4
   6  -4  -9 1862.14 551.821   7
  -6  -4   8 686.674 446.981   4
   6  -4  -8 192.133 322.773   3
  -6  -4   7 1505.83 514.095   4
   6  -4  -7 895.418 423.307   3
  -6  -4   5 3964.97 669.810   4
   6  -4  -5 3135.59 581.562   3
   6  -4  -5 3234.66 544.968  12
  -6  -4   4 3813.95 657.252   4
   6  -4  -4 3610.34 631.109   3
  -6  -4   3 2629.82 577.559   4
   6  -4  -3 2564.16 558.049   3
   6  -4  -2 1808.15 421.892  12
  -6  -4   2 1687.08 508.615   4
  -6  -4   1 7096.70 843.690   4
   6  -4  -1 6987.82 686.960  12
   6  -4  -1 6778.25 836.404   3
   6  -4   0 1062.43 436.889   3
  -6  -4   0 315.546 232.052   5
  -6  -4  -1 6294.63 803.620   4
   6  -4   1 6756.88 873.721   4
   6  -4   1 6107.50 830.654   3
  -6  -4  -2 5712.16 576.474   5
   6  -4   2 5631.10 822.558   4
   6  -4   2 6022.01 848.651   3
   6  -4   3 11668.5 1156.30   4
   6  -4   4 3050.27 655.021   3
   6  -4   5 9758.14 1126.73   3
  -6  -4  -5 11484.9 1076.07  10
  -6  -4  -5 9452.74 866.824   5
   6  -4   5 11616.9 1210.16   4
   6  -4   6 2104.80 627.756   4
  -6  -4  -6 2891.27 560.236   5
   6  -4   6 3579.24 769.617   3
  -6  -4  -7 8320.84 922.604  10
  -6  -4  -8 2876.51 595.834  10
  -6  -4  -9 11376.0 1073.85  10
   6  -4   9 10560.5 1301.14   4
   6  -4  10 640.395 564.709   4
   6  -4  11 10191.4 1369.87   4
  -6  -3  16 56.7040 436.491   4
   6  -3 -16-74.4743 392.339   7
  -6  -3  15 28404.0 2042.33   4
   6  -3 -15 25149.3 1847.99   7
   6  -3 -15 27076.5 1771.68   3
  -6  -3  14-477.957 529.539   4
   6  -3 -14 214.228 356.889   3
   6  -3 -14-708.895 510.901   7
  -6  -3  13 27387.9 1908.17   4
   6  -3 -13 23729.8 1707.37   7
  -6  -3  12 350.400 435.670   4
   6  -3 -12 481.056 365.439   3
   6  -3 -11 44425.1 2213.00   7
   6  -3 -11 39730.2 1958.79   3
  -6  -3  10 2735.09 651.373   4
   6  -3 -10 2590.23 582.024   3
   6  -3 -10 3089.67 657.080   7
  -6  -3   9 34057.8 1935.50   4
  -6  -3   7 71028.6 2654.60   4
   6  -3  -7 65321.0 2381.13   3
  -6  -3   6 539.928 356.561   4
  -6  -3   5 70715.6 1228.04   5
   6  -3  -5 67453.0 2403.63   3
  -6  -3   4 1233.95 445.577   4
   6  -3  -4 1053.85 344.192  12
  -6  -3   3 40093.1 1895.32   4
   6  -3  -3 38327.1 1467.06  12
   6  -3  -3 38847.3 1847.69   3
  -6  -3   2 2426.27 536.350   4
   6  -3  -2 2293.65 560.844   3
   6  -3  -2 2735.48 439.360  12
  -6  -3   1 47395.4 2028.54   4
   6  -3  -1 49987.9 1602.63  12
   6  -3  -1 45878.1 2040.39   3
   6  -3   0 3443.94 642.003   3
  -6  -3  -1 111311. 3101.87   4
   6  -3   2 714.196 406.207   4
   6  -3   2 879.406 431.428   3
  -6  -3  -2 420.915 241.111   5
  -6  -3  -3 47509.5 2042.39  10
   6  -3   3 46472.3 2214.33   4
   6  -3   3 49491.4 2273.19   3
   6  -3   5 49427.7 2374.85   3
   6  -3   5 49394.2 2391.58   4
  -6  -3  -7 47284.4 2089.49  10
   6  -3   7 49001.4 2521.66   4
  -6  -3  -8 940.273 408.696  10
   6  -3   8-57.9985 402.462   4
  -6  -3  -9 28969.1 1657.89  10
   6  -3  10 1211.29 574.227   4
   6  -3  11 17171.4 1717.20   4
   6  -2 -17-1160.66 596.724   7
  -6  -2  16-814.967 531.268   4
   6  -2 -16-153.548 441.311   7
  -6  -2  15 2279.50 659.983   4
   6  -2 -15 2348.65 635.526   7
   6  -2 -14 300.157 395.158   3
   6  -2 -14 513.344 417.888   7
   6  -2 -13 626.844 432.849   7
   6  -2 -12 329.999 381.377   3
   6  -2 -12 986.452 449.680   7
  -6  -2  11 2044.83 587.250   4
   6  -2 -11 2449.44 589.147   3
   6  -2 -11 1646.53 525.781   7
  -6  -2  10-16.3614 339.349   4
   6  -2 -10 296.106 409.297   3
  -6  -2   9 1484.32 513.940   4
   6  -2  -8 993.653 437.624   3
  -6  -2   7 1096.83 456.673   4
   6  -2  -7 1091.29 440.967   3
  -6  -2   6 294.379 345.749   4
   6  -2  -5 3423.77 632.218   3
  -6  -2   4 2186.11 528.868   4
  -6  -2   3 4474.64 679.506   4
   6  -2  -3 3212.20 607.319   3
  -6  -2   2 3226.40 587.331   4
   6  -2  -2 2435.76 571.647   3
   6  -2  -2 2562.88 397.229  12
  -6  -2   1 6430.21 779.694   4
   6  -2  -1 4962.52 230.166   6
   6  -2  -1 6013.46 807.124   3
   6  -2   0 1285.49 485.255   3
  -6  -2  -1 11033.7 995.563  10
  -6  -2  -1 12137.0 1054.57   4
   6  -2   1 10112.9 1029.79   3
   6  -2   2 3171.93 654.587   4
  -6  -2  -2 3435.77 621.582  10
   6  -2   2 3025.78 628.756   3
  -6  -2  -3 12458.4 1069.83  10
   6  -2   3 10714.2 1092.94   4
   6  -2   3 13598.5 1223.31   3
   6  -2   4 2588.77 621.995   4
  -6  -2  -4 2848.01 562.063  10
   6  -2   4 2209.81 583.553   3
  -6  -2  -5 9577.54 961.673  10
   6  -2   6 4725.73 826.973   4
  -6  -2  -6 3871.00 641.163  10
   6  -2   6 4286.14 790.628   3
   6  -2   7 12634.7 1298.77   3
  -6  -2  -7 12570.8 1111.36  10
   6  -2   7 12769.9 1308.72   4
  -6  -2  -8 4479.66 698.339  10
   6  -2   8 6829.24 1004.35   4
   6  -2   9 15534.0 1520.91   4
  -6  -2 -10 3139.93 630.629  10
   6  -2  10 2474.27 729.565   4
   6  -2  13 2238.71 664.873   6
  -6  -1  17 2828.15 772.322   4
   6  -1 -17 2180.65 682.467   3
  -6  -1  16 22709.9 1805.38   4
  -6  -1  16 21957.6 1795.65   8
   6  -1 -16 22439.3 1679.80   7
   6  -1 -15 1592.48 579.080   3
   6  -1 -15 2037.28 626.443   7
  -6  -1  14 33211.4 2053.57   4
   6  -1 -14 35835.5 1982.78   7
   6  -1 -14 34670.0 2085.22   3
  -6  -1  13 8814.25 1079.09   4
  -6  -1  13 10635.6 915.392  10
   6  -1 -13 9521.63 1032.16   7
   6  -1 -13 10334.9 1144.98   3
  -6  -1  12 40814.9 1763.30  10
   6  -1 -12 39518.2 2104.53   3
  -6  -1  11 14405.2 1283.47   4
  -6  -1  11 15268.0 1114.52  10
  -6  -1  10 52692.5 2343.16   4
  -6  -1   9 10686.7 1075.99   4
   6  -1  -9 9835.50 1033.14   3
  -6  -1   8 46850.9 2112.46   4
   6  -1  -7 10392.1 1019.11   3
  -6  -1   5 25070.2 1502.15   4
   6  -1  -5 26201.6 1551.76   3
   6  -1  -4 74994.7 2586.98   3
  -6  -1   3 26625.6 1510.19   4
   6  -1  -3 26383.8 1554.46   3
   6  -1  -3 25057.5 1011.30  12
  -6  -1   1 29609.8 1545.87  10
  -6  -1   1 29698.2 1582.04   4
  -6  -1   0 42185.4 1890.67   4
   6  -1   0 44988.1 818.192   6
   6  -1   0 46470.2 2084.09   3
  -6  -1  -1 43272.1 1894.13  10
   6  -1   1 45957.4 2095.28   3
   6  -1   2 62487.6 2487.96   4
   6  -1   2 66214.1 2554.20   3
  -6  -1  -3 14172.0 1121.06  10
   6  -1   3 14395.6 1251.38   4
   6  -1   3 14960.8 1276.34   3
   6  -1   4 21944.2 1546.89   4
   6  -1   4 22254.4 1562.07   3
  -6  -1  -5 17502.1 1267.16  10
   6  -1   5 18459.2 1462.39   4
   6  -1   5 17630.0 1435.89   3
   6  -1   6 28237.6 1815.67   3
  -6  -1  -6 27913.0 1597.70  10
   6  -1   6 27545.8 1816.21   4
   6  -1   7 19157.7 1551.48   3
  -6  -1  -7 16852.7 1262.92  10
   6  -1   8 26384.9 1854.74   3
  -6  -1  -8 25307.0 1543.80  10
   6  -1   8 26368.7 1865.61   4
   6  -1   9 10824.8 1275.76   4
  -6  -1 -10 13127.6 1145.69  10
   6  -1  11 6387.27 1068.04   4
   6  -1  12 3564.22 885.790   4
   6  -1  13 5096.57 951.449   6
  -6   0  17 262.234 466.749   4
   6   0 -17-343.886 421.588   3
  -6   0  16 2715.35 723.466   4
  -6   0  16 3398.00 797.884   8
   6   0 -16 876.602 594.241   3
  -6   0  15 670.062 459.623   4
  -6   0  15-116.119 390.767   8
   6   0 -14-29.0610 408.028   3
   6   0 -14 1545.67 498.900   7
   6   0 -13-1.18746 288.100   7
  -6   0  12 1075.96 389.396  10
  -6   0  12 731.073 446.462   4
   6   0 -12 994.298 493.349   3
  -6   0  11 388.844 307.937  10
  -6   0   9 255.532 350.197   4
   6   0  -9 246.604 395.413   3
  -6   0   8 1045.42 372.059  10
  -6   0   7 315.426 325.565  10
  -6   0   7 891.496 412.367   4
   6   0  -7 362.323 367.329   3
  -6   0   6 2802.23 545.604  10
  -6   0   6 1898.11 495.855   4
   6   0  -6 2251.09 555.143   3
  -6   0   5 1370.01 462.416   4
   6   0  -5 1717.34 518.548   3
  -6   0   4 6275.81 752.123  10
  -6   0   3 470.494 345.826  10
  -6   0   3 1148.28 425.570   4
   6   0  -3 1050.69 461.995   3
   6   0  -3 1029.66 240.866  12
  -6   0   2 6450.75 757.836  10
  -6   0   2 5173.62 700.251   4
  -6   0   1 498.352 340.601  10
   6   0   0 1793.08 143.738   6
   6   0   0 1117.28 424.124   3
  -6   0  -1 751.825 395.132  10
   6   0   1 914.830 429.131   3
   6   0   2 38092.3 1339.37   1
   6   0   2 36890.2 1108.69   6
   6   0   2 39490.9 1974.47   3
  -6   0  -4 7103.48 836.931  10
   6   0   4 7635.00 941.553   3
   6   0   5 1221.79 475.330   4
   6   0   5 1423.58 524.469   3
   6   0   6 7379.41 748.624   6
   6   0   6 7195.99 964.232   4
   6   0   6 7177.11 960.410   3
   6   0   7 521.804 440.908   4
  -6   0  -7 754.044 375.794  10
   6   0   7 642.059 383.182   6
   6   0   7 891.188 463.340   3
  -6   0  -8 11311.5 1060.24  10
   6   0   8 12369.7 1069.61   6
   6   0   9 50.1207 381.107   4
   6   0   9-547.822 447.732   6
   6   0  10 16064.2 1354.64   6
   6   0  10 13891.1 1461.58   4
  -6   0 -12 6005.12 1033.19   3
   6   0  12 6734.34 1131.83   4
  -6   1  17 4412.02 827.392   4
  -6   1  16 19803.0 1600.78   4
   6   1 -16 21246.7 1810.62   3
  -6   1  15 1728.53 588.420   4
  -6   1  15 2783.77 754.131   8
  -6   1  14 33788.0 1967.50   4
  -6   1  14 38892.5 2232.77   8
   6   1 -14 33819.9 2151.37   3
  -6   1  13 11645.7 908.597  10
  -6   1  13 10285.0 1146.41   8
   6   1 -13 10195.1 1212.53   3
  -6   1  12 38826.7 1994.83   4
   6   1 -11 12658.6 1264.52   3
  -6   1  10 57325.9 2041.19  10
   6   1 -10 54234.2 2472.79   3
  -6   1   9 12966.8 1116.98   4
   6   1  -9 11803.4 1175.85   3
  -6   1   8 41744.9 1761.82  10
  -6   1   7 12091.6 982.433  10
  -6   1   6 72273.4 2330.77  10
  -6   1   5 25497.6 1407.36  10
  -6   1   5 25558.0 1468.97   4
   6   1  -5 25095.3 1566.82   3
  -6   1   4 76646.1 2484.51   4
  -6   1   3 27056.7 1463.08  10
   6   1  -3 26240.7 1571.46   3
  -6   1   2 49169.8 1968.27  10
  -6   1   1 29956.6 1553.97  10
   6   1  -1 28474.1 1638.47   3
  -6   1   0 43211.4 1872.54  10
   6   1   0 46293.4 1633.38   1
   6   1   0 44159.2 2045.75   3
   6   1   1 45883.9 1589.44   1
   6   1   1 43927.9 2055.53   3
  -6   1  -2 66139.2 2353.34  10
   6   1   2 67702.9 2563.98   3
  -6   1  -3 12959.3 1084.71  10
   6   1   3 15593.8 926.626   1
   6   1   3 15175.1 1266.75   3
  -6   1  -4 19938.6 1335.80  10
   6   1   4 20298.4 1024.05   6
  -6   1  -5 18427.2 1310.02  10
   6   1   5 18569.1 1450.60   4
   6   1   5 19056.7 1460.68   3
  -6   1  -6 27507.6 1595.44  10
   6   1   6 31495.4 1464.50   6
   6   1   6 29334.8 1842.55   4
   6   1   6 28217.3 1797.85   3
   6   1   7 18700.9 1515.53   3
  -6   1  -7 17910.9 1312.05  10
   6   1   7 20990.8 1287.38   6
   6   1   7 17710.0 948.857   1
   6   1   7 21896.5 1640.29   4
   6   1   8 26375.9 1823.63   3
  -6   1  -8 23570.9 1523.77  10
   6   1   8 26690.6 1852.33   4
   6   1   9 9969.45 1208.84   4
  -6   1 -10 16039.0 1304.75  10
   6   1  10 14647.3 1467.33   4
  -6   1 -11 4396.14 706.676  10
   6   1  11 3247.90 756.956   6
  -6   1 -12 3265.90 857.335   3
   6   1  12 4106.66 918.828   4
  -6   2  16 854.838 472.278   4
   6   2 -16-116.706 487.887   3
   6   2 -14 107.610 414.889   3
   6   2 -13-55.5515 405.734   3
  -6   2  12-237.558 388.341   8
  -6   2  12 681.822 398.311   4
  -6   2  11 2460.87 487.296  10
  -6   2  11 2048.03 551.616   8
  -6   2  11 2412.53 571.829   4
   6   2 -11 2158.67 661.048   3
  -6   2  10 353.514 300.490  10
  -6   2  10 904.084 431.275   4
   6   2 -10-413.331 430.467   3
  -6   2   9 633.280 343.871  10
   6   2  -9 1908.18 583.479   3
  -6   2   8 418.484 322.465  10
  -6   2   8 1056.29 412.407   4
   6   2  -8 617.604 457.612   3
  -6   2   7 778.173 401.927   4
   6   2  -7 1122.75 505.140   3
  -6   2   6 1069.43 394.434  10
  -6   2   6 1087.08 411.081   4
   6   2  -6 1185.81 491.638   3
  -6   2   5 4235.18 634.365  10
  -6   2   5 3594.82 607.631   4
  -6   2   4 1831.11 474.801  10
   6   2  -4 2547.33 574.619   3
   6   2  -4 1785.07 235.978  12
  -6   2   3 4172.77 635.915  10
  -6   2   3 4045.78 630.255   4
   6   2  -3 3857.61 668.582   3
   6   2  -3 3804.52 225.970  12
  -6   2   2 2838.41 554.105   4
   6   2  -2 3280.20 657.418   3
  -6   2   1 5705.97 723.024  10
   6   2  -1 5557.12 649.135   1
   6   2  -1 5657.28 790.350   3
  -6   2   0 1363.35 428.733  10
   6   2   0 1496.21 414.673   1
   6   2   1 10887.9 1069.83   3
  -6   2  -3 11432.6 1027.54  10
   6   2   3 11589.0 1124.75   3
   6   2   4 2069.81 431.868   1
   6   2   4 2855.40 436.235   6
  -6   2  -5 8078.47 889.224  10
   6   2   5 8321.70 994.784   4
   6   2   5 8984.50 1042.59   3
   6   2   5 9082.23 650.980  11
   6   2   6 4702.20 808.801   4
   6   2   6 4123.05 756.431   3
   6   2   7 13319.3 1059.00   6
   6   2   7 12574.1 898.631   1
   6   2   8 4752.12 847.377   4
  -6   2  -8 3881.99 715.266  10
   6   2   8 4085.51 698.504   6
   6   2   8 5823.60 908.931   3
   6   2   9 15886.0 1452.16   3
   6   2   9 12404.6 1302.21   4
   6   2  10 1702.48 632.910   4
  -6   2 -10 1939.42 548.988  10
  -6   2 -11 18815.8 1448.12  10
   6   2  12 1259.60 575.285   6
   6   2  13 1110.13 655.360   6
   6   3 -16-14.2431 511.897   3
  -6   3  15 25796.3 1677.14   4
  -6   3  15 27963.8 1994.08   8
   6   3 -14 1762.89 609.948   3
  -6   3  14 700.663 477.152   8
  -6   3  14 649.629 430.871   4
   6   3 -13 26584.8 1966.68   3
  -6   3  12 686.015 430.655   8
   6   3 -12-161.604 470.825   3
  -6   3  12 636.874 398.917   4
  -6   3  11 43967.7 1976.12   4
  -6   3  11 44680.5 1767.35  10
  -6   3  11 40422.5 2074.42   8
   6   3 -11 41810.5 2328.41   3
  -6   3  10 2881.00 525.409  10
  -6   3  10 3396.10 646.307   8
   6   3 -10 2089.94 619.902   3
  -6   3  10 2735.08 557.420   4
  -6   3   9 33304.4 1758.16   8
   6   3  -9 32757.9 1986.14   3
  -6   3   8 3181.07 546.253  10
  -6   3   8 3367.89 605.875   8
  -6   3   7 68539.9 2265.14  10
  -6   3   7 67877.1 2317.82   4
   6   3  -7 69003.5 2728.73   3
  -6   3   6 984.683 387.990  10
   6   3  -6 690.762 412.219   3
  -6   3   5 72263.8 2355.21  10
  -6   3   5 69598.5 2316.71   4
   6   3  -5 71051.8 2676.01   3
  -6   3   4 2204.92 505.892  10
   6   3  -4 1497.10 492.537   3
   6   3  -4 1586.36 163.640  12
  -6   3   3 38981.9 1767.31  10
  -6   3   3 40460.4 1785.21   4
   6   3  -3 38309.1 1931.94   3
  -6   3   2 2500.58 529.108  10
   6   3  -2 2750.98 594.583   3
  -6   3   1 46053.7 1948.33  10
   6   3  -1 44689.8 2083.02   3
  -6   3   0 3786.91 618.382  10
   6   3   0 3946.18 599.999   1
   6   3   1 115879. 2787.29   1
   6   3   1 116966. 3351.50   3
  -6   3  -2 1034.67 411.274  10
   6   3   2 220.867 286.576   1
  -6   3  -3 50620.4 2132.21  10
   6   3   3 49933.8 2246.57   3
   6   3   4 5615.57 674.327   1
  -6   3  -4 5464.33 777.234  10
   6   3   4 5322.50 807.763   4
   6   3   4 6036.65 609.254   6
   6   3   4 6147.57 843.987   3
  -6   3  -5 49124.6 2150.03  10
   6   3   5 48962.8 1837.92   1
   6   3   5 52603.5 2371.97   3
   6   3   6 810.224 451.638   4
   6   3   6 489.749 322.898   1
  -6   3  -6 992.414 426.092  10
   6   3   6 1487.56 540.019   3
   6   3   7 51863.0 2031.76   6
   6   3   7 48631.9 2363.20   3
  -6   3  -8 1212.95 479.374  10
   6   3   9 27067.4 1859.13   3
   6   3   9 27711.8 1893.85   4
   6   3  10 1131.78 557.719   4
   6   3  10-33.4020 425.816   6
  -6   3 -11 20022.1 1518.65  10
  -6   3 -11 17392.9 1663.58   3
   6   3  11 18690.3 1511.71   6
   6   3  11 16049.5 1538.02   4
   6   3  12 1698.85 635.666   4
   6   3  12 740.789 474.213   6
   6   3  13 29782.8 2054.09   6
   6   4 -15 1391.02 655.181   3
   6   4 -14 843.713 545.080   3
  -6   4  14 909.862 529.915   8
   6   4 -13 1278.05 597.219   3
  -6   4  13 372.490 348.123   4
   6   4 -12 1266.20 608.172   3
  -6   4  12 1392.46 539.619   8
  -6   4  11 769.407 422.902   8
   6   4 -11 443.118 464.677   3
   6   4 -10 98.0901 418.347   3
  -6   4  10 391.635 319.587   4
   6   4  -9 1742.91 576.772   3
  -6   4   9 1361.95 428.406   4
  -6   4   8 757.719 365.272  10
  -6   4   8 200.867 345.810   8
   6   4  -8 374.339 409.095   3
  -6   4   8 22.4041 285.882   4
  -6   4   7 832.187 393.931   4
  -6   4   6 1021.19 407.959  10
  -6   4   6 1164.31 391.087   8
  -6   4   5 4090.49 607.984   4
   6   4  -5 4360.74 733.523   3
  -6   4   4 2601.21 523.789  10
  -6   4   4 3885.92 547.522   8
  -6   4   4 3150.77 559.678   4
   6   4  -4 4235.46 733.678   3
  -6   4   3 2661.08 552.777  10
   6   4  -3 2335.59 543.163   1
   6   4  -3 3033.41 636.079   3
  -6   4   2 1189.21 310.741   8
   6   4  -2 2471.58 603.410   3
   6   4  -2 2173.85 519.775   1
  -6   4   1 8087.84 858.690  10
   6   4  -1 7211.92 901.738   3
   6   4   0 10.3066 321.170   1
  -6   4   0 715.972 226.020   8
   6   4   0 756.800 424.439   3
  -6   4  -1 5816.97 754.629  10
   6   4   1 7129.75 783.124   1
   6   4   1 7400.74 915.170   3
   6   4   1 7508.61 747.373  11
  -6   4  -2 5345.07 755.026  10
   6   4   2 5527.43 710.710   1
   6   4   2 6479.59 878.601   3
  -6   4  -3 11883.4 1078.19  10
   6   4   3 12042.9 799.746   6
   6   4   3 12312.4 893.734  11
  -6   4  -4 2419.23 569.145  10
   6   4   4 2759.03 663.850   3
  -6   4  -5 11116.1 1088.42  10
   6   4   5 11495.9 1158.27   4
   6   4   5 10528.4 1120.67   3
   6   4   6 2570.15 405.571  11
  -6   4  -6 2629.46 616.935  10
   6   4   6 2207.83 521.088   1
   6   4   7 8130.12 866.657   1
   6   4   7 10843.8 1174.47   4
   6   4   7 8563.10 1064.78   3
   6   4   8 2574.73 642.899   4
  -6   4  -8 2839.07 640.599  10
   6   4   8 2522.94 565.843   6
   6   4   8 3307.34 594.256   1
   6   4   9 10286.3 1181.53   3
  -6   4  -9 9730.00 1091.15  10
   6   4   9 9389.19 1141.54   4
  -6   4 -10 1145.63 455.628  10
   6   4  10 1400.65 523.877   6
   6   4  12 1793.78 614.400   4
   6   4  12 1285.50 542.883   6
  -6   5  15 12029.9 1357.32   8
  -6   5  14 39928.7 2330.73   8
   6   5 -14 35339.7 2428.38   3
  -6   5  13 7527.32 850.108   4
   6   5 -13 7381.05 1161.94   3
  -6   5  12 41554.4 1850.54   4
  -6   5  12 44807.4 1779.96  10
  -6   5  12 41568.8 2222.56   8
   6   5 -12 41948.5 2504.85   3
  -6   5  11 22977.5 1365.96   4
  -6   5  11 23298.8 1314.30  10
  -6   5  11 23680.0 1633.92   8
   6   5 -11 23641.1 1843.07   3
  -6   5  10 21852.5 1316.82   4
  -6   5  10 24332.2 1369.82  10
  -6   5  10 25030.4 1625.88   8
   6   5 -10 22840.9 1781.21   3
  -6   5   9 5700.93 717.951  10
   6   5  -9 3771.19 800.029   3
  -6   5   9 4130.74 622.387   4
  -6   5   8 56545.2 2237.47   8
   6   5  -8 56119.6 2622.69   3
  -6   5   6 40704.0 1811.46  10
  -6   5   6 39691.8 1737.36   8
   6   5  -6 41033.8 2150.54   3
  -6   5   5 9477.67 916.583  10
  -6   5   5 8741.56 810.160   8
  -6   5   4 32081.8 1646.88  10
  -6   5   4 28368.3 1345.49   8
   6   5  -4 30244.3 1657.69   1
   6   5  -4 31921.2 1842.42   3
  -6   5   3 15784.3 959.907   8
  -6   5   2 48263.3 2043.50  10
   6   5  -1 5352.95 745.370   1
   6   5  -1 5999.40 827.936   3
   6   5  -1 6009.72 730.429  11
  -6   5   0 33327.5 1092.35   8
   6   5   0 31940.0 1809.33   3
   6   5   0 33723.4 1581.90  11
   6   5   1 3233.16 663.934   3
  -6   5  -2 18015.7 1337.91  10
   6   5   3 3321.06 546.883  11
   6   5   3 3649.05 717.234   3
   6   5   3 3149.89 598.796   1
  -6   5  -4 26887.5 1664.68  10
   6   5   4 25641.3 1662.56   3
   6   5   5 5608.87 844.065   4
  -6   5  -5 4260.50 734.990  10
   6   5   5 5588.35 774.547   1
   6   5   5 6751.86 912.465   3
  -6   5  -6 13361.8 1237.58  10
   6   5   6 13267.1 1047.16   6
   6   5   6 12616.3 1215.00   4
   6   5   6 12779.8 1233.16   3
   6   5   7 8286.07 931.584   1
   6   5   8 18984.0 1523.70   3
  -6   5  -8 19575.8 1523.86  10
   6   5   8 18260.8 1352.93   6
   6   5   8 18063.7 1485.91   4
  -6   5  -9 8900.39 1075.75  10
   6   5   9 7535.88 917.281   1
  -6   5 -10 20155.8 1784.55   3
   6   5  10 17529.7 1527.74   4
  -6   5 -11 3147.76 677.379  10
   6   5  11 3833.61 797.838   6
   6   5  12 7436.11 1103.97   4
  -6   6  14 162.780 416.584   8
  -6   6  13 454.936 432.470   8
  -6   6  12 35.1698 337.301   8
  -6   6  11 1954.87 576.365   8
  -6   6  11 1049.13 367.027   4
  -6   6  10 3982.08 614.827  10
  -6   6  10 5534.79 840.257   8
   6   6 -10 5025.64 914.814   3
  -6   6   9 269.835 309.887  10
   6   6  -9-506.059 489.036   3
  -6   6   9 169.175 285.142   4
   6   6  -8-495.506 449.940   3
  -6   6   7 1226.00 414.137  10
   6   6  -6 960.643 478.361   3
  -6   6   5 869.479 401.027  10
  -6   6   5 412.021 291.234   8
   6   6  -5 735.178 446.864   3
  -6   6   4 4419.05 685.596  10
  -6   6   4 3526.37 537.666   8
   6   6  -4 4026.40 756.600   3
   6   6  -3 1365.52 496.356  11
   6   6  -3 682.285 453.492   1
  -6   6   3 680.541 372.184  10
  -6   6   3 358.751 254.884   8
   6   6  -2 4334.74 695.645  11
  -6   6   2 2607.94 569.583  10
  -6   6   2 3229.19 458.617   8
   6   6  -2 3409.63 649.981   1
  -6   6   1 857.404 259.375   8
   6   6  -1 1171.71 480.460   3
   6   6  -1 577.971 440.445   1
   6   6   0 5457.24 768.370   1
   6   6   0 6593.62 892.256   3
   6   6   0 5751.47 740.866  11
   6   6   1 942.145 459.968   1
   6   6   1 1597.17 533.448   3
   6   6   2 8850.54 870.674  11
  -6   6  -3 750.770 439.497  10
   6   6   3 163.625 408.286   3
   6   6   4 5284.27 829.684   3
   6   6   5 79.6669 271.110  11
   6   6   5-28.0994 358.713   4
   6   6   5 226.654 391.729   3
   6   6   6 3140.73 678.668   4
  -6   6  -6 3282.27 704.775  10
   6   6   6 2281.41 540.910   6
   6   6   6 2097.59 624.614   3
   6   6   7 1549.82 518.916   4
   6   6   7 1380.86 540.920   3
  -6   6  -8 9590.79 1121.01  10
   6   6   8 7723.44 965.155   1
   6   6   8 7814.04 1013.18   4
   6   6   8 8089.76 1032.20   3
  -6   6  -9 1426.29 613.680   3
   6   6   9 1234.13 512.616   6
   6   6   9 1056.60 518.809   1
  -6   6 -10 11368.8 1254.91  10
  -6   6 -10 10499.8 1334.34   3
   6   6  10 11100.1 1181.49   6
   6   6  10 10150.2 1182.07   4
  -6   6 -11 1040.20 492.648  10
   6   6  11 369.290 393.083   6
  -6   7  14 29539.6 2090.67   8
   6   7 -14 33889.4 2179.44  11
  -6   7  13 8142.95 1101.24   8
   6   7 -13 5457.94 1087.19   3
  -6   7  12 33215.4 2070.61   8
   6   7 -12 27152.4 2111.57   3
   6   7 -11 9411.15 1259.72   3
  -6   7  10 35466.9 1714.84  10
  -6   7  10 35925.7 1558.69   4
  -6   7  10 37317.0 2040.86   8
   6   7 -10 36818.4 2323.84   3
  -6   7   9 2831.98 572.772  10
  -6   7   9 4013.73 713.431   8
  -6   7   8 47626.8 2028.03  10
  -6   7   8 45118.0 2082.95   8
   6   7  -8 43772.1 2410.69   3
  -6   7   7 6018.02 775.283  10
  -6   7   7 5731.29 769.084   8
   6   7  -7 4935.61 903.225   3
   6   7  -7 7336.55 944.617  11
  -6   7   6 29596.1 1642.27  10
  -6   7   6 28957.1 1551.56   8
   6   7  -6 32222.8 1990.68   3
  -6   7   5 10275.2 1013.66  10
  -6   7   5 8769.31 849.706   8
   6   7  -5 8667.11 1014.23   1
   6   7  -5 8474.53 1049.52   3
  -6   7   4 19137.7 1361.89  10
   6   7  -4 17235.1 1363.93   1
   6   7  -4 18742.7 1495.31   3
   6   7  -4 19671.8 1409.08  11
  -6   7   3 7533.40 907.527  10
  -6   7   3 7315.61 706.757   8
   6   7  -3 6517.15 914.531   3
   6   7  -3 7148.36 886.503  11
  -6   7   2 29783.6 1725.83  10
   6   7  -2 30489.3 1752.83   1
   6   7  -2 27757.0 1744.32   3
   6   7  -2 29808.4 1657.62  11
   6   7  -1 11197.7 1097.15   1
  -6   7   1 11116.3 730.129   8
   6   7  -1 11456.7 1144.67   3
   6   7  -1 10433.1 1026.62  11
  -6   7   0 18066.3 1380.18  10
   6   7   0 16509.9 1311.14   1
   6   7   0 18235.6 1420.89   3
   6   7   0 16257.8 1231.04  11
  -6   7  -1 9280.23 1033.35  10
   6   7   1 8573.96 987.293   1
   6   7   1 8119.43 989.408   3
   6   7   1 8646.04 922.953  11
  -6   7  -2 13642.6 1242.01  10
   6   7   2 14412.6 1261.75   3
  -6   7  -3 4685.18 793.551  10
   6   7   3 4637.96 784.114   1
  -6   7  -4 26457.3 1747.54  10
   6   7   4 27379.5 1481.19  11
   6   7   5 7625.60 944.888   4
   6   7   5 7383.08 966.692   1
  -6   7  -6 9818.95 1132.58  10
   6   7   6 9641.71 953.686   6
   6   7   6 9181.93 1057.30   4
   6   7   6 8097.95 1017.47   1
   6   7   6 9461.10 1063.26   3
  -6   7  -7 11967.9 1258.91  10
   6   7   7 13351.3 1257.46   4
   6   7   7 13362.6 1268.87   3
  -6   7  -8 7221.81 1091.24   3
  -6   7  -8 7245.35 1009.42  10
   6   7   8 6993.93 954.691   4
   6   7   8 6854.82 906.551   6
  -6   7  -9 5818.63 1002.96   3
  -6   7  -9 5288.40 921.971  10
   6   7   9 4606.22 851.230   1
  -6   7 -10 10810.7 1266.71  10
   6   7  10 13503.3 1338.69   6
  -6   7 -11 4188.70 818.933  10
  -6   8  13 1458.45 597.965   8
   6   8 -12 1136.46 645.508   3
  -6   8  12 1694.95 604.951   8
   6   8 -11 298.348 493.460  11
   6   8 -11-71.0965 462.014   3
  -6   8  11-373.161 431.820   8
   6   8 -10 2484.24 697.599  11
   6   8 -10 1408.87 676.498   3
  -6   8  10 1358.98 521.318   8
  -6   8   9 367.485 351.398  10
  -6   8   9 108.453 356.127   8
  -6   8   8 892.764 427.153   8
   6   8  -8 648.105 489.892   1
   6   8  -7 973.985 514.228  11
  -6   8   7 632.745 408.820  10
   6   8  -7 1028.69 529.310   1
  -6   8   7 772.507 386.077   8
   6   8  -7 433.445 446.244   3
   6   8  -6 1648.70 591.275  11
  -6   8   6 1334.42 498.775  10
  -6   8   6 1428.24 461.937   8
   6   8  -6 1257.32 573.175   1
   6   8  -5 3696.42 728.532  11
  -6   8   5 3200.95 653.554  10
   6   8  -5 2623.46 662.136   1
  -6   8   4 955.297 439.457  10
   6   8  -4 660.614 457.915   3
   6   8  -3 2764.72 660.650  11
   6   8  -3 912.534 494.972   1
  -6   8   3 2452.15 591.631  10
   6   8  -3 1915.51 607.957   3
   6   8  -2 2315.13 590.137  11
  -6   8   2 2178.77 570.868  10
  -6   8   2 2220.94 417.212   8
   6   8  -2 2038.93 598.432   3
   6   8  -2 1703.63 589.515   1
  -6   8   1 914.488 474.441  10
   6   8   0 1392.62 505.108  11
  -6   8   0 646.922 422.252  10
   6   8   0 1532.76 569.999   1
   6   8   0 1696.20 570.885   3
   6   8   1 2821.81 625.428  11
  -6   8  -1 1843.86 536.719  10
   6   8   1 2740.23 668.088   1
   6   8   2 280.082 466.604   3
   6   8   2 1637.69 587.519   1
   6   8   3 4949.37 835.886   3
  -6   8  -4 1355.47 541.114  10
   6   8   4 1408.78 548.434   3
  -6   8  -5 8867.74 1103.93  10
   6   8   5 6170.39 932.557   1
   6   8   6 5169.08 820.512   4
  -6   8  -6 4763.10 853.818  10
   6   8   7 4231.52 851.378   1
   6   8   7 4563.70 787.702   4
  -6   8  -7 4541.35 846.146  10
   6   8   7 4164.17 762.406   3
  -6   8  -8 2453.11 750.676   3
   6   8   8 1899.13 537.798   4
  -6   8  -8 1775.55 618.487  10
   6   8   8 1780.02 613.950   3
   6   8   8 1796.57 640.624   1
  -6   8  -9 8733.59 1172.94  10
   6   8   9 8466.07 1094.57   6
   6   8   9 6314.59 1003.61   1
  -6   9  12 1008.71 528.894   8
   6   9 -11 31313.1 2108.82   1
   6   9 -11 28615.3 2209.83   3
   6   9 -11 32736.0 2143.21  11
   6   9 -10 642.209 494.894   1
   6   9 -10-5.89273 443.644   3
  -6   9   9 18666.6 1479.00   8
   6   9  -9 21137.0 1685.32  11
   6   9  -8 1949.14 662.089  11
   6   9  -8 2249.79 697.537   3
  -6   9   7 36195.6 1930.47  10
   6   9  -7 36128.6 2244.04   3
   6   9  -6 1154.33 551.301  11
  -6   9   6 378.002 400.250  10
  -6   9   6 308.492 334.522   8
   6   9  -6 933.044 524.030   1
  -6   9   5 34952.6 1927.93  10
  -6   9   5 30379.4 1600.28   8
   6   9  -5 34060.4 2023.34   1
   6   9  -4 1840.93 612.717  11
   6   9  -4 1507.16 592.554   1
  -6   9   4 1785.86 570.106  10
   6   9  -4 1285.94 521.415   3
   6   9  -3 25781.3 1745.79   1
   6   9  -3 24829.3 1748.69   3
   6   9  -2 4259.68 825.039   3
   6   9  -2 2686.48 700.489   1
  -6   9   1 30593.8 1875.09  10
   6   9  -1 31381.2 1916.87   1
   6   9  -1 34826.6 1991.81   3
   6   9  -1 28771.6 1760.45  11
   6   9   0 953.217 501.683  11
   6   9   0 1655.21 604.203   1
  -6   9   0 1761.32 584.127  10
  -6   9  -1 25708.9 1763.03  10
   6   9   1 26118.7 1653.98  11
   6   9   2 1260.05 511.644   3
   6   9   2-397.171 473.778   1
   6   9   3 30339.4 1931.22   1
   6   9   3 27100.1 1727.17   3
   6   9   3 26325.6 1628.82  11
   6   9   4 1608.59 551.836  11
  -6   9  -4 1616.98 600.503  10
   6   9   4 376.153 514.248   1
  -6   9  -5 28417.3 1965.72  10
  -6   9  -5 27505.1 1883.82   3
   6   9   5 27812.1 1748.20   4
   6   9   5 26247.5 1849.60   1
   6   9   6 1469.91 501.419   4
   6   9   6 204.261 466.404   1
  -6   9  -6 659.821 493.773  10
   6   9   6 1037.67 500.998   3
  -6   9  -7 25527.8 1915.18  10
  -6   9  -7 24798.4 1923.47   3
  -6   9  -8-298.582 435.338   3
  -6   9  -8 305.601 447.724  10
  -6  10  11-486.409 459.807   8
   6  10 -10 38.4998 463.024  11
   6  10 -10-288.796 530.142   3
  -6  10  10 328.766 376.422   8
   6  10 -10 76.4614 490.914   1
   6  10  -9-619.194 601.021   3
  -6  10   9-295.804 367.717   8
   6  10  -8 138.653 502.536  11
   6  10  -8-354.187 490.437   3
   6  10  -8 678.015 546.257   1
  -6  10   7 406.290 424.814  10
  -6  10   7 1049.57 439.531   8
   6  10  -7 533.500 557.915   3
   6  10  -7 1341.99 588.955   1
  -6  10   6 108.718 346.824  10
   6  10  -6-63.9967 458.846   1
   6  10  -6 636.661 502.763   3
  -6  10   5 502.446 420.882  10
   6  10  -5 658.317 468.885   3
   6  10  -4 1005.26 562.525  11
  -6  10   4 853.274 471.379  10
   6  10  -4 1416.99 605.131   3
   6  10  -4 1599.70 654.694   1
  -6  10   3 4529.93 816.552  10
   6  10  -3 3047.60 750.338   1
  -6  10   2 2049.48 605.983  10
   6  10  -2 876.674 546.243   1
   6  10  -2 1619.08 576.043   3
   6  10  -1 3846.84 833.827   1
  -6  10   1 3671.24 769.213  10
   6  10   0 781.692 486.554  11
  -6  10   0 2477.39 684.854  10
   6  10   0 2157.21 619.974   3
   6  10   0 2667.97 703.888   1
   6  10   1 3780.87 755.151  11
  -6  10  -1 7208.71 1037.69  10
   6  10   2-388.842 479.444  11
   6  10   2-510.487 496.274   1
  -6  10  -3 4297.40 821.417   3
   6  10   3 5031.98 923.844   1
   6  10   4 202.216 380.697  11
  -6  10  -4-103.461 431.429   3
   6  10   4-3.99791 376.259   3
   6  10   5 5425.12 833.684  11
  -6  10  -5 4914.84 874.900   3
  -6  10  -5 6718.13 1040.35  10
   6  10   5 4173.11 891.379   1
   6  10   5 4631.68 791.369   3
  -6  10  -6 334.131 470.356   3
   6  10   6 1025.44 625.625   1
  -6  10  -6-462.136 536.536  10
   6  10   7 2971.55 837.423   1
  -6  10  -7 5174.27 994.166   3
   6  10   8 2443.25 835.583   1
  -6  11  10 32065.6 2095.05   8
  -6  11   9 5069.46 811.529  10
  -6  11   8 16557.3 1404.17  10
  -6  11   8 13952.8 1315.27   8
   6  11  -8 18927.7 1697.60   1
   6  11  -8 17320.6 1650.63  11
   6  11  -7 13030.4 1460.78   3
  -6  11   6 21719.9 1649.72  10
   6  11  -6 19544.5 1714.27   3
   6  11  -5 6540.50 1045.94   3
   6  11  -5 4856.74 911.979   1
  -6  11   4 25583.5 1796.47  10
   6  11  -4 21311.0 1731.57   1
   6  11  -4 24300.6 1817.31  11
  -6  11   3 13845.0 1371.38  10
   6  11  -3 16320.5 1534.95   1
   6  11  -3 14962.3 1451.40   3
  -6  11   2 17260.7 1530.63  10
   6  11  -2 18215.8 1594.18   1
   6  11  -2 16242.0 1451.05   3
  -6  11   1 10256.0 1225.38  10
   6  11  -1 9876.15 1161.14   3
   6  11   0 18729.8 1631.97   1
  -6  11   0 19874.3 1658.86  10
   6  11   0 18216.1 1515.49   3
   6  11   0 18788.2 1555.63  11
   6  11   1 10986.5 1295.01   1
  -6  11  -1 9429.96 1205.83  10
   6  11   1 11360.8 1192.38   3
   6  11   2 19107.3 1673.45   1
  -6  11  -2 15274.0 1363.81   3
   6  11   2 21237.6 1569.67   3
   6  11   2 17222.9 1468.81  11
  -6  11  -3 4500.95 908.728  10
   6  11   3 5330.14 842.955   3
   6  11   4 7218.95 983.495  11
  -6  11  -4 8039.40 1077.33   3
  -6  11  -4 9503.10 1239.71  10
   6  11   4 7169.79 1174.98   1
  -6  11  -5 11448.9 1316.98   3
   6  11   5 13229.7 1297.25  11
   6  11   6 9256.64 1284.09   1
   6  12  -8 184.653 542.078   3
  -6  12   7-98.0383 386.653  10
   6  12  -6 153.283 525.239   3
   6  12  -5-953.250 624.461   1
   6  12  -5 1071.86 747.922   3
  -6  12   4 1183.58 534.141  10
   6  12  -4 744.333 591.401   3
   6  12  -3 585.313 535.453  11
   6  12  -3 641.036 538.548   1
  -6  12   3 789.241 509.056  10
   6  12  -3 1584.98 657.411   3
   6  12  -2 840.954 599.145  11
  -6  12   2 1399.32 574.015  10
   6  12  -1-170.238 463.054  11
  -6  12   1 476.818 538.358  10
   6  12  -1 225.906 474.194   3
   6  12  -1-19.8206 486.115   1
   6  12   0 1104.62 613.092  11
  -6  12   0 893.856 560.246  10
   6  12   0 1046.49 580.286   3
   6  12   0 2147.60 733.555   1
   6  12   1 657.684 614.543   1
   6  12   1-250.998 498.801   3
  -6  12  -2 3075.20 698.860   3
  -6  12  -2 3878.04 880.896  10
   6  12   2 2155.58 748.110   1
  -6  12  -3 567.031 457.320   3
   6  12   4 4138.28 843.143  11
  -6  12  -4 2577.05 708.414   3
  -6  12  -5 1525.93 604.846   3
  -6  13   7 2103.75 629.335  10
  -6  13   6 17153.6 1564.44  10
  -6  13   5 8581.23 1151.91  10
   6  13  -5 8676.37 1250.59   3
  -6  13   4 28636.3 2035.78  10
   6  13  -4 24649.6 1909.02   3
  -6  13   3 6841.23 1062.14  10
   6  13  -3 4470.02 883.585   3
   6  13  -2 14865.2 1466.61   3
   6  13  -1 6965.64 1014.42   3
   6  13   1 3698.44 877.590  11
  -7 -12   3 1050.02 504.905   4
   7 -12  -2 5677.84 1049.29   2
  -7 -12   2 5035.29 872.675   4
   7 -12  -1 1347.81 662.492   2
  -7 -12   1 1623.45 566.298   4
   7 -12   0 5107.35 968.215   2
  -7 -12   0 4037.12 786.727   4
  -7 -11   6 17699.2 1655.92   4
   7 -11  -6 17473.6 1657.35  12
  -7 -11   5 2616.62 721.018   4
   7 -11  -5 959.753 566.922  12
  -7 -11   4 8729.13 1163.34   4
   7 -11  -4 10705.8 1348.51  12
  -7 -11   3 3403.75 764.495   4
   7 -11  -3 3302.17 828.314  12
   7 -11  -2 11818.2 1330.86  12
   7 -11   0 15377.7 1461.48   2
   7 -11   1 784.621 465.900   4
   7 -11   1 1450.43 643.281   2
   7 -11   2 6994.41 1039.97   4
   7 -10  -9 1264.54 569.976  12
  -7 -10   8 1316.17 607.134   4
   7 -10  -8 213.745 538.817  12
  -7 -10   7 4108.37 872.927   4
   7 -10  -7 3558.66 823.029  12
  -7 -10   6 1798.45 657.221   4
   7 -10  -6 1241.12 617.982  12
   7 -10  -5 4501.57 898.240  12
   7 -10  -4 2250.62 715.227  12
  -7 -10   3 7028.92 1006.11   4
   7 -10  -3 6113.32 814.694   3
   7 -10  -3 6573.65 1030.03  12
   7 -10  -2 507.832 417.635   4
  -7 -10   2 128.951 378.223   4
   7 -10  -2 1437.88 584.712  12
   7 -10  -1 5112.27 853.525   4
  -7 -10   1 4552.85 820.512   4
   7 -10   0 1473.18 530.779   4
  -7 -10   0 1219.18 516.963   4
  -7 -10   0 1723.73 532.766   5
  -7 -10  -1 14582.5 1346.13   4
   7 -10   1 15303.0 1388.76   2
  -7 -10  -2 2822.47 671.360   5
  -7 -10  -3 5021.65 853.136   5
   7 -10   4 1430.74 570.179   4
  -7  -9   9 31230.5 2209.84   4
   7  -9  -9 32524.0 2131.35  12
  -7  -9   8 1234.88 576.240   4
  -7  -9   7 42374.0 2456.55   4
   7  -9  -6 777.429 500.487  12
  -7  -9   5 29102.1 1993.99   4
   7  -9  -5 27221.3 1647.39   4
   7  -9  -5 25720.0 1809.17  12
   7  -9  -5 27443.9 1629.01   3
   7  -9  -4 660.353 406.204   4
  -7  -9   4 755.039 459.761   4
   7  -9  -4 204.287 321.982   3
   7  -9  -4 77.5803 467.594  12
   7  -9  -3 28680.5 1734.17   3
   7  -9  -3 25541.9 1668.50   4
   7  -9  -3 23468.8 1686.09  12
   7  -9  -2-64.9073 333.447   4
  -7  -9   2 1325.63 568.725   4
   7  -9  -2 661.371 427.163   3
   7  -9  -2 187.718 403.019  12
   7  -9  -1 28206.4 1803.52   3
  -7  -9   1 31816.2 1962.84   4
  -7  -9   1 28969.1 1626.92   5
   7  -9  -1 26936.5 1780.61   4
   7  -9   0 522.323 447.111   4
  -7  -9   0 688.641 443.317   4
  -7  -9   0-257.927 296.927   5
  -7  -9  -1 22293.7 1632.22   4
   7  -9   2 2463.06 680.353   4
  -7  -9  -2 3891.98 716.836   5
   7  -9   4 1093.77 570.047   4
   7  -9   5 21445.3 1878.77   4
   7  -8 -11 2035.69 732.315  12
  -7  -8  10 635.663 534.964   4
   7  -8 -10 908.224 597.258  12
  -7  -8   9 3238.09 802.713   4
  -7  -8   8 3135.14 772.024   4
  -7  -8   7 9828.96 1233.10   4
   7  -8  -7 8681.29 941.195   4
   7  -8  -7 8559.25 923.754   3
   7  -8  -6 2135.28 553.154   4
   7  -8  -6 2261.91 560.491   3
   7  -8  -6 1656.22 574.526  12
   7  -8  -5 8421.00 944.840   4
   7  -8  -5 8788.96 980.876   3
  -7  -8   4 2475.96 656.764   4
  -7  -8   3 8609.87 1080.83   4
   7  -8  -3 7802.40 940.455   3
   7  -8  -2 2740.70 625.403   4
  -7  -8   2 3244.43 706.867   4
   7  -8  -2 2366.04 612.235   3
   7  -8  -2 3123.57 687.215  12
   7  -8  -1 6525.72 920.649   4
  -7  -8   1 4499.92 817.307   4
   7  -8  -1 5826.59 894.153   3
   7  -8  -1 6802.37 907.993  12
  -7  -8   0 3499.20 716.797   4
   7  -8   0 5211.29 877.964   3
   7  -8   1 18803.6 1549.37   3
  -7  -8  -1 18791.2 1482.11   4
  -7  -8  -1 21165.1 1386.53   5
   7  -8   1 16768.8 1480.06   4
   7  -8   2 3046.06 735.002   4
  -7  -8  -3 9987.82 1032.90   5
   7  -8   3 12521.1 1361.17   4
  -7  -8  -4 7743.63 979.451   5
   7  -8   4 8433.78 1169.43   4
  -7  -8  -5 15138.2 1312.99   5
   7  -8   6 3976.73 960.963   4
  -7  -8  -6 3231.42 757.253   5
  -7  -8  -7 8611.21 1059.79   5
   7  -7 -12 30856.9 2230.86   7
  -7  -7  10 13711.3 1470.84   4
   7  -7 -10 12915.7 1340.14  12
  -7  -7   9 9771.97 1247.08   4
   7  -7  -9 7538.41 1059.96  12
   7  -7  -9 8856.35 946.075   3
  -7  -7   8 37494.2 2283.86   4
   7  -7  -8 35904.0 2052.35  12
   7  -7  -8 33361.7 1782.77   3
  -7  -7   7 12538.4 1331.60   4
   7  -7  -7 9584.90 985.816   3
  -7  -7   6 22376.5 1719.04   4
   7  -7  -6 23077.5 1527.52   4
   7  -7  -6 24086.9 1626.34  12
  -7  -7   5 14266.4 1367.42   4
   7  -7  -5 10915.3 1112.94  12
   7  -7  -5 11699.7 1112.35   3
  -7  -7   4 18076.7 1513.53   4
   7  -7  -4 16571.6 1324.06   4
   7  -7  -4 18419.4 1393.34  12
   7  -7  -4 17311.3 1364.48   3
  -7  -7   3 15581.1 1393.84   4
   7  -7  -3 13505.5 1188.11  12
   7  -7  -3 13322.6 1219.89   3
  -7  -7   2 17237.4 1086.10   5
   7  -7  -2 16992.6 1389.07   4
   7  -7  -2 17182.9 1314.78  12
  -7  -7   1 17490.6 1438.32   4
   7  -7  -1 14245.0 1308.25   4
   7  -7  -1 16865.3 1287.11  12
   7  -7  -1 15488.6 1355.81   3
  -7  -7   0 41398.4 2164.87   4
  -7  -7   0 42284.9 1758.52   5
   7  -7   0 40886.7 2208.74   4
   7  -7   1 3197.42 719.814   4
  -7  -7  -1 3955.40 742.871   4
  -7  -7  -1 3888.52 638.055   5
   7  -7   1 4017.73 785.817   3
  -7  -7  -2 6894.15 799.408   5
   7  -7   2 5803.94 927.068   3
   7  -7   3 6149.73 987.699   4
   7  -7   3 5376.21 933.417   3
   7  -7   4 17354.0 1613.16   4
  -7  -7  -6 7966.04 1036.66  10
   7  -7   6 5964.95 1066.19   4
  -7  -7  -7 4116.92 751.635  10
  -7  -7  -7 2420.20 681.591   5
  -7  -7  -8 4189.76 781.012   5
  -7  -6  12 11636.5 1413.35   4
  -7  -6  11 377.471 539.098   4
  -7  -6  10 603.633 487.161   4
   7  -6 -10 2468.66 574.675   3
   7  -6  -9 385.232 352.522   3
   7  -6  -8 6341.77 907.127  12
  -7  -6   7 436.273 434.889   4
   7  -6  -7-189.671 392.083  12
   7  -6  -6 8511.49 980.486  12
   7  -6  -6 7793.18 949.367   3
  -7  -6   5 1699.46 569.577   4
   7  -6  -4 11612.0 1137.44   4
   7  -6  -4 11924.1 1094.35  12
   7  -6  -4 12832.8 1194.45   3
   7  -6  -3-18.5735 361.557   4
  -7  -6   3 303.310 410.984   4
   7  -6  -3 622.105 447.882   3
   7  -6  -3-609.550 392.748  12
  -7  -6   2 11884.4 1199.31   4
  -7  -6   2 12363.7 838.720   5
   7  -6  -2 9235.81 1039.43   4
   7  -6  -2 11902.1 1046.46  12
   7  -6  -2 10476.8 1120.50   3
  -7  -6   1 920.032 462.439   4
   7  -6  -1 1471.52 527.578   3
   7  -6  -1 1654.00 499.768  12
  -7  -6   0 19741.1 1498.08   4
  -7  -6   0 21314.8 1152.01   5
   7  -6   1 1133.19 543.119   4
  -7  -6  -1 859.314 468.442   4
   7  -6   1 1422.42 545.003   3
   7  -6   2 11797.4 1257.25   3
   7  -6   2 12771.3 1317.37   4
   7  -6   3 522.178 442.176   4
   7  -6   3 475.433 467.993   3
   7  -6   4 12722.8 1360.20   3
  -7  -6  -5 771.366 454.717  10
  -7  -6  -5 229.893 349.378   5
   7  -6   6 22007.4 1872.19   4
  -7  -6  -7 25.3991 295.246  10
   7  -6   7-370.447 579.127   4
  -7  -6  -8 16896.4 1442.24  10
   7  -5 -14 30394.4 2170.74   7
  -7  -5  13 9259.70 1275.35   4
   7  -5 -13 7847.59 1106.12   7
  -7  -5  12 29500.8 2141.39   4
   7  -5 -12 27303.7 1707.61   3
  -7  -5  11 3862.38 828.858   4
  -7  -5   9 15032.0 1453.90   4
   7  -5  -9 14725.3 1246.95   3
   7  -5  -8 33529.6 1858.18   3
  -7  -5   7 11664.5 1245.95   4
   7  -5  -7 9209.09 1003.72  12
  -7  -5   6 21108.2 1613.74   4
   7  -5  -6 19938.4 1449.96   3
  -7  -5   5 19930.0 1551.19   4
   7  -5  -5 17767.6 1253.48  12
   7  -5  -5 17806.5 1384.88   3
   7  -5  -4 16685.3 1204.96  12
   7  -5  -4 16816.8 1347.30   3
  -7  -5   3 22812.3 1616.04   4
  -7  -5   2 24303.0 1649.76   4
   7  -5  -2 24457.6 1384.33  12
  -7  -5   1 11490.5 1159.50   4
  -7  -5   1 12761.4 793.703   5
  -7  -5   0 25034.9 1663.46   4
   7  -5   0 26043.2 1747.05   3
  -7  -5  -1 9130.84 1041.58   4
   7  -5   1 10309.7 1148.03   3
  -7  -5  -2 4730.60 575.150   5
   7  -5   2 5183.34 855.575   3
  -7  -5  -3 7566.82 754.283   5
  -7  -5  -4 18646.1 1484.25  10
  -7  -5  -4 18139.3 1190.20   5
  -7  -5  -5 6165.06 905.540  10
  -7  -5  -5 6830.05 806.280   5
  -7  -5  -7 3808.03 739.832  10
   7  -5   7 4483.20 919.677   4
  -7  -5  -8 7565.03 981.992  10
   7  -5   8 7022.14 1155.04   4
  -7  -5  -9 2024.10 580.599  10
   7  -4 -15 1102.02 597.720   7
  -7  -4  14-735.250 493.521   4
   7  -4 -14-793.417 526.934   7
  -7  -4  13 3078.35 820.650   4
  -7  -4  12 972.120 554.759   4
   7  -4 -12 739.185 395.298   3
  -7  -4  11 7823.95 1124.26   4
   7  -4 -11 7419.22 946.059   3
   7  -4 -10 1089.89 455.431   3
  -7  -4   9 7036.16 1016.79   4
   7  -4  -9 6827.94 908.480   3
  -7  -4   7 12860.0 1278.49   4
   7  -4  -7 12504.4 1080.62  12
   7  -4  -7 10231.8 1082.87   3
   7  -4  -5 10147.4 923.613  12
  -7  -4   4 1023.19 455.069   4
  -7  -4   3 17043.1 1397.05   4
   7  -4  -2 1602.60 526.422   3
  -7  -4   1 13784.5 1247.68   4
   7  -4  -1 12851.0 1224.97   4
   7  -4  -1 12812.2 1239.95   3
   7  -4   0 5235.46 856.886   4
  -7  -4   0 4743.20 775.024   4
   7  -4   0 5133.32 854.764   3
  -7  -4   0 5869.31 519.852   5
  -7  -4  -1 29898.1 1798.75   4
  -7  -4  -1 30167.9 1204.49   5
   7  -4   1 29120.6 1871.91   4
   7  -4   1 29688.3 1893.81   3
  -7  -4  -2 857.735 418.997  10
  -7  -4  -2 217.464 231.317   5
  -7  -4  -3 16521.9 1368.89  10
   7  -4   4 5105.20 879.659   4
  -7  -4  -4 4521.06 789.622  10
   7  -4   4 4689.03 876.029   3
   7  -4   5 18830.0 1660.28   3
  -7  -4  -5 17186.1 1424.38  10
   7  -4   5 17789.7 1606.56   4
  -7  -4  -6 5799.64 876.504  10
   7  -4   6 5285.79 970.805   4
   7  -4   6 6113.93 1041.43   3
  -7  -4  -7 16138.1 1415.09  10
   7  -4   7 14324.6 1534.57   4
  -7  -4  -8 2266.31 581.825  10
   7  -4   8 2230.15 764.541   4
  -7  -4  -9 14927.2 1327.61  10
   7  -3 -16-435.731 456.668   7
   7  -3 -15 27556.1 1997.21   7
  -7  -3  14 71.8870 368.119   4
   7  -3 -14-401.920 357.217   3
  -7  -3  13 29847.4 2098.23   4
   7  -3 -12 492.119 396.425   3
  -7  -3  11 32375.7 2100.45   4
  -7  -3  10 4003.61 806.325   4
  -7  -3   9 50881.1 2523.06   4
   7  -3  -9 49380.2 2314.85   3
  -7  -3   8 677.534 441.218   4
   7  -3  -8 555.877 469.364   3
  -7  -3   7 46287.2 2318.40   4
   7  -3  -7 46440.9 2229.20   3
   7  -3  -7 48596.9 1964.14  12
  -7  -3   6 1178.65 495.952   4
   7  -3  -6 1615.97 433.364  12
  -7  -3   5 35178.7 1987.36   4
   7  -3  -5 35512.6 1553.39  12
  -7  -3   4 2692.96 608.750   4
   7  -3  -4 2540.61 466.567  12
   7  -3  -3 42363.2 1600.89  12
   7  -3  -3 36057.8 1974.92   3
  -7  -3   2 392.403 385.341   4
   7  -3  -2-205.183 255.693  12
  -7  -3   1 46445.4 2207.71   4
   7  -3  -1 39969.6 2112.05   3
  -7  -3   0 3748.28 708.332   4
  -7  -3  -1 32516.9 1860.70  10
   7  -3   1 32949.3 1984.78   4
   7  -3   1 31539.1 1936.77   3
   7  -3   2 1157.15 526.761   4
  -7  -3  -2 1387.88 508.895  10
  -7  -3  -3 38345.1 2032.03  10
   7  -3   3 35437.6 2122.07   3
   7  -3   4 1987.25 652.348   4
  -7  -3  -4 1321.90 488.937  10
   7  -3   4 1662.18 611.322   3
   7  -3   5 23640.8 1808.99   3
   7  -3   5 25133.3 1879.54   4
  -7  -3  -6 1871.30 567.432  10
  -7  -3  -7 10280.4 1120.16  10
   7  -3   8 2764.69 793.818   4
   7  -3   9 12230.1 1473.76   4
  -7  -2  15 2116.68 709.746   4
   7  -2 -15 1879.38 625.624   3
  -7  -2  14 2234.53 672.548   4
  -7  -2  13 2061.09 547.292  10
  -7  -2  13 2489.21 715.939   4
   7  -2 -13 1230.54 525.433   3
  -7  -2  12 1909.46 636.583   4
   7  -2 -12 228.680 440.447   3
  -7  -2  11 2123.09 560.134  10
  -7  -2  11 2026.56 619.774   4
   7  -2 -11 733.448 462.027   3
   7  -2 -10 773.711 476.015   3
   7  -2  -9 3176.11 675.476   3
  -7  -2   8 5430.13 858.751   4
  -7  -2   7 7354.34 953.148   4
   7  -2  -7 5941.41 882.275   3
  -7  -2   6 4715.20 783.832   4
   7  -2  -6 5018.91 827.113   3
  -7  -2   5 9569.49 1066.39   4
   7  -2  -5 8053.19 991.801   3
   7  -2  -5 7979.58 728.989  12
  -7  -2   4 3029.54 649.450   4
   7  -2  -4 3536.00 721.058   3
   7  -2  -4 4681.28 545.699  12
  -7  -2   3 15533.2 1258.98  10
   7  -2  -3 15670.7 912.908  12
   7  -2  -3 14290.8 1286.00   3
  -7  -2   2 4345.92 727.950  10
  -7  -2   2 4218.95 735.161   4
   7  -2  -2 3329.91 695.771   3
  -7  -2   1 17775.9 1359.02  10
  -7  -2   1 18079.6 1389.52   4
   7  -2  -1 16725.1 1402.15   3
  -7  -2   0 3404.55 651.693  10
  -7  -2  -1 12761.5 1185.29  10
   7  -2   1 10936.7 1180.79   4
   7  -2   1 11086.1 1195.62   3
  -7  -2  -2 7012.66 914.152  10
  -7  -2  -3 15070.9 1299.64  10
   7  -2   3 15293.4 1423.24   4
   7  -2   3 14845.3 1404.42   3
  -7  -2  -5 13841.5 1256.91  10
   7  -2   5 12856.0 1359.33   4
   7  -2   5 16352.6 1510.81   3
   7  -2   6 12143.3 1363.71   3
  -7  -2  -6 11545.7 1164.32  10
   7  -2   6 9956.82 1230.66   4
  -7  -2  -7 20157.3 1506.13  10
   7  -2   8 7376.51 1132.35   4
  -7  -2  -8 4649.19 776.407  10
   7  -2   9 13767.3 1213.19   6
   7  -2   9 13215.4 1530.71   4
   7  -1 -16 33780.5 2245.17   3
  -7  -1  15 7250.17 1093.33   4
  -7  -1  14 22304.0 1775.76   4
  -7  -1  13 8103.26 891.843  10
  -7  -1  13 6820.30 1016.38   4
   7  -1 -13 6752.61 1004.79   3
  -7  -1  12 24730.0 1804.58   4
   7  -1 -12 23593.3 1770.41   3
  -7  -1  11 15888.2 1432.38   4
  -7  -1  11 15565.2 1226.90  10
   7  -1 -11 13791.7 1337.05   3
  -7  -1  10 35486.1 1833.69  10
   7  -1 -10 33725.6 2017.84   3
  -7  -1   9 5426.44 777.517  10
   7  -1  -9 6340.52 930.076   3
  -7  -1   8 23444.2 1645.82   4
   7  -1  -8 21041.7 1566.70   3
  -7  -1   7 5899.51 810.348  10
  -7  -1   7 5467.18 818.523   4
   7  -1  -7 5836.24 890.049   3
  -7  -1   6 19936.9 1404.17  10
  -7  -1   6 19853.8 1481.00   4
   7  -1  -6 21162.1 1124.02  12
  -7  -1   5 3704.47 698.348   4
  -7  -1   4 27113.3 1630.77  10
  -7  -1   4 28731.9 1732.24   4
   7  -1  -4 28008.0 1761.92   3
  -7  -1   3 15505.7 1245.42  10
  -7  -1   3 14597.6 1244.05   4
   7  -1  -3 15029.8 1329.11   3
   7  -1  -3 17033.9 854.227  12
  -7  -1   2 12170.8 1127.81  10
  -7  -1   2 12406.2 1154.69   4
  -7  -1   1 10793.5 1068.68  10
  -7  -1   1 11230.4 1105.39   4
   7  -1  -1 9914.47 1120.40   3
   7  -1   0 13300.7 888.900   1
  -7  -1  -1 3911.44 706.476  10
   7  -1   1 2922.82 695.340   3
  -7  -1  -2 21962.0 1519.74  10
   7  -1   2 19616.6 1554.23   4
   7  -1   2 19741.9 1575.32   3
  -7  -1  -3 5010.67 788.275  10
   7  -1   3 4972.69 495.039   6
   7  -1   4 11215.2 785.569   6
   7  -1   4 11387.0 1243.13   4
   7  -1   4 10798.0 1221.55   3
  -7  -1  -5 7452.58 950.660  10
   7  -1   6 15688.0 1512.93   3
   7  -1   6 20719.0 1727.38   4
   7  -1   7 4946.62 928.262   3
   7  -1   8 15107.5 1544.34   3
   7  -1   8 12717.5 1448.86   4
  -7  -1  -9 6583.48 917.822  10
  -7  -1 -10 4643.38 798.169  10
   7   0 -16-574.925 529.945   3
  -7   0  15-180.439 450.431   4
   7   0 -15-165.978 451.904   3
  -7   0  14 189.879 427.705   4
   7   0 -14 136.222 439.799   3
  -7   0  13-231.712 406.259   4
   7   0 -13 338.199 487.904   3
  -7   0  12 4278.26 805.285   4
  -7   0  11 376.439 283.601  10
  -7   0  11 1237.57 550.896   4
  -7   0  10 4756.34 714.167  10
  -7   0  10 3621.65 745.436   4
   7   0 -10 4161.71 798.687   3
  -7   0   9 391.893 355.470  10
  -7   0   9 72.3682 354.366   4
   7   0  -9 185.552 407.430   3
  -7   0   8 4168.36 688.792  10
  -7   0   8 5857.77 870.442   4
   7   0  -8 3701.30 763.895   3
  -7   0   7-103.562 327.417  10
  -7   0   7 311.780 395.689   4
   7   0  -7 416.607 377.027   3
  -7   0   6 11611.5 1087.36  10
  -7   0   6 12425.1 1166.31   4
   7   0  -6 13204.7 1258.43   3
   7   0  -6 13066.6 835.639  12
  -7   0   5-437.806 378.734  10
  -7   0   5 104.541 313.513   4
   7   0  -5-88.6114 374.444   3
  -7   0   4 2994.24 600.639  10
  -7   0   4 3444.28 664.681   4
   7   0  -4 3161.01 710.598   3
  -7   0   3 1375.09 476.653  10
  -7   0   3 1422.88 490.899   4
   7   0  -3 313.927 438.036   3
  -7   0   2 9023.43 969.594  10
  -7   0   2 8797.75 976.377   4
   7   0  -2 8923.61 1050.59   3
  -7   0   1-121.810 298.829   4
   7   0  -1-19.7818 350.283   3
  -7   0   0 26313.6 1626.68  10
   7   0   0 26290.0 1757.80   3
   7   0   1-394.841 281.131   1
  -7   0  -2 15621.9 1303.19  10
   7   0   2 16921.4 990.382   1
   7   0   3 705.442 424.570   4
  -7   0  -3 116.703 343.459  10
   7   0   3 757.112 490.370   3
  -7   0  -4 12787.5 1202.09  10
   7   0   4 12535.1 822.905   6
   7   0   4 11950.7 1281.37   4
   7   0   4 12348.9 1301.57   3
  -7   0  -5 850.474 440.034  10
   7   0   6 22920.9 1291.45   6
   7   0   6 23113.2 1810.54   4
   7   0   6 23154.2 1809.59   3
   7   0   7 89.5639 436.361   4
  -7   0  -7 66.6567 370.108  10
   7   0   7-141.297 287.927   6
   7   0   7 893.288 547.628   3
  -7   0  -8 14398.9 1318.02  10
   7   0   9 37.1372 439.007   4
  -7   0 -10 14032.0 1330.92  10
  -7   1  16 37514.5 2263.20   4
   7   1 -15 5677.29 1006.40   3
   7   1 -14 21899.9 1838.66   3
  -7   1  13 7752.26 1020.55   4
  -7   1  13 8905.36 913.322  10
   7   1 -13 6718.16 1050.01   3
  -7   1  12 25735.8 1768.16   4
  -7   1  12 24989.8 1503.11  10
   7   1 -12 24826.5 1884.74   3
  -7   1  11 14843.4 1336.14   4
   7   1 -11 13919.4 1402.04   3
  -7   1  10 34252.9 1767.12  10
  -7   1  10 37645.4 2041.07   4
  -7   1   9 5655.77 766.409  10
  -7   1   9 7053.45 893.531   4
  -7   1   8 22182.1 1551.96   4
   7   1  -8 20769.7 1621.69   3
  -7   1   7 5794.58 832.946   4
  -7   1   7 4680.19 730.951  10
  -7   1   6 20670.3 1406.47  10
   7   1  -6 22888.2 1664.75   3
  -7   1   5 4806.36 736.218  10
   7   1  -5 6265.01 906.524   3
  -7   1   4 25372.6 1592.67   4
   7   1  -4 25752.2 1735.22   3
   7   1  -4 28441.0 881.609  12
  -7   1   3 15303.5 1240.82  10
  -7   1   3 17014.7 1325.20   4
   7   1  -3 14412.8 1314.18   3
  -7   1   2 13273.3 1163.70  10
   7   1  -2 11747.6 1196.16   3
  -7   1   1 10501.6 1057.14  10
   7   1  -1 10629.3 1164.62   3
  -7   1   0 13179.3 1182.81  10
   7   1   0 10954.0 900.063   1
  -7   1  -1 3663.83 668.955  10
   7   1   1 3276.40 713.931   3
   7   1   2 23676.0 1238.41   1
   7   1   2 20177.4 1582.62   3
  -7   1  -3 6356.12 868.112  10
   7   1   3 4492.78 838.697   3
   7   1   3 6837.34 987.808   4
   7   1   4 10161.8 743.091   6
   7   1   4 9201.02 1131.07   4
   7   1   4 10369.2 1215.77   3
  -7   1  -5 8137.84 986.319  10
   7   1   5 7991.84 1081.06   4
   7   1   5 8995.91 1128.96   3
  -7   1  -6 17355.7 1420.87  10
   7   1   6 18676.0 1178.54   6
   7   1   7 5777.00 978.455   4
  -7   1  -7 4923.20 827.650  10
   7   1   8 14445.1 1518.67   3
  -7   1  -8 13506.8 1286.93  10
   7   1   8 11863.3 1077.32   6
   7   1   8 15664.6 1562.81   4
   7   1   9 6577.46 1089.13   4
  -7   1  -9 5550.47 894.300  10
   7   1  10 5097.66 999.119   4
  -7   2  15 1394.62 551.077   4
   7   2 -15 1716.36 708.992   3
  -7   2  14 1644.60 634.073   8
   7   2 -14 858.836 585.761   3
  -7   2  13 1566.31 579.913   8
  -7   2  13 1345.92 514.549   4
   7   2 -13 1028.01 592.633   3
  -7   2  12 744.948 371.569  10
  -7   2  12 1818.15 561.744   4
   7   2 -12 1037.37 548.313   3
  -7   2  11 1633.95 476.939  10
  -7   2  11 1937.56 575.596   8
  -7   2  11 1846.17 552.737   4
   7   2 -11 2807.08 739.855   3
  -7   2  10 553.111 440.565   4
  -7   2   9 3235.54 618.490  10
  -7   2   9 3132.07 660.873   4
   7   2  -8 3295.49 749.343   3
  -7   2   7 7558.50 880.874  10
  -7   2   7 7762.31 926.133   4
   7   2  -7 7527.05 1037.43   3
  -7   2   6 5573.83 781.396  10
  -7   2   6 5514.37 791.567   4
   7   2  -6 5364.93 891.636   3
  -7   2   5 8513.01 947.353  10
  -7   2   5 9593.20 1001.85   4
   7   2  -5 7311.65 987.849   3
  -7   2   4 3395.83 662.108  10
  -7   2   4 3016.45 629.854   4
   7   2  -4 4620.92 801.388   3
  -7   2   3 15529.3 1253.55  10
  -7   2   3 16667.5 1297.83   4
   7   2  -2 5034.70 852.677   3
   7   2  -2 4036.81 641.135   1
   7   2  -1 17982.3 1194.19   1
   7   2  -1 17406.7 1444.20   3
  -7   2   0 5090.16 772.753  10
  -7   2  -1 12268.5 1156.60  10
   7   2   1 12342.7 1252.85   3
  -7   2  -2 5543.79 823.721  10
   7   2   2 6074.25 701.135   1
   7   2   2 5333.04 876.229   3
   7   2   3 15872.5 1075.74   1
   7   2   3 16512.2 1454.31   3
   7   2   4 4182.55 807.482   4
   7   2   4 4368.72 611.642   1
   7   2   4 4460.35 848.316   3
  -7   2  -5 15146.0 1323.43  10
   7   2   5 14843.2 994.665   6
   7   2   5 14412.7 1405.88   4
   7   2   5 15794.8 1483.10   3
  -7   2  -6 10722.5 1143.34  10
   7   2   6 12305.4 984.335   6
   7   2   6 11629.3 1303.63   4
   7   2   6 9402.71 1215.11   3
  -7   2  -7 19379.5 1520.31  10
   7   2   7 18499.7 1649.28   4
   7   2   7 22887.3 1811.26   3
   7   2   8 5464.96 971.555   4
   7   2   8 5781.69 1015.09   3
  -7   2 -10 4332.40 788.067  10
  -7   3  15 29436.0 1868.35   4
  -7   3  14-678.883 478.091   4
   7   3 -14-416.193 504.072   3
  -7   3  13 29630.8 1995.68   8
   7   3 -13 28625.5 2150.04   3
  -7   3  12-175.314 339.735   4
  -7   3  11 31801.8 1939.61   8
   7   3 -11 27080.5 2004.01   3
  -7   3  10 2956.24 592.254  10
   7   3 -10 3094.72 780.478   3
  -7   3   9 50289.6 2130.15  10
  -7   3   9 48554.3 2191.94   4
  -7   3   9 51014.6 2284.28   8
   7   3  -9 49442.7 2590.86   3
  -7   3   8 846.872 426.228  10
  -7   3   8 1130.58 440.468   8
  -7   3   8-8.51580 333.022   4
   7   3  -8 1097.85 545.122   3
  -7   3   7 49519.6 2176.69   4
   7   3  -7 50556.8 2532.50   3
  -7   3   6 1726.08 491.091  10
   7   3  -6 991.001 511.316   3
  -7   3   5 33420.3 1789.16  10
   7   3  -5 34208.3 2044.49   3
  -7   3   4 1560.34 498.821  10
   7   3  -4 2301.18 641.088   3
  -7   3   3 39736.8 1969.89  10
   7   3  -3 41154.5 1904.67   1
   7   3  -2 600.975 484.095   3
  -7   3   1 44380.2 2113.60  10
   7   3  -1 43459.0 1903.01   1
   7   3  -1 44766.5 2286.39   3
   7   3   0 3374.54 727.607   3
   7   3   0 2521.05 550.482   1
   7   3   2 1844.02 445.387  11
  -7   3  -2 1267.41 507.941  10
  -7   3  -3 38336.8 2035.99  10
   7   3   4 1816.05 411.945  11
   7   3   4 1138.26 545.947   4
  -7   3  -4 1080.00 491.955  10
   7   3   4 895.688 501.085   3
  -7   3  -5 23075.2 1636.52  10
   7   3   5 24646.6 1815.02   4
   7   3   5 25719.4 1848.65   3
   7   3   6 2178.76 643.111   4
  -7   3  -6 1305.90 541.149  10
   7   3   6 1768.71 673.321   3
   7   3   7 9643.17 1218.67   4
   7   3   7 10902.9 1274.28   3
   7   3   8 1085.95 589.053   4
  -7   3  -8 700.267 448.936  10
   7   3   8 1360.94 624.627   3
   7   3   9 11508.7 1356.01   3
  -7   3  -9 13796.1 1338.47  10
   7   3   9 12845.5 1431.13   4
  -7   3 -10 1581.98 549.926  10
  -7   4  14 608.782 482.692   8
   7   4 -14 520.100 564.022   3
  -7   4  13 4587.55 848.815   8
   7   4 -13 2556.00 809.336   3
  -7   4  12-236.221 330.320   4
   7   4 -12-359.659 462.101   3
  -7   4  11 7034.12 830.230  10
  -7   4  11 7042.55 897.227   4
  -7   4  11 7892.50 1013.52   8
   7   4 -11 6462.77 1105.19   3
  -7   4  10 1218.52 533.566   8
  -7   4  10 1369.56 459.099   4
  -7   4   9 5887.44 791.696  10
  -7   4   9 6559.94 883.741   8
  -7   4   9 5615.29 795.310   4
  -7   4   8 1602.69 508.208  10
  -7   4   8 1756.73 525.725   8
  -7   4   7 13110.2 1141.26   4
   7   4  -7 16120.5 1488.14   3
  -7   4   6 4496.70 724.013  10
  -7   4   6 4583.28 684.768   8
  -7   4   5 9592.55 1009.08  10
  -7   4   5 10042.5 1012.01   4
  -7   4   4 1061.33 474.988  10
   7   4  -4 970.979 478.547   1
   7   4  -4 1787.94 586.736   3
  -7   4   3 18045.9 1093.22   8
   7   4  -3 19006.4 1533.96   3
  -7   4   2 2303.14 582.964  10
  -7   4   2 927.398 322.479   8
  -7   4   1 14224.3 1232.28  10
   7   4  -1 14361.9 1173.73   1
   7   4  -1 13620.8 1306.77   3
  -7   4   0 6350.98 861.351  10
   7   4   0 6428.27 942.386   3
  -7   4  -1 29503.5 1784.72  10
   7   4   1 31080.8 1959.49   3
   7   4   1 30604.0 1547.29  11
   7   4   2 1267.26 435.891  11
   7   4   2 1028.34 456.686   1
   7   4   2 388.808 478.924   3
  -7   4  -3 17802.7 1443.84  10
   7   4   3 15598.9 1431.86   3
   7   4   4 3893.00 782.470   4
  -7   4  -4 5009.69 829.632  10
   7   4   4 4240.50 673.940   1
   7   4   4 6203.31 968.860   3
  -7   4  -5 19180.8 1528.13  10
   7   4   5 17257.9 1249.96   1
   7   4   6 6845.88 1029.57   4
   7   4   6 6087.99 806.988   1
  -7   4  -6 6289.70 940.672  10
   7   4   6 5723.53 960.328   3
  -7   4  -7 17275.5 1504.36  10
   7   4   7 14997.8 1490.88   4
   7   4   7 14657.6 1456.65   3
   7   4   8 2167.40 646.554   4
  -7   4  -8 2731.06 703.108  10
   7   4   8 1624.72 666.263   3
   7   4   9 16963.5 1613.98   3
   7   4   9 15847.1 1572.69   4
   7   4  10-882.731 531.571   4
  -7   5  13 10246.5 1233.50   8
   7   5 -13 8135.95 1262.93   3
  -7   5  12 29399.8 1694.74   4
  -7   5  12 30839.3 2009.13   8
   7   5 -12 30630.4 2257.35   3
  -7   5  11 4520.95 708.147  10
  -7   5  11 3492.71 740.366   8
   7   5 -11 4959.60 984.095   3
  -7   5  10 15303.5 1221.68  10
  -7   5  10 17261.9 1429.55   8
   7   5 -10 14281.2 1521.06   3
  -7   5   9 15209.2 1223.98  10
  -7   5   9 14985.3 1292.29   8
   7   5  -9 18329.5 1679.20   3
  -7   5   8 37855.8 1865.00   4
   7   5  -8 37030.8 2281.32   3
  -7   5   7 11183.8 1069.62  10
  -7   5   7 10461.6 1017.94   8
   7   5  -7 9839.97 1214.96   3
  -7   5   6 22374.5 1506.94  10
  -7   5   6 22480.6 1389.83   8
   7   5  -6 23134.4 1755.70   3
  -7   5   5 17574.6 1337.61  10
  -7   5   5 19156.0 1230.20   8
   7   5  -5 20105.3 1491.95   1
   7   5  -5 20139.4 1631.74   3
  -7   5   4 17757.2 1369.00  10
  -7   5   4 17770.2 1141.66   8
   7   5  -4 16898.4 1361.14   1
  -7   5   3 20809.2 1483.92  10
  -7   5   3 22175.7 1202.18   8
   7   5  -3 21317.8 1646.70   3
  -7   5   2 22873.4 1562.72  10
  -7   5   2 26076.9 1222.76   8
   7   5  -2 24781.6 1576.56   1
   7   5  -2 25064.0 1769.74   3
  -7   5   1 13223.7 822.999   8
   7   5  -1 12930.4 1323.31   3
   7   5  -1 13162.1 1114.92  11
   7   5   0 27143.9 1629.70   1
   7   5   0 24099.2 1739.78   3
   7   5   0 24370.0 1471.23  11
   7   5   1 8073.25 1068.70   3
   7   5   1 10320.7 977.182  11
  -7   5  -2 6320.81 899.607  10
   7   5   2 5560.95 930.168   3
  -7   5  -3 8147.96 1033.37  10
   7   5   3 7635.41 1066.50   3
   7   5   3 7249.23 809.328  11
  -7   5  -4 17870.6 1501.21  10
   7   5   4 18377.2 1189.10  11
   7   5   5 5361.69 916.935   4
  -7   5  -5 6414.46 940.765  10
   7   5   5 6923.43 888.194   1
  -7   5  -6 17813.3 1521.75  10
   7   5   6 15015.3 1452.37   4
   7   5   6 14292.0 1436.48   3
   7   5   7 6514.74 1010.64   4
  -7   5  -7 4592.27 812.498  10
   7   5   7 3735.61 844.097   3
   7   5   8 8111.39 1118.54   4
  -7   5  -8 7119.70 1068.69  10
  -7   5  -9 2796.71 709.255  10
   7   5  10 6141.66 1053.91   4
  -7   6  13 585.931 478.732   8
  -7   6  12 11506.4 1270.45   8
   7   6 -12 7880.14 1260.53   3
  -7   6  11 210.351 446.079   8
   7   6 -11 309.472 507.926   3
  -7   6  11 345.201 327.113   4
  -7   6  10 1021.09 393.699   4
  -7   6   9 106.190 373.046  10
  -7   6   9-294.446 382.843   8
  -7   6   9-722.796 365.468   4
  -7   6   8 6749.14 878.319  10
  -7   6   8 5927.97 832.636   8
  -7   6   7 579.980 396.081  10
  -7   6   7 885.513 408.348   8
   7   6  -7 1072.01 588.145   3
  -7   6   6 7661.30 959.286  10
  -7   6   5 1550.35 544.484  10
  -7   6   5 2227.00 504.024   8
   7   6  -5 2156.40 616.256   1
  -7   6   4 13659.9 1234.73  10
  -7   6   4 12017.4 956.807   8
   7   6  -4 11106.1 1159.23   1
  -7   6   3 620.885 430.221  10
  -7   6   3 808.939 311.989   8
   7   6  -3 1031.89 529.586   3
  -7   6   2 12317.2 852.729   8
   7   6  -2 12270.6 1198.67   1
   7   6  -2 11357.2 1243.18   3
  -7   6   1 1286.19 533.734  10
   7   6  -1 1331.33 566.645   3
   7   6  -1 1801.59 586.045   1
  -7   6   0 23363.2 1646.61  10
   7   6   0 20376.7 1495.00   1
   7   6   0 24702.2 1778.63   3
  -7   6  -1 1449.59 536.098  10
   7   6   1 678.172 542.577   3
  -7   6  -2 13518.8 1305.62  10
   7   6   2 12017.1 1173.16   1
   7   6   2 12875.5 1330.59   3
   7   6   2 12505.6 1086.45  11
  -7   6  -3 240.113 411.548  10
   7   6   3 922.178 565.837   3
  -7   6  -4 15254.5 1411.20  10
   7   6   4 14835.6 1118.98  11
   7   6   5 1470.24 541.768   4
   7   6   5 1104.76 564.754   3
   7   6   7 1072.12 512.817   4
   7   6   7-337.383 480.158   3
   7   6   8 18734.4 1673.97   3
  -7   6  -8 20345.2 1709.33  10
   7   6   8 16837.9 1578.36   4
  -7   6  -9-153.945 399.106  10
  -7   7  12 34810.0 2201.03   8
  -7   7  11 5809.23 794.303  10
  -7   7  11 7388.95 1031.60   8
  -7   7  10 16180.7 1279.42  10
   7   7 -10 12974.6 1528.10   3
  -7   7   9 10407.4 1065.33  10
  -7   7   9 8430.05 1022.82   8
   7   7  -9 9230.08 1259.12   3
  -7   7   8 37898.1 1985.94  10
  -7   7   8 36997.6 1974.48   8
   7   7  -8 37379.4 2207.05   1
   7   7  -8 37323.8 2387.67   3
  -7   7   7 9491.60 1051.35  10
  -7   7   7 9145.32 986.230   8
   7   7  -7 10008.7 1161.79  11
  -7   7   6 25864.0 1690.05  10
   7   7  -6 24965.2 1772.60   1
   7   7  -6 27061.2 1982.82   3
  -7   7   5 11432.8 1159.96  10
   7   7  -5 11308.8 1294.23   3
   7   7  -5 12727.5 1254.20  11
  -7   7   4 19491.2 1486.65  10
   7   7  -4 20640.8 1692.62   3
   7   7  -4 19464.9 1495.91  11
  -7   7   3 14038.1 1301.61  10
  -7   7   3 15566.6 1027.86   8
   7   7  -3 13308.7 1371.30   3
   7   7  -3 15252.0 1324.49  11
  -7   7   2 19552.0 1525.57  10
   7   7  -2 18226.6 1475.37   1
   7   7  -2 17233.7 1367.61  11
   7   7  -1 15781.1 1320.19  11
  -7   7   0 40285.0 2197.91  10
   7   7   0 40406.7 2014.28  11
   7   7   1 4448.65 767.567  11
  -7   7  -1 5399.45 882.163  10
  -7   7  -2 7585.08 1035.67  10
  -7   7  -3 8042.57 1065.99  10
   7   7   3 6474.86 953.031   1
   7   7   3 7283.48 1049.99   3
  -7   7  -4 16092.9 1489.47  10
   7   7   4 17155.5 1553.79   3
  -7   7  -5 9610.99 1181.76  10
   7   7   5 7532.34 1017.36   1
   7   7   5 8549.20 1111.51   4
   7   7   6 6139.50 980.518   4
  -7   7  -6 6629.29 1037.52  10
   7   7   6 3781.59 852.125   3
   7   7   7 2475.42 659.635   4
  -7   7  -7 2751.98 735.827  10
   7   7   7 2600.46 746.368   3
   7   7   8 5369.11 909.228   4
   7   7   8 5089.02 939.813   3
  -7   8  11 2745.63 720.941   8
  -7   8  10 201.442 313.384  10
   7   8 -10 367.914 564.725   1
  -7   8  10 410.850 469.928   8
   7   8 -10 1092.19 657.898   3
   7   8  -9 3228.30 794.808   1
  -7   8   9 1599.26 554.012   8
   7   8  -9 3129.20 850.139   3
   7   8  -8 3464.42 818.718  11
   7   8  -8 1437.55 671.587   1
  -7   8   8 2055.49 591.500  10
  -7   8   8 2012.88 573.661   8
   7   8  -8 2901.30 819.249   3
  -7   8   7 10574.2 1127.32  10
   7   8  -7 9453.23 1191.44   1
   7   8  -7 10348.9 1324.81   3
   7   8  -7 9215.79 1168.73  11
   7   8  -6 1822.78 648.969   1
   7   8  -6 2972.16 742.286  11
  -7   8   6 2267.39 625.550  10
   7   8  -5 8626.99 1132.67   1
   7   8  -5 7684.91 1116.73   3
   7   8  -5 9808.63 1158.69  11
  -7   8   4 3446.85 747.451  10
   7   8  -4 2197.55 688.784   3
  -7   8   3 8178.20 1054.97  10
   7   8  -3 10213.8 1227.99   3
   7   8  -3 9510.48 1130.59  11
   7   8  -2 3755.37 786.046  11
   7   8  -2 4262.28 841.394   3
   7   8  -2 2877.82 713.191   1
  -7   8   1 6102.19 934.810  10
   7   8  -1 6002.08 940.305   1
   7   8  -1 8348.13 1117.50   3
   7   8  -1 7329.36 963.794  11
   7   8   0 4683.70 823.324  11
   7   8   0 4800.93 867.646   1
   7   8   0 4153.84 855.741   3
  -7   8  -1 17778.5 1543.92  10
   7   8   1 18247.8 1416.64  11
   7   8   2 1739.70 594.303  11
  -7   8  -2 3282.68 778.309  10
   7   8   2 2202.76 703.549   3
   7   8   3 12071.0 1135.66  11
   7   8   4 7215.51 1056.83   3
   7   8   4 9744.34 1006.13  11
  -7   8  -5 18380.8 1656.13  10
   7   8   5 14598.1 1436.34   1
   7   8   6 3041.28 756.722   4
   7   8   6 2911.88 777.594   1
  -7   8  -6 3968.86 838.594  10
   7   8   6 4023.51 837.587   3
   7   8   7 8464.73 1158.35   3
   7   8   7 10630.8 1251.62   4
  -7   9  11 9787.86 1208.52   8
  -7   9  10 2681.32 641.067  10
  -7   9  10 2099.55 616.705   8
  -7   9   9 29739.9 1910.17   8
   7   9  -9 33559.0 2395.87   3
   7   9  -8 2067.40 729.599  11
  -7   9   8 1099.15 529.090  10
  -7   9   8 974.560 495.554   8
   7   9  -8 2192.41 737.173   3
  -7   9   7 38081.8 1994.95   8
   7   9  -7 40850.2 2532.69   3
   7   9  -7 40237.0 2346.10  11
   7   9  -6 3315.99 823.061  11
  -7   9   6 1127.51 528.705  10
  -7   9   5 28250.9 1882.33  10
   7   9  -5 28858.7 1980.52   1
   7   9  -5 30727.1 2138.87   3
   7   9  -5 31036.1 2028.50  11
  -7   9   4 528.028 483.444  10
   7   9  -4 630.814 496.565   3
  -7   9   3 30337.4 1968.88  10
   7   9  -3 29244.2 1923.61  11
   7   9  -2 133.765 458.929  11
  -7   9   2 650.337 468.826  10
   7   9  -2 1061.91 606.441   3
  -7   9   1 31914.6 2066.01  10
   7   9  -1 32785.5 2118.07   3
   7   9  -1 29860.3 1888.54  11
   7   9   0 1963.16 702.068   1
   7   9   0 185.651 488.462  11
   7   9   0 869.134 585.264   3
  -7   9  -1 24278.5 1843.01  10
   7   9   1 23292.6 1783.03   3
   7   9   2 1654.15 587.483  11
  -7   9  -2 2801.42 757.855  10
   7   9   2 1161.57 569.415   3
   7   9   2 2268.25 703.645   1
  -7   9  -3 24303.6 1906.96  10
   7   9   3 22469.1 1772.44   1
   7   9   4 547.316 555.379   1
   7   9   4-55.9273 482.129   3
   7   9   5 18906.6 1586.11   4
   7   9   5 15506.5 1555.87   1
   7   9   5 19602.6 1639.04   3
   7   9   6 1332.88 680.474   1
   7   9   7 8034.52 1203.30   1
  -7  10  10-499.608 448.128   8
  -7  10   9 2174.23 622.574  10
  -7  10   9 1398.72 601.453   8
  -7  10   8 797.742 446.800   8
   7  10  -8 1998.52 789.784   3
  -7  10   7 3546.40 775.024  10
   7  10  -7 4326.96 982.431   3
   7  10  -6 2491.49 779.017  11
   7  10  -6 917.019 591.757   1
  -7  10   6 614.505 531.296  10
   7  10  -6 2195.39 740.084   3
   7  10  -5 6779.45 1086.49  11
   7  10  -5 4724.61 951.096   1
  -7  10   4 2880.75 740.713  10
   7  10  -3 6504.39 1034.71  11
  -7  10   3 7566.29 1074.82  10
   7  10  -3 9071.94 1208.20   1
   7  10  -3 6559.96 1055.52   3
   7  10  -2-158.169 525.575  11
  -7  10   2 965.319 521.549  10
   7  10  -2 1080.16 598.379   1
   7  10  -1 5957.71 974.299  11
   7  10  -1 5681.45 1004.58   1
  -7  10   1 5901.21 987.345  10
   7  10  -1 5674.86 1008.39   3
   7  10   0 1834.93 706.632   3
   7  10   0 1065.51 624.160   1
  -7  10  -1 14316.7 1503.86  10
   7  10   1 13991.4 1438.58   3
   7  10   1 14368.7 1365.18  11
  -7  10  -2 2768.77 780.727  10
   7  10   2 1019.54 611.452   1
   7  10   3 5478.60 901.429  11
   7  10   3 6191.56 1013.19   3
   7  10   4 1415.76 673.676   1
   7  10   5 5741.23 1065.72   1
  -7  11   8 8166.99 1105.37  10
   7  11  -6 16477.3 1691.53   3
  -7  11   5 900.883 540.877  10
   7  11  -5 641.462 515.153   3
   7  11  -4 11196.1 1391.93   3
   7  11  -4 10461.1 1317.48  11
   7  11  -3 1810.08 722.139  11
  -7  11   3 4302.45 911.429  10
   7  11  -3 3937.77 907.298   3
  -7  11   2 12691.8 1426.92  10
   7  11  -1 5224.97 952.695  11
   7  11   0 18822.3 1612.36  11
   7  11   1 3078.07 768.491  11
  -7  11  -2 9356.40 1165.05   3
   7  11   2 10654.1 1251.67   3
   7  11   3 2588.52 695.903  11
   7  12  -3 1796.08 662.830   3
   7  12  -1 932.218 585.019   3
   8 -10  -5 4421.61 952.783  12
   8 -10  -4 1914.21 695.790  12
   8 -10  -3 10557.3 1282.38  12
   8 -10   0 1394.29 609.179   4
   8  -9  -8-978.406 690.854  12
   8  -9  -7 15584.3 1512.44  12
   8  -9  -6 546.543 547.655  12
   8  -9  -5 13460.0 1394.47  12
   8  -9  -4 1586.60 588.984   4
  -8  -9   4 340.382 427.573   4
   8  -9  -4 1413.14 636.742  12
   8  -9  -3 4791.09 845.362   4
  -8  -9   3 6015.30 1016.02   4
   8  -9  -3 5955.77 954.215   3
   8  -9  -3 5039.06 930.323  12
   8  -9  -2 1022.63 522.276   4
   8  -9  -2 950.117 437.049   3
   8  -9  -1 10356.2 1212.64   3
  -8  -9   1 9134.11 1179.64   4
   8  -9  -1 8363.47 1135.45   4
   8  -9   0 628.771 494.111   4
   8  -9   1 7287.32 1105.93   4
   8  -8 -10 2509.53 774.412  12
   8  -8  -9 7707.23 1110.33  12
   8  -8  -8 5835.64 988.941  12
   8  -8  -7 16619.0 1524.57  12
  -8  -8   6 3893.09 873.703   4
   8  -8  -6 2767.82 702.191  12
  -8  -8   4 8147.50 1153.23   4
   8  -8  -4 6412.49 964.904  12
  -8  -8   2 3959.86 800.423   4
   8  -8  -2 3365.61 761.794   3
   8  -8  -1 14715.5 1443.01   3
  -8  -8   1 17616.8 1586.16   4
   8  -8  -1 14069.9 1436.89   4
   8  -8   0 7040.02 1064.94   4
   8  -8   0 6852.45 1091.02   3
   8  -8   1 10863.3 1298.62   3
   8  -8   1 12589.9 1446.14   4
   8  -7 -11 2673.28 801.197  12
  -8  -7   8 10769.8 1329.19   4
   8  -7  -8 12950.5 1253.30   3
  -8  -7   7 6429.86 1042.13   4
   8  -7  -7 4637.87 836.933  12
  -8  -7   6 5210.69 952.894   4
  -8  -7   5 4179.41 840.115   4
   8  -7  -5 4990.00 847.829   3
   8  -7  -5 3712.46 769.246  12
  -8  -7   4 8586.99 1157.70   4
   8  -7  -4 6220.48 949.502   4
   8  -7  -4 6559.45 974.052   3
   8  -7  -3 4719.86 835.456   4
  -8  -7   3 4889.63 910.215   4
   8  -7  -3 4741.77 876.587   3
   8  -7  -3 4319.84 767.996  12
  -8  -7   2 12494.4 1346.76   4
   8  -7  -1 4062.90 829.128   4
  -8  -7   1 5134.93 898.351   4
   8  -7  -1 3949.17 824.987   3
   8  -7   0 2763.49 742.814   4
  -8  -7   0 3664.92 773.922   4
   8  -7   0 2195.97 688.239   3
   8  -7   2 6772.52 1089.97   4
   8  -7   2 7699.51 1172.02   3
   8  -7   3 4891.48 952.926   3
  -8  -7  -4 9631.46 1234.85  10
  -8  -7  -5 3227.03 748.872  10
   8  -6 -11 515.390 501.703  12
  -8  -6   9 482.025 451.440   4
   8  -6  -9-292.349 361.233   3
  -8  -6   8 14151.8 1502.77   4
   8  -6  -8 13632.4 1298.14  12
   8  -6  -8 11975.4 1223.00   3
   8  -6  -7 311.484 395.491   3
   8  -6  -7-358.161 421.026  12
  -8  -6   6 11997.6 1359.99   4
   8  -6  -6 9912.21 1139.91   3
   8  -6  -5 1913.18 588.940   4
   8  -6  -5 477.224 436.277   3
  -8  -6   4 20986.9 1728.86   4
   8  -6  -4 20679.2 1442.91  12
   8  -6  -3 833.374 513.591   4
   8  -6  -3-76.2541 397.417   3
   8  -6  -3-354.404 389.782  12
  -8  -6   2 25512.3 1861.81   4
   8  -6  -1 313.695 459.871   4
  -8  -6   1 796.582 478.420   4
   8  -6  -1 381.465 493.799   3
   8  -6   1 389.892 515.203   4
   8  -6   1 111.824 443.182   3
   8  -6   2 18303.6 1682.26   3
   8  -6   2 15909.8 1572.27   4
  -8  -6  -3 652.749 470.778  10
   8  -6   3 859.538 581.699   4
   8  -6   3 440.259 449.750   3
   8  -6   4 29476.2 2189.35   3
  -8  -6  -4 33258.4 2154.72  10
   8  -6   4 30937.5 2268.42   4
  -8  -6  -5 404.590 391.625  10
   8  -5 -11 9471.88 1132.15   3
   8  -5 -10 6880.20 983.860   3
   8  -5 -10 7862.47 1042.57  12
  -8  -5   9 4215.39 913.088   4
   8  -5  -9 1800.10 611.854   3
  -8  -5   8 16294.6 1588.14   4
   8  -5  -8 13226.9 1225.78  12
   8  -5  -8 14257.5 1354.98   3
   8  -5  -7 1889.64 526.596  12
  -8  -5   6 12651.5 1369.89   4
   8  -5  -6 9907.54 1029.44  12
   8  -5  -6 11168.2 1222.07   3
   8  -5  -5 5895.71 940.620   3
   8  -5  -5 7287.10 871.341  12
  -8  -5   4 10091.6 1221.17   4
   8  -5  -4 9559.30 972.056  12
   8  -5  -3 4631.40 848.270   4
   8  -5  -3 3974.73 822.277   3
   8  -5  -3 4405.73 694.232  12
   8  -5  -2 13292.9 1357.53   4
   8  -5  -2 14691.6 1422.76   3
   8  -5  -1 1664.57 598.666   4
  -8  -5   1 1599.25 577.455   4
  -8  -5   0 11627.1 1262.49   4
   8  -5   0 12467.6 1341.34   4
   8  -5   0 10138.4 1253.53   3
   8  -5   1 4671.46 880.721   4
  -8  -5  -1 5031.53 880.090  10
   8  -5   1 3654.66 810.029   3
  -8  -5  -2 7999.30 1088.79  10
   8  -5   2 7876.61 1120.55   3
  -8  -5  -3 4353.96 815.126  10
   8  -5   3 2969.70 774.838   4
   8  -5   3 3959.40 858.682   3
   8  -5   4 10722.4 1375.97   3
  -8  -5  -4 12636.9 1330.01  10
   8  -5   4 10738.6 1355.90   4
  -8  -5  -6 7313.21 1063.24  10
  -8  -5  -7 2863.43 712.988  10
   8  -4 -12 3124.93 766.985   3
  -8  -4  11 10020.8 1299.96   4
  -8  -4  10 1078.63 562.402   4
   8  -4 -10 1559.23 603.003   3
   8  -4 -10 1074.56 501.739  12
  -8  -4   9 18636.0 1681.67   4
   8  -4  -9 14727.5 1395.65   3
  -8  -4   8 5908.94 995.887   4
   8  -4  -8 5175.31 893.479   3
   8  -4  -8 5440.79 795.533  12
   8  -4  -7 12924.2 1322.64   3
  -8  -4   6 2117.33 661.886   4
   8  -4  -6 2526.52 691.084   3
   8  -4  -6 2383.21 579.289  12
  -8  -4   5 16067.5 1492.82   4
   8  -4  -5 14905.3 1414.40   3
   8  -4  -4 3001.39 727.857   3
   8  -4  -4 2243.85 521.397  12
   8  -4  -3 18374.1 1193.24  12
   8  -4  -2 3201.55 745.921   4
  -8  -4   2 3804.66 773.620   4
   8  -4  -2 3314.12 789.023   3
  -8  -4   1 32494.0 2035.60  10
  -8  -4   1 29448.2 1944.20   4
   8  -4  -1 29493.5 2010.07   4
   8  -4  -1 33245.1 2112.40   3
  -8  -4   0 8145.39 1078.39  10
  -8  -4   0 7746.29 1049.98   4
   8  -4   0 7849.41 1130.45   3
   8  -4   0 8940.89 1168.31   4
  -8  -4  -1 15500.6 1437.25  10
   8  -4   1 14741.1 1478.97   4
   8  -4   1 14732.0 1489.44   3
   8  -4   2 3916.50 852.178   3
  -8  -4  -4 14760.8 1434.70  10
   8  -4   5 14375.7 1577.83   4
  -8  -4  -6 5370.25 909.405  10
  -8  -4  -7 14049.8 1407.60  10
  -8  -3  13 21745.1 1642.47  10
   8  -3 -13 22402.8 1776.73   3
  -8  -3  12 461.139 388.881  10
   8  -3 -12 715.618 458.016   3
  -8  -3  11 24064.6 1711.46  10
  -8  -3  11 25003.3 1984.17   4
  -8  -3  10 597.939 458.873  10
  -8  -3  10 222.164 453.554   4
   8  -3  -9 33663.2 1812.63  12
  -8  -3   8 773.201 517.437   4
   8  -3  -8 576.912 399.940  12
  -8  -3   7 26551.2 1917.46   4
   8  -3  -7 25115.8 1817.16   3
   8  -3  -6 1925.91 623.094   3
  -8  -3   5 24611.0 1823.92   4
   8  -3  -5 24276.4 1787.10   3
  -8  -3   4 1917.14 598.277  10
  -8  -3   4 1653.04 616.327   4
   8  -3  -4 224.685 285.332  12
  -8  -3   3 19784.5 1568.36  10
  -8  -3   3 17850.8 1517.57   4
   8  -3  -3 14713.7 1440.86   3
  -8  -3   2 817.861 446.111  10
  -8  -3   2 830.438 461.566   4
   8  -3  -2 615.838 499.260   3
  -8  -3   1 16768.2 1468.47  10
  -8  -3   1 16261.0 1458.04   4
   8  -3  -1 16556.6 1524.30   4
   8  -3  -1 16581.1 1534.22   3
   8  -3   0 1114.33 568.382   4
   8  -3   0 1612.20 618.342   3
  -8  -3  -1 13498.1 1345.29  10
   8  -3   1 11915.5 1343.62   4
   8  -3   1 12951.4 1402.89   3
   8  -3   2 1303.49 545.541   4
  -8  -3  -2 1867.98 589.011  10
   8  -3   2 1393.61 655.995   3
  -8  -3  -3 10606.2 1203.35  10
   8  -3   3 12411.1 1421.01   4
   8  -3   3 11881.9 1398.36   3
   8  -3   4 723.555 542.420   4
  -8  -3  -4 1370.16 553.309  10
   8  -3   4 904.405 545.371   3
   8  -3   5 3691.54 889.614   4
  -8  -3  -5 2773.09 712.932  10
   8  -3   5 3593.90 888.032   3
  -8  -3  -6 910.860 489.337  10
  -8  -3  -7 4913.30 874.048  10
  -8  -3  -8 1729.31 572.381  10
   8  -2 -14 491.554 512.681   3
  -8  -2  13 15677.5 1354.82  10
  -8  -2  12 169.340 365.623  10
  -8  -2  12 26.2287 417.967   4
   8  -2 -12 796.027 478.398   3
   8  -2 -11 6852.90 1064.26   3
  -8  -2  10 4033.13 790.294  10
  -8  -2  10 3108.74 763.965   4
   8  -2 -10 4223.12 879.010   3
  -8  -2   9 17586.7 1468.87  10
  -8  -2   9 16998.7 1572.27   4
   8  -2  -9 14200.0 1417.56   3
  -8  -2   8 4683.47 794.728  10
  -8  -2   8 4969.74 907.817   4
   8  -2  -8 4165.04 838.894   3
  -8  -2   6 6660.89 946.169  10
  -8  -2   6 7291.80 1034.51   4
   8  -2  -6 6926.17 1022.58   3
  -8  -2   5 25655.3 1755.04  10
  -8  -2   5 28773.0 1926.37   4
   8  -2  -4 6366.83 999.374   3
   8  -2  -3 19419.6 1628.42   3
  -8  -2   2 7497.21 983.639  10
  -8  -2   2 7397.27 1015.68   4
   8  -2  -2 7964.50 1110.65   3
  -8  -2   1 14665.3 1378.95   4
   8  -2  -1 16857.7 1549.77   3
   8  -2   0 3881.19 865.070   4
  -8  -2   0 5389.01 886.455  10
   8  -2   0 3878.70 856.912   3
  -8  -2  -1 18634.9 1542.14  10
   8  -2   1 18616.0 1642.95   4
   8  -2   1 16318.9 1552.60   3
  -8  -2  -2 13015.2 1318.36  10
   8  -2   2 12560.9 1394.07   4
   8  -2   2 13230.8 1447.57   3
  -8  -2  -3 17433.9 1501.53  10
  -8  -2  -4 9026.97 1108.27  10
   8  -2   4 8447.28 1202.41   3
   8  -2   4 8977.14 1247.43   4
   8  -2   5 21437.1 1896.16   3
   8  -2   5 21386.9 1872.94   4
  -8  -2  -6 8476.69 1100.08  10
   8  -2   6 8457.31 1257.72   4
   8  -2   6 9494.80 1334.71   3
  -8  -2  -7 13325.9 1354.34  10
  -8  -2  -8 8104.68 1077.73  10
   8  -1 -14 11205.5 1371.57   3
  -8  -1  13 6612.08 1052.29   4
  -8  -1  12 5428.55 830.727  10
  -8  -1  12 7567.38 1104.15   4
   8  -1 -12 5695.06 980.360   3
  -8  -1  11 6178.78 913.631  10
   8  -1 -11 5517.24 973.088   3
  -8  -1  10 29380.7 1829.70  10
  -8  -1  10 33395.2 2157.29   4
   8  -1 -10 27543.1 1988.60   3
  -8  -1   9 6999.28 953.797  10
  -8  -1   9 7032.81 1040.47   4
   8  -1  -9 8068.22 1126.01   3
  -8  -1   8 8444.22 1021.34  10
  -8  -1   8 8993.14 1124.35   4
   8  -1  -8 7294.65 1075.16   3
  -8  -1   6 15913.0 1446.83   4
   8  -1  -6 16614.6 1524.63   3
  -8  -1   5 11189.7 1189.25  10
  -8  -1   5 8898.65 1119.46   4
   8  -1  -5 10480.4 1226.48   3
   8  -1  -4 16460.1 1508.60   3
  -8  -1   3 10012.3 1132.02  10
   8  -1  -3 8480.56 1130.58   3
  -8  -1   2 9032.64 1083.44  10
  -8  -1   2 8658.91 1068.71   4
   8  -1  -2 11305.4 1281.06   3
  -8  -1   1 6189.74 918.005  10
   8  -1  -1 5616.39 695.715   1
   8  -1  -1 7054.68 1052.60   3
   8  -1   1 1489.62 625.912   4
  -8  -1  -1 1393.23 543.078  10
   8  -1   1 1192.06 576.935   3
   8  -1   2 13871.3 1466.17   4
   8  -1   2 16558.6 1588.13   3
   8  -1   3 1675.64 649.672   4
   8  -1   3 1963.53 663.452   3
   8  -1   5 1652.84 651.471   4
  -8  -1  -5 320.243 324.104  10
   8  -1   5 1129.83 612.376   3
   8  -1   6 2981.53 823.470   4
   8  -1   6 1734.19 711.061   3
  -8  -1  -7 2830.68 712.802  10
  -8  -1  -8 3729.68 780.734  10
  -8   0  13-639.955 580.567   4
   8   0 -13 64.1793 420.060   3
  -8   0  12 15504.6 1517.24   4
   8   0 -12 14770.2 1551.92   3
  -8   0  11 934.034 476.088  10
  -8   0  11 296.285 394.258   4
   8   0 -11-362.197 451.488   3
  -8   0  10 18198.5 1451.04  10
  -8   0   8 12603.9 1230.43  10
  -8   0   7-223.346 402.277   4
   8   0  -7 71.8648 442.377   3
  -8   0   5-78.0333 356.595  10
  -8   0   5 357.603 410.758   4
   8   0  -5 348.064 520.149   3
  -8   0   4 26252.2 1791.43   4
   8   0  -4 25878.6 1887.65   3
  -8   0   3 458.502 441.473  10
  -8   0   3 222.925 428.700   4
   8   0  -3 1140.97 576.517   3
  -8   0   2 25700.6 1746.69  10
   8   0  -2 24503.9 1428.56   1
   8   0  -2 25219.1 1873.76   3
  -8   0   1 195.723 361.862  10
   8   0  -1-190.535 462.468   3
   8   0  -1 408.414 348.561   1
  -8   0   0 32082.4 1971.08  10
   8   0   0 32824.2 2141.11   3
  -8   0  -2 37602.3 2164.89  10
   8   0   2 39157.2 2376.05   4
   8   0   2 34578.3 2241.96   3
  -8   0  -3 326.166 395.365  10
   8   0   3-333.114 463.542   3
  -8   0  -4 29156.0 1934.76  10
   8   0   4 28027.9 2074.81   3
   8   0   5 74.8061 411.843   4
  -8   0  -5-107.490 383.689  10
   8   0   5 247.463 482.700   3
  -8   0  -6 17730.9 1546.34  10
   8   0   6 20161.2 1851.94   4
  -8   0  -7-315.102 377.622  10
  -8   0  -8 36701.2 2225.99  10
  -8   1  14 10138.0 1283.82   4
   8   1 -13 7436.58 1177.18   3
  -8   1  12 5417.20 800.194  10
  -8   1  12 7592.77 1086.00   4
   8   1 -12 6783.12 1097.90   3
  -8   1  11 9194.44 1134.63   4
  -8   1  11 5345.52 828.195  10
  -8   1  10 30022.5 1980.25   4
   8   1 -10 27630.2 2041.48   3
  -8   1   9 8567.11 1088.08   4
  -8   1   9 6322.95 884.982  10
   8   1  -9 7522.49 1122.58   3
  -8   1   8 7558.77 982.310  10
  -8   1   8 8855.32 1102.41   4
   8   1  -8 8694.23 1171.49   3
  -8   1   7 4632.36 789.326  10
  -8   1   6 15515.5 1357.37  10
  -8   1   6 15321.4 1384.04   4
   8   1  -6 15612.7 1521.44   3
  -8   1   5 10058.7 1123.97  10
   8   1  -5 9149.59 1200.47   3
  -8   1   3 9010.47 1061.74  10
  -8   1   3 9179.86 1079.29   4
   8   1  -3 7663.79 1085.20   3
  -8   1   2 10157.1 1132.85  10
   8   1  -2 10972.8 1275.17   3
  -8   1   1 6441.07 919.030  10
   8   1  -1 6906.29 1049.74   3
  -8   1   0 6607.96 960.859  10
   8   1   0 5764.23 737.140   1
   8   1   0 8182.30 1132.96   3
  -8   1  -1 1549.41 560.139  10
  -8   1  -2 16109.1 1445.34  10
   8   1   2 15692.9 1558.08   4
   8   1   2 13907.2 1457.85   3
  -8   1  -3 2230.28 637.523  10
   8   1   4 5403.36 984.294   4
  -8   1  -4 5137.59 869.185  10
   8   1   4 6246.91 1057.47   3
  -8   1  -5 551.360 453.461  10
   8   1   6 1779.84 684.608   4
  -8   1  -6 1928.14 622.356  10
   8   1   6 3506.98 903.656   3
  -8   1  -8 2642.57 715.484  10
  -8   2  14 1733.16 588.329   4
  -8   2  13 14512.1 1445.15   4
  -8   2  12 489.096 359.518  10
  -8   2  12 1016.36 528.677   8
  -8   2  12 219.497 408.091   4
   8   2 -12 1424.58 675.950   3
  -8   2  11 7016.68 1004.56   4
   8   2 -11 6322.46 1074.57   3
  -8   2  10 3590.58 717.271  10
  -8   2  10 4450.32 827.107   4
   8   2 -10 4208.63 915.043   3
  -8   2   9 16058.4 1414.17   4
   8   2  -9 15667.4 1573.45   3
  -8   2   8 5698.99 858.378  10
  -8   2   8 4149.58 798.847   4
   8   2  -8 4357.95 886.300   3
  -8   2   6 6752.66 933.040  10
  -8   2   6 5268.88 850.386   4
   8   2  -6 5835.37 988.125   3
  -8   2   5 25493.3 1725.25  10
   8   2  -5 26600.3 1959.38   3
  -8   2   4 7810.35 1002.40  10
  -8   2   4 6485.19 930.720   4
   8   2  -4 6844.95 1050.40   3
  -8   2   3 17372.2 1450.21  10
   8   2  -3 19204.4 1398.16   1
   8   2  -3 18493.8 1629.33   3
  -8   2   2 7170.82 989.557  10
   8   2  -2 7600.93 913.102   1
   8   2  -2 8028.83 1111.25   3
  -8   2   1 16563.8 1434.15  10
   8   2  -1 16185.9 1549.19   3
  -8   2   0 4952.69 845.186  10
   8   2   0 3719.37 825.882   3
   8   2   0 4594.89 714.900   1
  -8   2  -1 20684.1 1606.55  10
   8   2   1 18481.8 1659.01   3
  -8   2  -2 13560.3 1340.34  10
   8   2   2 12827.2 1384.09   3
   8   2   3 16407.7 1593.24   4
   8   2   3 16853.1 1627.12   3
  -8   2  -4 9345.15 1147.54  10
   8   2   4 9674.20 1274.58   3
   8   2   5 22679.0 1889.53   4
   8   2   5 24490.0 1983.45   3
  -8   2  -7 15886.5 1517.26  10
  -8   3  13 21049.7 1649.52   4
  -8   3  12-9.05931 217.335  10
  -8   3  12 673.765 447.626   8
  -8   3  12-132.646 432.800   4
   8   3 -11 26234.0 2099.50   3
  -8   3  10 740.966 491.952  10
   8   3 -10 438.531 535.946   3
  -8   3   9 32735.4 1907.19  10
  -8   3   9 30291.4 1885.60   4
  -8   3   9 30873.2 1892.82   8
  -8   3   8 1149.71 482.730   8
   8   3  -8 955.896 543.071   3
  -8   3   7 26266.7 1728.61  10
  -8   3   7 26245.5 1744.03   4
  -8   3   7 24310.7 1580.79   8
   8   3  -7 25618.0 1975.06   3
  -8   3   6 2146.75 599.088  10
  -8   3   6 2121.13 628.005   4
  -8   3   5 24598.8 1696.95  10
   8   3  -5 26457.2 1976.43   3
  -8   3   4 1753.79 569.715  10
   8   3  -4 1520.18 620.504   3
   8   3  -4 1214.52 518.969   1
   8   3  -3 17472.8 1616.34   3
  -8   3   2 999.807 457.562  10
   8   3  -2 1486.52 627.160   3
  -8   3   1 17054.5 1470.58  10
   8   3  -1 17513.0 1326.15   1
  -8   3   0 1193.83 493.428  10
   8   3   0 2649.74 721.531   3
   8   3   0 1920.26 544.108   1
  -8   3  -1 14434.2 1359.56  10
   8   3   1 14969.5 1205.02   1
   8   3   1 13625.2 1451.01   3
   8   3   2 1384.32 452.229  11
  -8   3  -2 1221.46 520.531  10
   8   3   2 460.622 522.085   3
  -8   3  -3 9975.32 1190.78  10
   8   3   3 10660.7 1328.74   4
   8   3   3 12375.4 1410.15   3
   8   3   4 2177.46 722.279   4
  -8   3  -4 1427.92 572.283  10
   8   3   4 651.626 567.841   3
   8   3   5 3036.49 802.922   4
  -8   3  -5 3817.67 805.996  10
   8   3   5 2429.80 741.684   3
  -8   3  -6 1615.57 579.072  10
  -8   4  12 4394.63 841.068   8
  -8   4  12 3354.06 720.763   4
  -8   4  11 8588.42 1039.21   4
  -8   4  11 8487.21 1086.05   8
   8   4 -11 8646.12 1277.53   3
  -8   4  10 1664.89 563.869  10
  -8   4  10 1853.28 572.890   8
  -8   4  10 2096.08 617.222   4
   8   4 -10 1365.40 663.703   3
  -8   4   9 15348.5 1343.75  10
  -8   4   9 16018.2 1376.63   4
  -8   4   9 14780.6 1323.02   8
   8   4  -9 17153.0 1697.87   3
  -8   4   8 5236.07 837.304  10
  -8   4   8 6094.16 864.991   8
  -8   4   8 6542.63 932.749   4
   8   4  -8 5702.06 1046.37   3
  -8   4   7 15619.5 1349.37   4
  -8   4   6 1465.67 541.740  10
  -8   4   6 2626.16 567.036   8
   8   4  -6 2130.33 729.234   3
  -8   4   5 15854.6 1382.93  10
  -8   4   5 16469.1 1208.15   8
   8   4  -5 15115.2 1355.01   1
   8   4  -5 15873.9 1557.85   3
  -8   4   4 4798.98 820.168  10
   8   4  -4 4769.69 847.454   1
  -8   4   3 16213.2 1407.42  10
  -8   4   3 19750.5 1202.72   8
   8   4  -3 15474.6 1337.19   1
  -8   4   2 2761.91 682.284  10
   8   4  -2 3407.74 718.117   1
   8   4  -2 4101.12 862.435   3
  -8   4   1 31922.4 1987.74  10
   8   4  -1 32782.9 2180.68   3
  -8   4   0 6016.04 944.692  10
   8   4   0 6119.37 884.602   1
   8   4   0 7073.37 1105.07   3
   8   4   0 8991.65 986.281  11
  -8   4  -1 13788.0 1351.52  10
   8   4   1 15226.7 1534.93   3
   8   4   1 15631.4 1212.68  11
   8   4   3 21350.0 1459.33   1
  -8   4  -3 22333.8 1742.88  10
   8   4   3 19633.9 1748.02   3
  -8   4  -4 14574.2 1445.88  10
   8   4   4 14696.2 1523.63   4
   8   4   4 15187.4 1554.83   3
   8   4   5 14537.0 1523.34   4
   8   4   5 14833.0 1559.84   3
  -8   5  12 13619.5 1412.13   8
  -8   5  11 8881.52 1029.78   4
  -8   5  11 8756.39 1110.01   8
  -8   5  10 8035.49 988.082  10
  -8   5  10 8302.41 1046.15   8
  -8   5   9 3677.14 739.812  10
  -8   5   9 4229.57 763.160   8
  -8   5   9 4232.26 761.077   4
   8   5  -9 3954.19 945.193   3
  -8   5   8 15424.8 1365.85  10
  -8   5   8 15419.4 1328.59   8
   8   5  -8 13472.4 1535.32   3
  -8   5   7 2414.73 645.073  10
  -8   5   7 2406.83 598.294   8
  -8   5   6 11264.3 1186.61  10
  -8   5   6 11697.3 1075.11   8
   8   5  -6 11652.7 1265.29   1
   8   5  -6 10980.5 1358.26   3
  -8   5   5 7564.83 997.208  10
  -8   5   4 11766.1 1233.72  10
   8   5  -4 11143.6 1336.89   3
  -8   5   3 4398.87 839.914  10
   8   5  -3 3920.03 790.894   1
   8   5  -2 12749.2 1204.98  11
  -8   5   1 2046.75 609.719  10
   8   5  -1 1735.13 665.548   3
  -8   5   0 10923.3 1226.67  10
   8   5   0 9958.28 1110.61   1
   8   5   0 11618.3 1355.46   3
   8   5   1 2968.17 667.317   1
  -8   5  -1 3570.74 794.520  10
   8   5   1 2957.25 786.149   3
   8   5   2 5944.18 793.377  11
   8   5   2 6391.65 903.742   1
  -8   5  -3 4035.75 821.379  10
   8   5   3 2416.10 662.196   1
   8   5   3 3551.85 859.087   3
   8   5   4 11258.6 1347.93   4
   8   5   4 10235.2 1328.48   3
   8   5   5 4762.98 966.261   4
  -8   5  -5 6012.11 993.189  10
   8   5   5 5321.62 1042.70   3
   8   5   6 7670.49 1143.38   4
   8   5   6 5872.39 1090.73   3
  -8   6  10 7477.18 969.150  10
  -8   6  10 6350.91 952.095   8
   8   6  -9 573.223 573.752   3
   8   6  -8 18027.5 1615.08   1
  -8   6   7 981.054 447.251  10
  -8   6   7 789.081 409.944   8
  -8   6   6 12883.7 1293.19  10
  -8   6   6 11942.8 1097.54   8
   8   6  -6 10685.6 1265.72   1
   8   6  -6 13341.2 1490.84   3
  -8   6   5 328.532 432.801  10
  -8   6   5 585.934 341.331   8
  -8   6   4 22516.1 1710.96  10
   8   6  -4 24808.0 1734.81  11
  -8   6   3 480.390 451.297  10
  -8   6   2 27273.1 1892.75  10
   8   6  -2 24112.0 1737.64   1
   8   6  -2 26736.8 2015.09   3
   8   6  -1 49.3042 426.565  11
  -8   6   1 1002.80 506.424  10
   8   6  -1-102.504 486.534   1
   8   6  -1 664.534 578.465   3
  -8   6   0 23428.6 1797.30  10
   8   6   0 21921.4 1630.77   1
  -8   6  -1 634.170 522.501  10
   8   6   1 56.6683 503.837   3
   8   6   1 219.931 506.367   1
  -8   6  -2 19740.0 1687.13  10
   8   6   2 18220.3 1702.44   3
   8   6   2 19429.5 1402.84  11
   8   6   3 35.9945 359.884   1
  -8   6  -4 33397.0 2213.78  10
  -8   7  11 2824.90 727.343   8
  -8   7  10 9626.63 1148.86   8
  -8   7   9 6070.01 893.469  10
  -8   7   8 11498.7 1247.50  10
  -8   7   8 11287.5 1175.24   8
   8   7  -8 12591.8 1531.13   3
   8   7  -8 15199.9 1522.01  11
   8   7  -7 5280.42 1056.64   3
   8   7  -7 7275.42 1109.47   1
   8   7  -6 2052.39 715.367   1
  -8   7   6 4298.64 804.078  10
   8   7  -6 4446.17 958.756   3
   8   7  -5 4812.29 995.919   3
   8   7  -4 8023.47 1073.95  11
   8   7  -4 8270.05 1185.07   3
   8   7  -3 6195.54 953.960  11
   8   7  -3 5514.54 1012.51   3
  -8   7   2 13401.9 1391.59  10
   8   7  -2 13607.6 1505.44   3
   8   7  -1 3767.51 808.563  11
   8   7  -1 2975.71 772.362   1
   8   7   0 3217.56 803.082   1
  -8   7   0 2562.70 690.647  10
   8   7   0 2253.02 806.967   3
  -8   7  -1 1823.93 654.906  10
   8   7   2 6761.52 928.917  11
  -8   7  -2 8578.29 1161.16  10
   8   7   2 6432.37 1096.88   3
   8   7   2 6082.09 990.007   1
   8   7   3 2467.85 727.119   1
   8   7   3 2245.43 762.280   3
   8   7   4 6106.53 1022.36   4
   8   7   4 7365.09 1199.84   3
   8   7   5 2833.61 764.249   4
   8   7   5 3210.77 902.785   3
  -8   8   9 8063.50 1078.27  10
  -8   8   9 6136.78 946.997   8
  -8   8   8 8807.94 1126.38  10
  -8   8   8 6829.19 940.421   8
  -8   8   7 17164.1 1519.04  10
  -8   8   6 2785.79 722.437  10
   8   8  -6 3137.49 925.674   3
   8   8  -6 2903.85 827.034   1
  -8   8   5 8136.89 1112.91  10
   8   8  -4 8685.25 1149.88  11
  -8   8   4 7946.72 1114.84  10
   8   8  -4 8621.62 1199.76   1
  -8   8   3 14611.5 1474.92  10
   8   8  -3 15737.9 1533.04   1
   8   8  -3 12764.9 1488.95   3
   8   8  -2 5025.33 922.035  11
  -8   8   2 5309.60 957.791  10
   8   8  -2 4392.21 904.829   1
   8   8  -2 5841.35 1041.21   3
   8   8  -1 16953.9 1663.43   3
   8   8  -1 18768.9 1560.20  11
   8   8   0 7035.20 1084.80   1
  -8   8   0 8217.31 1153.17  10
   8   8   1 11872.1 1410.84   3
   8   8   2 2106.28 632.128  11
   8   8   2 3829.46 943.718   3
   8   8   3 12427.6 1431.77   3
   8   8   3 13081.8 1383.92   1
   8   8   4 6840.23 1100.76   4
   8   8   4 6682.74 1136.02   3
  -8   9   8 1131.25 536.922  10
  -8   9   7 15294.4 1500.05  10
  -8   9   5 14838.3 1478.77  10
   8   9  -4 628.142 545.679  11
  -8   9   4 984.990 538.152  10
   8   9  -3 6690.72 1157.07   3
   8   9  -1 10597.5 1376.36   3
   8   9   0-142.829 478.459  11
   8   9   0 1697.71 757.921   1
   8   9   1 6110.85 954.138  11
   8   9   1 7295.19 1200.77   3
   8   9   2 384.198 572.014   1
   8   9   2 1896.16 799.685   3
   8   9   3 9043.33 1268.54   3
   8  10   0-1327.67 616.917  11
   9  -7  -5 4171.53 882.240   4
   9  -7  -5 1641.82 611.601   3
   9  -7  -4 64.7424 328.859   4
   9  -7  -4 763.279 583.511   3
   9  -7  -3 207.279 377.962   4
   9  -7  -3-431.853 490.460   3
   9  -6  -7 874.456 525.859   3
   9  -6  -6 20574.7 1748.43   4
   9  -6  -6 20829.4 1754.18   3
   9  -6  -5 1256.15 572.832   4
   9  -6  -5 179.822 477.549   3
   9  -6  -4 21810.8 1826.52   4
   9  -6  -4 22776.8 1872.34   3
   9  -6  -3-1.90094 302.653   4
   9  -6  -2 22511.2 1892.94   3
   9  -5  -7 3876.35 872.243   3
   9  -5  -3 2225.80 714.728   4
   9  -5  -3 1962.14 694.895   3
   9  -5  -2 5110.76 982.221   4
   9  -5  -2 5435.61 980.320   3
   9  -5  -1 1965.76 727.988   3
   9  -4 -10 3188.55 765.960   3
   9  -4  -9 13517.6 1467.56   3
   9  -4  -8 14137.6 1467.89   3
   9  -4  -7 6287.74 1055.96   3
   9  -4  -6 4575.04 908.712   3
   9  -4  -5 15459.8 1573.21   3
  -9  -4   4 9401.54 1216.24  10
  -9  -4   4 9096.79 1249.78   4
   9  -4  -4 8871.01 1216.82   3
  -9  -4   3 17049.5 1619.82  10
   9  -4  -3 16703.2 1635.11   3
  -9  -4   2 10498.5 1273.56  10
   9  -4  -2 12534.5 1445.33   4
   9  -4  -2 11615.5 1389.32   3
   9  -4  -1 14210.1 1548.02   3
   9  -4   0 10615.8 1375.06   4
   9  -4   0 9960.64 1325.14   3
   9  -3 -10-885.424 557.625   3
  -9  -3   8 885.299 468.712  10
  -9  -3   7 6216.02 1008.82  10
  -9  -3   6 487.967 460.540  10
  -9  -3   6 905.399 518.009   4
   9  -3  -6 405.576 459.046   3
   9  -3  -5 4229.87 912.559   3
  -9  -3   4 2773.35 728.507  10
  -9  -3   4 1998.16 673.988   4
   9  -3  -4 586.126 537.420   3
  -9  -3   3 5080.40 940.980  10
  -9  -3   3 5130.58 962.536   4
   9  -3  -3 5139.26 997.163   3
   9  -3  -2 1027.66 587.145   4
  -9  -3   2 973.311 539.001   4
   9  -3  -2 1828.66 681.135   3
   9  -3  -1 3009.98 825.778   4
  -9  -3   1 2243.66 677.049  10
   9  -3  -1 731.271 560.378   3
  -9  -3   0 971.987 521.836  10
  -9  -2  10 8660.94 1128.02  10
   9  -2 -10 10751.0 1357.25   3
  -9  -2   8 3336.07 804.165  10
  -9  -2   7 23726.4 1828.21  10
   9  -2  -7 21250.1 1842.74   3
  -9  -2   6 9404.88 1190.52  10
  -9  -2   6 8365.70 1187.19   4
   9  -2  -6 8389.58 1192.06   3
  -9  -2   5 25533.8 1963.18   4
   9  -2  -5 26435.8 2050.63   3
  -9  -2   4 6084.89 991.032  10
  -9  -2   4 5000.99 941.104   4
  -9  -2   3 23238.8 1830.73  10
   9  -2  -3 24939.4 2008.12   3
  -9  -2   2 7364.82 1077.47  10
  -9  -2   1 18856.7 1664.87  10
   9  -2  -1 16811.3 1670.78   4
   9  -2  -1 16875.8 1668.98   3
   9  -2   0 5809.75 1073.66   4
  -9  -2   0 4362.83 897.991  10
   9  -2   0 2883.40 833.508   3
   9  -2   1 21061.3 1894.49   4
   9  -2   1 24669.2 2053.58   3
  -9  -1  10 10058.1 1214.01  10
  -9  -1   9 1434.05 575.741  10
   9  -1  -9 324.153 423.119   3
  -9  -1   8 4784.65 886.228  10
  -9  -1   8 4651.38 938.325   4
   9  -1  -8 5693.41 1041.35   3
  -9  -1   7 1432.04 610.509   4
   9  -1  -7 933.237 630.549   3
  -9  -1   6 3388.39 738.370  10
   9  -1  -6 3759.90 925.328   3
  -9  -1   5 4186.23 891.343  10
  -9  -1   5 3230.47 789.865   4
   9  -1  -5 4172.80 909.586   3
   9  -1  -4 6893.21 1133.10   3
  -9  -1   3 3171.34 758.079  10
  -9  -1   3 3641.12 848.411   4
  -9  -1   2 3592.95 820.583  10
   9  -1  -2 1899.41 736.017   3
  -9  -1   1 1307.83 612.401  10
   9  -1  -1 815.933 626.468   3
   9  -1   0 3642.11 895.257   4
  -9  -1   0 6107.52 1000.84  10
   9  -1   0 3824.48 932.086   3
   9  -1   1 2106.64 784.069   3
  -9   0  11 1015.59 423.577  10
  -9   0   9 575.968 375.366  10
  -9   0   9 459.661 438.011   4
   9   0  -9 514.948 499.150   3
  -9   0   8 25790.5 1959.46   4
   9   0  -8 27565.7 2141.69   3
  -9   0   7-121.506 426.674  10
  -9   0   6 32200.7 2086.11  10
  -9   0   6 33138.4 2188.86   4
   9   0  -6 30988.2 2247.74   3
  -9   0   5 1276.63 555.088   4
   9   0  -5 299.764 527.765   3
  -9   0   4 44173.5 2453.71  10
   9   0  -3 1097.33 581.226   3
  -9   0   2 66527.0 3023.92  10
   9   0  -2 68078.4 3305.30   3
  -9   0   1 351.110 411.903  10
   9   0  -1 205.078 548.451   3
   9   0   0 29986.8 2240.76   3
   9   0   1-124.964 416.928   4
  -9   0  -1 262.421 414.844  10
   9   0   1 433.515 502.873   3
  -9   1   9 1815.05 644.282  10
  -9   1   9 1861.27 631.888   4
  -9   1   8 4360.29 843.103  10
  -9   1   8 4804.98 882.013   4
   9   1  -8 5295.72 1076.58   3
  -9   1   7 820.046 537.482  10
  -9   1   7 906.045 534.911   4
   9   1  -7 1901.23 704.267   3
  -9   1   6 3331.90 778.838  10
  -9   1   6 3148.52 779.889   4
  -9   1   5 5661.25 947.126  10
  -9   1   5 4884.44 898.520   4
   9   1  -5 4121.14 949.159   3
   9   1  -4 5884.27 915.146   1
  -9   1   3 4269.21 861.302  10
   9   1  -3 4568.29 972.618   3
  -9   1   2 3369.93 804.976  10
   9   1  -2 3442.51 704.788   1
   9   1  -2 2689.55 852.710   3
  -9   1   1-313.413 446.103  10
   9   1  -1 1562.90 695.625   3
  -9   1   0 3623.70 812.171  10
   9   1   0 4161.76 946.035   3
   9   1   1 1815.65 686.561   4
   9   1   1 915.809 638.258   3
  -9   2  11 25622.4 1807.43  10
  -9   2  10 7566.28 1055.35   8
  -9   2  10 8979.43 1158.96   4
  -9   2   9 23069.4 1751.99  10
  -9   2   7 23066.5 1767.33  10
  -9   2   6 9242.72 1168.66  10
   9   2  -6 11386.8 1472.92   3
  -9   2   5 27388.7 1929.64  10
   9   2  -5 27944.9 1847.83   1
   9   2  -5 27931.5 2170.77   3
   9   2  -4 5638.35 1082.24   3
   9   2  -4 5349.16 893.767   1
  -9   2   3 22844.7 1798.45  10
   9   2  -3 20803.9 1553.65   1
   9   2  -2 7485.47 968.790   1
   9   2  -2 6681.20 1150.11   3
   9   2  -1 15632.3 1654.44   3
   9   2   0 3927.90 937.539   3
  -9   3  10 975.079 448.325  10
  -9   3  10-192.839 385.439   8
  -9   3  10-174.171 468.446   4
  -9   3   9 7795.51 1077.01  10
  -9   3   9 8510.15 1092.32   8
  -9   3   8 199.468 358.908   8
  -9   3   7 6594.34 1033.43  10
  -9   3   7 6408.37 984.837   4
  -9   3   6 870.041 465.470  10
  -9   3   6 663.768 404.348   8
   9   3  -6 197.246 574.384   3
  -9   3   5 3989.00 832.688  10
  -9   3   4 649.126 488.205  10
   9   3  -4 1654.79 702.156   3
  -9   3   3 4853.52 890.646  10
   9   3  -3 4487.87 839.574   1
   9   3  -3 3613.09 902.180   3
   9   3  -2 630.087 497.029   1
  -9   3   2 942.856 490.831  10
   9   3  -2 733.392 595.794   3
  -9   3   1 2084.95 686.183  10
   9   3  -1 355.948 543.522   3
   9   3   0 1247.35 702.409   3
  -9   4  10 4714.12 865.624  10
  -9   4  10 4516.60 846.503   8
  -9   4  10 3528.39 746.860   4
  -9   4   9 17563.9 1562.51   4
  -9   4   8 12997.5 1270.83   8
  -9   4   7 6570.33 989.501  10
   9   4  -7 7225.98 1080.27   1
  -9   4   6 5322.22 931.232  10
   9   4  -6 6143.11 1022.68   1
  -9   4   5 18899.4 1634.85  10
   9   4  -5 16677.0 1536.05   1
  -9   4   4 10371.9 1252.18  10
   9   4  -4 7770.24 1094.03   1
   9   4  -4 10469.7 1399.61   3
   9   4  -3 18282.6 1815.87   3
  -9   4   2 11850.2 1319.71  10
   9   4  -1 13287.7 1276.78  11
  -9   5   9 1347.31 532.681   8
  -9   5   8 3893.03 821.852  10
  -9   5   6 9470.15 1189.03  10
   9   5  -6 11936.3 1380.15   1
  -9   5   5 1268.36 524.808  10
   9   5  -3 1943.82 719.371   1
   9   5  -3 2963.22 755.645  11
   9   5  -1 1198.42 559.092  11
   9   5  -1-217.619 406.056   1
   9   6  -5-334.169 547.547   1
   9   6  -4 22773.4 1843.63   1
   9   6  -4 25358.9 1876.33  11
   9   6  -3 1948.53 722.464   1
   9   6  -1 1478.59 566.997  11
   9   6  -1-102.368 491.076   1
   9   6   0 30559.0 2043.20   1
   9   7  -2 3217.84 888.474   1
   9   7  -1 1056.36 605.333   1
   0   0   0    0.00    0.00   0

TITL rwJ13 in P2(1)
REM P2(1) (#4 in standard setting)
CELL 0.71073   6.798081  12.049659  13.532878  90.0000 100.3338  90.0000
ZERR    3.00   0.000154   0.000324   0.000318   0.0000   0.0023   0.0000
LATT -1
SYMM -x, y+1/2,-z
SFAC C H N O Ce
UNIT 24.00 18.00 3.00 28.50 3.00
TREF
HKLF 4
END
;
_shelx_hkl_checksum              61409
_shelx_shelxl_version_number     2014/7
_olex2_submission_special_instructions 'No special instructions were received'
_oxdiff_exptl_absorpt_empirical_details
;
Empirical correction (ABSPACK) includes:
- Absorption correction using spherical harmonics
- Frame scaling
;
_oxdiff_exptl_absorpt_empirical_full_max 1.072
_oxdiff_exptl_absorpt_empirical_full_min 0.938
loop_
_space_group_symop_operation_xyz
'x, y, z'
'-x, y+1/2, -z+1/2'
'-x, -y, -z'
'x, -y-1/2, z-1/2'
loop_
_atom_site_label
_atom_site_type_symbol
_atom_site_fract_x
_atom_site_fract_y
_atom_site_fract_z
_atom_site_U_iso_or_equiv
_atom_site_adp_type
_atom_site_occupancy
_atom_site_site_symmetry_order
_atom_site_calc_flag
_atom_site_refinement_flags_posn
_atom_site_refinement_flags_adp
_atom_site_refinement_flags_occupancy
_atom_site_disorder_assembly
_atom_site_disorder_group
Ce1 Ce -0.05047(4) 1.16678(3) 0.74538(2) 0.00923(8) Uani 1 1 d . . . . .
O1A O 0.1698(6) 1.3304(4) 0.7717(3) 0.0150(7) Uani 1 1 d . . . . .
O8A O 0.2880(5) 1.4108(3) 1.2392(3) 0.0144(8) Uani 1 1 d . . . . .
O9B O 0.9192(6) 1.2416(3) 0.9117(3) 0.0133(7) Uani 1 1 d . . . . .
O8B O 0.6218(6) 1.4035(4) 1.2787(3) 0.0180(8) Uani 1 1 d . . . . .
O2 O -0.2694(6) 1.3476(4) 0.7172(3) 0.0182(8) Uani 1 1 d D . . . .
H2A H -0.239(11) 1.410(3) 0.738(5) 0.027 Uiso 1 1 d DR . . . .
H2B H -0.364(8) 1.350(6) 0.670(4) 0.027 Uiso 1 1 d DR . . . .
O9A O 1.0002(6) 1.2582(3) 1.0783(3) 0.0136(8) Uani 1 1 d . . . . .
O1B O 0.0753(6) 1.4825(3) 0.8457(3) 0.0140(8) Uani 1 1 d . . . . .
N5 N 0.6499(6) 1.3397(4) 1.0952(3) 0.0114(8) Uani 1 1 d . . . . .
O1 O 0.0237(9) 1.0122(4) 0.8810(4) 0.0310(12) Uani 1 1 d D . . . .
H1A H 0.074(13) 1.028(6) 0.938(3) 0.046 Uiso 1 1 d DR . . . .
H1B H 0.007(14) 0.947(3) 0.866(6) 0.046 Uiso 1 1 d DR . . . .
C6 C 0.4736(8) 1.3807(4) 1.1087(4) 0.0112(9) Uani 1 1 d . . . . .
C8 C 0.4595(8) 1.3999(5) 1.2172(4) 0.0118(9) Uani 1 1 d . . . . .
C4 C 0.6748(7) 1.3122(4) 1.0022(4) 0.0111(10) Uani 1 1 d . . . . .
C3 C 0.5242(7) 1.3255(5) 0.9192(4) 0.0115(9) Uani 1 1 d . . . . .
H3 H 0.5421 1.3014 0.8545 0.014 Uiso 1 1 calc R . . . .
C7 C 0.3192(8) 1.4050(5) 1.0297(4) 0.0117(9) Uani 1 1 d . . . . .
H7 H 0.2003 1.4404 1.0409 0.014 Uiso 1 1 calc R . . . .
C1 C 0.1840(7) 1.3983(4) 0.8436(4) 0.0089(9) Uani 1 1 d . . . . .
C9 C 0.8807(8) 1.2669(4) 0.9963(4) 0.0110(9) Uani 1 1 d . . . . .
C2 C 0.3455(8) 1.3753(4) 0.9332(4) 0.0107(9) Uani 1 1 d . . . . .
O4 O -0.333(2) 1.5935(11) 0.4245(12) 0.046(4) Uani 0.5 1 d . . P A 2
O3 O -0.353(2) 1.4458(13) 0.4859(10) 0.056(4) Uani 0.5 1 d . . P B 1
O5 O -0.3775(18) 1.6425(12) 0.4092(10) 0.037(3) Uani 0.5 1 d . . P C 1
loop_
_atom_site_aniso_label
_atom_site_aniso_U_11
_atom_site_aniso_U_22
_atom_site_aniso_U_33
_atom_site_aniso_U_23
_atom_site_aniso_U_13
_atom_site_aniso_U_12
Ce1 0.00557(12) 0.01588(14) 0.00639(12) -0.00123(11) 0.00144(8) -0.00179(11)
O1A 0.0118(17) 0.0223(19) 0.0107(17) -0.0041(16) 0.0015(13) -0.0050(16)
O8A 0.0057(16) 0.023(2) 0.0148(18) 0.0012(16) 0.0040(14) 0.0017(15)
O9B 0.0092(17) 0.022(2) 0.0096(17) -0.0028(15) 0.0036(14) -0.0009(15)
O8B 0.0090(17) 0.033(2) 0.0117(18) -0.0031(17) 0.0021(14) 0.0054(16)
O2 0.018(2) 0.018(2) 0.017(2) -0.0042(16) -0.0020(16) -0.0029(16)
O9A 0.0092(17) 0.023(2) 0.0088(17) -0.0010(15) 0.0007(14) 0.0053(15)
O1B 0.0107(17) 0.0158(19) 0.0149(18) 0.0031(15) 0.0005(14) 0.0022(14)
N5 0.0082(18) 0.018(2) 0.0083(19) 0.0034(18) 0.0020(15) 0.0027(17)
O1 0.052(3) 0.021(2) 0.025(2) 0.009(2) 0.022(2) 0.013(2)
C6 0.008(2) 0.014(2) 0.011(2) -0.0005(19) 0.0010(18) 0.0013(18)
C8 0.010(2) 0.014(2) 0.012(2) 0.0009(19) 0.0042(19) 0.0015(18)
C4 0.005(2) 0.018(3) 0.009(2) 0.0006(19) 0.0009(17) 0.0027(18)
C3 0.010(2) 0.017(2) 0.008(2) 0.002(2) 0.0014(17) 0.003(2)
C7 0.008(2) 0.018(2) 0.009(2) 0.0006(19) 0.0002(18) 0.0004(19)
C1 0.006(2) 0.013(2) 0.007(2) 0.0035(18) 0.0002(17) -0.0012(17)
C9 0.008(2) 0.015(2) 0.010(2) 0.0020(19) 0.0036(18) 0.0007(18)
C2 0.008(2) 0.015(2) 0.008(2) 0.0019(19) -0.0010(17) 0.0000(18)
O4 0.064(10) 0.032(7) 0.046(8) 0.006(6) 0.021(7) 0.031(7)
O3 0.046(7) 0.086(10) 0.041(7) -0.035(7) 0.018(6) -0.035(7)
O5 0.021(6) 0.054(9) 0.032(6) -0.001(6) -0.002(5) -0.016(6)
loop_
_atom_type_symbol
_atom_type_description
_atom_type_scat_dispersion_real
_atom_type_scat_dispersion_imag
_atom_type_scat_source
C C 0.0033 0.0016 'International Tables Vol C Tables 4.2.6.8 and 6.1.1.4'
H H 0.0000 0.0000 'International Tables Vol C Tables 4.2.6.8 and 6.1.1.4'
Ce Ce -0.2486 2.6331 'International Tables Vol C Tables 4.2.6.8 and 6.1.1.4'
N N 0.0061 0.0033 'International Tables Vol C Tables 4.2.6.8 and 6.1.1.4'
O O 0.0106 0.0060 'International Tables Vol C Tables 4.2.6.8 and 6.1.1.4'
loop_
_exptl_crystal_face_index_h
_exptl_crystal_face_index_k
_exptl_crystal_face_index_l
_exptl_crystal_face_perp_dist
-1 15 -8 0.0442
0 -13 12 0.0504
-1 11 15 0.0343
10 1 -2 0.0427
-10 0 2 0.0711
0 -14 -10 0.0397
7 4 -15 0.0578
5 14 -6 0.0507
0 14 10 0.0346
-8 0 14 0.0604
2 -2 -19 0.0644
loop_
_geom_angle_atom_site_label_1
_geom_angle_atom_site_label_2
_geom_angle_atom_site_label_3
_geom_angle
_geom_angle_site_symmetry_1
_geom_angle_site_symmetry_3
_geom_angle_publ_flag
O1A Ce1 O8A 76.40(14) . 4_585 ?
O1A Ce1 O9B 73.95(13) . 1_455 ?
O1A Ce1 O8B 141.62(14) . 4_485 ?
O1A Ce1 O2 70.79(13) . . ?
O1A Ce1 O9A 70.41(13) . 4_485 ?
O1A Ce1 O1B 139.35(13) . 2_546 ?
O1A Ce1 N5 120.42(14) . 4_485 ?
O1A Ce1 O1 115.81(17) . . ?
O8A Ce1 O2 143.73(14) 4_585 . ?
O8A Ce1 O9A 80.15(13) 4_585 4_485 ?
O8A Ce1 O1B 68.71(13) 4_585 2_546 ?
O8A Ce1 N5 123.92(13) 4_585 4_485 ?
O8A Ce1 O1 72.09(15) 4_585 . ?
O9B Ce1 O8A 113.28(13) 1_455 4_585 ?
O9B Ce1 O8B 74.71(13) 1_455 4_485 ?
O9B Ce1 O2 72.05(13) 1_455 . ?
O9B Ce1 O9A 137.41(13) 1_455 4_485 ?
O9B Ce1 O1B 139.09(13) 1_455 2_546 ?
O9B Ce1 N5 122.71(13) 1_455 4_485 ?
O9B Ce1 O1 69.82(15) 1_455 . ?
O8B Ce1 O8A 137.33(14) 4_485 4_585 ?
O8B Ce1 O2 78.89(14) 4_485 . ?
O8B Ce1 O9A 123.65(13) 4_485 4_485 ?
O8B Ce1 O1B 78.84(14) 4_485 2_546 ?
O8B Ce1 N5 62.18(13) 4_485 4_485 ?
O8B Ce1 O1 72.31(17) 4_485 . ?
O9A Ce1 O2 74.74(14) 4_485 . ?
O9A Ce1 O1B 83.41(13) 4_485 2_546 ?
O9A Ce1 N5 61.57(13) 4_485 4_485 ?
O9A Ce1 O1 148.36(15) 4_485 . ?
O1B Ce1 O2 132.08(13) 2_546 . ?
O1B Ce1 N5 67.64(14) 2_546 4_485 ?
O1B Ce1 O1 72.71(15) 2_546 . ?
N5 Ce1 O2 64.44(14) 4_485 . ?
O1 Ce1 O2 136.87(15) . . ?
O1 Ce1 N5 123.66(18) . 4_485 ?
C1 O1A Ce1 126.3(3) . . ?
C8 O8A Ce1 149.9(4) . 4_586 ?
C9 O9B Ce1 170.0(4) . 1_655 ?
C8 O8B Ce1 125.0(3) . 4_686 ?
Ce1 O2 H2A 128(5) . . ?
Ce1 O2 H2B 119(5) . . ?
H2A O2 H2B 110(5) . . ?
C9 O9A Ce1 126.4(3) . 4_686 ?
C1 O1B Ce1 133.2(3) . 2_556 ?
C6 N5 Ce1 119.9(3) . 4_686 ?
C6 N5 C4 119.0(4) . . ?
C4 N5 Ce1 120.8(3) . 4_686 ?
Ce1 O1 H1A 120(6) . . ?
Ce1 O1 H1B 121(6) . . ?
H1A O1 H1B 118(6) . . ?
N5 C6 C8 113.8(4) . . ?
N5 C6 C7 123.0(5) . . ?
C7 C6 C8 123.1(5) . . ?
O8A C8 C6 118.0(5) . . ?
O8B C8 O8A 125.4(5) . . ?
O8B C8 C6 116.6(5) . . ?
N5 C4 C3 122.2(5) . . ?
N5 C4 C9 114.3(4) . . ?
C3 C4 C9 123.5(5) . . ?
C4 C3 H3 120.9 . . ?
C4 C3 C2 118.2(5) . . ?
C2 C3 H3 120.9 . . ?
C6 C7 H7 121.3 . . ?
C6 C7 C2 117.4(5) . . ?
C2 C7 H7 121.3 . . ?
O1A C1 C2 116.4(5) . . ?
O1B C1 O1A 125.2(5) . . ?
O1B C1 C2 118.4(5) . . ?
O9B C9 O9A 125.3(5) . . ?
O9B C9 C4 118.7(5) . . ?
O9A C9 C4 116.0(5) . . ?
C3 C2 C1 119.7(5) . . ?
C7 C2 C3 119.8(5) . . ?
C7 C2 C1 120.5(5) . . ?
loop_
_geom_bond_atom_site_label_1
_geom_bond_atom_site_label_2
_geom_bond_distance
_geom_bond_site_symmetry_2
_geom_bond_publ_flag
Ce1 O1A 2.463(4) . ?
Ce1 O8A 2.499(4) 4_585 ?
Ce1 O9B 2.467(4) 1_455 ?
Ce1 O8B 2.499(4) 4_485 ?
Ce1 O2 2.627(4) . ?
Ce1 O9A 2.515(4) 4_485 ?
Ce1 O1B 2.531(4) 2_546 ?
Ce1 N5 2.607(4) 4_485 ?
Ce1 O1 2.600(5) . ?
O1A C1 1.261(6) . ?
O8A Ce1 2.499(4) 4_586 ?
O8A C8 1.261(6) . ?
O9B Ce1 2.467(4) 1_655 ?
O9B C9 1.257(6) . ?
O8B Ce1 2.499(4) 4_686 ?
O8B C8 1.258(7) . ?
O2 H2A 0.82(2) . ?
O2 H2B 0.82(2) . ?
O9A Ce1 2.515(4) 4_686 ?
O9A C9 1.257(6) . ?
O1B Ce1 2.531(4) 2_556 ?
O1B C1 1.258(6) . ?
N5 Ce1 2.607(4) 4_686 ?
N5 C6 1.339(6) . ?
N5 C4 1.341(6) . ?
O1 H1A 0.81(2) . ?
O1 H1B 0.81(2) . ?
C6 C8 1.507(7) . ?
C6 C7 1.388(7) . ?
C4 C3 1.387(7) . ?
C4 C9 1.518(7) . ?
C3 H3 0.9500 . ?
C3 C2 1.398(7) . ?
C7 H7 0.9500 . ?
C7 C2 1.396(7) . ?
C1 C2 1.508(7) . ?
loop_
_geom_hbond_atom_site_label_D
_geom_hbond_atom_site_label_H
_geom_hbond_atom_site_label_A
_geom_hbond_distance_DH
_geom_hbond_distance_HA
_geom_hbond_distance_DA
_geom_hbond_angle_DHA
_geom_hbond_site_symmetry_A
O2 H2A O8A 0.82(2) 2.21(4) 2.978(6) 156(6) 3_587
O2 H2A O1B 0.82(2) 2.52(5) 3.114(6) 131(6) .
O2 H2B O4 0.82(2) 2.32(4) 3.105(16) 159(7) 3_486
O2 H2B O5 0.82(2) 1.89(3) 2.689(13) 164(8) 3_486
O1 H1A O4 0.81(2) 2.45(4) 3.211(16) 158(9) 2_546
O1 H1A O3 0.81(2) 2.22(8) 2.727(13) 122(8) 2_546
O1 H1B O2 0.81(2) 2.58(9) 3.047(7) 119(8) 2_546
O1 H1B O9A 0.81(2) 2.59(5) 3.314(6) 150(7) 3_677
loop_
_exptl_oxdiff_crystal_face_indexfrac_h
_exptl_oxdiff_crystal_face_indexfrac_k
_exptl_oxdiff_crystal_face_indexfrac_l
_exptl_oxdiff_crystal_face_x
_exptl_oxdiff_crystal_face_y
_exptl_oxdiff_crystal_face_z
-1.0005 15.0006 -7.9982 -0.5250 -0.6591 0.5291
0.0015 -12.9998 11.9975 0.6500 0.6880 -0.3149
-0.9990 11.0034 14.9973 0.1912 0.2635 0.9658
9.9909 0.9993 -2.0001 -0.7655 0.7126 -0.0483
-9.9909 0.0008 2.0001 0.7402 -0.7316 0.0980
0.0004 -14.0029 -9.9983 0.0871 -0.1031 -0.9726
6.9927 3.9980 -14.9974 -0.9830 -0.0644 -0.2455
4.9943 14.0005 -5.9988 -0.8583 -0.0834 0.5090
-0.0004 14.0029 9.9983 -0.0871 0.1031 0.9726
-7.9921 0.0023 13.9977 0.9237 -0.1287 0.4211
1.9973 -2.0030 -18.9965 -0.5947 -0.5007 -0.6331
