#------------------------------------------------------------------------------
#$Date: 2022-01-19 01:56:57 +0200 (Wed, 19 Jan 2022) $
#$Revision: 272118 $
#$URL: file:///home/coder/svn-repositories/cod/cif/7/70/93/7709322.cif $
#------------------------------------------------------------------------------
#
# This file is available in the Crystallography Open Database (COD),
# http://www.crystallography.net/
#
# All data on this site have been placed in the public domain by the
# contributors.
#
data_7709322
loop_
_publ_author_name
'Wu, Jiaqi'
'Ma, Xin-Yue'
'Liang, Chenglong'
'Lu, Jian-Mei'
'shi, qian'
'Shao, Li-Xiong'
_publ_section_title
;
 Design of an antenna effective Eu(III)-based metal-organic framework for
 highly selective sensing of Fe3+
;
_journal_name_full               'Dalton Transactions'
_journal_paper_doi               10.1039/D1DT03995D
_journal_year                    2022
_chemical_formula_moiety         'C34 H23 Eu O10, C3 H7 N O'
_chemical_formula_sum            'C37 H30 Eu N O11'
_chemical_formula_weight         816.58
_space_group_crystal_system      triclinic
_space_group_IT_number           2
_space_group_name_Hall           '-P 1'
_space_group_name_H-M_alt        'P -1'
_atom_sites_solution_hydrogens   mixed
_atom_sites_solution_primary     dual
_audit_creation_date             2021-04-25
_audit_creation_method
; 
Olex2 1.2 
(compiled 2018.05.29 svn.r3508 for OlexSys, GUI svn.r5506) 
;
_audit_update_record
;
2021-08-07 deposited with the CCDC.	2022-01-18 downloaded from the CCDC.
;
_cell_angle_alpha                97.4790(10)
_cell_angle_beta                 101.0320(10)
_cell_angle_gamma                97.9230(10)
_cell_formula_units_Z            2
_cell_length_a                   10.6648(4)
_cell_length_b                   10.9074(4)
_cell_length_c                   17.4597(7)
_cell_measurement_reflns_used    9978
_cell_measurement_temperature    213
_cell_measurement_theta_max      54.618
_cell_measurement_theta_min      5.012
_cell_volume                     1948.68(13)
_computing_cell_refinement       'SAINT v8.37A (Bruker, 2015)'
_computing_data_collection       'Bruker APEX2'
_computing_data_reduction        'SAINT v8.37A (Bruker, 2015)'
_computing_molecular_graphics    'Olex2 (Dolomanov et al., 2009)'
_computing_publication_material  'Olex2 (Dolomanov et al., 2009)'
_computing_structure_refinement  'ShelXL (Sheldrick, 2015)'
_computing_structure_solution    'ShelXT (Sheldrick, 2015)'
_diffrn_ambient_temperature      212.97
_diffrn_measured_fraction_theta_full 0.998
_diffrn_measured_fraction_theta_max 0.998
_diffrn_measurement_device_type  'Bruker APEX-II CCD'
_diffrn_measurement_method       '\f and \w scans'
_diffrn_radiation_type           MoK\a
_diffrn_radiation_wavelength     0.71073
_diffrn_reflns_av_R_equivalents  0.0593
_diffrn_reflns_av_unetI/netI     0.0580
_diffrn_reflns_Laue_measured_fraction_full 0.998
_diffrn_reflns_Laue_measured_fraction_max 0.998
_diffrn_reflns_limit_h_max       12
_diffrn_reflns_limit_h_min       -12
_diffrn_reflns_limit_k_max       13
_diffrn_reflns_limit_k_min       -12
_diffrn_reflns_limit_l_max       21
_diffrn_reflns_limit_l_min       -21
_diffrn_reflns_number            28583
_diffrn_reflns_point_group_measured_fraction_full 0.998
_diffrn_reflns_point_group_measured_fraction_max 0.998
_diffrn_reflns_theta_full        25.242
_diffrn_reflns_theta_max         25.500
_diffrn_reflns_theta_min         2.408
_diffrn_standards_number         0
_exptl_absorpt_coefficient_mu    1.665
_exptl_absorpt_correction_T_max  0.7456
_exptl_absorpt_correction_T_min  0.6309
_exptl_absorpt_correction_type   multi-scan
_exptl_crystal_colour            colourless
_exptl_crystal_colour_primary    colourless
_exptl_crystal_density_diffrn    1.392
_exptl_crystal_description       plate
_exptl_crystal_F_000             820
_exptl_crystal_size_max          0.14
_exptl_crystal_size_mid          0.11
_exptl_crystal_size_min          0.06
_refine_diff_density_max         1.545
_refine_diff_density_min         -1.113
_refine_diff_density_rms         0.131
_refine_ls_extinction_method     none
_refine_ls_goodness_of_fit_ref   1.090
_refine_ls_hydrogen_treatment    constr
_refine_ls_matrix_type           full
_refine_ls_number_parameters     443
_refine_ls_number_reflns         7245
_refine_ls_number_restraints     55
_refine_ls_restrained_S_all      1.110
_refine_ls_R_factor_all          0.0540
_refine_ls_R_factor_gt           0.0440
_refine_ls_shift/su_max          0.001
_refine_ls_shift/su_mean         0.000
_refine_ls_structure_factor_coef Fsqd
_refine_ls_weighting_details
'w=1/[\s^2^(Fo^2^)+(0.0599P)^2^+2.5831P] where P=(Fo^2^+2Fc^2^)/3'
_refine_ls_weighting_scheme      calc
_refine_ls_wR_factor_gt          0.1094
_refine_ls_wR_factor_ref         0.1161
_reflns_Friedel_coverage         0.000
_reflns_number_gt                6245
_reflns_number_total             7245
_reflns_threshold_expression     'I > 2\s(I)'
_cod_data_source_file            d1dt03995d2.cif
_cod_data_source_block           mo_dd21118_0m
_cod_database_code               7709322
_shelxl_version_number           2013-4
_shelx_space_group_comment
; 
The symmetry employed for this shelxl refinement is uniquely defined 
by the following loop, which should always be used as a source of 
symmetry information in preference to the above space-group names. 
They are only intended as comments. 
;
_shelx_estimated_absorpt_t_max   0.907
_shelx_estimated_absorpt_t_min   0.800
_olex2_refinement_description
; 
1. Fixed Uiso 
 At 1.2 times of: 
  All C(H) groups 
 At 1.5 times of: 
  All C(H,H,H) groups, All O(H) groups, All O(H,H) groups 
2. Rigid bond restraints 
 O7, C34 
 with sigma for 1-2 distances of 0.003 and sigma for 1-3 distances of 0.003 
3. Uiso/Uaniso restraints and constraints 
O7 \\sim O8 \\sim C28 \\sim C29 \\sim C30 \\sim C31 \\sim C32 \\sim C33 \\sim 
C34: within 2A with sigma of 0.004 and sigma for terminal atoms of 0.008 
C36: within 2A with sigma of 0.004 and sigma for terminal atoms of 0.008 
4.a Rotating group: 
 O9(H9A,H9B), O10(H10A,H10B) 
4.b Aromatic/amide H refined with riding coordinates: 
 C3(H3), C4(H4), C5(H5), C6(H6), C9(H9), C10(H10), C12(H12), C13(H13), 
 C15(H15), C20(H20), C23(H23), C24(H24), C26(H26), C27(H27), C29(H29), C30(H30), 
  C31(H31), C32(H32), C35(H35) 
4.c Fitted hexagon refined as free rotating group: 
 C28(C29,C30,C31,C32,C33) 
4.d Tetrahedral OH refined with riding coordinates: 
 O8(H8) 
4.e Idealised Me refined as rotating group: 
 C36(H36A,H36B,H36C), C37(H37A,H37B,H37C) 
;
_shelx_res_file
; 
TITL mo_dd21118_0m_a.res in P-1 
CELL 0.71073 10.6648 10.9074 17.4597 97.479 101.032 97.923 
ZERR 2 0.0004 0.0004 0.0007 0.001 0.001 0.001 
LATT 1 
SFAC C H Eu N O 
UNIT 74 60 2 2 22 
DELU 0.003 0.003 O7 C34 
SIMU 0.004 0.008 2 O7 O8 C28 > C34 
SIMU 0.004 0.008 2 C36 
  
L.S. 9 
PLAN  60 
SIZE 0.14 0.11 0.06 
TEMP -60.18 
BOND $H 
LIST 4 
ABIN 
fmap 2 
acta 
OMIT -3 51 
OMIT 0 -1 1 
OMIT -1 0 1 
OMIT 0 1 0 
OMIT 1 0 0 
OMIT -1 2 1 
OMIT -1 1 1 
OMIT 0 1 1 
OMIT 1 0 1 
REM <olex2.extras> 
REM <HklSrc "%.\\mo_dd21118_0m.hkl"> 
REM </olex2.extras> 
  
WGHT    0.059900    2.583100 
FVAR       0.14213 
EU1   3    0.291372    0.457520    0.467705    11.00000    0.01397    0.01132 = 
         0.02906    0.00395    0.00520    0.00223 
O1    5    0.443016    0.417185    0.392149    11.00000    0.03745    0.02932 = 
         0.04914    0.01019    0.02703    0.01296 
O2    5    0.652162    0.459697    0.394708    11.00000    0.02522    0.03067 = 
         0.03062    0.00502    0.00377    0.00544 
O3    5    1.113741    0.335838    0.509862    11.00000    0.03007    0.01385 = 
         0.05797    0.00068    0.02495   -0.00161 
O4    5    1.178319    0.235573    0.410826    11.00000    0.02256    0.01791 = 
         0.03496    0.00456    0.00745   -0.00217 
O5    5    0.384496    0.664144    0.462925    11.00000    0.02039    0.01535 = 
         0.04004    0.00763    0.00438    0.00148 
O6    5    0.597424    0.690866    0.468716    11.00000    0.01988    0.01775 = 
         0.04204    0.00640    0.00698    0.00941 
O7    5    1.066182    1.446236    0.670924    11.00000    0.08366    0.08642 = 
         0.06776    0.02115   -0.01525    0.02804 
O8    5    1.245875    1.377880    0.703022    11.00000    0.09999    0.18220 = 
         0.11274    0.04606    0.04011    0.03677 
AFIX  83 
H8    2    1.250120    1.387968    0.657225    11.00000   -1.50000 
AFIX   0 
O9    5    0.140048    0.604080    0.489152    11.00000    0.02409    0.03025 = 
         0.07078   -0.00290    0.00946    0.01129 
AFIX   7 
H9A   2    0.115266    0.601494    0.535730    11.00000   -1.50000 
H9B   2    0.064358    0.580077    0.453663    11.00000   -1.50000 
AFIX   0 
O10   5    0.163261    0.463470    0.340619    11.00000    0.05300    0.03387 = 
         0.04534    0.00788   -0.01041    0.00478 
AFIX   7 
H10A  2    0.080699    0.470161    0.342834    11.00000   -1.50000 
H10B  2    0.153970    0.390105    0.308199    11.00000   -1.50000 
AFIX   0 
C1    1    0.537594    0.420827    0.359119    11.00000    0.03343    0.01613 = 
         0.03293    0.00973    0.01316    0.01421 
C2    1    0.512352    0.380654    0.271420    11.00000    0.02330    0.02911 = 
         0.03464    0.00837    0.00571    0.00735 
C3    1    0.418507    0.432736    0.223757    11.00000    0.03402    0.04505 = 
         0.04031    0.01028    0.00539    0.01757 
AFIX  43 
H3    2    0.369167    0.484919    0.247903    11.00000   -1.20000 
AFIX   0 
C4    1    0.397729    0.409472    0.144170    11.00000    0.05248    0.06779 = 
         0.03754    0.01337   -0.00662    0.02690 
AFIX  43 
H4    2    0.334789    0.445258    0.113199    11.00000   -1.20000 
AFIX   0 
C5    1    0.470873    0.331503    0.108220    11.00000    0.06371    0.06544 = 
         0.02733    0.00507   -0.00176    0.02221 
AFIX  43 
H5    2    0.458489    0.316351    0.052827    11.00000   -1.20000 
AFIX   0 
C6    1    0.561186    0.276711    0.153773    11.00000    0.04236    0.04619 = 
         0.03328   -0.00239    0.00605    0.01671 
AFIX  43 
H6    2    0.608375    0.222826    0.129055    11.00000   -1.20000 
AFIX   0 
C7    1    0.583073    0.300482    0.235990    11.00000    0.02641    0.02854 = 
         0.02997    0.00552    0.00582    0.00715 
C8    1    0.671450    0.232547    0.283628    11.00000    0.02581    0.02300 = 
         0.02910    0.00272    0.00608    0.00536 
C9    1    0.798752    0.230009    0.274964    11.00000    0.03024    0.03034 = 
         0.02887    0.01191    0.01032    0.00559 
AFIX  43 
H9    2    0.828927    0.269578    0.235677    11.00000   -1.20000 
AFIX   0 
C10   1    0.881642    0.170280    0.323153    11.00000    0.02213    0.02730 = 
         0.03482    0.01053    0.00792    0.00222 
AFIX  43 
H10   2    0.966533    0.169577    0.315681    11.00000   -1.20000 
AFIX   0 
C11   1    0.840862    0.111650    0.382159    11.00000    0.02280    0.01122 = 
         0.03253    0.00030    0.00378    0.00058 
C12   1    0.711846    0.110277    0.389261    11.00000    0.01963    0.02052 = 
         0.04047    0.01366    0.01385    0.00237 
AFIX  43 
H12   2    0.680468    0.067980    0.427133    11.00000   -1.20000 
AFIX   0 
C13   1    0.630606    0.170229    0.341350    11.00000    0.02177    0.02503 = 
         0.04219    0.00911    0.00923    0.00749 
AFIX  43 
H13   2    0.545003    0.168940    0.347901    11.00000   -1.20000 
AFIX   0 
C14   1    0.926861    0.054295    0.440137    11.00000    0.01944    0.01294 = 
         0.02929    0.00274    0.00627    0.00350 
C15   1    0.878283   -0.060276    0.460490    11.00000    0.01630    0.01588 = 
         0.03110    0.00445    0.00292    0.00116 
AFIX  43 
H15   2    0.795531   -0.102246    0.433523    11.00000   -1.20000 
AFIX   0 
C16   1    1.051512    0.114359    0.480546    11.00000    0.01944    0.01006 = 
         0.03277    0.00206    0.01053    0.00234 
C17   1    1.116396    0.236193    0.464747    11.00000    0.01295    0.01622 = 
         0.03455    0.00611    0.00489    0.00192 
C18   1    0.492727    0.730950    0.468368    11.00000    0.02175    0.01829 = 
         0.02197    0.00459    0.00187    0.00272 
C19   1    0.496338    0.871043    0.478700    11.00000    0.01660    0.01270 = 
         0.02786    0.00736    0.01260    0.00338 
C20   1    0.589247    0.941438    0.542037    11.00000    0.01276    0.01598 = 
         0.03309    0.00905    0.00667    0.00576 
AFIX  43 
H20   2    0.650969    0.900850    0.570158    11.00000   -1.20000 
AFIX   0 
C21   1    0.594411    1.070517    0.565553    11.00000    0.01853    0.01681 = 
         0.02986    0.00742    0.00834    0.00474 
C22   1    0.696069    1.138416    0.633808    11.00000    0.02251    0.01675 = 
         0.03246    0.00596    0.00149    0.00096 
C23   1    0.670411    1.223893    0.692936    11.00000    0.03304    0.02238 = 
         0.03846    0.00380    0.00407    0.01041 
AFIX  43 
H23   2    0.585435    1.239520    0.690938    11.00000   -1.20000 
AFIX   0 
C24   1    0.769847    1.286065    0.754784    11.00000    0.05677    0.02458 = 
         0.03258    0.00089   -0.00233    0.00409 
AFIX  43 
H24   2    0.751343    1.343652    0.794329    11.00000   -1.20000 
AFIX   0 
C25   1    0.895978    1.264795    0.759316    11.00000    0.03828    0.03424 = 
         0.04317    0.00925   -0.01596   -0.00302 
C26   1    0.919756    1.174588    0.703473    11.00000    0.03043    0.05639 = 
         0.06070    0.00145   -0.00346    0.00666 
AFIX  43 
H26   2    1.003406    1.154262    0.707891    11.00000   -1.20000 
AFIX   0 
C27   1    0.822410    1.114242    0.641524    11.00000    0.02679    0.03678 = 
         0.04921    0.00104    0.00263    0.00865 
AFIX  43 
H27   2    0.841397    1.054894    0.603173    11.00000   -1.20000 
AFIX  66 
C28   1    1.011230    1.332687    0.820981    11.00000    0.06789    0.08254 = 
         0.05777    0.02796   -0.00597   -0.01122 
C29   1    1.005214    1.333529    0.899871    11.00000    0.08050    0.09251 = 
         0.06264    0.02039   -0.00792   -0.01382 
AFIX  43 
H29   2    0.928556    1.297509    0.913111    11.00000   -1.20000 
AFIX  65 
C30   1    1.112554    1.387634    0.959182    11.00000    0.08657    0.10433 = 
         0.06422    0.01624   -0.01488   -0.01052 
AFIX  43 
H30   2    1.108485    1.388203    1.012532    11.00000   -1.20000 
AFIX  65 
C31   1    1.225911    1.440896    0.939604    11.00000    0.08339    0.11021 = 
         0.06503    0.01869   -0.01284   -0.00881 
AFIX  43 
H31   2    1.298501    1.477485    0.979714    11.00000   -1.20000 
AFIX  65 
C32   1    1.231928    1.440055    0.860715    11.00000    0.07639    0.10374 = 
         0.06968    0.02239   -0.00975   -0.00713 
AFIX  43 
H32   2    1.308588    1.476074    0.847475    11.00000   -1.20000 
AFIX  65 
C33   1    1.124590    1.385951    0.801403    11.00000    0.07047    0.09542 = 
         0.06672    0.02803   -0.00302   -0.00144 
AFIX   0 
C34   1    1.130379    1.404953    0.717975    11.00000    0.06991    0.10472 = 
         0.07208    0.03769    0.00580    0.01733 
O11   5    0.111903    0.269294    0.219927    11.00000    0.06989    0.08564 = 
         0.06571   -0.00986    0.00820    0.00669 
N1    4    0.202813    0.108663    0.169987    11.00000    0.11715    0.06556 = 
         0.05015   -0.00423    0.00463    0.02640 
C35   1    0.187672    0.190349    0.226827    11.00000    0.07233    0.07794 = 
         0.04708    0.00380    0.01480    0.00144 
AFIX  43 
H35   2    0.237372    0.190871    0.277555    11.00000   -1.20000 
AFIX   0 
C36   1    0.129331    0.101008    0.089568    11.00000    0.32697    0.23385 = 
         0.08051   -0.06470   -0.06980    0.17245 
AFIX 137 
H36A  2    0.188413    0.120358    0.055266    11.00000   -1.50000 
H36B  2    0.069725    0.160674    0.088824    11.00000   -1.50000 
H36C  2    0.080936    0.016896    0.071075    11.00000   -1.50000 
AFIX   0 
C37   1    0.300107    0.026110    0.184558    11.00000    0.11509    0.06891 = 
         0.08686    0.02183    0.02587    0.01575 
AFIX 137 
H37A  2    0.345242    0.045343    0.239566    11.00000   -1.50000 
H37B  2    0.361807    0.039295    0.150979    11.00000   -1.50000 
H37C  2    0.257363   -0.060690    0.172727    11.00000   -1.50000 
AFIX   0 
HKLF 4 
  
REM  mo_dd21118_0m_a.res in P-1 
REM R1 =  0.0440 for    6245 Fo > 4sig(Fo)  and  0.0540 for all    7245 data 
REM    443 parameters refined using     55 restraints 
  
END 
  
WGHT      0.0547      3.9113 
  
REM Highest difference peak  1.545,  deepest hole -1.113,  1-sigma level  0.131 
Q1    1   1.0881  1.3032  0.8817  11.00000  0.05    1.55 
Q2    1   0.9782  1.4713  0.8443  11.00000  0.05    1.31 
Q3    1   0.3191  0.4789  0.5381  11.00000  0.05    1.15 
Q4    1   1.1776  1.5216  0.9520  11.00000  0.05    1.13 
Q5    1   0.9834  1.3406  0.8415  11.00000  0.05    1.12 
Q6    1   0.2703  0.4516  0.4003  11.00000  0.05    1.10 
Q7    1   0.0457 -0.0969  0.1010  11.00000  0.05    0.94 
Q8    1   1.3021  1.2990  0.7331  11.00000  0.05    0.88 
Q9    1   1.1824  1.3840  0.9368  11.00000  0.05    0.82 
Q10   1   1.1885  1.3054  0.6696  11.00000  0.05    0.64 
Q11   1   0.8462  1.2637  0.7952  11.00000  0.05    0.57 
Q12   1   1.0193  1.4266  0.6702  11.00000  0.05    0.56 
Q13   1   0.6467  0.5030  0.3430  11.00000  0.05    0.54 
Q14   1   0.1351  0.6324  0.6019  11.00000  0.05    0.50 
Q15   1   0.5566  0.9193  0.4892  11.00000  0.05    0.47 
Q16   1   1.1767  0.3115  0.4316  11.00000  0.05    0.45 
Q17   1   1.0534  1.4833  0.6326  11.00000  0.05    0.44 
Q18   1   0.1485  0.5602  0.5426  11.00000  0.05    0.43 
Q19   1   0.1813  0.7002  0.5690  11.00000  0.05    0.42 
Q20   1   1.1804  0.3110  0.5326  11.00000  0.05    0.42 
Q21   1   0.1966  0.1640  0.1105  11.00000  0.05    0.42 
Q22   1   1.0576  1.2128  0.8966  11.00000  0.05    0.41 
Q23   1   0.3219  0.0799  0.3260  11.00000  0.05    0.41 
Q24   1   1.0604  0.3142  0.5241  11.00000  0.05    0.40 
Q25   1   1.4015  1.5655  0.9115  11.00000  0.05    0.40 
Q26   1   1.4053  1.4232  0.8235  11.00000  0.05    0.39 
Q27   1   0.0348  0.5696  0.6020  11.00000  0.05    0.39 
Q28   1   0.9083  1.2299  0.6793  11.00000  0.05    0.38 
Q29   1   1.1369  0.2088  0.3438  11.00000  0.05    0.37 
Q30   1   0.0390  0.6178  0.4975  11.00000  0.05    0.37 
Q31   1   1.2316  1.2585  0.6140  11.00000  0.05    0.37 
Q32   1   0.1631  0.4232  0.4194  11.00000  0.05    0.37 
Q33   1   1.1373  1.4185  0.6567  11.00000  0.05    0.36 
Q34   1   1.0091  1.1816  0.6853  11.00000  0.05    0.36 
Q35   1   1.1259  1.4777  0.6534  11.00000  0.05    0.36 
Q36   1   0.1088  0.5011  0.3241  11.00000  0.05    0.36 
Q37   1   1.2391  0.1560  0.4150  11.00000  0.05    0.36 
Q38   1   0.6732  1.1249  0.5805  11.00000  0.05    0.36 
Q39   1   1.0969  0.3180  0.4737  11.00000  0.05    0.36 
Q40   1   1.0029  0.0990  0.4700  11.00000  0.05    0.36 
Q41   1   0.2328  0.3674  0.4065  11.00000  0.05    0.35 
Q42   1   0.4265  0.4014  0.2710  11.00000  0.05    0.35 
Q43   1   0.2391  0.4398  0.2862  11.00000  0.05    0.35 
Q44   1   1.0347  1.1260  0.6206  11.00000  0.05    0.35 
Q45   1   0.3342  0.5947  0.4451  11.00000  0.05    0.35 
Q46   1   1.0779  1.5932  0.6452  11.00000  0.05    0.34 
Q47   1   0.1970  0.3180  0.2020  11.00000  0.05    0.34 
Q48   1   0.9949  1.2752  0.7034  11.00000  0.05    0.34 
Q49   1   0.5810  0.5139  0.2613  11.00000  0.05    0.34 
Q50   1   0.5919  1.0286  0.5350  11.00000  0.05    0.34 
Q51   1   1.1975  0.3749  0.5048  11.00000  0.05    0.34 
Q52   1   0.6950  1.1397  0.6931  11.00000  0.05    0.34 
Q53   1   0.8633  0.0987  0.4269  11.00000  0.05    0.33 
Q54   1   0.1672  0.0995  0.0855  11.00000  0.05    0.33 
Q55   1   0.5560  0.6775  0.3847  11.00000  0.05    0.33 
Q56   1   1.4264  1.4919  0.8669  11.00000  0.05    0.33 
Q57   1   1.1335  1.5301  0.6150  11.00000  0.05    0.33 
Q58   1   0.8777  1.1886  0.6506  11.00000  0.05    0.33 
Q59   1   0.9282  0.0575  0.4836  11.00000  0.05    0.33 
Q60   1   1.2047  1.3247  0.7578  11.00000  0.05    0.33 
;
_shelx_res_checksum              30803
_shelx_fab_file
; 
-12 -3 4 -0.5937 0.0526 
-12 -3 5 -0.7145 -0.1536 
-12 -3 6 0.8651 -0.1901 
-12 -2 1 -2.3931 -0.0578 
-12 -2 2 -2.1916 -0.0199 
-12 -2 3 1.6314 -0.0043 
-12 -2 4 0.6151 0.0538 
-12 -2 5 -2.1696 0.0432 
-12 -2 6 -1.2410 -0.0584 
-12 -2 7 -1.3477 -0.0029 
-12 -2 8 -2.3168 -0.0272 
-12 -2 9 -1.2121 -0.1267 
-12 -1 1 1.9242 0.1117 
-12 -1 2 -1.9146 0.1437 
-12 -1 3 -0.7636 0.0070 
-12 -1 4 0.7355 -0.1062 
-12 -1 5 -1.2057 -0.0539 
-12 -1 6 -0.5286 -0.0274 
-12 -1 7 0.7923 0.0417 
-12 -1 8 -0.6040 0.1379 
-12 -1 9 -1.1333 -0.0781 
-12 -1 10 -0.8533 -0.1626 
-12 0 1 5.6306 -0.1046 
-12 0 2 2.6866 -0.1359 
-12 0 3 0.7058 -0.0779 
-12 0 4 1.4084 -0.0182 
-12 0 5 -1.0174 0.0722 
-12 0 6 -2.1263 0.0490 
-12 0 7 0.7704 -0.1041 
-12 0 8 2.3124 -0.0518 
-12 0 9 2.3757 0.0487 
-12 0 10 2.3726 -0.0148 
-12 0 11 0.8697 0.0193 
-12 1 1 1.4023 0.0744 
-12 1 2 -0.2998 0.0451 
-12 1 3 -2.4153 0.0838 
-12 1 4 0.0965 0.0796 
-12 1 5 0.5970 0.0191 
-12 1 6 -2.0987 0.0385 
-12 1 7 -1.8312 0.0546 
-12 1 8 0.0368 0.0649 
-12 1 9 1.0064 0.1131 
-12 1 10 1.8354 0.0785 
-12 1 11 1.5494 0.0184 
-12 2 1 0.8815 -0.0328 
-12 2 2 0.1480 -0.0744 
-12 2 3 -3.5796 -0.0530 
-12 2 4 -2.5299 0.0320 
-12 2 5 1.2463 0.0087 
-12 2 6 0.9606 -0.0691 
-12 2 7 -0.7404 -0.0592 
-12 2 8 -1.0709 -0.0311 
-12 2 9 -0.7200 -0.0829 
-12 2 10 0.7769 -0.1527 
-12 2 11 1.6141 -0.0738 
-12 3 1 -0.7073 -0.0513 
-12 3 2 1.6077 0.0148 
-12 3 3 -0.0769 0.0745 
-12 3 4 -1.8204 0.0283 
-12 3 5 -0.1725 -0.0041 
-12 3 6 0.3654 -0.0135 
-12 3 7 -0.9893 -0.0115 
-12 3 8 -1.4221 0.0504 
-12 3 9 -1.2803 0.0881 
-12 3 10 0.1482 -0.0047 
-12 4 1 -2.3633 -0.0749 
-12 4 2 0.2963 -0.1224 
-12 4 3 0.2429 0.0814 
-12 4 4 -1.9803 0.0163 
-12 4 5 -1.6067 -0.1581 
-12 4 6 -0.1130 -0.0770 
-12 4 7 -0.6456 0.0174 
-12 4 8 -0.9671 -0.0695 
-12 4 9 -0.9681 -0.1595 
-12 5 1 -2.5600 0.1691 
-12 5 2 0.5597 -0.1993 
-12 5 3 2.3684 -0.1383 
-12 5 4 0.7341 0.0066 
-12 5 5 -0.3777 -0.0738 
-12 5 6 1.1087 -0.0043 
-12 5 7 0.9937 0.0979 
-12 5 8 -0.2061 -0.0145 
-12 6 1 -1.3379 0.2975 
-12 6 2 0.0360 0.2360 
-12 6 3 2.4466 0.0973 
-12 6 4 2.3162 0.0275 
-12 6 5 -0.3080 -0.1179 
-12 6 6 -0.8082 0.0073 
-11 -5 2 0.9234 -0.3268 
-11 -5 3 2.4202 -0.0848 
-11 -5 4 0.0295 0.1542 
-11 -5 5 -2.4774 0.0180 
-11 -5 6 -1.5202 -0.0717 
-11 -5 7 0.2688 0.0759 
-11 -5 8 0.6527 0.0999 
-11 -4 1 -2.5227 0.1404 
-11 -4 2 -2.6087 -0.0713 
-11 -4 3 0.2220 -0.0185 
-11 -4 4 -0.2445 0.1206 
-11 -4 5 -2.6859 -0.0055 
-11 -4 6 -1.0250 -0.2072 
-11 -4 7 1.1930 -0.1215 
-11 -4 8 0.8083 0.0454 
-11 -4 9 0.2203 0.0358 
-11 -4 10 0.2033 0.0943 
-11 -4 11 0.4214 0.0684 
-11 -3 1 -1.6115 0.0765 
-11 -3 2 -4.0150 -0.0889 
-11 -3 3 -1.1718 -0.1456 
-11 -3 4 2.2061 -0.0713 
-11 -3 5 0.7974 -0.0099 
-11 -3 6 0.8823 -0.0058 
-11 -3 7 2.4981 0.0313 
-11 -3 8 0.9163 0.0984 
-11 -3 9 -0.8555 -0.0580 
-11 -3 10 -0.8067 -0.1339 
-11 -3 11 -0.8622 0.0699 
-11 -3 12 -0.2791 0.0491 
-11 -2 1 1.6134 -0.0099 
-11 -2 2 -0.3012 0.0077 
-11 -2 3 -0.5385 0.0550 
-11 -2 4 2.8503 0.0535 
-11 -2 5 3.0029 -0.0256 
-11 -2 6 2.0891 -0.1019 
-11 -2 7 3.4386 -0.1600 
-11 -2 8 2.2533 -0.0365 
-11 -2 9 -0.3824 0.0589 
-11 -2 10 -0.5880 -0.0644 
-11 -2 11 -0.6106 0.0140 
-11 -2 12 -0.7468 0.0904 
-11 -2 13 1.4052 -0.1373 
-11 -1 1 -1.2084 0.0455 
-11 -1 2 -0.7033 0.0319 
-11 -1 3 -1.6208 0.0108 
-11 -1 4 0.4095 0.0028 
-11 -1 5 1.5741 0.0154 
-11 -1 6 0.0223 0.1206 
-11 -1 7 0.3596 0.0993 
-11 -1 8 0.2198 0.0113 
-11 -1 9 -1.8588 0.0958 
-11 -1 10 -1.4755 0.0585 
-11 -1 11 0.2162 -0.0415 
-11 -1 12 -0.1839 0.0761 
-11 -1 13 -0.4379 0.1004 
-11 -1 14 0.6377 -0.0439 
-11 0 1 -0.2985 0.1569 
-11 0 2 -0.3269 0.0303 
-11 0 3 -2.0103 -0.0605 
-11 0 4 -1.2254 -0.0407 
-11 0 5 1.5287 -0.0537 
-11 0 6 0.9562 -0.0205 
-11 0 7 -0.1902 -0.0004 
-11 0 8 -0.2912 -0.1377 
-11 0 9 -1.6512 -0.1233 
-11 0 10 -1.7149 0.0701 
-11 0 11 0.5290 0.1083 
-11 0 12 1.2388 0.0239 
-11 0 13 -0.3189 -0.0746 
-11 0 14 -1.5753 -0.0902 
-11 1 1 1.4019 -0.0425 
-11 1 2 1.9765 -0.0222 
-11 1 3 -0.3694 -0.0445 
-11 1 4 -3.0897 0.0187 
-11 1 5 -1.4548 0.0278 
-11 1 6 0.5169 -0.0421 
-11 1 7 0.8248 -0.0039 
-11 1 8 1.4155 0.0601 
-11 1 9 0.8396 0.0445 
-11 1 10 -0.0385 0.0093 
-11 1 11 1.0334 -0.0338 
-11 1 12 2.1916 -0.0409 
-11 1 13 1.8386 -0.0517 
-11 1 14 0.7298 -0.0758 
-11 2 1 -0.7276 0.0467 
-11 2 2 0.5708 -0.0112 
-11 2 3 1.4338 -0.0462 
-11 2 4 -0.7515 -0.0446 
-11 2 5 -1.6722 -0.0168 
-11 2 6 -0.9131 -0.0376 
-11 2 7 -1.0232 -0.0787 
-11 2 8 -0.4217 -0.0552 
-11 2 9 0.4274 0.0275 
-11 2 10 0.7087 0.0733 
-11 2 11 2.0669 0.0264 
-11 2 12 2.5899 0.0145 
-11 2 13 0.7751 0.0875 
-11 2 14 -0.5556 0.0768 
-11 3 1 0.1519 -0.1555 
-11 3 2 0.1957 -0.1979 
-11 3 3 2.5088 -0.0080 
-11 3 4 2.6749 0.1371 
-11 3 5 1.4832 0.0275 
-11 3 6 1.2301 -0.0757 
-11 3 7 0.0453 0.0007 
-11 3 8 -0.8677 0.0871 
-11 3 9 -0.1854 0.0700 
-11 3 10 0.0570 -0.0246 
-11 3 11 1.1401 -0.1769 
-11 3 12 2.4510 -0.3173 
-11 3 13 0.0994 -0.3024 
-11 4 1 -0.1458 0.1780 
-11 4 2 0.1377 -0.0527 
-11 4 3 2.5761 -0.1130 
-11 4 4 2.7663 0.0624 
-11 4 5 0.0719 0.0131 
-11 4 6 -0.6023 -0.1601 
-11 4 7 0.2109 -0.0740 
-11 4 8 -0.1296 0.0808 
-11 4 9 0.1403 0.0338 
-11 4 10 0.3647 -0.1244 
-11 4 11 0.6758 -0.1828 
-11 4 12 3.0519 -0.0294 
-11 5 1 -2.0545 -0.0377 
-11 5 2 -3.7145 0.0182 
-11 5 3 -1.1534 -0.0275 
-11 5 4 2.2270 0.0720 
-11 5 5 1.2270 0.0603 
-11 5 6 -0.8295 -0.0835 
-11 5 7 0.3132 -0.0179 
-11 5 8 0.9274 0.0239 
-11 5 9 -0.2080 -0.1704 
-11 5 10 -0.9143 -0.2576 
-11 5 11 -1.1089 -0.1516 
-11 6 1 0.0369 0.0368 
-11 6 2 -1.3780 -0.0076 
-11 6 3 -0.8898 -0.0366 
-11 6 4 2.3598 0.0466 
-11 6 5 3.2335 0.0105 
-11 6 6 -0.0351 -0.1446 
-11 6 7 -0.9617 0.0671 
-11 6 8 1.3059 0.3448 
-11 6 9 1.3731 0.0546 
-11 6 10 -0.5280 -0.2121 
-11 7 1 -0.8305 0.1724 
-11 7 2 -1.3588 0.0407 
-11 7 3 -1.6748 -0.0927 
-11 7 4 -0.3687 -0.0479 
-11 7 5 1.2402 -0.0356 
-11 7 6 -0.3926 -0.2101 
-11 7 7 -2.5680 -0.1645 
-11 7 8 -0.0095 0.2079 
-11 8 1 -1.3482 0.1040 
-11 8 2 -1.9272 0.1705 
-11 8 3 -1.6440 0.0804 
-11 8 4 0.0218 0.0602 
-11 8 5 2.3850 -0.0472 
-10 -6 1 1.3718 0.0684 
-10 -6 2 -0.8146 -0.0027 
-10 -6 3 0.0706 -0.2106 
-10 -6 4 1.9574 -0.1380 
-10 -6 5 0.9315 -0.0355 
-10 -6 6 -1.5191 -0.0085 
-10 -6 7 -1.9391 0.0096 
-10 -6 8 -0.4324 0.0000 
-10 -6 9 0.3293 0.0682 
-10 -6 10 0.8870 0.0792 
-10 -5 1 2.1542 0.1485 
-10 -5 2 -0.6974 0.1072 
-10 -5 3 -0.3384 -0.0572 
-10 -5 4 2.4480 0.0282 
-10 -5 5 1.7089 0.1437 
-10 -5 6 -0.6686 0.1209 
-10 -5 7 -0.5213 0.0647 
-10 -5 8 1.0613 0.0225 
-10 -5 9 1.4605 -0.0142 
-10 -5 10 0.7697 0.0164 
-10 -5 11 0.4177 -0.0475 
-10 -5 12 -0.0472 -0.1845 
-10 -4 1 4.3325 -0.0471 
-10 -4 2 1.9091 -0.0069 
-10 -4 3 0.0243 -0.0828 
-10 -4 4 1.8753 -0.0144 
-10 -4 5 1.1265 -0.0018 
-10 -4 6 -2.3884 -0.0669 
-10 -4 7 -2.4428 -0.0698 
-10 -4 8 0.1437 0.0044 
-10 -4 9 1.6091 0.0466 
-10 -4 10 1.4813 0.0577 
-10 -4 11 0.3768 0.1476 
-10 -4 12 -1.2072 0.0626 
-10 -4 13 -1.8591 -0.0976 
-10 -4 14 -1.2627 0.0889 
-10 -3 1 0.8193 0.1379 
-10 -3 2 0.2097 0.1010 
-10 -3 3 -1.8604 -0.0640 
-10 -3 4 -0.5617 -0.0028 
-10 -3 5 1.1962 0.0469 
-10 -3 6 -0.4034 -0.0142 
-10 -3 7 -0.6739 -0.0380 
-10 -3 8 1.0885 -0.0193 
-10 -3 9 1.3491 0.0306 
-10 -3 10 0.3792 -0.0168 
-10 -3 11 -1.3082 -0.0152 
-10 -3 12 -3.9770 0.1104 
-10 -3 13 -4.7017 -0.0305 
-10 -3 14 -2.0361 -0.2456 
-10 -3 15 -0.4445 -0.1662 
-10 -2 1 -0.5382 -0.0608 
-10 -2 2 -0.4429 -0.0129 
-10 -2 3 -1.0909 -0.0680 
-10 -2 4 -1.1371 0.0065 
-10 -2 5 0.4608 0.0481 
-10 -2 6 0.5503 -0.0287 
-10 -2 7 1.2916 -0.0227 
-10 -2 8 3.4582 -0.0226 
-10 -2 9 3.0193 0.0246 
-10 -2 10 0.8997 0.0978 
-10 -2 11 -0.2031 -0.0065 
-10 -2 12 -1.6122 -0.0176 
-10 -2 13 -2.6059 0.1179 
-10 -2 14 0.1578 0.1165 
-10 -2 15 3.4930 0.0478 
-10 -1 1 0.2928 0.0781 
-10 -1 2 -0.8876 0.0990 
-10 -1 3 -1.2312 -0.0169 
-10 -1 4 -1.5021 -0.0341 
-10 -1 5 -0.0234 -0.0133 
-10 -1 6 0.9939 -0.0673 
-10 -1 7 1.6497 0.0366 
-10 -1 8 3.5671 0.1117 
-10 -1 9 3.3184 -0.0278 
-10 -1 10 0.5343 -0.0631 
-10 -1 11 -0.5315 -0.0467 
-10 -1 12 0.2851 -0.1155 
-10 -1 13 0.3930 -0.0792 
-10 -1 14 0.7410 0.0532 
-10 -1 15 2.1924 0.1238 
-10 -1 16 1.8137 0.0098 
-10 0 1 1.8026 -0.0404 
-10 0 2 0.9880 -0.0321 
-10 0 3 0.0838 -0.1189 
-10 0 4 -1.7557 -0.0742 
-10 0 5 -2.4119 0.0720 
-10 0 6 -2.1345 0.0159 
-10 0 7 -2.1708 -0.0657 
-10 0 8 -0.6938 0.0074 
-10 0 9 0.6566 -0.0094 
-10 0 10 -0.5025 -0.0418 
-10 0 11 -1.7850 0.0678 
-10 0 12 -1.2471 0.1210 
-10 0 13 -0.1478 0.0020 
-10 0 14 0.1011 -0.1925 
-10 0 15 -0.2926 -0.2564 
-10 0 16 -1.3570 -0.1382 
-10 1 1 1.8360 0.0444 
-10 1 2 1.0470 0.0809 
-10 1 3 0.6507 0.0192 
-10 1 4 0.2753 -0.0538 
-10 1 5 0.3307 0.0018 
-10 1 6 0.8060 0.0405 
-10 1 7 -0.2957 -0.0177 
-10 1 8 -1.4038 -0.0242 
-10 1 9 -1.2674 -0.0067 
-10 1 10 -1.6210 -0.0469 
-10 1 11 -1.6536 -0.0814 
-10 1 12 -0.4435 -0.0575 
-10 1 13 0.5974 0.0433 
-10 1 14 0.7228 0.1512 
-10 1 15 0.3972 0.1822 
-10 1 16 0.0321 0.1201 
-10 2 1 2.3625 -0.0280 
-10 2 2 1.4993 -0.0646 
-10 2 3 -0.4475 -0.0493 
-10 2 4 -1.2414 -0.0125 
-10 2 5 -0.1942 -0.0041 
-10 2 6 2.0663 -0.0225 
-10 2 7 2.1249 -0.0312 
-10 2 8 -0.1277 -0.0386 
-10 2 9 -1.1614 -0.0591 
-10 2 10 -1.3627 -0.0219 
-10 2 11 -0.9472 0.0885 
-10 2 12 1.5210 0.1405 
-10 2 13 3.2009 0.0428 
-10 2 14 1.4688 -0.1163 
-10 2 15 -1.1935 -0.1287 
-10 3 1 -1.2751 0.0694 
-10 3 2 -0.4326 -0.0241 
-10 3 3 -0.0334 -0.0854 
-10 3 4 0.1049 -0.0121 
-10 3 5 -0.2723 0.0507 
-10 3 6 -0.0313 -0.0540 
-10 3 7 0.2851 -0.1419 
-10 3 8 -1.1123 -0.0625 
-10 3 9 -1.6812 0.0297 
-10 3 10 -0.8405 0.0275 
-10 3 11 -1.2359 -0.0356 
-10 3 12 -0.5722 -0.0755 
-10 3 13 1.7570 -0.0708 
-10 3 14 1.0536 -0.1464 
-10 3 15 -2.4993 -0.2238 
-10 4 1 -0.4882 0.0370 
-10 4 2 -1.1876 0.0664 
-10 4 3 -1.0922 0.0188 
-10 4 4 0.7883 -0.0097 
-10 4 5 1.6223 0.0391 
-10 4 6 -0.0721 0.0127 
-10 4 7 -1.3057 -0.0570 
-10 4 8 -1.7344 -0.0340 
-10 4 9 -1.8845 -0.0113 
-10 4 10 -0.6528 0.0034 
-10 4 11 -0.6567 -0.0062 
-10 4 12 -1.5711 -0.1355 
-10 4 13 0.2954 -0.1855 
-10 4 14 1.0736 -0.0997 
-10 5 1 0.5525 -0.0885 
-10 5 2 -1.0386 -0.1087 
-10 5 3 -4.2219 -0.0707 
-10 5 4 -3.9624 -0.0275 
-10 5 5 -0.2961 0.0180 
-10 5 6 0.8309 -0.0028 
-10 5 7 -0.6474 -0.0220 
-10 5 8 -0.4674 0.0874 
-10 5 9 0.5562 0.0427 
-10 5 10 1.0517 -0.1716 
-10 5 11 0.0463 -0.1517 
-10 5 12 -2.3876 -0.0703 
-10 5 13 -0.9927 -0.1429 
-10 6 1 0.0333 0.1156 
-10 6 2 1.0410 0.0563 
-10 6 3 -1.3666 -0.0388 
-10 6 4 -3.4887 -0.0457 
-10 6 5 -1.4286 0.0259 
-10 6 6 0.7381 0.0533 
-10 6 7 -1.6166 -0.0348 
-10 6 8 -3.6878 -0.0029 
-10 6 9 -1.6828 0.0532 
-10 6 10 1.1039 -0.2015 
-10 6 11 1.1399 -0.3349 
-10 6 12 -2.9552 -0.1155 
-10 7 1 1.7229 -0.0290 
-10 7 2 3.9155 -0.0030 
-10 7 3 3.0650 -0.0595 
-10 7 4 -0.2473 -0.0361 
-10 7 5 -1.8869 -0.0242 
-10 7 6 -0.5581 0.0009 
-10 7 7 -0.4930 0.0981 
-10 7 8 -2.3445 0.1674 
-10 7 9 -1.5300 0.2075 
-10 7 10 1.2499 0.0534 
-10 7 11 2.2391 -0.1253 
-10 8 1 1.0108 -0.0733 
-10 8 2 1.7214 0.1667 
-10 8 3 1.6420 0.0469 
-10 8 4 0.1451 -0.0080 
-10 8 5 -1.2036 0.0255 
-10 8 6 -0.9114 -0.1896 
-10 8 7 0.5916 -0.1863 
-10 8 8 0.3050 0.0588 
-10 8 9 -0.6664 0.0928 
-10 9 1 3.2690 -0.1700 
-10 9 2 2.5290 0.1836 
-10 9 3 1.8393 0.1162 
-10 9 4 0.8814 -0.2687 
-10 9 5 0.7122 -0.0730 
-10 9 6 -0.1175 0.0011 
-9 -8 3 0.3581 0.1886 
-9 -8 4 0.3185 0.1296 
-9 -8 5 1.3837 0.0370 
-9 -8 6 2.1199 -0.0177 
-9 -8 7 2.2366 0.0346 
-9 -7 1 2.7898 -0.1147 
-9 -7 2 2.3927 0.0403 
-9 -7 3 1.4107 -0.0218 
-9 -7 4 1.5077 -0.0622 
-9 -7 5 2.3671 -0.0223 
-9 -7 6 2.5364 -0.0309 
-9 -7 7 1.6446 0.0464 
-9 -7 8 0.8842 0.0530 
-9 -7 9 -0.7161 -0.0320 
-9 -7 10 -2.6006 -0.0350 
-9 -7 11 -1.1954 -0.1945 
-9 -6 1 2.2325 0.0007 
-9 -6 2 2.0121 0.1487 
-9 -6 3 -0.0227 0.1343 
-9 -6 4 -0.6007 0.0736 
-9 -6 5 -0.6034 0.0741 
-9 -6 6 -1.4060 0.0273 
-9 -6 7 -1.8491 0.0237 
-9 -6 8 -0.5313 0.0691 
-9 -6 9 0.7676 0.0316 
-9 -6 10 -0.1801 0.0476 
-9 -6 11 -0.5948 0.0779 
-9 -6 12 0.3641 -0.0381 
-9 -6 13 -0.9149 0.0658 
-9 -5 1 -0.0333 -0.1036 
-9 -5 2 0.9198 -0.0879 
-9 -5 3 -0.2116 -0.1250 
-9 -5 4 0.3117 -0.0791 
-9 -5 5 1.7450 0.0106 
-9 -5 6 0.2419 0.0038 
-9 -5 7 -2.5711 0.0195 
-9 -5 8 -3.0483 0.0830 
-9 -5 9 -1.4530 0.0311 
-9 -5 10 -0.8183 -0.1247 
-9 -5 11 -0.8994 -0.1380 
-9 -5 12 0.0271 -0.0831 
-9 -5 13 0.0556 -0.1072 
-9 -5 14 -0.9777 0.0533 
-9 -5 15 -0.9182 0.1913 
-9 -4 1 -2.4075 0.0485 
-9 -4 2 -0.5141 0.2006 
-9 -4 3 -0.1806 0.0928 
-9 -4 4 -0.2240 0.0184 
-9 -4 5 1.3668 0.0841 
-9 -4 6 1.1372 0.0185 
-9 -4 7 -1.1983 -0.0477 
-9 -4 8 -2.0370 0.0014 
-9 -4 9 -0.3337 0.0593 
-9 -4 10 1.9582 0.0151 
-9 -4 11 3.1505 -0.0568 
-9 -4 12 3.0716 0.0735 
-9 -4 13 1.5537 0.1572 
-9 -4 14 0.2470 0.0081 
-9 -4 15 0.4222 -0.0176 
-9 -4 16 -0.5881 0.0031 
-9 -3 1 -2.1486 -0.1567 
-9 -3 2 -2.1617 0.0097 
-9 -3 3 -0.5729 -0.0162 
-9 -3 4 -0.1974 -0.1013 
-9 -3 5 0.0943 0.0250 
-9 -3 6 -0.4487 0.0564 
-9 -3 7 -1.9582 -0.0007 
-9 -3 8 -2.0878 0.0014 
-9 -3 9 -0.8913 -0.0073 
-9 -3 10 0.4906 0.0270 
-9 -3 11 1.6731 -0.0145 
-9 -3 12 1.6753 -0.0782 
-9 -3 13 -0.6491 0.0311 
-9 -3 14 -2.5837 0.0321 
-9 -3 15 -0.5471 -0.1343 
-9 -3 16 1.2162 -0.1993 
-9 -3 17 -0.7348 -0.1809 
-9 -2 1 1.4460 -0.0222 
-9 -2 2 -1.4251 0.0489 
-9 -2 3 -2.0018 0.0448 
-9 -2 4 -1.7610 -0.0380 
-9 -2 5 -1.4682 0.0216 
-9 -2 6 -1.7850 -0.0200 
-9 -2 7 -2.7087 -0.1595 
-9 -2 8 -1.9600 -0.0974 
-9 -2 9 -0.3481 -0.0306 
-9 -2 10 -0.1052 0.0185 
-9 -2 11 -0.5735 0.1203 
-9 -2 12 -0.7171 0.0203 
-9 -2 13 -1.5789 -0.1438 
-9 -2 14 -3.2338 -0.1277 
-9 -2 15 -2.1368 -0.0083 
-9 -2 16 1.0215 0.1173 
-9 -2 17 1.3098 0.1735 
-9 -1 1 1.6697 -0.0489 
-9 -1 2 -0.2141 0.0654 
-9 -1 3 -1.5262 0.0344 
-9 -1 4 -1.5221 -0.0923 
-9 -1 5 -0.3592 -0.0182 
-9 -1 6 0.7854 0.0825 
-9 -1 7 0.2425 -0.0159 
-9 -1 8 -0.1898 -0.0000 
-9 -1 9 0.5433 0.0699 
-9 -1 10 0.8571 -0.0505 
-9 -1 11 0.5715 -0.0885 
-9 -1 12 0.2291 0.0181 
-9 -1 13 0.2308 0.0655 
-9 -1 14 0.4146 0.0432 
-9 -1 15 0.8217 -0.0001 
-9 -1 16 1.5069 -0.0347 
-9 -1 17 0.5028 -0.1016 
-9 0 1 1.7508 -0.0215 
-9 0 2 1.7191 0.0410 
-9 0 3 0.1297 0.0348 
-9 0 4 -1.7996 -0.0791 
-9 0 5 -2.2109 -0.0821 
-9 0 6 -0.7908 0.0318 
-9 0 7 -0.1282 -0.0055 
-9 0 8 -0.5791 -0.0724 
-9 0 9 -0.6228 0.0250 
-9 0 10 -0.5597 0.0821 
-9 0 11 0.1156 0.0353 
-9 0 12 1.1089 0.0021 
-9 0 13 1.0498 -0.0172 
-9 0 14 0.9873 -0.0313 
-9 0 15 1.5435 -0.0271 
-9 0 16 1.6112 0.0086 
-9 0 17 -0.1881 0.0180 
-9 1 1 0.6819 -0.0871 
-9 1 2 2.1772 -0.0439 
-9 1 3 0.8402 0.0002 
-9 1 4 -3.1249 -0.0078 
-9 1 5 -5.6619 -0.0355 
-9 1 6 -3.8940 -0.0099 
-9 1 7 -0.6714 0.0341 
-9 1 8 0.4138 0.0494 
-9 1 9 0.0402 0.0360 
-9 1 10 -1.2944 -0.0138 
-9 1 11 -2.5093 -0.0490 
-9 1 12 -1.2765 -0.0193 
-9 1 13 0.7574 0.0257 
-9 1 14 1.4085 0.0296 
-9 1 15 1.1416 0.0257 
-9 1 16 0.5111 0.0809 
-9 1 17 0.2764 0.0985 
-9 2 1 -1.7749 0.0810 
-9 2 2 0.0804 0.0093 
-9 2 3 1.6955 -0.0441 
-9 2 4 0.5222 -0.0432 
-9 2 5 -1.6255 -0.0119 
-9 2 6 -1.1949 -0.0125 
-9 2 7 1.2068 -0.0366 
-9 2 8 1.4484 0.0077 
-9 2 9 -0.0331 0.0569 
-9 2 10 -0.5316 0.0065 
-9 2 11 -0.9703 -0.0694 
-9 2 12 -0.8304 -0.0720 
-9 2 13 1.3461 0.0047 
-9 2 14 3.5523 0.0201 
-9 2 15 3.8058 -0.1519 
-9 2 16 1.9939 -0.3120 
-9 2 17 0.3722 -0.3166 
-9 3 1 -0.9427 -0.0096 
-9 3 2 -1.6749 0.0025 
-9 3 3 -1.0227 0.0170 
-9 3 4 -0.1674 0.0264 
-9 3 5 0.3780 0.0238 
-9 3 6 1.0181 0.0185 
-9 3 7 2.1482 -0.0290 
-9 3 8 1.7762 -0.0614 
-9 3 9 -0.9133 -0.0623 
-9 3 10 -1.7295 -0.0697 
-9 3 11 -0.0250 -0.0346 
-9 3 12 0.5104 -0.0547 
-9 3 13 0.7780 -0.1320 
-9 3 14 2.3138 -0.0546 
-9 3 15 3.2713 0.0697 
-9 3 16 2.4948 0.0729 
-9 4 1 0.7026 0.0139 
-9 4 2 1.5235 -0.0579 
-9 4 3 0.7792 -0.0395 
-9 4 4 -0.9218 0.0406 
-9 4 5 -1.1512 0.0434 
-9 4 6 -0.0467 -0.0168 
-9 4 7 0.7287 -0.0811 
-9 4 8 1.0083 -0.0748 
-9 4 9 -0.0361 -0.0411 
-9 4 10 -1.0221 -0.1192 
-9 4 11 0.4129 -0.0926 
-9 4 12 0.7492 0.0781 
-9 4 13 -1.0956 0.0329 
-9 4 14 -0.7260 -0.0893 
-9 4 15 0.9355 0.0028 
-9 4 16 0.8864 0.2164 
-9 5 1 0.4897 0.0379 
-9 5 2 2.7040 -0.0069 
-9 5 3 3.0932 -0.0418 
-9 5 4 0.3032 -0.0099 
-9 5 5 -1.8068 0.0072 
-9 5 6 -0.4843 -0.0007 
-9 5 7 1.1412 -0.0410 
-9 5 8 1.0709 -0.0792 
-9 5 9 0.6494 0.0201 
-9 5 10 0.5149 0.0265 
-9 5 11 2.0096 -0.1251 
-9 5 12 2.6224 -0.0710 
-9 5 13 -1.2002 0.0474 
-9 5 14 -3.6071 0.0572 
-9 5 15 -1.2079 0.1738 
-9 6 1 -3.4837 0.0435 
-9 6 2 -1.3036 0.0473 
-9 6 3 1.8770 0.0071 
-9 6 4 2.4391 0.0304 
-9 6 5 0.8838 0.0609 
-9 6 6 0.4982 0.0540 
-9 6 7 1.1010 0.0995 
-9 6 8 -0.2162 0.0488 
-9 6 9 -1.8500 -0.0397 
-9 6 10 -1.2564 -0.0216 
-9 6 11 2.1472 -0.0711 
-9 6 12 6.2356 -0.0394 
-9 6 13 4.2371 0.1267 
-9 6 14 -2.2487 0.1695 
-9 7 1 -2.7342 -0.0321 
-9 7 2 -2.7419 -0.0406 
-9 7 3 -0.1475 -0.0950 
-9 7 4 1.7114 -0.0975 
-9 7 5 1.1679 0.0654 
-9 7 6 -0.8667 0.0282 
-9 7 7 -1.6021 -0.0758 
-9 7 8 -1.2198 0.0377 
-9 7 9 -1.0375 0.0724 
-9 7 10 -0.6814 -0.0476 
-9 7 11 -0.2792 -0.1900 
-9 7 12 1.4099 -0.1316 
-9 7 13 2.3683 0.2588 
-9 8 1 -0.4010 -0.0805 
-9 8 2 -1.4843 0.0279 
-9 8 3 -0.9757 0.1388 
-9 8 4 -0.0115 -0.1241 
-9 8 5 1.2870 -0.1115 
-9 8 6 1.8281 0.1047 
-9 8 7 0.8874 -0.0489 
-9 8 8 -0.1205 -0.0326 
-9 8 9 -1.0712 0.2271 
-9 8 10 -1.4087 0.1066 
-9 8 11 -1.4590 -0.3087 
-9 9 1 -2.1203 0.0658 
-9 9 2 -2.5666 -0.1455 
-9 9 3 -1.1167 0.2044 
-9 9 4 0.3054 0.1706 
-9 9 5 0.6377 -0.2087 
-9 9 6 1.2748 -0.0823 
-9 9 7 0.8776 -0.1261 
-9 9 8 -0.3033 -0.2682 
-9 9 9 -1.2234 0.2364 
-9 10 1 -0.5682 0.1897 
-9 10 2 -2.4044 -0.2811 
-9 10 3 -1.6657 -0.2816 
-9 10 4 1.2306 0.1574 
-9 10 5 1.6770 -0.0087 
-8 -9 3 -0.4125 -0.0128 
-8 -9 4 0.3483 -0.0774 
-8 -9 5 -0.1085 0.0419 
-8 -9 6 -1.8167 -0.0772 
-8 -9 7 -4.0210 -0.0981 
-8 -8 1 -0.4654 0.0151 
-8 -8 2 -0.3263 0.0966 
-8 -8 3 0.0729 0.0931 
-8 -8 4 0.8699 -0.0516 
-8 -8 5 0.7553 0.0063 
-8 -8 6 -0.0947 -0.0735 
-8 -8 7 -1.3688 -0.2215 
-8 -8 8 -1.7478 -0.1381 
-8 -8 9 -1.0956 -0.1192 
-8 -8 10 -1.7524 -0.0445 
-8 -8 11 -2.4883 0.0347 
-8 -8 12 -1.3229 -0.1087 
-8 -7 1 -0.3101 0.0117 
-8 -7 2 -0.4180 0.0455 
-8 -7 3 -0.3329 0.0865 
-8 -7 4 1.4570 -0.0094 
-8 -7 5 2.9082 0.0155 
-8 -7 6 2.1877 0.1025 
-8 -7 7 -0.0323 0.0599 
-8 -7 8 -1.5034 0.0664 
-8 -7 9 -0.5916 0.0120 
-8 -7 10 -0.1562 -0.1215 
-8 -7 11 -1.1408 -0.0701 
-8 -7 12 0.0292 -0.0858 
-8 -7 13 1.9544 -0.0417 
-8 -7 14 1.6298 0.3057 
-8 -6 1 1.4822 0.0365 
-8 -6 2 2.4644 -0.0510 
-8 -6 3 1.5920 -0.0510 
-8 -6 4 1.1665 -0.0265 
-8 -6 5 1.9268 -0.0117 
-8 -6 6 1.3888 -0.0263 
-8 -6 7 -0.5620 -0.0735 
-8 -6 8 -1.5646 -0.0427 
-8 -6 9 0.3903 0.0411 
-8 -6 10 2.5770 0.0098 
-8 -6 11 1.2727 0.0066 
-8 -6 12 -0.3446 0.0663 
-8 -6 13 -0.0399 -0.0423 
-8 -6 14 -0.5562 -0.0348 
-8 -6 15 -0.8149 0.2230 
-8 -5 1 -0.3061 0.0426 
-8 -5 2 0.4418 0.0796 
-8 -5 3 1.0947 0.0665 
-8 -5 4 0.9007 0.0258 
-8 -5 5 1.4999 0.0695 
-8 -5 6 1.5789 0.0702 
-8 -5 7 -0.0739 0.0158 
-8 -5 8 -1.9951 0.0051 
-8 -5 9 -2.0367 0.0188 
-8 -5 10 -0.2676 -0.0065 
-8 -5 11 0.2789 -0.0968 
-8 -5 12 -0.0843 -0.0737 
-8 -5 13 0.5312 0.0187 
-8 -5 14 0.1999 -0.0871 
-8 -5 15 -0.4648 -0.1355 
-8 -5 16 0.4447 0.1189 
-8 -4 1 0.2643 -0.1099 
-8 -4 2 -1.2917 -0.0723 
-8 -4 3 -0.4992 0.0388 
-8 -4 4 0.5782 -0.0278 
-8 -4 5 1.3110 -0.0596 
-8 -4 6 1.1410 -0.0349 
-8 -4 7 -0.2733 -0.0415 
-8 -4 8 -1.3627 0.0098 
-8 -4 9 -1.5083 0.0063 
-8 -4 10 -1.0034 -0.0187 
-8 -4 11 -0.6332 -0.0158 
-8 -4 12 -0.1405 -0.0639 
-8 -4 13 1.1084 0.0426 
-8 -4 14 0.6211 0.1888 
-8 -4 15 -0.8248 0.0731 
-8 -4 16 0.5266 0.0091 
-8 -4 17 1.4966 0.2129 
-8 -3 1 -0.6590 0.0691 
-8 -3 2 -1.7668 -0.0027 
-8 -3 3 -1.2784 0.0354 
-8 -3 4 0.6123 -0.0157 
-8 -3 5 2.5484 -0.0422 
-8 -3 6 2.9933 0.0340 
-8 -3 7 1.2551 0.0153 
-8 -3 8 0.0657 0.0263 
-8 -3 9 0.7602 0.0121 
-8 -3 10 1.4557 -0.1233 
-8 -3 11 0.7980 -0.0954 
-8 -3 12 -0.3646 -0.0326 
-8 -3 13 0.1273 -0.0773 
-8 -3 14 0.4451 -0.0138 
-8 -3 15 -1.3453 0.0135 
-8 -3 16 -1.1875 -0.0998 
-8 -3 17 0.7214 -0.1306 
-8 -3 18 0.0520 -0.0217 
-8 -2 1 1.1787 -0.0912 
-8 -2 2 1.1649 -0.0663 
-8 -2 3 0.1304 0.0111 
-8 -2 4 -1.1577 -0.0087 
-8 -2 5 -1.3273 -0.0613 
-8 -2 6 -0.2689 0.0035 
-8 -2 7 -0.1830 -0.0286 
-8 -2 8 -0.6775 -0.0757 
-8 -2 9 0.0767 0.0499 
-8 -2 10 1.3386 0.0595 
-8 -2 11 2.0324 -0.0004 
-8 -2 12 1.2009 0.0432 
-8 -2 13 -0.1919 -0.0043 
-8 -2 14 -0.3236 -0.0812 
-8 -2 15 -0.6263 -0.0609 
-8 -2 16 -0.8157 -0.0182 
-8 -2 17 -0.0183 0.0109 
-8 -2 18 -0.7109 -0.0283 
-8 -1 1 -0.0788 0.0111 
-8 -1 2 -0.2794 0.0133 
-8 -1 3 -0.3928 0.0525 
-8 -1 4 -1.2368 0.0224 
-8 -1 5 -1.5487 -0.0414 
-8 -1 6 0.2332 0.0206 
-8 -1 7 2.2328 0.0603 
-8 -1 8 2.4999 -0.0432 
-8 -1 9 1.6276 -0.0304 
-8 -1 10 -0.1915 0.0601 
-8 -1 11 -1.0690 0.0463 
-8 -1 12 0.0567 0.0433 
-8 -1 13 0.0904 0.0594 
-8 -1 14 -0.8737 0.0581 
-8 -1 15 -0.1680 0.0625 
-8 -1 16 1.9237 0.0347 
-8 -1 17 3.3935 0.0076 
-8 -1 18 1.6107 0.0035 
-8 0 1 -0.8796 -0.0765 
-8 0 2 0.7611 -0.0212 
-8 0 3 3.3331 0.0222 
-8 0 4 3.7279 0.0209 
-8 0 5 1.7559 0.0133 
-8 0 6 0.3903 0.0451 
-8 0 7 0.6876 0.0623 
-8 0 8 1.2871 -0.0086 
-8 0 9 1.9395 -0.0663 
-8 0 10 1.1205 -0.0463 
-8 0 11 -1.3119 -0.0246 
-8 0 12 -1.0016 -0.0169 
-8 0 13 1.3807 -0.0470 
-8 0 14 1.4289 -0.1117 
-8 0 15 0.6355 -0.1160 
-8 0 16 1.4344 -0.0237 
-8 0 17 2.5231 0.0811 
-8 0 18 1.6307 0.0459 
-8 1 1 0.5783 0.0360 
-8 1 2 0.1293 0.0458 
-8 1 3 1.1548 0.0184 
-8 1 4 1.0595 -0.0469 
-8 1 5 -1.2473 -0.0660 
-8 1 6 -3.0734 -0.0282 
-8 1 7 -2.1954 -0.0295 
-8 1 8 -0.3662 -0.0430 
-8 1 9 1.0226 0.0143 
-8 1 10 1.8413 0.0536 
-8 1 11 0.2687 0.0055 
-8 1 12 -1.9036 -0.0356 
-8 1 13 -1.2848 -0.0069 
-8 1 14 -0.3005 0.0459 
-8 1 15 -0.5044 0.0297 
-8 1 16 -0.1753 -0.0178 
-8 1 17 -0.3153 0.0360 
-8 1 18 -1.6431 0.0443 
-8 2 1 1.2758 -0.0354 
-8 2 2 -0.8198 0.0213 
-8 2 3 -1.9996 0.0403 
-8 2 4 -2.0636 0.0170 
-8 2 5 -2.0814 -0.0111 
-8 2 6 -1.8557 0.0026 
-8 2 7 -0.2615 -0.0043 
-8 2 8 1.5127 -0.0553 
-8 2 9 0.8165 -0.0362 
-8 2 10 -0.8738 0.0179 
-8 2 11 -1.2856 0.0377 
-8 2 12 -1.4289 0.0430 
-8 2 13 -1.2931 -0.0051 
-8 2 14 -1.0599 -0.0393 
-8 2 15 -1.4504 -0.0221 
-8 2 16 -0.4702 -0.0392 
-8 2 17 1.0041 0.0306 
-8 2 18 -0.0061 0.0993 
-8 3 1 1.0253 -0.0201 
-8 3 2 0.7135 0.0019 
-8 3 3 -0.1355 -0.0288 
-8 3 4 -0.9550 -0.0698 
-8 3 5 -1.3853 -0.0804 
-8 3 6 -1.1031 -0.0616 
-8 3 7 0.0083 -0.0207 
-8 3 8 1.8806 0.0048 
-8 3 9 2.1400 0.0444 
-8 3 10 -0.4829 0.0191 
-8 3 11 -1.8269 -0.0713 
-8 3 12 -0.0831 -0.0008 
-8 3 13 1.6360 0.1015 
-8 3 14 1.8616 0.0307 
-8 3 15 0.6131 -0.0620 
-8 3 16 -0.3042 -0.1448 
-8 3 17 0.9031 -0.1523 
-8 4 1 0.5508 0.0339 
-8 4 2 1.4458 0.0274 
-8 4 3 1.5848 0.0203 
-8 4 4 0.3881 0.0221 
-8 4 5 -1.6899 0.0429 
-8 4 6 -3.0342 0.0492 
-8 4 7 -2.9429 0.0213 
-8 4 8 -1.5127 -0.0791 
-8 4 9 0.7036 -0.0997 
-8 4 10 1.0246 0.0185 
-8 4 11 0.1466 0.0162 
-8 4 12 1.5516 -0.0119 
-8 4 13 2.6869 0.0608 
-8 4 14 1.1225 -0.0095 
-8 4 15 -0.4744 -0.1397 
-8 4 16 -0.8350 -0.1633 
-8 4 17 0.3291 -0.0604 
-8 5 1 0.8975 0.0288 
-8 5 2 1.7191 0.0350 
-8 5 3 2.1365 0.0274 
-8 5 4 1.2885 0.0231 
-8 5 5 -0.4607 -0.0028 
-8 5 6 -1.8990 -0.0467 
-8 5 7 -1.6539 0.0223 
-8 5 8 -0.4036 0.0791 
-8 5 9 0.8886 -0.0225 
-8 5 10 0.9774 0.0020 
-8 5 11 -0.7784 0.1082 
-8 5 12 -0.2619 0.0559 
-8 5 13 2.5788 -0.0076 
-8 5 14 2.0914 -0.0852 
-8 5 15 -0.0349 -0.1175 
-8 5 16 0.0913 0.0492 
-8 6 1 0.2726 0.0334 
-8 6 2 0.6977 0.0246 
-8 6 3 1.3996 -0.0486 
-8 6 4 1.7575 -0.0791 
-8 6 5 2.2598 0.0184 
-8 6 6 1.9819 0.0365 
-8 6 7 0.4138 -0.0426 
-8 6 8 -1.1891 -0.0017 
-8 6 9 -1.8103 -0.0269 
-8 6 10 -0.7666 -0.1019 
-8 6 11 0.0020 0.0010 
-8 6 12 0.5781 0.0589 
-8 6 13 3.2235 0.0221 
-8 6 14 3.2779 -0.0410 
-8 6 15 -1.0142 -0.1509 
-8 7 1 -1.3765 0.0085 
-8 7 2 0.0971 0.0444 
-8 7 3 1.6173 0.0884 
-8 7 4 1.6669 -0.0241 
-8 7 5 1.1875 -0.0760 
-8 7 6 1.4840 0.0946 
-8 7 7 0.7860 0.0942 
-8 7 8 -0.6461 -0.0154 
-8 7 9 -1.3011 0.0100 
-8 7 10 0.0414 -0.0224 
-8 7 11 2.4221 -0.0994 
-8 7 12 2.6474 -0.2023 
-8 7 13 2.6279 -0.2589 
-8 7 14 3.1570 -0.0535 
-8 8 1 -0.8264 0.0139 
-8 8 2 -1.7206 -0.1212 
-8 8 3 -1.4358 -0.0451 
-8 8 4 -0.9325 0.0663 
-8 8 5 -1.1946 -0.1299 
-8 8 6 0.3355 -0.0935 
-8 8 7 2.6734 0.1429 
-8 8 8 2.9281 0.0330 
-8 8 9 0.8182 -0.0518 
-8 8 10 -2.0711 0.0918 
-8 8 11 -2.1847 0.1428 
-8 8 12 -0.0136 0.0010 
-8 9 1 2.1636 0.1113 
-8 9 2 0.0876 0.0192 
-8 9 3 -1.3197 -0.1830 
-8 9 4 -0.5282 0.0458 
-8 9 5 -0.0854 0.0988 
-8 9 6 -0.2893 -0.0886 
-8 9 7 0.2750 0.0919 
-8 9 8 0.7742 0.0617 
-8 9 9 0.9158 -0.2255 
-8 9 10 -0.4056 -0.0168 
-8 10 1 2.3018 -0.0831 
-8 10 2 1.0980 0.2135 
-8 10 3 -0.9811 0.0506 
-8 10 4 -1.8747 -0.0880 
-8 10 5 -1.2308 -0.0230 
-8 10 6 -0.5447 -0.3231 
-8 10 7 0.2575 -0.2860 
-8 10 8 0.6543 0.0400 
-8 11 1 2.6209 -0.4444 
-8 11 2 1.2256 -0.3977 
-8 11 3 0.7033 -0.0643 
-8 11 4 0.2916 0.0068 
-7 -10 5 0.2166 -0.1594 
-7 -9 1 -0.7642 0.0276 
-7 -9 2 -1.4198 -0.0718 
-7 -9 3 -2.7840 0.0551 
-7 -9 4 -2.1280 -0.1169 
-7 -9 5 0.1785 -0.1227 
-7 -9 6 2.6256 0.1296 
-7 -9 7 3.5284 0.0606 
-7 -9 8 2.1381 0.0544 
-7 -9 9 0.5855 0.0916 
-7 -9 10 0.2556 -0.1236 
-7 -9 11 0.8866 -0.0692 
-7 -8 1 0.3973 -0.1106 
-7 -8 2 -0.5038 -0.0880 
-7 -8 3 -3.8235 0.0782 
-7 -8 4 -5.7521 0.0468 
-7 -8 5 -4.3019 -0.1542 
-7 -8 6 -1.2322 -0.0843 
-7 -8 7 1.5693 -0.0548 
-7 -8 8 2.0416 -0.0852 
-7 -8 9 0.9710 0.0484 
-7 -8 10 0.1603 -0.0057 
-7 -8 11 -0.9136 0.0164 
-7 -8 12 -1.6419 0.2164 
-7 -8 13 -1.3226 0.0870 
-7 -8 14 -1.1391 0.1444 
-7 -7 1 -1.7956 0.0899 
-7 -7 2 0.0250 -0.0358 
-7 -7 3 -0.4582 -0.0886 
-7 -7 4 -1.9409 -0.0028 
-7 -7 5 -0.9281 -0.0169 
-7 -7 6 1.0226 -0.0132 
-7 -7 7 1.6514 0.0379 
-7 -7 8 0.1392 -0.0160 
-7 -7 9 -2.0624 -0.0286 
-7 -7 10 -1.8384 -0.0957 
-7 -7 11 -0.4588 -0.1963 
-7 -7 12 -0.3008 0.0015 
-7 -7 13 -0.5467 0.0769 
-7 -7 14 -1.5733 -0.0888 
-7 -7 15 -3.1409 0.0511 
-7 -7 16 -2.1839 0.0345 
-7 -6 1 -2.0095 0.0880 
-7 -6 2 -0.8843 0.0927 
-7 -6 3 0.2533 0.0005 
-7 -6 4 -0.4060 -0.0198 
-7 -6 5 -0.0750 0.0279 
-7 -6 6 1.5006 0.0209 
-7 -6 7 2.1760 0.0100 
-7 -6 8 1.4929 0.0168 
-7 -6 9 -0.1625 0.0217 
-7 -6 10 -0.4284 0.0474 
-7 -6 11 1.1478 0.0147 
-7 -6 12 2.0943 0.0598 
-7 -6 13 2.5269 0.2091 
-7 -6 14 2.1259 0.1048 
-7 -6 15 -0.1618 -0.0603 
-7 -6 16 -0.9936 0.0443 
-7 -6 17 1.2438 0.0641 
-7 -5 1 -0.4192 -0.0436 
-7 -5 2 -0.6960 -0.0818 
-7 -5 3 0.3738 -0.0236 
-7 -5 4 0.8577 0.0284 
-7 -5 5 1.2729 0.0546 
-7 -5 6 2.2631 0.0342 
-7 -5 7 2.0473 -0.0518 
-7 -5 8 1.2724 -0.0504 
-7 -5 9 0.7829 -0.0348 
-7 -5 10 0.3176 -0.0775 
-7 -5 11 -0.0308 -0.0592 
-7 -5 12 -0.5118 -0.0446 
-7 -5 13 0.6037 0.0268 
-7 -5 14 2.9283 0.1831 
-7 -5 15 2.1660 0.1549 
-7 -5 16 -0.0102 0.0226 
-7 -5 17 0.9341 0.0414 
-7 -5 18 2.2967 0.0797 
-7 -4 1 0.6820 0.0641 
-7 -4 2 -0.5661 0.0072 
-7 -4 3 -0.9659 0.0028 
-7 -4 4 -1.0344 0.0329 
-7 -4 5 -0.6476 -0.0030 
-7 -4 6 0.7556 -0.0208 
-7 -4 7 0.4560 -0.0788 
-7 -4 8 -1.3923 -0.0749 
-7 -4 9 -1.1671 0.0456 
-7 -4 10 1.3656 0.0171 
-7 -4 11 3.2556 -0.0139 
-7 -4 12 1.6943 0.0589 
-7 -4 13 -0.8027 -0.0105 
-7 -4 14 0.0088 -0.0436 
-7 -4 15 0.5241 0.0645 
-7 -4 16 -1.7463 0.0647 
-7 -4 17 -1.8382 -0.0018 
-7 -4 18 0.2430 0.0092 
-7 -3 1 -1.5785 -0.0105 
-7 -3 2 -2.2349 -0.0136 
-7 -3 3 -1.0471 -0.0072 
-7 -3 4 -0.0692 0.0227 
-7 -3 5 -0.0835 -0.0119 
-7 -3 6 0.8796 0.0049 
-7 -3 7 1.2724 0.0393 
-7 -3 8 -1.2287 -0.0172 
-7 -3 9 -3.8147 0.0210 
-7 -3 10 -3.4089 0.0180 
-7 -3 11 -0.2393 -0.1047 
-7 -3 12 1.7816 -0.0383 
-7 -3 13 -0.0675 0.0479 
-7 -3 14 -1.3132 -0.0301 
-7 -3 15 -0.1733 -0.0580 
-7 -3 16 -0.7882 -0.0369 
-7 -3 17 -1.8412 0.0064 
-7 -3 18 -0.6434 0.0952 
-7 -3 19 0.4352 0.1380 
-7 -2 1 0.3578 0.0535 
-7 -2 2 0.3846 0.0281 
-7 -2 3 1.6455 0.0237 
-7 -2 4 1.8047 0.0300 
-7 -2 5 -0.5546 -0.0122 
-7 -2 6 -2.4156 -0.0346 
-7 -2 7 -1.9169 0.0232 
-7 -2 8 -1.1812 -0.0080 
-7 -2 9 -1.2035 -0.0397 
-7 -2 10 -1.9167 0.0295 
-7 -2 11 -1.9122 0.0013 
-7 -2 12 0.5964 -0.0365 
-7 -2 13 1.8345 0.0014 
-7 -2 14 -0.4724 -0.0018 
-7 -2 15 -2.1805 0.0249 
-7 -2 16 -2.2005 0.0337 
-7 -2 17 -1.8427 -0.0415 
-7 -2 18 -0.8949 -0.0727 
-7 -2 19 -0.1465 -0.0930 
-7 -1 1 1.7714 -0.0108 
-7 -1 2 -1.0414 -0.0237 
-7 -1 3 -2.1879 -0.0069 
-7 -1 4 -2.0147 -0.0272 
-7 -1 5 -2.1567 -0.0608 
-7 -1 6 -2.3520 -0.0404 
-7 -1 7 -1.6949 0.0439 
-7 -1 8 -0.7081 0.0726 
-7 -1 9 0.7708 0.0232 
-7 -1 10 1.4979 0.0201 
-7 -1 11 -0.9550 0.0279 
-7 -1 12 -2.7745 0.0331 
-7 -1 13 -0.9102 0.0561 
-7 -1 14 -0.2192 0.0120 
-7 -1 15 -1.9601 -0.0121 
-7 -1 16 -2.0021 0.0276 
-7 -1 17 0.3336 0.0038 
-7 -1 18 2.4297 -0.0526 
-7 -1 19 1.7482 -0.0454 
-7 0 1 -0.2087 -0.0252 
-7 0 2 -0.6428 -0.0242 
-7 0 3 0.5596 0.0541 
-7 0 4 2.5864 0.0650 
-7 0 5 3.7687 -0.0036 
-7 0 6 3.3976 -0.0119 
-7 0 7 1.5021 0.0239 
-7 0 8 -1.4198 -0.0069 
-7 0 9 -2.9847 -0.0483 
-7 0 10 -1.2897 -0.0199 
-7 0 11 -0.2657 -0.0091 
-7 0 12 -2.1502 -0.0337 
-7 0 13 -2.0499 -0.0186 
-7 0 14 0.2017 -0.0199 
-7 0 15 0.2880 -0.0520 
-7 0 16 -0.0482 -0.0329 
-7 0 17 1.8682 0.0643 
-7 0 18 3.8967 0.1527 
-7 0 19 3.3271 0.0752 
-7 1 1 2.7599 0.0080 
-7 1 2 3.9472 -0.0327 
-7 1 3 4.0971 -0.0305 
-7 1 4 2.9142 -0.0327 
-7 1 5 1.2191 -0.0696 
-7 1 6 0.6298 -0.0547 
-7 1 7 0.9544 0.0366 
-7 1 8 0.8379 0.0506 
-7 1 9 -0.2758 0.0014 
-7 1 10 -0.6427 0.0216 
-7 1 11 0.4404 0.0395 
-7 1 12 0.3525 -0.0026 
-7 1 13 -0.2832 -0.0224 
-7 1 14 0.7282 0.0176 
-7 1 15 0.7514 0.0766 
-7 1 16 -0.4732 0.0200 
-7 1 17 0.4783 -0.1232 
-7 1 18 1.9254 -0.1281 
-7 1 19 0.7215 -0.1226 
-7 2 1 0.8366 -0.0906 
-7 2 2 0.7136 -0.0816 
-7 2 3 0.2004 0.0132 
-7 2 4 -0.8797 0.0574 
-7 2 5 -2.1507 0.0407 
-7 2 6 -1.8320 -0.0044 
-7 2 7 0.0736 -0.0167 
-7 2 8 2.1539 -0.0135 
-7 2 9 3.0843 -0.0066 
-7 2 10 1.5850 0.0462 
-7 2 11 -0.7909 0.0468 
-7 2 12 -1.8208 -0.0220 
-7 2 13 -1.7200 -0.0686 
-7 2 14 -0.3380 -0.1072 
-7 2 15 0.8703 -0.0468 
-7 2 16 -0.0248 0.0973 
-7 2 17 0.1854 0.1466 
-7 2 18 2.4531 0.2483 
-7 2 19 2.1330 0.3717 
-7 3 1 -0.4572 0.0599 
-7 3 2 0.2398 0.0140 
-7 3 3 1.0397 0.0355 
-7 3 4 1.5390 0.0132 
-7 3 5 1.0676 -0.0388 
-7 3 6 0.1304 -0.0367 
-7 3 7 -0.5985 0.0110 
-7 3 8 -1.0619 0.0253 
-7 3 9 -0.3844 -0.0132 
-7 3 10 0.2636 0.0061 
-7 3 11 -0.9916 -0.0014 
-7 3 12 -1.6654 -0.0950 
-7 3 13 -0.4379 -0.0599 
-7 3 14 0.8832 0.0432 
-7 3 15 1.8999 0.0783 
-7 3 16 1.3154 0.0973 
-7 3 17 -0.3786 -0.0297 
-7 3 18 0.3558 -0.1603 
-7 4 1 -0.4979 0.0234 
-7 4 2 0.6261 -0.0307 
-7 4 3 1.4324 -0.0433 
-7 4 4 1.4670 0.0079 
-7 4 5 1.2360 0.0387 
-7 4 6 0.6247 0.0198 
-7 4 7 -0.6847 0.0204 
-7 4 8 -2.3517 0.0599 
-7 4 9 -2.6906 0.0102 
-7 4 10 -0.7005 -0.0258 
-7 4 11 0.6895 0.0613 
-7 4 12 0.8062 0.0538 
-7 4 13 1.9158 -0.0126 
-7 4 14 1.8250 -0.0409 
-7 4 15 -0.2148 -0.1376 
-7 4 16 -1.4375 -0.1646 
-7 4 17 -2.2511 -0.1412 
-7 5 1 -1.3463 -0.0095 
-7 5 2 -0.4978 0.0284 
-7 5 3 0.3592 -0.0062 
-7 5 4 -0.5653 -0.0420 
-7 5 5 -1.8468 0.0229 
-7 5 6 -1.3049 0.0551 
-7 5 7 -0.2804 -0.0388 
-7 5 8 -0.2077 -0.0478 
-7 5 9 -0.8754 -0.0045 
-7 5 10 -0.6872 -0.0895 
-7 5 11 0.0034 -0.0983 
-7 5 12 -0.5685 -0.0233 
-7 5 13 0.1219 -0.0123 
-7 5 14 2.0244 0.0047 
-7 5 15 0.9843 -0.0659 
-7 5 16 -1.0201 -0.1431 
-7 5 17 -1.5479 -0.0907 
-7 6 1 -3.5055 -0.0017 
-7 6 2 -3.0465 0.0080 
-7 6 3 -0.8404 0.0072 
-7 6 4 0.6148 -0.0952 
-7 6 5 0.1152 -0.0995 
-7 6 6 0.8795 0.0650 
-7 6 7 2.2063 0.0847 
-7 6 8 1.2574 -0.0359 
-7 6 9 -1.6477 -0.0124 
-7 6 10 -3.9876 -0.0140 
-7 6 11 -3.0124 -0.0909 
-7 6 12 -0.6323 -0.0710 
-7 6 13 1.0439 -0.0689 
-7 6 14 3.2794 -0.0606 
-7 6 15 3.1856 -0.0834 
-7 6 16 -0.3778 -0.2433 
-7 7 1 -1.8856 -0.0723 
-7 7 2 -1.9814 -0.0392 
-7 7 3 -0.1120 0.0771 
-7 7 4 2.1453 0.1427 
-7 7 5 0.9305 0.0551 
-7 7 6 -1.2031 -0.0145 
-7 7 7 -0.9559 0.0065 
-7 7 8 -0.0797 -0.0349 
-7 7 9 0.1727 0.0022 
-7 7 10 -0.9898 0.0880 
-7 7 11 -2.1746 -0.0384 
-7 7 12 -1.5914 -0.1885 
-7 7 13 -1.5481 -0.2259 
-7 7 14 -1.1412 -0.1382 
-7 7 15 1.0184 0.0725 
-7 8 1 0.8704 0.1337 
-7 8 2 -0.2149 0.0945 
-7 8 3 -0.9569 -0.0513 
-7 8 4 0.0271 -0.0986 
-7 8 5 0.5597 0.0039 
-7 8 6 0.2251 0.0065 
-7 8 7 1.4567 0.0033 
-7 8 8 2.8939 0.0601 
-7 8 9 3.6202 0.0711 
-7 8 10 3.1922 0.1110 
-7 8 11 0.4535 0.0810 
-7 8 12 -1.1699 0.0281 
-7 8 13 -0.9455 0.1216 
-7 9 1 -0.3963 -0.1789 
-7 9 2 -0.9335 -0.0473 
-7 9 3 -1.1290 0.0412 
-7 9 4 -0.3869 -0.0904 
-7 9 5 0.3644 -0.0008 
-7 9 6 0.5486 0.1189 
-7 9 7 1.5459 -0.0332 
-7 9 8 1.8148 -0.0663 
-7 9 9 0.7003 -0.0238 
-7 9 10 0.9974 -0.1045 
-7 9 11 0.7301 -0.1654 
-7 10 1 1.3428 0.0708 
-7 10 2 0.7593 -0.0996 
-7 10 3 0.1257 0.0420 
-7 10 4 0.5856 -0.0450 
-7 10 5 0.1949 -0.1523 
-7 10 6 -1.0715 0.0632 
-7 10 7 -0.2217 -0.0207 
-7 10 8 1.6825 -0.1293 
-7 10 9 0.6452 0.1456 
-7 11 1 -1.6094 0.2865 
-7 11 2 -1.8267 -0.0902 
-7 11 3 -2.3170 -0.2365 
-7 11 4 0.2962 -0.1690 
-7 11 5 3.2599 -0.2644 
-7 11 6 2.9106 0.0749 
-6 -10 1 -0.1008 0.1207 
-6 -10 2 0.8068 -0.0406 
-6 -10 3 -0.0266 0.1155 
-6 -10 4 -1.1005 0.2334 
-6 -10 5 -1.4010 0.0133 
-6 -10 6 -1.0713 0.0704 
-6 -10 7 0.1919 0.0889 
-6 -10 8 1.3773 -0.0689 
-6 -10 9 1.6092 0.1111 
-6 -10 10 0.7345 0.1223 
-6 -10 11 -0.1741 0.0132 
-6 -9 1 1.5683 -0.1690 
-6 -9 2 2.5299 -0.1578 
-6 -9 3 2.2408 -0.0986 
-6 -9 4 0.6916 0.0811 
-6 -9 5 -0.3355 -0.0581 
-6 -9 6 -1.4792 -0.1019 
-6 -9 7 -1.8719 0.0791 
-6 -9 8 -0.9228 -0.0237 
-6 -9 9 -0.0144 -0.0412 
-6 -9 10 0.0817 -0.0081 
-6 -9 11 -0.4975 -0.1876 
-6 -9 12 -1.0054 0.0347 
-6 -9 13 -1.3754 0.2135 
-6 -8 1 1.2195 0.0747 
-6 -8 2 1.8208 0.0516 
-6 -8 3 2.2546 -0.0806 
-6 -8 4 0.2471 -0.0109 
-6 -8 5 -1.4044 0.0161 
-6 -8 6 -1.5468 -0.0889 
-6 -8 7 -0.4225 0.0247 
-6 -8 8 2.0665 0.0721 
-6 -8 9 3.4867 0.0167 
-6 -8 10 2.7076 0.0933 
-6 -8 11 1.4629 -0.0330 
-6 -8 12 0.7911 -0.0647 
-6 -8 13 0.3716 0.1211 
-6 -8 14 -0.2260 -0.1745 
-6 -8 15 -0.7358 -0.3016 
-6 -7 1 0.0185 0.0031 
-6 -7 2 -0.2506 0.1099 
-6 -7 3 1.0820 0.0420 
-6 -7 4 0.6439 -0.0514 
-6 -7 5 -1.0029 -0.0265 
-6 -7 6 -1.3412 -0.0599 
-6 -7 7 -0.7020 -0.0482 
-6 -7 8 1.1116 0.0329 
-6 -7 9 2.4520 -0.0118 
-6 -7 10 1.0671 0.0092 
-6 -7 11 -0.7374 0.0429 
-6 -7 12 -0.3135 -0.0177 
-6 -7 13 1.3576 0.1093 
-6 -7 14 1.9370 0.0429 
-6 -7 15 0.6153 -0.3186 
-6 -7 16 -1.1745 -0.1216 
-6 -7 17 -1.5823 0.3267 
-6 -6 1 1.0910 0.0619 
-6 -6 2 0.4972 0.0221 
-6 -6 3 1.1203 -0.0161 
-6 -6 4 1.2833 -0.0500 
-6 -6 5 -0.6765 -0.0179 
-6 -6 6 -2.1409 0.0434 
-6 -6 7 -2.6986 0.0332 
-6 -6 8 -2.0111 0.0474 
-6 -6 9 0.7147 0.0474 
-6 -6 10 2.3108 0.0085 
-6 -6 11 0.7730 0.0712 
-6 -6 12 -1.7530 0.0853 
-6 -6 13 -2.6720 0.0411 
-6 -6 14 -1.5349 0.0753 
-6 -6 15 -0.7227 -0.0038 
-6 -6 16 -1.6616 -0.0346 
-6 -6 17 -2.1247 0.2023 
-6 -6 18 -0.7302 0.2905 
-6 -5 1 -0.4525 0.0367 
-6 -5 2 -0.8306 -0.0006 
-6 -5 3 -0.2278 -0.0684 
-6 -5 4 0.9748 -0.0583 
-6 -5 5 0.1364 -0.0431 
-6 -5 6 -0.7350 0.0031 
-6 -5 7 -0.9614 0.0334 
-6 -5 8 -2.5719 0.0019 
-6 -5 9 -3.3713 0.0028 
-6 -5 10 -1.3995 -0.0584 
-6 -5 11 1.2717 -0.1179 
-6 -5 12 1.9198 -0.0182 
-6 -5 13 0.2852 0.0285 
-6 -5 14 -0.3695 -0.0037 
-6 -5 15 0.7631 0.0268 
-6 -5 16 0.1469 0.0460 
-6 -5 17 -1.9074 0.0455 
-6 -5 18 -1.6487 -0.0263 
-6 -5 19 0.0565 -0.1539 
-6 -4 1 1.3765 0.0083 
-6 -4 2 0.6119 0.0408 
-6 -4 3 0.3892 0.0339 
-6 -4 4 1.2979 0.0656 
-6 -4 5 0.4048 0.0560 
-6 -4 6 -0.8270 -0.0148 
-6 -4 7 0.4984 -0.0172 
-6 -4 8 1.1626 -0.0300 
-6 -4 9 -0.8320 -0.0134 
-6 -4 10 -2.5954 0.0501 
-6 -4 11 -1.5829 -0.0095 
-6 -4 12 1.3456 -0.0203 
-6 -4 13 2.0149 0.0808 
-6 -4 14 0.1231 0.0834 
-6 -4 15 -0.1759 0.0590 
-6 -4 16 -0.0191 0.0500 
-6 -4 17 -2.5362 0.0261 
-6 -4 18 -4.8488 0.0159 
-6 -4 19 -4.0471 -0.1012 
-6 -3 1 -0.3993 -0.0012 
-6 -3 2 -2.0961 -0.0240 
-6 -3 3 -1.9225 -0.0388 
-6 -3 4 0.9326 -0.0071 
-6 -3 5 2.4264 0.0452 
-6 -3 6 0.9828 0.0127 
-6 -3 7 0.4409 0.0019 
-6 -3 8 1.5791 0.0249 
-6 -3 9 2.0624 -0.0010 
-6 -3 10 0.9601 0.0358 
-6 -3 11 -1.1354 0.0519 
-6 -3 12 -1.2162 -0.0083 
-6 -3 13 0.7261 -0.0099 
-6 -3 14 0.6635 -0.0205 
-6 -3 15 -0.2986 -0.0262 
-6 -3 16 0.3698 -0.0184 
-6 -3 17 -0.2637 -0.1024 
-6 -3 18 -3.6755 -0.0708 
-6 -3 19 -6.5842 0.1369 
-6 -2 1 0.6265 0.0298 
-6 -2 2 2.2022 0.0637 
-6 -2 3 3.3898 0.0730 
-6 -2 4 4.8682 0.0654 
-6 -2 5 5.1118 0.0594 
-6 -2 6 2.6006 0.0282 
-6 -2 7 -0.8243 -0.0318 
-6 -2 8 -3.0825 -0.0606 
-6 -2 9 -3.0773 -0.0929 
-6 -2 10 -0.5222 -0.0916 
-6 -2 11 0.9321 -0.0446 
-6 -2 12 0.0395 -0.0249 
-6 -2 13 0.8926 0.0001 
-6 -2 14 2.4002 -0.0256 
-6 -2 15 1.0131 -0.0460 
-6 -2 16 -0.6954 0.0901 
-6 -2 17 -0.3835 0.1484 
-6 -2 18 -0.0636 0.0109 
-6 -2 19 -1.4968 -0.0743 
-6 -2 20 -3.5912 -0.0312 
-6 -1 1 -0.3099 0.0147 
-6 -1 2 -0.9913 -0.0734 
-6 -1 3 -1.9194 -0.1129 
-6 -1 4 -2.2092 -0.0794 
-6 -1 5 -0.9784 -0.0467 
-6 -1 6 1.7649 0.0019 
-6 -1 7 4.2044 0.0709 
-6 -1 8 3.5347 0.1023 
-6 -1 9 0.1552 0.0824 
-6 -1 10 -0.8379 0.0673 
-6 -1 11 1.1557 0.0514 
-6 -1 12 0.9150 0.0004 
-6 -1 13 -0.6157 0.0229 
-6 -1 14 0.0652 0.0719 
-6 -1 15 -0.0609 -0.0131 
-6 -1 16 -2.4894 -0.0946 
-6 -1 17 -3.5464 -0.0729 
-6 -1 18 -1.8534 -0.0492 
-6 -1 19 0.3043 -0.0565 
-6 -1 20 0.9238 -0.0540 
-6 0 1 -8.1376 0.0308 
-6 0 2 -9.1688 0.0691 
-6 0 3 -6.7998 0.0660 
-6 0 4 -3.4661 0.0645 
-6 0 5 -1.4849 0.0401 
-6 0 6 0.6719 -0.0284 
-6 0 7 3.9090 -0.0560 
-6 0 8 5.0117 -0.0525 
-6 0 9 1.5572 -0.0867 
-6 0 10 -2.6084 -0.0763 
-6 0 11 -2.4389 0.0049 
-6 0 12 -0.4265 0.0089 
-6 0 13 -0.4141 -0.0484 
-6 0 14 -0.2172 -0.0349 
-6 0 15 0.7763 0.0183 
-6 0 16 0.1770 0.0581 
-6 0 17 -0.6720 0.0795 
-6 0 18 -0.0581 0.1055 
-6 0 19 0.4580 0.1066 
-6 0 20 0.2889 -0.0443 
-6 1 1 -1.7436 -0.0063 
-6 1 2 -2.9276 -0.0488 
-6 1 3 -1.9221 -0.0496 
-6 1 4 -0.0111 -0.0618 
-6 1 5 -1.1332 -0.0463 
-6 1 6 -4.1034 -0.0066 
-6 1 7 -4.0311 0.0229 
-6 1 8 -0.8455 0.0544 
-6 1 9 1.4960 0.0366 
-6 1 10 0.9316 -0.0110 
-6 1 11 -0.4789 0.0131 
-6 1 12 -0.3808 0.0825 
-6 1 13 -0.0234 0.1229 
-6 1 14 -0.2193 0.0998 
-6 1 15 -0.0092 0.0405 
-6 1 16 -0.3767 0.0286 
-6 1 17 -0.9716 0.0024 
-6 1 18 0.3894 -0.0612 
-6 1 19 1.7492 -0.0156 
-6 2 1 4.6513 0.0221 
-6 2 2 0.0467 -0.0454 
-6 2 3 -4.1060 0.0094 
-6 2 4 -3.9275 0.0748 
-6 2 5 -1.1683 0.0318 
-6 2 6 0.2203 -0.0040 
-6 2 7 0.5969 -0.0009 
-6 2 8 1.2922 0.0077 
-6 2 9 2.0187 0.0140 
-6 2 10 1.9950 0.0178 
-6 2 11 0.0411 0.0165 
-6 2 12 -2.3807 -0.0171 
-6 2 13 -2.8711 -0.0204 
-6 2 14 -2.5401 -0.0029 
-6 2 15 -2.0614 -0.0750 
-6 2 16 -1.0998 -0.0949 
-6 2 17 -0.8971 0.0032 
-6 2 18 -0.5511 0.0190 
-6 2 19 0.7233 -0.0499 
-6 3 1 2.7986 -0.0110 
-6 3 2 1.9785 0.0132 
-6 3 3 -0.6404 0.0411 
-6 3 4 -2.4683 0.1018 
-6 3 5 -1.0592 0.0544 
-6 3 6 2.0135 -0.0340 
-6 3 7 4.0742 -0.0277 
-6 3 8 4.1888 0.0235 
-6 3 9 2.6300 0.0223 
-6 3 10 0.9917 -0.0147 
-6 3 11 -0.8532 -0.0160 
-6 3 12 -3.4510 -0.0698 
-6 3 13 -3.6927 -0.1584 
-6 3 14 -1.6790 -0.1057 
-6 3 15 -0.9026 -0.0348 
-6 3 16 -0.0658 -0.0209 
-6 3 17 1.4303 0.0412 
-6 3 18 1.0615 0.0005 
-6 3 19 -0.1693 -0.1538 
-6 4 1 3.6398 -0.0084 
-6 4 2 5.6190 -0.0487 
-6 4 3 5.1869 -0.0487 
-6 4 4 2.1970 -0.0327 
-6 4 5 -1.4207 -0.0183 
-6 4 6 -2.5075 -0.0188 
-6 4 7 -1.1760 -0.0247 
-6 4 8 0.5441 -0.0344 
-6 4 9 1.4295 -0.0573 
-6 4 10 1.7605 -0.1007 
-6 4 11 1.9391 -0.0465 
-6 4 12 0.5755 0.0682 
-6 4 13 -0.6090 0.0231 
-6 4 14 0.7710 -0.0665 
-6 4 15 0.6807 -0.1045 
-6 4 16 -1.5035 -0.1587 
-6 4 17 -0.9944 -0.0550 
-6 4 18 0.5475 0.1460 
-6 5 1 1.1578 0.0138 
-6 5 2 3.1192 0.0087 
-6 5 3 3.6978 0.0824 
-6 5 4 2.8589 0.0494 
-6 5 5 -0.7998 -0.0556 
-6 5 6 -4.1908 -0.0272 
-6 5 7 -3.8751 0.0601 
-6 5 8 -1.4276 0.0157 
-6 5 9 0.8663 -0.0748 
-6 5 10 1.7853 -0.1240 
-6 5 11 1.6146 -0.1228 
-6 5 12 0.7027 -0.0161 
-6 5 13 -0.7033 0.0216 
-6 5 14 0.2223 -0.0242 
-6 5 15 2.2194 0.0473 
-6 5 16 1.1684 0.1094 
-6 5 17 0.2313 0.1782 
-6 6 1 -2.5507 0.0759 
-6 6 2 -2.0096 -0.0589 
-6 6 3 -1.3236 -0.0453 
-6 6 4 0.9073 0.0065 
-6 6 5 1.8482 -0.0633 
-6 6 6 0.1317 -0.0384 
-6 6 7 -0.5753 0.1138 
-6 6 8 -0.2234 0.0848 
-6 6 9 -0.2132 -0.0731 
-6 6 10 -0.4326 -0.0597 
-6 6 11 -1.0788 0.0270 
-6 6 12 -0.8087 0.0593 
-6 6 13 -0.0504 0.0044 
-6 6 14 0.0934 -0.1276 
-6 6 15 0.8278 -0.0465 
-6 6 16 0.6873 0.1772 
-6 7 1 -3.5891 0.0375 
-6 7 2 -2.2236 0.0053 
-6 7 3 -0.6989 0.0093 
-6 7 4 1.5521 0.0778 
-6 7 5 2.9465 0.0505 
-6 7 6 0.6875 0.0174 
-6 7 7 -1.8631 0.0600 
-6 7 8 -2.6083 0.0173 
-6 7 9 -2.8245 -0.1120 
-6 7 10 -1.6777 -0.0309 
-6 7 11 -0.8336 0.1395 
-6 7 12 -0.9938 0.0603 
-6 7 13 0.0956 -0.1391 
-6 7 14 0.3960 -0.2392 
-6 7 15 -0.9028 -0.0356 
-6 8 1 0.2666 0.0311 
-6 8 2 -0.8004 0.0566 
-6 8 3 -1.8974 0.0722 
-6 8 4 -2.1232 0.0412 
-6 8 5 -1.5841 -0.0888 
-6 8 6 -2.2675 -0.0759 
-6 8 7 -2.2016 0.0435 
-6 8 8 -0.2653 0.0350 
-6 8 9 -0.3898 -0.0724 
-6 8 10 -1.2969 -0.0590 
-6 8 11 -0.9543 0.0453 
-6 8 12 -1.6518 -0.0687 
-6 8 13 -1.0088 -0.2749 
-6 8 14 1.3707 -0.2690 
-6 9 1 -0.1838 -0.0700 
-6 9 2 -0.7419 -0.1611 
-6 9 3 -1.3915 -0.0829 
-6 9 4 -0.4913 0.1278 
-6 9 5 1.1815 0.0516 
-6 9 6 0.5105 -0.0232 
-6 9 7 -0.5440 0.0715 
-6 9 8 1.7772 -0.0032 
-6 9 9 2.9875 -0.0686 
-6 9 10 0.7589 0.1010 
-6 9 11 -0.2391 0.2009 
-6 9 12 -1.0292 -0.0951 
-6 10 1 0.2121 0.0020 
-6 10 2 0.1169 0.0016 
-6 10 3 -1.7908 -0.1342 
-6 10 4 -3.0122 0.0392 
-6 10 5 -1.2097 0.0665 
-6 10 6 -0.3015 -0.0967 
-6 10 7 -1.8920 0.0178 
-6 10 8 -1.1779 -0.0565 
-6 10 9 1.0345 -0.2948 
-6 10 10 -0.2639 -0.0279 
-6 11 1 2.5998 -0.0103 
-6 11 2 1.5518 0.1370 
-6 11 3 -0.5511 -0.0781 
-6 11 4 -3.7225 -0.1320 
-6 11 5 -3.4430 0.0189 
-6 11 6 -0.6495 -0.0912 
-6 11 7 0.1285 0.1192 
-6 11 8 0.1412 0.4147 
-6 12 1 1.0008 -0.2267 
-6 12 2 0.1985 -0.0185 
-6 12 3 0.3627 -0.0597 
-5 -11 1 0.0171 0.2246 
-5 -11 2 1.0257 0.1383 
-5 -11 3 0.6548 -0.1072 
-5 -11 4 -0.5088 -0.0438 
-5 -11 5 -0.8175 -0.0346 
-5 -11 6 -1.4254 -0.0535 
-5 -11 7 -2.4355 0.0696 
-5 -11 8 -3.2002 -0.0287 
-5 -11 9 -2.7877 -0.0575 
-5 -10 1 0.9118 -0.0315 
-5 -10 2 1.7755 0.0062 
-5 -10 3 1.6173 -0.0836 
-5 -10 4 -0.4762 0.0128 
-5 -10 5 -1.0342 0.0908 
-5 -10 6 -0.2310 -0.0593 
-5 -10 7 -0.0642 -0.0114 
-5 -10 8 -0.4707 -0.0030 
-5 -10 9 -0.6757 -0.0980 
-5 -10 10 -0.3521 0.0717 
-5 -10 11 -0.3026 0.0352 
-5 -10 12 -0.1789 -0.0836 
-5 -10 13 -0.0880 0.2022 
-5 -9 1 0.6051 -0.0827 
-5 -9 2 1.3184 0.0133 
-5 -9 3 2.9752 0.0093 
-5 -9 4 2.5753 0.0194 
-5 -9 5 1.4387 0.1488 
-5 -9 6 1.2076 0.0637 
-5 -9 7 0.3292 0.0324 
-5 -9 8 -0.7659 0.1336 
-5 -9 9 -0.7569 -0.0320 
-5 -9 10 0.2464 -0.1051 
-5 -9 11 1.4114 -0.0782 
-5 -9 12 2.3900 -0.2189 
-5 -9 13 2.5217 -0.0229 
-5 -9 14 0.3084 0.1860 
-5 -9 15 -1.6810 -0.0893 
-5 -8 1 2.2287 -0.0055 
-5 -8 2 1.1729 -0.0406 
-5 -8 3 1.3229 -0.0380 
-5 -8 4 1.1544 -0.0747 
-5 -8 5 -0.5337 -0.0033 
-5 -8 6 -1.4147 0.0063 
-5 -8 7 -1.6001 -0.0778 
-5 -8 8 -1.3391 0.0431 
-5 -8 9 0.1471 0.0787 
-5 -8 10 1.0648 -0.0118 
-5 -8 11 0.1376 0.0659 
-5 -8 12 -0.1928 0.0135 
-5 -8 13 1.8301 -0.0161 
-5 -8 14 2.7986 0.1820 
-5 -8 15 0.9187 0.0231 
-5 -8 16 0.2123 -0.2140 
-5 -7 1 0.2604 -0.0426 
-5 -7 2 -0.2705 -0.0349 
-5 -7 3 -0.3289 0.0118 
-5 -7 4 1.0258 0.0598 
-5 -7 5 1.3078 0.0819 
-5 -7 6 0.8629 0.1160 
-5 -7 7 0.2116 0.0568 
-5 -7 8 -1.1913 0.0345 
-5 -7 9 -0.9018 0.0429 
-5 -7 10 1.4070 -0.0938 
-5 -7 11 1.9889 -0.0835 
-5 -7 12 0.3870 0.0550 
-5 -7 13 0.4256 0.0199 
-5 -7 14 2.1519 0.0375 
-5 -7 15 1.7126 0.0518 
-5 -7 16 -0.0635 -0.1053 
-5 -7 17 -0.2973 -0.0497 
-5 -7 18 -0.0397 0.1490 
-5 -6 1 0.9227 0.0421 
-5 -6 2 1.5147 0.0169 
-5 -6 3 0.8763 -0.0698 
-5 -6 4 1.5276 -0.0642 
-5 -6 5 2.1167 -0.0514 
-5 -6 6 1.6595 -0.0610 
-5 -6 7 1.5673 -0.0545 
-5 -6 8 0.2525 -0.0403 
-5 -6 9 -2.0958 0.0255 
-5 -6 10 -2.0275 0.0208 
-5 -6 11 0.0046 -0.0337 
-5 -6 12 0.7650 0.0587 
-5 -6 13 0.3533 0.0923 
-5 -6 14 0.7630 -0.0188 
-5 -6 15 1.0408 -0.0395 
-5 -6 16 -0.0095 0.0067 
-5 -6 17 -1.0291 0.0949 
-5 -6 18 -1.2563 0.1011 
-5 -5 1 -1.3681 0.0161 
-5 -5 2 -0.2323 0.0585 
-5 -5 3 -0.3832 0.0447 
-5 -5 4 0.1752 0.0535 
-5 -5 5 1.0988 0.1115 
-5 -5 6 0.1810 0.0955 
-5 -5 7 0.0014 0.0692 
-5 -5 8 1.3539 0.0634 
-5 -5 9 1.1401 0.0329 
-5 -5 10 -0.3997 0.0134 
-5 -5 11 -1.0852 -0.0285 
-5 -5 12 -0.7641 -0.0303 
-5 -5 13 -0.2904 0.0268 
-5 -5 14 0.2295 -0.0038 
-5 -5 15 1.0586 -0.0445 
-5 -5 16 1.8775 -0.0317 
-5 -5 17 2.1911 0.0118 
-5 -5 18 1.5800 0.1429 
-5 -5 19 1.0493 0.0991 
-5 -4 1 -0.6655 0.0619 
-5 -4 2 0.7201 0.0442 
-5 -4 3 0.3289 0.0109 
-5 -4 4 -0.2146 -0.0563 
-5 -4 5 0.4805 -0.0649 
-5 -4 6 -0.6338 -0.0602 
-5 -4 7 -3.0291 -0.0843 
-5 -4 8 -3.2206 -0.0419 
-5 -4 9 -1.6450 -0.0082 
-5 -4 10 0.3498 -0.0159 
-5 -4 11 2.1603 0.0028 
-5 -4 12 3.0063 0.0296 
-5 -4 13 3.1567 0.0509 
-5 -4 14 2.7294 0.0125 
-5 -4 15 1.8283 -0.0086 
-5 -4 16 1.8754 0.0474 
-5 -4 17 3.4515 -0.0422 
-5 -4 18 4.0950 -0.1625 
-5 -4 19 2.0379 -0.0322 
-5 -4 20 0.0514 0.1712 
-5 -3 1 -4.4585 -0.0158 
-5 -3 2 -4.2963 0.0306 
-5 -3 3 -3.1385 0.0795 
-5 -3 4 -1.4581 0.0736 
-5 -3 5 1.9664 0.0281 
-5 -3 6 4.3965 0.0455 
-5 -3 7 3.3307 0.0474 
-5 -3 8 0.4556 0.0266 
-5 -3 9 -2.5853 0.0299 
-5 -3 10 -3.7089 0.0008 
-5 -3 11 -1.6771 -0.0424 
-5 -3 12 0.5633 -0.0414 
-5 -3 13 1.3719 0.0303 
-5 -3 14 1.8822 0.0570 
-5 -3 15 1.5753 -0.0176 
-5 -3 16 0.3962 0.0224 
-5 -3 17 0.7812 0.0810 
-5 -3 18 2.9720 -0.0579 
-5 -3 19 3.3071 -0.1258 
-5 -3 20 0.8252 0.0318 
-5 -2 1 -3.7425 -0.0252 
-5 -2 2 -3.1847 -0.0021 
-5 -2 3 -0.9475 -0.0176 
-5 -2 4 -0.3192 -0.0328 
-5 -2 5 -0.4587 -0.0859 
-5 -2 6 0.2098 -0.1000 
-5 -2 7 1.3417 -0.0513 
-5 -2 8 2.0884 -0.0571 
-5 -2 9 0.4842 -0.0812 
-5 -2 10 -2.6101 -0.0316 
-5 -2 11 -2.5464 0.0387 
-5 -2 12 0.0293 0.0147 
-5 -2 13 1.0442 -0.0328 
-5 -2 14 1.3460 -0.0017 
-5 -2 15 2.1577 -0.0248 
-5 -2 16 1.5171 -0.0547 
-5 -2 17 -0.3962 0.0452 
-5 -2 18 -0.9033 0.0928 
-5 -2 19 -0.0771 0.0217 
-5 -2 20 0.0699 -0.0717 
-5 -1 1 8.6817 -0.0068 
-5 -1 2 4.0335 0.0232 
-5 -1 3 1.1461 0.0232 
-5 -1 4 -1.2453 0.0215 
-5 -1 5 -4.4221 0.0452 
-5 -1 6 -6.2648 0.0551 
-5 -1 7 -4.0006 0.0805 
-5 -1 8 1.6323 0.0996 
-5 -1 9 5.1608 0.0498 
-5 -1 10 2.8020 -0.0038 
-5 -1 11 -0.6261 0.0272 
-5 -1 12 -0.2565 0.0451 
-5 -1 13 0.8791 -0.0257 
-5 -1 14 0.3589 -0.0257 
-5 -1 15 0.0337 0.0480 
-5 -1 16 0.0962 0.0297 
-5 -1 17 -0.3446 -0.0454 
-5 -1 18 -0.6425 -0.0888 
-5 -1 19 -0.9674 -0.0473 
-5 -1 20 -2.0762 0.0417 
-5 0 1 4.2964 -0.0373 
-5 0 2 -1.9170 -0.0373 
-5 0 3 -4.2230 -0.0149 
-5 0 4 -0.0669 -0.0345 
-5 0 5 5.0069 -0.0428 
-5 0 6 4.5636 0.0001 
-5 0 7 0.2882 0.0182 
-5 0 8 -1.7084 0.0180 
-5 0 9 -0.3449 0.0447 
-5 0 10 -0.1143 0.0550 
-5 0 11 -2.2283 0.0494 
-5 0 12 -2.6671 0.0603 
-5 0 13 -0.6102 0.0280 
-5 0 14 0.7913 -0.0340 
-5 0 15 0.5321 -0.0283 
-5 0 16 -0.6099 0.0372 
-5 0 17 -1.5862 0.0898 
-5 0 18 -0.7022 0.0787 
-5 0 19 1.0220 0.0397 
-5 0 20 -0.0465 -0.0232 
-5 1 1 3.8324 0.1473 
-5 1 2 3.7627 0.0833 
-5 1 3 -0.8720 0.0277 
-5 1 4 -4.0100 0.0391 
-5 1 5 -1.7301 0.0029 
-5 1 6 0.8824 -0.0228 
-5 1 7 -0.8387 -0.0190 
-5 1 8 -3.7826 -0.0644 
-5 1 9 -3.4924 -0.0798 
-5 1 10 -0.7425 -0.0305 
-5 1 11 0.5552 -0.0390 
-5 1 12 -0.4823 -0.1043 
-5 1 13 -1.0490 -0.0963 
-5 1 14 -0.0616 -0.0032 
-5 1 15 0.7753 0.0422 
-5 1 16 0.2041 -0.0164 
-5 1 17 -1.4764 -0.1058 
-5 1 18 -2.0430 -0.1715 
-5 1 19 0.2095 -0.1330 
-5 1 20 2.3365 -0.0335 
-5 2 1 4.3169 -0.0473 
-5 2 2 4.2898 -0.0508 
-5 2 3 -1.2119 -0.1095 
-5 2 4 -10.0564 -0.0285 
-5 2 5 -13.6731 0.0608 
-5 2 6 -8.9713 0.0241 
-5 2 7 -2.0483 0.0029 
-5 2 8 1.7951 0.0058 
-5 2 9 2.6442 -0.0158 
-5 2 10 2.7462 0.0127 
-5 2 11 2.8680 0.0683 
-5 2 12 1.4474 0.0333 
-5 2 13 -0.9020 -0.0542 
-5 2 14 -1.4369 -0.0358 
-5 2 15 -1.0623 0.0464 
-5 2 16 -1.6450 0.0564 
-5 2 17 -1.9171 0.0584 
-5 2 18 -0.7648 0.1027 
-5 2 19 1.6806 0.2107 
-5 2 20 4.2754 0.3672 
-5 3 1 -3.3861 0.0812 
-5 3 2 -0.3010 0.0634 
-5 3 3 2.9287 -0.0030 
-5 3 4 2.4298 -0.0055 
-5 3 5 -1.5706 0.0450 
-5 3 6 -4.1974 -0.0408 
-5 3 7 -3.5331 -0.1551 
-5 3 8 -1.7982 -0.1129 
-5 3 9 -0.6343 -0.0169 
-5 3 10 -0.0627 0.0041 
-5 3 11 0.6931 0.0047 
-5 3 12 0.7532 0.0424 
-5 3 13 -0.7285 0.0391 
-5 3 14 -0.4909 0.0227 
-5 3 15 1.8643 0.0732 
-5 3 16 1.7155 0.0729 
-5 3 17 -0.2969 0.0058 
-5 3 18 -0.4437 -0.0632 
-5 3 19 0.3210 -0.1285 
-5 4 1 -4.2430 0.0036 
-5 4 2 -0.1061 -0.0513 
-5 4 3 4.0872 -0.0710 
-5 4 4 7.1973 -0.0230 
-5 4 5 6.7374 0.0416 
-5 4 6 2.7864 0.0404 
-5 4 7 -0.8481 -0.0140 
-5 4 8 -2.4936 0.0010 
-5 4 9 -2.4744 0.0769 
-5 4 10 -1.2695 0.0625 
-5 4 11 0.2822 -0.0571 
-5 4 12 1.1382 -0.0673 
-5 4 13 -0.2461 0.0381 
-5 4 14 -1.5472 0.0477 
-5 4 15 0.8074 0.0006 
-5 4 16 2.6420 -0.0679 
-5 4 17 0.6317 -0.1775 
-5 4 18 -0.5047 -0.1891 
-5 5 1 -1.3213 0.0635 
-5 5 2 0.3587 0.0307 
-5 5 3 1.5675 -0.0096 
-5 5 4 2.5443 0.0402 
-5 5 5 3.5668 0.0096 
-5 5 6 2.1247 -0.0819 
-5 5 7 -0.4180 -0.0804 
-5 5 8 -1.5403 -0.0130 
-5 5 9 -1.5612 0.0208 
-5 5 10 -0.5335 0.0132 
-5 5 11 0.7172 -0.0473 
-5 5 12 1.2287 -0.0617 
-5 5 13 0.6486 0.0607 
-5 5 14 -0.9886 0.0817 
-5 5 15 -0.7340 -0.0309 
-5 5 16 1.2151 -0.0607 
-5 5 17 0.4718 -0.0738 
-5 5 18 -0.9457 -0.0446 
-5 6 1 -1.3365 0.0214 
-5 6 2 -3.0475 0.0069 
-5 6 3 -3.3431 -0.0837 
-5 6 4 -2.7271 -0.0097 
-5 6 5 0.2338 0.0655 
-5 6 6 2.5376 0.0092 
-5 6 7 1.9225 0.0228 
-5 6 8 0.4417 0.1027 
-5 6 9 -1.5094 0.0498 
-5 6 10 -2.5575 -0.0461 
-5 6 11 -1.5440 -0.0279 
-5 6 12 -0.6664 0.0222 
-5 6 13 0.0027 0.0771 
-5 6 14 0.7563 0.0381 
-5 6 15 0.8615 -0.1265 
-5 6 16 1.2530 -0.0902 
-5 6 17 0.7981 0.0988 
-5 7 1 -0.8046 0.0502 
-5 7 2 -1.0175 0.0926 
-5 7 3 -0.2094 -0.0095 
-5 7 4 0.3366 -0.0517 
-5 7 5 1.4490 -0.0209 
-5 7 6 2.3800 -0.0634 
-5 7 7 1.3000 -0.0529 
-5 7 8 0.3363 0.0170 
-5 7 9 -0.7927 -0.0459 
-5 7 10 -2.8810 -0.1764 
-5 7 11 -3.0260 -0.1325 
-5 7 12 -2.6930 -0.0252 
-5 7 13 -3.1580 -0.0248 
-5 7 14 -1.2067 -0.0703 
-5 7 15 1.6094 -0.1289 
-5 7 16 2.0431 0.0089 
-5 8 1 2.5189 -0.1035 
-5 8 2 1.9582 -0.0154 
-5 8 3 0.5276 0.0210 
-5 8 4 -1.2953 0.0691 
-5 8 5 -1.8077 0.1151 
-5 8 6 -1.0745 0.0279 
-5 8 7 -1.3200 0.0107 
-5 8 8 -0.5809 0.0826 
-5 8 9 1.5675 0.0504 
-5 8 10 0.9853 -0.0271 
-5 8 11 -0.4418 0.0120 
-5 8 12 -0.8082 0.0815 
-5 8 13 -2.7321 0.0396 
-5 8 14 -2.8360 0.0178 
-5 9 1 0.4171 0.0662 
-5 9 2 0.2277 0.0627 
-5 9 3 0.0025 -0.0335 
-5 9 4 -1.7751 -0.0922 
-5 9 5 -2.4256 0.0185 
-5 9 6 -0.4223 0.0011 
-5 9 7 0.8023 -0.0226 
-5 9 8 1.2181 0.0361 
-5 9 9 3.8737 -0.0592 
-5 9 10 5.2344 -0.0951 
-5 9 11 3.5229 0.1182 
-5 9 12 2.2691 0.2429 
-5 9 13 0.0020 0.0696 
-5 10 1 0.6958 -0.1240 
-5 10 2 1.5576 0.0038 
-5 10 3 3.0947 0.1111 
-5 10 4 1.2954 0.0140 
-5 10 5 -2.2223 0.0489 
-5 10 6 -2.1846 0.0232 
-5 10 7 0.1560 -0.0815 
-5 10 8 1.3828 0.0341 
-5 10 9 3.3285 -0.0009 
-5 10 10 5.4184 -0.1870 
-5 10 11 4.6034 -0.0628 
-5 11 1 -0.5334 -0.0126 
-5 11 2 -1.2601 -0.1329 
-5 11 3 -0.0373 -0.0463 
-5 11 4 0.3930 -0.1282 
-5 11 5 -2.1220 -0.1588 
-5 11 6 -3.4419 -0.0823 
-5 11 7 -2.0618 -0.2153 
-5 11 8 -0.9685 -0.1781 
-5 12 1 1.4124 0.2730 
-5 12 2 0.5513 0.3060 
-5 12 3 0.5614 0.2710 
-5 12 4 1.6657 0.0751 
-5 12 5 1.4261 -0.2333 
-4 -11 1 -2.2262 0.1826 
-4 -11 2 -1.3452 0.2744 
-4 -11 3 1.9042 0.2125 
-4 -11 4 2.9357 0.0681 
-4 -11 5 1.8339 0.0504 
-4 -11 6 0.6051 0.0420 
-4 -11 7 -0.4953 0.0107 
-4 -11 8 -1.0129 -0.0732 
-4 -11 9 -0.7022 -0.2382 
-4 -11 10 0.6166 -0.1383 
-4 -11 11 1.0834 0.1082 
-4 -10 1 -1.7551 -0.1068 
-4 -10 2 -2.8921 -0.1262 
-4 -10 3 -1.3918 -0.0644 
-4 -10 4 0.4278 -0.0591 
-4 -10 5 0.4531 -0.0147 
-4 -10 6 0.6093 0.0168 
-4 -10 7 0.9599 -0.0067 
-4 -10 8 0.6446 0.0807 
-4 -10 9 -0.3334 0.0446 
-4 -10 10 -0.8604 -0.0844 
-4 -10 11 -0.4648 -0.0183 
-4 -10 12 -0.1393 -0.0068 
-4 -10 13 1.1062 -0.0954 
-4 -10 14 1.9934 -0.1004 
-4 -9 1 -2.0309 0.1842 
-4 -9 2 -2.5335 0.2067 
-4 -9 3 -2.0430 0.1719 
-4 -9 4 -0.0894 0.1035 
-4 -9 5 0.4550 0.0339 
-4 -9 6 0.2014 0.0194 
-4 -9 7 0.2187 -0.0912 
-4 -9 8 -0.0102 -0.1043 
-4 -9 9 -0.3876 0.0128 
-4 -9 10 -0.9744 -0.0163 
-4 -9 11 -2.1405 0.0124 
-4 -9 12 -3.7219 0.1081 
-4 -9 13 -3.0079 0.0193 
-4 -9 14 0.1746 -0.0759 
-4 -9 15 0.5291 -0.0271 
-4 -9 16 -1.0505 0.0942 
-4 -8 1 0.2503 -0.0710 
-4 -8 2 0.5551 -0.0209 
-4 -8 3 -0.0554 -0.0532 
-4 -8 4 -0.0213 -0.0018 
-4 -8 5 -0.3182 0.0289 
-4 -8 6 -1.0969 0.0730 
-4 -8 7 -1.0431 0.0685 
-4 -8 8 -0.8991 -0.0039 
-4 -8 9 -0.6863 0.0395 
-4 -8 10 0.4199 0.0298 
-4 -8 11 1.0094 -0.0399 
-4 -8 12 -1.1925 0.0609 
-4 -8 13 -3.7398 0.1074 
-4 -8 14 -2.2324 -0.0252 
-4 -8 15 -0.2840 -0.0815 
-4 -8 16 -1.6038 0.0753 
-4 -8 17 -1.6234 0.2237 
-4 -7 1 -2.2487 0.0788 
-4 -7 2 -1.5604 0.1055 
-4 -7 3 -1.5141 -0.0259 
-4 -7 4 -1.9725 -0.0756 
-4 -7 5 -2.1013 -0.0509 
-4 -7 6 -2.1056 -0.0587 
-4 -7 7 -0.8078 -0.0341 
-4 -7 8 1.0617 -0.0346 
-4 -7 9 1.2963 -0.0227 
-4 -7 10 0.6876 0.0040 
-4 -7 11 0.9398 -0.0669 
-4 -7 12 0.6299 -0.0627 
-4 -7 13 -1.3354 0.0534 
-4 -7 14 -1.3790 0.0353 
-4 -7 15 0.8099 -0.1034 
-4 -7 16 0.7340 -0.1267 
-4 -7 17 -0.1130 0.0902 
-4 -7 18 0.9423 0.2448 
-4 -6 1 -1.0543 0.0197 
-4 -6 2 0.3135 0.0534 
-4 -6 3 1.7493 0.0190 
-4 -6 4 1.3055 0.0068 
-4 -6 5 0.4522 0.1005 
-4 -6 6 -0.7338 0.1378 
-4 -6 7 -1.6878 0.1068 
-4 -6 8 -0.6166 0.0817 
-4 -6 9 1.3235 0.0330 
-4 -6 10 2.1623 0.0116 
-4 -6 11 2.3302 0.0133 
-4 -6 12 2.3707 0.0023 
-4 -6 13 1.3638 0.0127 
-4 -6 14 0.5779 0.0078 
-4 -6 15 1.5432 -0.0020 
-4 -6 16 1.2913 0.0171 
-4 -6 17 -0.5894 0.0859 
-4 -6 18 -1.0648 0.2837 
-4 -6 19 -1.0325 0.3816 
-4 -5 1 -1.5165 0.0233 
-4 -5 2 -0.1196 -0.0382 
-4 -5 3 3.1388 -0.0673 
-4 -5 4 4.1153 -0.0754 
-4 -5 5 3.5763 -0.0698 
-4 -5 6 2.7604 -0.0624 
-4 -5 7 0.6808 -0.0869 
-4 -5 8 -1.3022 -0.0619 
-4 -5 9 -1.8026 -0.0067 
-4 -5 10 -1.4958 -0.0312 
-4 -5 11 -0.6324 -0.0836 
-4 -5 12 0.7177 -0.0712 
-4 -5 13 1.2741 -0.0184 
-4 -5 14 0.8898 -0.0377 
-4 -5 15 1.3457 -0.0848 
-4 -5 16 1.6711 -0.0246 
-4 -5 17 0.6933 -0.0138 
-4 -5 18 0.5862 -0.0956 
-4 -5 19 0.3476 -0.0374 
-4 -5 20 -1.2574 0.0456 
-4 -4 1 -1.6947 0.0368 
-4 -4 2 -3.4060 0.0170 
-4 -4 3 -2.0158 -0.0097 
-4 -4 4 -1.1803 0.0693 
-4 -4 5 -0.9761 0.1175 
-4 -4 6 0.8406 0.1034 
-4 -4 7 2.4721 0.0530 
-4 -4 8 2.6003 -0.0306 
-4 -4 9 1.5798 -0.0304 
-4 -4 10 -0.9307 0.0519 
-4 -4 11 -3.2233 0.0793 
-4 -4 12 -2.9653 0.0375 
-4 -4 13 -1.3094 0.0309 
-4 -4 14 -0.4414 0.0363 
-4 -4 15 0.3102 -0.0341 
-4 -4 16 1.2450 -0.0098 
-4 -4 17 1.1412 0.1165 
-4 -4 18 1.8490 0.0418 
-4 -4 19 3.3684 -0.1205 
-4 -4 20 1.8898 -0.1689 
-4 -3 1 0.4160 -0.0756 
-4 -3 2 -4.8330 -0.0452 
-4 -3 3 -5.6419 -0.0722 
-4 -3 4 -4.8432 -0.0506 
-4 -3 5 -4.9402 -0.0245 
-4 -3 6 -3.5771 -0.0537 
-4 -3 7 -1.0606 0.0070 
-4 -3 8 1.0265 0.0755 
-4 -3 9 2.7522 0.0122 
-4 -3 10 2.1649 -0.0578 
-4 -3 11 -0.8145 -0.0466 
-4 -3 12 -2.3074 -0.0413 
-4 -3 13 -1.5586 -0.0421 
-4 -3 14 -1.3277 0.0385 
-4 -3 15 -1.6323 0.0648 
-4 -3 16 -0.9337 -0.0277 
-4 -3 17 -0.6471 -0.0347 
-4 -3 18 -0.8365 -0.0089 
-4 -3 19 0.5700 -0.0030 
-4 -3 20 1.3938 0.1329 
-4 -2 1 -0.4048 0.0772 
-4 -2 2 -0.9724 0.1192 
-4 -2 3 1.4033 0.1008 
-4 -2 4 5.3353 0.0458 
-4 -2 5 4.5998 0.0530 
-4 -2 6 -0.6218 0.0061 
-4 -2 7 -5.9474 -0.0581 
-4 -2 8 -8.1079 -0.0193 
-4 -2 9 -5.2111 0.0071 
-4 -2 10 -0.8879 -0.0314 
-4 -2 11 -0.0529 -0.0126 
-4 -2 12 -0.4300 0.0544 
-4 -2 13 1.0575 0.0333 
-4 -2 14 1.9826 -0.0098 
-4 -2 15 0.7077 0.0283 
-4 -2 16 -0.3756 0.0401 
-4 -2 17 -0.4468 0.0314 
-4 -2 18 -0.8627 0.0146 
-4 -2 19 -1.0570 -0.0991 
-4 -2 20 -1.2683 -0.1536 
-4 -1 1 9.2408 -0.1109 
-4 -1 2 6.2219 -0.0868 
-4 -1 3 -1.3715 -0.0129 
-4 -1 4 -4.3175 -0.0146 
-4 -1 5 -1.3485 -0.0121 
-4 -1 6 1.5760 0.0558 
-4 -1 7 0.5844 0.0729 
-4 -1 8 -2.6524 0.0291 
-4 -1 9 -2.7587 0.0057 
-4 -1 10 0.6850 -0.0017 
-4 -1 11 1.6300 -0.0161 
-4 -1 12 -0.5985 0.0019 
-4 -1 13 -0.9223 0.0161 
-4 -1 14 1.0978 -0.0423 
-4 -1 15 2.0519 -0.0896 
-4 -1 16 1.0875 -0.0811 
-4 -1 17 -0.4534 -0.0552 
-4 -1 18 -1.2893 -0.0101 
-4 -1 19 -0.2008 0.0147 
-4 -1 20 1.4906 0.0382 
-4 0 1 6.7934 0.0930 
-4 0 2 6.9398 0.1120 
-4 0 3 1.0895 0.0931 
-4 0 4 -5.7255 0.0386 
-4 0 5 -3.8756 -0.0598 
-4 0 6 5.4917 -0.0827 
-4 0 7 11.5916 -0.0011 
-4 0 8 7.9297 0.0011 
-4 0 9 0.1483 -0.0962 
-4 0 10 -2.9857 -0.1136 
-4 0 11 -1.9655 -0.0569 
-4 0 12 -1.5019 -0.0304 
-4 0 13 -1.5103 0.0055 
-4 0 14 -0.3546 0.0379 
-4 0 15 1.5010 0.0048 
-4 0 16 2.7156 -0.0173 
-4 0 17 1.7957 0.0253 
-4 0 18 -1.1063 0.0425 
-4 0 19 -2.6717 -0.0034 
-4 0 20 -1.0507 -0.0046 
-4 1 1 2.1943 -0.1330 
-4 1 2 12.5799 -0.0806 
-4 1 3 20.6725 -0.0879 
-4 1 4 16.4626 -0.1043 
-4 1 5 4.1151 -0.0815 
-4 1 6 -4.1925 -0.0930 
-4 1 7 -4.6037 -0.0385 
-4 1 8 -2.9256 0.0862 
-4 1 9 -3.2586 0.1135 
-4 1 10 -3.3282 0.1011 
-4 1 11 -1.4010 0.1359 
-4 1 12 0.5747 0.0859 
-4 1 13 1.1949 -0.0210 
-4 1 14 1.0614 -0.0030 
-4 1 15 1.3614 0.0737 
-4 1 16 2.4411 0.0883 
-4 1 17 2.5885 0.1139 
-4 1 18 0.1147 0.1083 
-4 1 19 -2.9914 -0.0157 
-4 1 20 -3.0736 0.0115 
-4 2 1 1.1347 -0.0036 
-4 2 2 -0.8914 0.0879 
-4 2 3 1.7092 0.1204 
-4 2 4 4.9955 0.0485 
-4 2 5 2.9531 0.0709 
-4 2 6 -2.1580 0.0985 
-4 2 7 -3.9752 0.0253 
-4 2 8 -1.7554 -0.0010 
-4 2 9 0.3862 0.0113 
-4 2 10 0.2454 -0.0151 
-4 2 11 -1.2273 0.0029 
-4 2 12 -2.3004 0.0448 
-4 2 13 -2.3874 0.0057 
-4 2 14 -2.1231 -0.0450 
-4 2 15 -1.3954 -0.0494 
-4 2 16 0.0066 -0.0881 
-4 2 17 0.7161 -0.0749 
-4 2 18 0.0261 0.0486 
-4 2 19 -0.5112 0.0180 
-4 2 20 0.5579 -0.0667 
-4 3 1 -5.1861 -0.0417 
-4 3 2 -11.3866 -0.0762 
-4 3 3 -14.1433 -0.0978 
-4 3 4 -9.4649 -0.1282 
-4 3 5 -1.0095 -0.0684 
-4 3 6 4.0332 0.0575 
-4 3 7 4.3105 0.0368 
-4 3 8 3.0237 -0.0653 
-4 3 9 1.7765 -0.0500 
-4 3 10 0.7072 0.0316 
-4 3 11 -0.3444 0.0534 
-4 3 12 -1.1329 0.0287 
-4 3 13 -1.4493 0.0097 
-4 3 14 -2.4533 -0.0047 
-4 3 15 -3.3277 0.0022 
-4 3 16 -1.7873 0.0016 
-4 3 17 0.1795 -0.0221 
-4 3 18 -0.1173 0.0277 
-4 3 19 -0.6411 -0.0266 
-4 4 1 -0.7002 0.0252 
-4 4 2 -1.2304 0.0948 
-4 4 3 -3.5598 0.1054 
-4 4 4 -5.6252 0.0907 
-4 4 5 -3.8883 0.0463 
-4 4 6 -0.4549 0.0129 
-4 4 7 0.9409 0.0061 
-4 4 8 1.1481 -0.0165 
-4 4 9 1.3403 -0.0265 
-4 4 10 1.4834 0.0128 
-4 4 11 1.5199 0.0183 
-4 4 12 1.1845 -0.0680 
-4 4 13 1.1133 -0.1034 
-4 4 14 0.4262 -0.0493 
-4 4 15 -1.5548 -0.0375 
-4 4 16 -1.5216 -0.0637 
-4 4 17 0.3934 -0.1210 
-4 4 18 -0.5315 -0.1834 
-4 4 19 -3.0485 -0.2177 
-4 5 1 3.4123 -0.0361 
-4 5 2 4.2501 -0.1028 
-4 5 3 3.5400 -0.1838 
-4 5 4 0.1982 -0.1439 
-4 5 5 -2.5750 -0.0003 
-4 5 6 -1.7927 0.0241 
-4 5 7 0.2083 -0.0156 
-4 5 8 1.9934 0.0165 
-4 5 9 3.1115 0.0389 
-4 5 10 2.6799 0.0204 
-4 5 11 1.9776 0.0516 
-4 5 12 1.4374 0.0642 
-4 5 13 1.1438 0.0430 
-4 5 14 1.5098 0.0747 
-4 5 15 0.8116 0.0284 
-4 5 16 0.3554 -0.0756 
-4 5 17 2.5900 -0.0880 
-4 5 18 3.3509 -0.1297 
-4 6 1 0.9321 0.0294 
-4 6 2 0.2136 0.1210 
-4 6 3 0.0688 0.1362 
-4 6 4 -0.0606 0.0485 
-4 6 5 -1.2669 0.0441 
-4 6 6 -1.1604 0.0159 
-4 6 7 0.3820 -0.0680 
-4 6 8 2.2366 -0.0345 
-4 6 9 3.7602 0.0294 
-4 6 10 2.9683 -0.0413 
-4 6 11 1.4475 -0.0852 
-4 6 12 1.2634 -0.0146 
-4 6 13 0.7450 -0.0044 
-4 6 14 0.3412 -0.0454 
-4 6 15 0.5629 -0.1225 
-4 6 16 0.6323 -0.1764 
-4 6 17 2.6881 0.0600 
-4 7 1 -4.2494 -0.0319 
-4 7 2 -2.4350 -0.0743 
-4 7 3 -0.2388 -0.0256 
-4 7 4 2.2644 -0.0240 
-4 7 5 2.6265 -0.0037 
-4 7 6 1.1137 0.0152 
-4 7 7 -0.4109 -0.0030 
-4 7 8 -0.7769 0.0629 
-4 7 9 1.1415 0.1496 
-4 7 10 2.3500 0.0929 
-4 7 11 1.0593 -0.0110 
-4 7 12 0.2342 -0.0064 
-4 7 13 -0.8246 -0.0334 
-4 7 14 -2.7099 -0.1336 
-4 7 15 -2.3924 -0.1887 
-4 7 16 -0.8021 -0.2012 
-4 8 1 0.4513 0.0971 
-4 8 2 1.3477 0.0040 
-4 8 3 1.7974 -0.0141 
-4 8 4 1.7369 -0.0038 
-4 8 5 0.5740 0.0259 
-4 8 6 -1.1396 0.0049 
-4 8 7 -2.2314 -0.0864 
-4 8 8 -2.9894 -0.0710 
-4 8 9 -1.9157 -0.0221 
-4 8 10 0.6504 -0.0477 
-4 8 11 1.3036 -0.0352 
-4 8 12 1.1040 0.0156 
-4 8 13 0.6306 -0.1037 
-4 8 14 -2.0853 -0.3669 
-4 9 1 -1.8396 -0.0672 
-4 9 2 -2.2542 -0.0377 
-4 9 3 -0.5920 0.0248 
-4 9 4 1.4576 0.0360 
-4 9 5 0.9314 0.0411 
-4 9 6 -1.4575 0.0636 
-4 9 7 -2.5763 0.0131 
-4 9 8 -2.5808 0.0697 
-4 9 9 -2.0991 0.1174 
-4 9 10 -0.0980 -0.0186 
-4 9 11 1.3725 0.0351 
-4 9 12 1.4156 0.3439 
-4 9 13 1.4598 0.3628 
-4 10 1 0.1751 0.0969 
-4 10 2 0.2485 -0.1104 
-4 10 3 0.8898 -0.1992 
-4 10 4 2.6186 -0.1647 
-4 10 5 2.2886 -0.1318 
-4 10 6 -0.6093 -0.0748 
-4 10 7 -2.6962 -0.1130 
-4 10 8 -2.9248 -0.0684 
-4 10 9 -2.9452 0.0618 
-4 10 10 -1.9599 -0.1269 
-4 10 11 0.2683 -0.2548 
-4 11 1 0.3166 -0.0177 
-4 11 2 0.2695 0.0720 
-4 11 3 0.0595 0.0117 
-4 11 4 0.8293 0.0361 
-4 11 5 0.5031 0.0639 
-4 11 6 -1.4372 0.0656 
-4 11 7 -2.1604 0.0200 
-4 11 8 -0.8986 0.0469 
-4 11 9 -0.1600 0.2040 
-4 12 1 -1.7362 -0.0666 
-4 12 2 -3.4624 0.0876 
-4 12 3 -3.9417 0.0378 
-4 12 4 -1.9196 -0.0456 
-4 12 5 -0.3206 0.0339 
-4 12 6 -1.0459 0.0536 
-3 -12 1 2.0117 -0.0331 
-3 -12 2 -0.2723 0.1369 
-3 -12 3 -0.5623 0.0967 
-3 -12 4 0.7085 0.0815 
-3 -12 5 1.5372 0.0738 
-3 -12 6 1.7221 0.0108 
-3 -12 7 0.7231 0.0489 
-3 -12 8 -0.9786 -0.0482 
-3 -11 1 0.9851 -0.0083 
-3 -11 2 0.0435 -0.0629 
-3 -11 3 -1.4982 -0.1615 
-3 -11 4 -1.2704 -0.1742 
-3 -11 5 -0.7401 -0.0997 
-3 -11 6 -0.1223 -0.0891 
-3 -11 7 0.3287 -0.0413 
-3 -11 8 -0.1282 0.1086 
-3 -11 9 -1.8602 0.0659 
-3 -11 10 -3.5497 -0.0843 
-3 -11 11 -2.3774 -0.1020 
-3 -11 12 -0.8446 -0.1464 
-3 -10 1 1.6426 0.1346 
-3 -10 2 2.2533 0.1454 
-3 -10 3 0.8420 0.0719 
-3 -10 4 -0.3619 0.0535 
-3 -10 5 -1.1880 0.1009 
-3 -10 6 -1.4682 0.0808 
-3 -10 7 -0.5900 -0.0350 
-3 -10 8 0.4523 -0.0796 
-3 -10 9 0.6271 -0.0264 
-3 -10 10 -0.5033 -0.0040 
-3 -10 11 -0.9936 0.0264 
-3 -10 12 -0.7080 -0.0031 
-3 -10 13 -2.0927 -0.0169 
-3 -10 14 -2.9455 0.0300 
-3 -10 15 -2.4871 -0.1919 
-3 -9 1 -1.2710 -0.1576 
-3 -9 2 -0.5340 -0.0481 
-3 -9 3 0.0011 -0.0710 
-3 -9 4 0.2115 -0.0926 
-3 -9 5 0.1764 -0.0488 
-3 -9 6 -0.1358 -0.0134 
-3 -9 7 0.3213 0.0230 
-3 -9 8 0.7868 0.0300 
-3 -9 9 0.4599 0.0187 
-3 -9 10 -0.2154 -0.0019 
-3 -9 11 -0.0321 -0.0135 
-3 -9 12 0.9300 -0.0172 
-3 -9 13 -0.2621 0.0224 
-3 -9 14 -1.9621 0.1569 
-3 -9 15 -1.1003 0.0102 
-3 -9 16 -1.1128 -0.2161 
-3 -8 1 0.5756 0.0500 
-3 -8 2 0.5244 0.0832 
-3 -8 3 1.2846 0.0537 
-3 -8 4 1.4339 0.0498 
-3 -8 5 0.3587 0.1286 
-3 -8 6 -1.6585 0.0723 
-3 -8 7 -2.5552 -0.0471 
-3 -8 8 -1.7000 -0.0737 
-3 -8 9 -0.6462 -0.0539 
-3 -8 10 -0.2337 0.0013 
-3 -8 11 0.1856 0.0827 
-3 -8 12 1.7241 0.0825 
-3 -8 13 2.1290 -0.0077 
-3 -8 14 0.2979 0.0648 
-3 -8 15 -0.3013 0.1536 
-3 -8 16 -0.9428 -0.0975 
-3 -8 17 -3.4077 -0.1209 
-3 -8 18 -3.9396 0.3156 
-3 -7 1 0.3771 -0.0860 
-3 -7 2 -0.2796 0.0166 
-3 -7 3 0.6730 0.0208 
-3 -7 4 1.7774 -0.0657 
-3 -7 5 1.4975 -0.0312 
-3 -7 6 -0.0720 0.0315 
-3 -7 7 -1.7660 0.0166 
-3 -7 8 -2.3230 0.0371 
-3 -7 9 -1.5592 0.0147 
-3 -7 10 -0.0318 -0.1129 
-3 -7 11 0.8298 -0.1422 
-3 -7 12 0.9419 -0.0212 
-3 -7 13 0.6858 -0.0027 
-3 -7 14 -0.4266 -0.0582 
-3 -7 15 -0.1723 0.0737 
-3 -7 16 1.0610 0.1514 
-3 -7 17 -0.0471 0.0483 
-3 -7 18 -0.8746 0.1350 
-3 -7 19 -0.1237 0.2663 
-3 -6 1 -3.0563 0.0713 
-3 -6 2 -4.7964 0.0078 
-3 -6 3 -3.7632 -0.0431 
-3 -6 4 -0.5865 -0.0691 
-3 -6 5 1.5292 -0.0545 
-3 -6 6 2.0799 -0.0386 
-3 -6 7 1.5132 -0.0946 
-3 -6 8 -0.1435 -0.0961 
-3 -6 9 -2.2322 0.0211 
-3 -6 10 -2.9636 0.0600 
-3 -6 11 -2.0452 -0.0171 
-3 -6 12 -0.9410 -0.0097 
-3 -6 13 -0.2465 0.0465 
-3 -6 14 -0.3945 -0.0539 
-3 -6 15 0.0661 -0.1429 
-3 -6 16 1.9828 -0.0320 
-3 -6 17 1.8243 0.0441 
-3 -6 18 0.4238 0.0137 
-3 -6 19 0.6532 0.0091 
-3 -5 1 0.6944 -0.0281 
-3 -5 2 -1.2186 0.1003 
-3 -5 3 -1.9201 0.0938 
-3 -5 4 -0.3653 0.0783 
-3 -5 5 0.4640 0.1093 
-3 -5 6 0.3046 0.1373 
-3 -5 7 0.3846 0.1232 
-3 -5 8 0.4925 0.0382 
-3 -5 9 0.3526 -0.0452 
-3 -5 10 0.1116 -0.0539 
-3 -5 11 -0.2432 -0.0508 
-3 -5 12 -0.8720 -0.0530 
-3 -5 13 -1.2408 0.0201 
-3 -5 14 -1.7723 0.0956 
-3 -5 15 -2.6115 0.0568 
-3 -5 16 -1.8077 0.0351 
-3 -5 17 -0.7611 0.0883 
-3 -5 18 -0.4887 0.0613 
-3 -5 19 1.9086 0.0459 
-3 -5 20 3.1765 0.1144 
-3 -4 1 6.8104 -0.0010 
-3 -4 2 6.5177 -0.0321 
-3 -4 3 4.4276 -0.0823 
-3 -4 4 3.3243 -0.1383 
-3 -4 5 1.3909 -0.1169 
-3 -4 6 -0.9098 -0.1234 
-3 -4 7 -1.2637 -0.1243 
-3 -4 8 -0.7345 -0.0415 
-3 -4 9 0.1279 0.0001 
-3 -4 10 1.7751 -0.0123 
-3 -4 11 2.5567 0.0307 
-3 -4 12 1.3024 0.0631 
-3 -4 13 -0.1307 0.0045 
-3 -4 14 -0.5849 -0.0435 
-3 -4 15 -1.5012 -0.0506 
-3 -4 16 -2.0506 -0.0690 
-3 -4 17 -1.5464 -0.0325 
-3 -4 18 -1.7740 -0.0360 
-3 -4 19 -0.3752 -0.1636 
-3 -4 20 2.9660 -0.0930 
-3 -3 1 -0.2025 -0.0259 
-3 -3 2 -1.4671 0.0643 
-3 -3 3 -3.5538 0.1929 
-3 -3 4 -0.6905 0.2147 
-3 -3 5 4.7880 0.2319 
-3 -3 6 7.0857 0.2216 
-3 -3 7 6.4546 0.0820 
-3 -3 8 3.7061 0.0053 
-3 -3 9 0.1623 0.0543 
-3 -3 10 -0.8098 0.0504 
-3 -3 11 0.0095 -0.0049 
-3 -3 12 -0.4378 -0.0152 
-3 -3 13 -1.3099 -0.0258 
-3 -3 14 -0.7403 -0.0284 
-3 -3 15 -0.3196 0.0453 
-3 -3 16 -0.6012 0.0618 
-3 -3 17 0.5199 -0.0013 
-3 -3 18 1.5899 0.0142 
-3 -3 19 1.5119 -0.0273 
-3 -3 20 2.2229 -0.1421 
-3 -3 21 1.6874 -0.0655 
-3 -2 1 -8.0881 0.0629 
-3 -2 2 -1.8032 -0.0790 
-3 -2 3 -1.7190 -0.1549 
-3 -2 4 -4.0549 -0.2459 
-3 -2 5 -0.7257 -0.3190 
-3 -2 6 4.7845 -0.2015 
-3 -2 7 6.4668 -0.0647 
-3 -2 8 2.8989 -0.0786 
-3 -2 9 -2.8051 -0.1099 
-3 -2 10 -4.1628 -0.0732 
-3 -2 11 -0.9114 -0.0249 
-3 -2 12 0.9447 0.0093 
-3 -2 13 0.0972 0.0091 
-3 -2 14 -0.4082 -0.0498 
-3 -2 15 -0.3743 -0.0611 
-3 -2 16 -1.1193 -0.0078 
-3 -2 17 -1.1864 -0.0346 
-3 -2 18 -0.1923 -0.0400 
-3 -2 19 0.2253 0.0596 
-3 -2 20 1.0906 0.0689 
-3 -2 21 1.7959 0.0017 
-3 -1 1 -2.2523 -0.0444 
-3 -1 2 9.1158 -0.0407 
-3 -1 3 14.0027 0.0623 
-3 -1 4 1.7790 0.2031 
-3 -1 5 -13.6683 0.1675 
-3 -1 6 -16.7065 0.0439 
-3 -1 7 -8.4108 0.0389 
-3 -1 8 0.3033 0.0769 
-3 -1 9 1.8643 0.0442 
-3 -1 10 0.4128 0.0054 
-3 -1 11 1.6897 -0.0013 
-3 -1 12 2.9756 -0.0258 
-3 -1 13 1.7394 -0.0227 
-3 -1 14 0.0624 0.0335 
-3 -1 15 -0.8244 0.0558 
-3 -1 16 -1.1600 0.0482 
-3 -1 17 -0.6957 0.0239 
-3 -1 18 -0.1039 -0.0329 
-3 -1 19 -0.6844 -0.0483 
-3 -1 20 -0.4674 -0.0074 
-3 -1 21 2.0094 0.0364 
-3 0 1 -14.8988 0.1053 
-3 0 2 -19.2395 0.0667 
-3 0 3 -5.6968 -0.0191 
-3 0 4 7.8122 -0.0494 
-3 0 5 8.9110 0.0233 
-3 0 6 4.8376 0.0625 
-3 0 7 4.3361 0.0513 
-3 0 8 6.4248 0.0612 
-3 0 9 4.4042 0.0334 
-3 0 10 -1.5463 -0.0201 
-3 0 11 -4.4926 0.0146 
-3 0 12 -3.3005 0.0466 
-3 0 13 -1.1141 -0.0119 
-3 0 14 0.5367 0.0013 
-3 0 15 0.2450 0.0811 
-3 0 16 -1.1002 0.0556 
-3 0 17 -0.5001 0.0204 
-3 0 18 1.3703 0.0983 
-3 0 19 1.0646 0.1284 
-3 0 20 -0.8335 0.0237 
-3 1 1 0.3216 -0.0758 
-3 1 2 -10.4576 -0.1250 
-3 1 3 -9.6164 -0.0222 
-3 1 4 4.9876 0.0132 
-3 1 5 17.1276 0.0093 
-3 1 6 17.2520 0.0217 
-3 1 7 9.5880 -0.0283 
-3 1 8 3.3167 -0.0474 
-3 1 9 1.2182 0.0213 
-3 1 10 0.3849 0.0460 
-3 1 11 0.0316 0.0425 
-3 1 12 -0.2729 0.0578 
-3 1 13 -0.6819 -0.0209 
-3 1 14 0.3847 -0.0981 
-3 1 15 1.2140 0.0007 
-3 1 16 -0.2049 0.0609 
-3 1 17 -1.4636 -0.0658 
-3 1 18 -1.7159 -0.1173 
-3 1 19 -3.2152 -0.0903 
-3 1 20 -5.3557 -0.2500 
-3 2 1 28.2923 0.0114 
-3 2 2 20.7614 0.0451 
-3 2 3 1.0982 0.0894 
-3 2 4 -12.7900 0.0541 
-3 2 5 -13.4809 -0.0561 
-3 2 6 -6.5862 -0.0438 
-3 2 7 -0.6089 0.0199 
-3 2 8 2.6899 0.0160 
-3 2 9 5.3848 0.0281 
-3 2 10 6.5218 0.0276 
-3 2 11 5.2155 -0.0446 
-3 2 12 2.0857 -0.0708 
-3 2 13 -1.0436 -0.0280 
-3 2 14 -0.8284 -0.0142 
-3 2 15 1.4750 0.0170 
-3 2 16 1.6860 0.0605 
-3 2 17 0.7074 -0.0122 
-3 2 18 -0.0393 -0.0248 
-3 2 19 -2.0864 0.1600 
-3 2 20 -4.0037 0.1374 
-3 3 1 8.8034 0.0175 
-3 3 2 11.6293 -0.0281 
-3 3 3 4.9864 -0.0361 
-3 3 4 -6.3871 0.0123 
-3 3 5 -12.6806 0.0274 
-3 3 6 -10.2116 0.0286 
-3 3 7 -5.0206 0.0431 
-3 3 8 -2.3314 0.0112 
-3 3 9 -0.5872 -0.0141 
-3 3 10 1.1653 0.0315 
-3 3 11 1.9219 0.0677 
-3 3 12 1.1348 0.0303 
-3 3 13 -0.7511 -0.0148 
-3 3 14 -0.8571 -0.0213 
-3 3 15 0.8654 -0.0303 
-3 3 16 0.8814 -0.0356 
-3 3 17 0.4746 -0.0566 
-3 3 18 1.5686 -0.0699 
-3 3 19 0.7364 0.0948 
-3 4 1 -4.7659 -0.1043 
-3 4 2 0.9598 -0.0508 
-3 4 3 4.6223 -0.0011 
-3 4 4 2.5081 0.0150 
-3 4 5 -3.8907 0.0439 
-3 4 6 -8.3783 0.0333 
-3 4 7 -9.1734 -0.0324 
-3 4 8 -8.8189 -0.0529 
-3 4 9 -6.6309 -0.0001 
-3 4 10 -2.5435 0.0316 
-3 4 11 0.9095 0.0177 
-3 4 12 2.1271 -0.0158 
-3 4 13 0.7279 -0.0642 
-3 4 14 -0.5347 -0.0403 
-3 4 15 0.1693 0.0314 
-3 4 16 -0.3568 0.0477 
-3 4 17 -1.4146 0.0890 
-3 4 18 0.6488 0.1648 
-3 4 19 1.8373 0.2254 
-3 5 1 -0.7688 0.2435 
-3 5 2 1.7317 0.1427 
-3 5 3 2.8533 0.0505 
-3 5 4 2.7949 -0.0747 
-3 5 5 -0.3047 -0.0880 
-3 5 6 -5.1010 0.0445 
-3 5 7 -7.8403 0.0693 
-3 5 8 -8.2210 -0.0237 
-3 5 9 -6.2222 -0.0327 
-3 5 10 -2.7728 -0.0167 
-3 5 11 -0.5483 -0.0652 
-3 5 12 0.3364 -0.0447 
-3 5 13 0.0025 0.0199 
-3 5 14 -0.8552 0.0477 
-3 5 15 -0.4595 0.0617 
-3 5 16 -1.5570 -0.0417 
-3 5 17 -4.7456 -0.1583 
-3 5 18 -3.7471 -0.0889 
-3 6 1 1.3331 -0.2271 
-3 6 2 1.2414 -0.2187 
-3 6 3 -0.3021 -0.0555 
-3 6 4 -0.2858 0.0806 
-3 6 5 1.7476 0.0597 
-3 6 6 1.9435 0.0559 
-3 6 7 -0.3331 0.0528 
-3 6 8 -3.2762 -0.0023 
-3 6 9 -4.0944 0.0276 
-3 6 10 -1.7785 0.0844 
-3 6 11 0.4186 -0.0261 
-3 6 12 1.3801 -0.1302 
-3 6 13 1.6425 -0.0638 
-3 6 14 0.6280 -0.0050 
-3 6 15 0.3307 -0.0081 
-3 6 16 0.2626 -0.1097 
-3 6 17 -2.6073 -0.2716 
-3 7 1 -4.5667 0.2514 
-3 7 2 -2.5137 0.1925 
-3 7 3 0.0433 0.0417 
-3 7 4 1.5356 -0.0447 
-3 7 5 3.8812 -0.0806 
-3 7 6 5.3491 -0.0409 
-3 7 7 3.8264 -0.0155 
-3 7 8 0.1271 -0.0648 
-3 7 9 -2.9668 -0.0733 
-3 7 10 -2.6703 -0.0242 
-3 7 11 -0.7905 -0.0596 
-3 7 12 0.3997 -0.1300 
-3 7 13 1.3173 -0.0577 
-3 7 14 0.9290 0.0274 
-3 7 15 0.3169 0.0434 
-3 7 16 1.4629 0.0470 
-3 8 1 0.4932 -0.2643 
-3 8 2 -0.3933 -0.1900 
-3 8 3 -0.3513 -0.0674 
-3 8 4 -0.6044 0.0114 
-3 8 5 -0.0523 0.0436 
-3 8 6 1.2248 0.1142 
-3 8 7 1.3737 0.1232 
-3 8 8 0.2520 0.0731 
-3 8 9 -1.3920 0.1207 
-3 8 10 -1.8961 0.1483 
-3 8 11 -1.0399 0.0548 
-3 8 12 -0.3315 0.0021 
-3 8 13 0.1453 0.1294 
-3 8 14 -0.8013 0.2532 
-3 8 15 -3.2027 0.2000 
-3 9 1 0.4260 0.1063 
-3 9 2 -0.8922 0.0796 
-3 9 3 -1.3181 0.0983 
-3 9 4 -1.2580 0.0801 
-3 9 5 -0.7187 -0.0073 
-3 9 6 0.4370 -0.0035 
-3 9 7 0.8825 -0.0217 
-3 9 8 0.7249 -0.1384 
-3 9 9 0.4848 -0.0536 
-3 9 10 -0.3290 0.0239 
-3 9 11 -1.7169 -0.1979 
-3 9 12 -3.0543 -0.3345 
-3 9 13 -2.8437 -0.1212 
-3 10 1 -1.8955 -0.0426 
-3 10 2 -0.8559 -0.0651 
-3 10 3 0.7627 -0.0616 
-3 10 4 2.0095 -0.0422 
-3 10 5 2.2864 -0.0508 
-3 10 6 2.3119 0.0101 
-3 10 7 1.8705 0.0554 
-3 10 8 0.7987 -0.0639 
-3 10 9 0.2279 0.1110 
-3 10 10 -0.0744 0.4484 
-3 10 11 -1.1710 0.2005 
-3 11 1 1.0110 0.0196 
-3 11 2 0.2109 0.0866 
-3 11 3 -0.2883 0.1419 
-3 11 4 -0.0207 0.0409 
-3 11 5 0.2328 -0.0909 
-3 11 6 -0.0771 -0.0799 
-3 11 7 -0.5765 -0.0677 
-3 11 8 -1.1259 -0.3634 
-3 11 9 -0.7259 -0.3720 
-3 12 1 1.6012 -0.0589 
-3 12 2 1.4556 -0.1253 
-3 12 3 -0.2380 0.0144 
-3 12 4 -1.5732 -0.0534 
-3 12 5 -0.9114 -0.3198 
-3 12 6 0.5781 -0.2980 
-2 -12 1 -1.0962 -0.1624 
-2 -12 2 0.1783 -0.0760 
-2 -12 3 0.2470 0.1128 
-2 -12 4 0.4151 -0.0012 
-2 -12 5 0.7729 -0.0152 
-2 -12 6 1.1875 -0.0341 
-2 -12 7 1.8989 -0.2362 
-2 -12 8 2.8009 -0.1199 
-2 -12 9 3.0424 -0.0048 
-2 -12 10 0.7639 -0.2612 
-2 -11 1 -3.1885 0.1251 
-2 -11 2 -2.3129 0.0798 
-2 -11 3 -0.2198 0.0514 
-2 -11 4 1.3008 -0.1318 
-2 -11 5 1.5727 -0.1709 
-2 -11 6 0.6286 0.0297 
-2 -11 7 0.1056 0.0250 
-2 -11 8 0.8878 -0.0259 
-2 -11 9 2.6820 0.0676 
-2 -11 10 2.5819 -0.0454 
-2 -11 11 0.2210 -0.0353 
-2 -11 12 0.3493 0.1417 
-2 -11 13 2.0646 -0.0489 
-2 -10 1 -0.7458 -0.2128 
-2 -10 2 -2.6968 -0.1112 
-2 -10 3 -1.9699 0.0685 
-2 -10 4 -0.5436 0.1253 
-2 -10 5 -0.0762 0.0533 
-2 -10 6 -0.9250 0.0393 
-2 -10 7 -1.0890 0.0088 
-2 -10 8 0.2123 -0.0333 
-2 -10 9 2.1012 0.0825 
-2 -10 10 2.9625 0.0939 
-2 -10 11 1.2927 0.0184 
-2 -10 12 0.3244 0.0968 
-2 -10 13 1.2215 -0.0741 
-2 -10 14 0.4832 -0.2054 
-2 -10 15 -0.4881 0.0010 
-2 -9 1 2.7954 0.1860 
-2 -9 2 0.4346 0.1612 
-2 -9 3 -0.0901 0.0348 
-2 -9 4 1.2282 -0.0749 
-2 -9 5 2.1702 -0.0716 
-2 -9 6 1.0011 -0.0122 
-2 -9 7 -0.5798 -0.0223 
-2 -9 8 -0.3735 -0.0893 
-2 -9 9 0.8707 -0.0690 
-2 -9 10 1.9634 -0.0385 
-2 -9 11 1.1930 -0.0378 
-2 -9 12 -0.2884 0.1549 
-2 -9 13 0.3516 0.1787 
-2 -9 14 0.8298 -0.0378 
-2 -9 15 0.8474 0.1899 
-2 -9 16 2.5327 0.3232 
-2 -9 17 3.4997 -0.0405 
-2 -8 1 0.8660 -0.1900 
-2 -8 2 0.2570 -0.1402 
-2 -8 3 -0.1866 -0.0898 
-2 -8 4 1.1849 -0.0770 
-2 -8 5 3.0795 -0.0224 
-2 -8 6 3.1930 0.0536 
-2 -8 7 1.4225 0.0298 
-2 -8 8 -0.2669 -0.0193 
-2 -8 9 -1.4872 0.0351 
-2 -8 10 -1.3305 0.0657 
-2 -8 11 0.2323 -0.0435 
-2 -8 12 0.9709 0.0160 
-2 -8 13 1.4514 0.1649 
-2 -8 14 1.6767 -0.0771 
-2 -8 15 0.9610 -0.1812 
-2 -8 16 1.1196 0.1491 
-2 -8 17 0.7431 0.2118 
-2 -8 18 -0.4576 0.1666 
-2 -7 1 0.9669 0.1394 
-2 -7 2 0.8908 0.1296 
-2 -7 3 -1.1290 0.0716 
-2 -7 4 -2.4199 0.0111 
-2 -7 5 -2.0792 -0.0288 
-2 -7 6 -1.0603 -0.0340 
-2 -7 7 -0.0777 -0.0819 
-2 -7 8 1.0573 -0.1508 
-2 -7 9 0.7976 -0.0870 
-2 -7 10 -0.8814 0.0468 
-2 -7 11 -0.7027 -0.0126 
-2 -7 12 0.6362 -0.1243 
-2 -7 13 0.6770 0.0361 
-2 -7 14 -0.3534 0.0973 
-2 -7 15 -1.4896 -0.1099 
-2 -7 16 -0.6326 -0.0889 
-2 -7 17 0.6509 0.0063 
-2 -7 18 -0.3821 0.0048 
-2 -7 19 -0.3629 0.1654 
-2 -6 1 -0.9167 -0.0238 
-2 -6 2 -0.3782 -0.0630 
-2 -6 3 -1.5954 -0.1350 
-2 -6 4 -2.8749 -0.1237 
-2 -6 5 -2.5117 -0.0234 
-2 -6 6 -0.9041 0.0742 
-2 -6 7 0.6825 0.1107 
-2 -6 8 1.8315 0.0621 
-2 -6 9 1.8293 -0.0046 
-2 -6 10 -0.2451 0.0380 
-2 -6 11 -1.7443 0.1154 
-2 -6 12 -0.8917 0.0412 
-2 -6 13 0.1859 -0.0253 
-2 -6 14 0.4958 0.0349 
-2 -6 15 0.0666 0.0151 
-2 -6 16 0.2446 0.0333 
-2 -6 17 1.3966 0.1461 
-2 -6 18 0.6578 0.0700 
-2 -6 19 0.3834 0.0598 
-2 -5 1 -5.3582 0.0378 
-2 -5 2 -2.6734 0.1032 
-2 -5 3 -0.2102 0.1290 
-2 -5 4 0.5046 0.0947 
-2 -5 5 -0.1350 0.0478 
-2 -5 6 -1.2416 -0.0274 
-2 -5 7 -1.2278 -0.0932 
-2 -5 8 -0.2618 -0.0482 
-2 -5 9 0.3776 0.0135 
-2 -5 10 0.1807 -0.0355 
-2 -5 11 0.2664 -0.0755 
-2 -5 12 1.3688 -0.0449 
-2 -5 13 1.7945 -0.0333 
-2 -5 14 1.4797 -0.0168 
-2 -5 15 1.2857 -0.0334 
-2 -5 16 0.9610 -0.0988 
-2 -5 17 1.0410 -0.0355 
-2 -5 18 -0.2632 0.0290 
-2 -5 19 -2.4245 -0.1276 
-2 -5 20 -0.7698 -0.1766 
-2 -4 1 1.0508 0.0785 
-2 -4 2 0.7878 -0.0461 
-2 -4 3 -1.0210 -0.1435 
-2 -4 4 -3.9209 -0.1384 
-2 -4 5 -4.4389 -0.0289 
-2 -4 6 -3.5568 0.1134 
-2 -4 7 -1.8464 0.1017 
-2 -4 8 1.1392 -0.0167 
-2 -4 9 3.1578 -0.0348 
-2 -4 10 3.1131 -0.0035 
-2 -4 11 2.7291 -0.0196 
-2 -4 12 3.2262 -0.0135 
-2 -4 13 3.1638 -0.0027 
-2 -4 14 1.9228 -0.0171 
-2 -4 15 0.9613 0.0165 
-2 -4 16 0.1678 0.0229 
-2 -4 17 0.0687 -0.0350 
-2 -4 18 0.5176 0.0183 
-2 -4 19 -0.6448 0.0759 
-2 -4 20 -0.6741 -0.0900 
-2 -3 1 9.0024 -0.1503 
-2 -3 2 7.3993 -0.0006 
-2 -3 3 5.0870 0.1102 
-2 -3 4 -4.0298 0.1411 
-2 -3 5 -11.1175 0.0132 
-2 -3 6 -9.3155 -0.0929 
-2 -3 7 -2.9767 -0.0507 
-2 -3 8 2.9883 -0.0131 
-2 -3 9 5.3541 -0.0161 
-2 -3 10 3.9716 0.0062 
-2 -3 11 2.1277 0.0129 
-2 -3 12 1.6625 0.0037 
-2 -3 13 1.8059 0.0013 
-2 -3 14 1.5600 -0.0540 
-2 -3 15 1.1532 -0.0807 
-2 -3 16 0.2246 0.0269 
-2 -3 17 -0.7575 0.0485 
-2 -3 18 0.2810 -0.0837 
-2 -3 19 1.5544 -0.0608 
-2 -3 20 1.7318 0.0792 
-2 -3 21 2.9132 0.0713 
-2 -2 1 -8.9035 0.1324 
-2 -2 2 -6.8317 0.0479 
-2 -2 3 11.2753 -0.0993 
-2 -2 4 22.5180 -0.0729 
-2 -2 5 15.0296 0.0540 
-2 -2 6 2.6462 0.0641 
-2 -2 7 -3.7853 0.0291 
-2 -2 8 -4.3250 0.0077 
-2 -2 9 -3.6693 -0.0462 
-2 -2 10 -4.4571 -0.0707 
-2 -2 11 -3.8668 -0.0232 
-2 -2 12 -1.0271 0.0389 
-2 -2 13 1.5339 0.1045 
-2 -2 14 2.7591 0.1303 
-2 -2 15 2.8521 0.0276 
-2 -2 16 1.8302 -0.0401 
-2 -2 17 0.1501 0.0573 
-2 -2 18 -0.3944 0.0735 
-2 -2 19 -0.3714 -0.0334 
-2 -2 20 -1.8110 -0.0230 
-2 -2 21 -1.9820 0.0528 
-2 -1 1 5.9702 -0.1088 
-2 -1 2 -9.0938 0.0494 
-2 -1 3 -10.8105 0.0852 
-2 -1 4 3.5352 -0.0355 
-2 -1 5 8.7585 -0.0745 
-2 -1 6 0.5700 -0.0261 
-2 -1 7 -7.6128 0.0140 
-2 -1 8 -7.4813 0.0584 
-2 -1 9 -1.9950 0.0749 
-2 -1 10 0.6678 0.0403 
-2 -1 11 -0.0763 0.0152 
-2 -1 12 -0.5416 -0.0168 
-2 -1 13 -0.6023 -0.0856 
-2 -1 14 -0.0274 -0.0627 
-2 -1 15 0.7735 0.0332 
-2 -1 16 -0.0462 0.0061 
-2 -1 17 -1.5747 -0.0640 
-2 -1 18 -1.2068 -0.0408 
-2 -1 19 0.4528 -0.0306 
-2 -1 20 -0.1074 -0.0507 
-2 -1 21 -2.0482 -0.0176 
-2 0 1 22.0436 0.2053 
-2 0 2 6.1532 0.2008 
-2 0 3 -24.5696 0.2551 
-2 0 4 -32.2175 0.1997 
-2 0 5 -18.4197 0.0423 
-2 0 6 -3.6468 -0.0210 
-2 0 7 2.8991 -0.0094 
-2 0 8 3.1304 -0.0094 
-2 0 9 2.4934 -0.0258 
-2 0 10 0.8494 -0.0703 
-2 0 11 -2.1576 -0.0794 
-2 0 12 -3.2843 0.0244 
-2 0 13 -2.9361 0.0896 
-2 0 14 -1.5638 0.0130 
-2 0 15 1.2199 -0.0148 
-2 0 16 2.0777 0.0396 
-2 0 17 0.5301 0.0146 
-2 0 18 0.5218 -0.0309 
-2 0 19 2.6127 -0.0128 
-2 0 20 3.2821 -0.0321 
-2 1 1 -2.7152 -0.1205 
-2 1 2 25.5756 -0.3882 
-2 1 3 23.9657 -0.4391 
-2 1 4 9.8479 -0.1940 
-2 1 5 3.2144 0.0131 
-2 1 6 2.9728 0.0775 
-2 1 7 1.8966 0.0651 
-2 1 8 -3.0113 -0.0005 
-2 1 9 -6.3717 -0.0092 
-2 1 10 -4.9984 0.0599 
-2 1 11 -2.4461 0.0559 
-2 1 12 -0.3247 -0.0013 
-2 1 13 -0.2625 0.0157 
-2 1 14 -2.2156 0.0222 
-2 1 15 -1.7013 -0.0265 
-2 1 16 0.4855 -0.0029 
-2 1 17 0.8172 0.0360 
-2 1 18 0.9785 -0.0183 
-2 1 19 1.8074 -0.0395 
-2 1 20 1.4653 -0.0081 
-2 2 1 -8.2676 0.0415 
-2 2 2 19.4471 0.3498 
-2 2 3 34.7917 0.3959 
-2 2 4 28.2235 0.3067 
-2 2 5 14.2113 0.1333 
-2 2 6 4.8504 -0.0373 
-2 2 7 2.5259 -0.0445 
-2 2 8 1.6447 0.0177 
-2 2 9 0.5206 0.0142 
-2 2 10 1.6732 0.0024 
-2 2 11 2.5683 -0.0071 
-2 2 12 1.7469 -0.0692 
-2 2 13 -0.0610 -0.0870 
-2 2 14 -2.9732 0.0125 
-2 2 15 -3.4495 0.0819 
-2 2 16 -0.9755 0.0599 
-2 2 17 -0.2542 0.0458 
-2 2 18 -0.7643 0.0092 
-2 2 19 -0.5933 -0.0393 
-2 2 20 -1.5582 -0.0244 
-2 3 1 -6.3809 -0.0406 
-2 3 2 -2.8115 -0.2519 
-2 3 3 8.3490 -0.3525 
-2 3 4 14.4257 -0.2888 
-2 3 5 13.6060 -0.1367 
-2 3 6 10.1330 -0.0468 
-2 3 7 8.8600 -0.0188 
-2 3 8 7.6880 -0.0096 
-2 3 9 3.8462 -0.0186 
-2 3 10 1.2953 -0.0126 
-2 3 11 0.8868 0.0400 
-2 3 12 0.5389 0.0908 
-2 3 13 0.2446 0.0638 
-2 3 14 -1.0298 0.0252 
-2 3 15 -1.5791 0.0425 
-2 3 16 0.5329 0.0184 
-2 3 17 1.4411 -0.0163 
-2 3 18 0.6004 0.0283 
-2 3 19 0.8821 0.0868 
-2 4 1 -3.3581 0.0807 
-2 4 2 -2.0629 0.1959 
-2 4 3 3.4747 0.2596 
-2 4 4 9.3646 0.2366 
-2 4 5 12.0897 0.1032 
-2 4 6 9.1778 -0.0038 
-2 4 7 4.4292 0.0023 
-2 4 8 1.4603 0.0163 
-2 4 9 -0.9794 -0.0070 
-2 4 10 -1.4796 -0.0122 
-2 4 11 0.3783 -0.0198 
-2 4 12 1.7649 -0.0115 
-2 4 13 2.2011 0.0094 
-2 4 14 1.2979 -0.0332 
-2 4 15 0.1665 -0.0492 
-2 4 16 1.4738 -0.0240 
-2 4 17 2.0788 -0.0437 
-2 4 18 0.0465 0.0272 
-2 4 19 -0.1299 0.1981 
-2 5 1 -5.1812 0.0334 
-2 5 2 -1.1146 -0.0945 
-2 5 3 1.8974 -0.1949 
-2 5 4 2.7029 -0.0998 
-2 5 5 4.1564 -0.0462 
-2 5 6 4.6946 -0.0875 
-2 5 7 2.7391 -0.0272 
-2 5 8 0.5843 0.0417 
-2 5 9 -1.3784 -0.0199 
-2 5 10 -2.2610 -0.0527 
-2 5 11 -1.2163 -0.0205 
-2 5 12 0.0286 -0.0240 
-2 5 13 1.2589 -0.0130 
-2 5 14 1.8301 -0.0502 
-2 5 15 1.2541 -0.1182 
-2 5 16 2.2043 -0.0257 
-2 5 17 2.8556 0.1202 
-2 5 18 -0.3881 0.2377 
-2 6 1 -3.8204 0.0142 
-2 6 2 -6.4073 0.0314 
-2 6 3 -5.6595 -0.0195 
-2 6 4 -5.0891 0.0544 
-2 6 5 -3.2884 0.1256 
-2 6 6 0.6934 0.0255 
-2 6 7 3.4151 -0.0388 
-2 6 8 3.5739 0.0118 
-2 6 9 1.5236 0.0116 
-2 6 10 -1.1035 0.0178 
-2 6 11 -2.2360 0.1018 
-2 6 12 -2.2762 0.0780 
-2 6 13 -1.1954 -0.0122 
-2 6 14 -0.0780 -0.0556 
-2 6 15 -1.0763 -0.1387 
-2 6 16 -1.2991 -0.1136 
-2 6 17 0.4453 0.0618 
-2 7 1 -1.2193 -0.0034 
-2 7 2 -5.0600 0.0772 
-2 7 3 -5.1439 0.0833 
-2 7 4 -3.3790 0.0551 
-2 7 5 -2.2618 0.0246 
-2 7 6 -0.5447 -0.0085 
-2 7 7 1.1327 0.0279 
-2 7 8 1.8150 0.0609 
-2 7 9 1.5779 -0.0165 
-2 7 10 0.5969 -0.0786 
-2 7 11 -0.4127 0.0304 
-2 7 12 -1.2302 0.1203 
-2 7 13 -0.3111 0.0499 
-2 7 14 2.3407 0.0126 
-2 7 15 2.6619 0.0135 
-2 7 16 1.2281 0.0787 
-2 8 1 2.9407 0.0251 
-2 8 2 2.3738 -0.1626 
-2 8 3 0.7268 -0.1754 
-2 8 4 0.0614 -0.0286 
-2 8 5 -1.0369 0.0283 
-2 8 6 -1.8608 -0.0319 
-2 8 7 -2.0903 0.0051 
-2 8 8 -2.5787 0.0224 
-2 8 9 -2.2760 -0.0706 
-2 8 10 -0.3654 -0.0813 
-2 8 11 1.7702 0.0301 
-2 8 12 1.8415 0.1001 
-2 8 13 1.0913 0.0499 
-2 8 14 2.1517 0.0843 
-2 9 1 1.1776 0.0921 
-2 9 2 -0.3861 0.1590 
-2 9 3 -1.9911 0.0901 
-2 9 4 -2.0087 0.0884 
-2 9 5 -2.0771 0.0662 
-2 9 6 -2.3914 -0.0510 
-2 9 7 -1.5820 0.0317 
-2 9 8 -0.9308 0.1380 
-2 9 9 -0.6278 0.0004 
-2 9 10 1.1664 -0.0307 
-2 9 11 3.6156 0.0570 
-2 9 12 2.9098 -0.0211 
-2 9 13 -0.8852 -0.1228 
-2 10 1 0.8487 -0.0636 
-2 10 2 0.8490 -0.1532 
-2 10 3 0.0721 -0.2254 
-2 10 4 -0.0473 -0.1797 
-2 10 5 0.1835 -0.0558 
-2 10 6 -0.0158 -0.0870 
-2 10 7 0.8295 -0.0402 
-2 10 8 1.5425 0.0786 
-2 10 9 0.0589 -0.0845 
-2 10 10 -1.1860 -0.0436 
-2 10 11 0.4705 0.2638 
-2 11 1 0.4985 0.0019 
-2 11 2 1.3634 0.0409 
-2 11 3 1.4816 0.0488 
-2 11 4 0.6065 0.0321 
-2 11 5 -0.5037 0.0357 
-2 11 6 -1.7822 -0.0381 
-2 11 7 -1.4863 0.0098 
-2 11 8 0.5157 0.2495 
-2 11 9 0.9906 0.0491 
-2 12 1 0.0292 0.1206 
-2 12 2 -0.1282 -0.0216 
-2 12 3 -0.4129 -0.1281 
-2 12 4 -1.7868 -0.0387 
-2 12 5 -3.3003 0.0688 
-2 12 6 -4.2181 -0.1357 
-2 13 1 0.5122 -0.0959 
-1 -12 1 1.1880 0.2553 
-1 -12 2 -0.3550 0.1469 
-1 -12 3 -0.9869 0.1820 
-1 -12 4 -0.8343 0.2327 
-1 -12 5 0.0850 -0.0463 
-1 -12 6 0.6639 -0.0793 
-1 -12 7 0.1252 0.0236 
-1 -12 8 -1.4662 -0.1311 
-1 -12 9 -2.0202 -0.0201 
-1 -12 10 -0.8937 0.0444 
-1 -11 1 2.7888 0.0327 
-1 -11 2 0.6028 -0.0861 
-1 -11 3 -0.6601 -0.1836 
-1 -11 4 -0.4808 -0.0203 
-1 -11 5 -0.0173 -0.0093 
-1 -11 6 -0.2724 -0.0459 
-1 -11 7 -0.8869 0.1006 
-1 -11 8 -1.4388 0.0327 
-1 -11 9 -1.5889 -0.0190 
-1 -11 10 -0.0253 0.1084 
-1 -11 11 0.7521 -0.0893 
-1 -11 12 -0.8072 -0.1376 
-1 -11 13 -1.1277 0.0758 
-1 -10 1 1.6675 -0.1062 
-1 -10 2 0.8279 -0.0392 
-1 -10 3 -0.7880 -0.0591 
-1 -10 4 -0.6747 0.0209 
-1 -10 5 0.4499 0.0976 
-1 -10 6 0.6495 0.0080 
-1 -10 7 -0.3735 -0.0015 
-1 -10 8 -1.0933 -0.0001 
-1 -10 9 -1.5565 -0.0417 
-1 -10 10 -0.9384 0.1125 
-1 -10 11 0.6503 0.1145 
-1 -10 12 0.4887 0.0175 
-1 -10 13 -0.0150 0.1567 
-1 -10 14 -0.1844 -0.0342 
-1 -10 15 -2.0311 -0.2193 
-1 -9 1 -0.1120 -0.0815 
-1 -9 2 -0.0771 0.0723 
-1 -9 3 -1.8155 0.0919 
-1 -9 4 -2.9008 -0.0042 
-1 -9 5 -2.2486 -0.0347 
-1 -9 6 -0.6405 -0.0422 
-1 -9 7 0.3318 -0.0144 
-1 -9 8 0.9492 0.0458 
-1 -9 9 0.5682 -0.0028 
-1 -9 10 -1.1645 -0.0188 
-1 -9 11 -1.5610 -0.0452 
-1 -9 12 -1.1786 -0.1553 
-1 -9 13 -1.2265 0.0565 
-1 -9 14 -0.6294 0.1784 
-1 -9 15 -0.8404 -0.0893 
-1 -9 16 -1.0900 -0.0163 
-1 -9 17 0.0998 0.0819 
-1 -8 1 -0.4608 -0.0558 
-1 -8 2 0.9015 -0.1719 
-1 -8 3 1.6895 -0.1824 
-1 -8 4 1.3632 -0.1187 
-1 -8 5 0.4267 -0.0069 
-1 -8 6 -0.0400 0.0524 
-1 -8 7 -0.3069 0.0127 
-1 -8 8 -0.1320 -0.0198 
-1 -8 9 0.1622 -0.0219 
-1 -8 10 -1.9193 0.0491 
-1 -8 11 -4.0182 0.1683 
-1 -8 12 -2.6124 0.0461 
-1 -8 13 0.1048 -0.0589 
-1 -8 14 1.9844 0.0818 
-1 -8 15 2.0813 0.0109 
-1 -8 16 1.4000 -0.0297 
-1 -8 17 2.4146 0.0738 
-1 -8 18 2.7349 -0.0352 
-1 -7 1 0.5719 0.0325 
-1 -7 2 1.3550 0.2135 
-1 -7 3 2.8443 0.2232 
-1 -7 4 2.5150 0.1102 
-1 -7 5 -0.0537 0.0194 
-1 -7 6 -1.9032 -0.0103 
-1 -7 7 -1.4515 -0.0021 
-1 -7 8 0.0909 0.0398 
-1 -7 9 2.0960 0.0358 
-1 -7 10 1.9504 -0.0532 
-1 -7 11 -1.2182 -0.0182 
-1 -7 12 -2.8442 0.0511 
-1 -7 13 -1.7274 -0.0580 
-1 -7 14 -0.3630 -0.0746 
-1 -7 15 -0.2510 -0.0249 
-1 -7 16 -1.2786 0.0128 
-1 -7 17 -0.5253 0.2215 
-1 -7 18 1.4576 0.1465 
-1 -7 19 1.8917 -0.1423 
-1 -6 1 1.1727 -0.0628 
-1 -6 2 -2.7935 -0.2193 
-1 -6 3 -2.9041 -0.2514 
-1 -6 4 -0.5218 -0.1753 
-1 -6 5 0.3541 -0.0337 
-1 -6 6 -0.7014 0.0345 
-1 -6 7 -0.4805 -0.0372 
-1 -6 8 1.0752 -0.0926 
-1 -6 9 2.1389 -0.0191 
-1 -6 10 1.7777 -0.0014 
-1 -6 11 -0.6265 -0.0631 
-1 -6 12 -2.4622 -0.0087 
-1 -6 13 -1.9953 0.0192 
-1 -6 14 -1.0476 -0.0297 
-1 -6 15 -0.2892 -0.0349 
-1 -6 16 -0.3239 -0.1110 
-1 -6 17 -0.5805 -0.0772 
-1 -6 18 0.0247 0.1041 
-1 -6 19 -0.1124 -0.0115 
-1 -5 1 4.9919 0.0752 
-1 -5 2 2.8878 0.2278 
-1 -5 3 0.6877 0.2456 
-1 -5 4 -0.4219 0.1492 
-1 -5 5 -1.0851 0.0589 
-1 -5 6 -3.2591 0.0505 
-1 -5 7 -5.7673 0.0506 
-1 -5 8 -5.2281 -0.0033 
-1 -5 9 -2.3935 0.0006 
-1 -5 10 -0.2431 0.0603 
-1 -5 11 -0.4737 0.0018 
-1 -5 12 -1.4786 -0.0804 
-1 -5 13 -0.9342 -0.0686 
-1 -5 14 -0.3033 -0.0361 
-1 -5 15 -0.0437 0.0816 
-1 -5 16 0.8294 0.1510 
-1 -5 17 1.6443 -0.0201 
-1 -5 18 2.5690 -0.0949 
-1 -5 19 2.1850 0.0708 
-1 -5 20 0.3494 0.0905 
-1 -4 1 4.3643 -0.1071 
-1 -4 2 10.1327 -0.2015 
-1 -4 3 13.5893 -0.2091 
-1 -4 4 10.7127 -0.1404 
-1 -4 5 2.1299 -0.0725 
-1 -4 6 -5.6711 -0.0661 
-1 -4 7 -10.4710 -0.0595 
-1 -4 8 -11.1011 -0.0535 
-1 -4 9 -7.1669 -0.0723 
-1 -4 10 -1.9096 -0.0295 
-1 -4 11 0.9380 0.0377 
-1 -4 12 0.5923 0.0450 
-1 -4 13 -0.0938 0.0384 
-1 -4 14 -0.0320 -0.0319 
-1 -4 15 -0.3843 -0.1177 
-1 -4 16 -0.7431 -0.0121 
-1 -4 17 -1.4374 0.0998 
-1 -4 18 -1.7965 -0.0187 
-1 -4 19 -0.8870 -0.0836 
-1 -4 20 -0.7871 0.0446 
-1 -3 1 0.1042 0.0725 
-1 -3 2 -3.6776 0.1558 
-1 -3 3 -2.3258 0.1760 
-1 -3 4 6.4533 0.1278 
-1 -3 5 8.6724 0.1491 
-1 -3 6 3.9441 0.1590 
-1 -3 7 -0.6088 0.0898 
-1 -3 8 -2.6339 0.0418 
-1 -3 9 -1.7309 0.0223 
-1 -3 10 0.2769 0.0102 
-1 -3 11 1.3410 0.0092 
-1 -3 12 0.5085 -0.0316 
-1 -3 13 -1.4105 -0.0322 
-1 -3 14 -2.1410 0.0774 
-1 -3 15 -1.7655 0.0849 
-1 -3 16 -1.0953 -0.0423 
-1 -3 17 -0.7008 -0.0366 
-1 -3 18 -0.8000 0.0310 
-1 -3 19 0.2097 -0.0467 
-1 -3 20 0.8996 -0.0825 
-1 -2 1 2.8527 0.0309 
-1 -2 2 3.5690 0.0225 
-1 -2 3 -7.0822 0.0571 
-1 -2 4 -1.7574 -0.0787 
-1 -2 5 12.6465 -0.2144 
-1 -2 6 17.1676 -0.1416 
-1 -2 7 11.1775 -0.0222 
-1 -2 8 2.0244 0.0074 
-1 -2 9 -3.2334 -0.0256 
-1 -2 10 -3.3604 -0.0453 
-1 -2 11 -1.4511 0.0244 
-1 -2 12 0.6812 0.0798 
-1 -2 13 1.2969 -0.0175 
-1 -2 14 0.8746 -0.0816 
-1 -2 15 0.8844 0.0197 
-1 -2 16 0.5883 0.0198 
-1 -2 17 -0.1369 -0.1069 
-1 -2 18 -0.5540 -0.0711 
-1 -2 19 0.4955 0.0306 
-1 -2 20 2.1762 -0.0135 
-1 -2 21 1.1487 -0.0517 
-1 -1 1 -7.5798 -0.2665 
-1 -1 2 32.4798 -0.4530 
-1 -1 3 33.5320 -0.2620 
-1 -1 4 15.3670 0.0954 
-1 -1 5 7.4516 0.1959 
-1 -1 6 6.0550 0.1020 
-1 -1 7 3.3942 0.0043 
-1 -1 8 -1.1965 -0.0284 
-1 -1 9 -3.4305 0.0065 
-1 -1 10 -0.8463 0.0219 
-1 -1 11 2.0242 -0.0012 
-1 -1 12 3.0173 0.0215 
-1 -1 13 2.5532 0.0306 
-1 -1 14 1.0615 -0.0514 
-1 -1 15 1.0317 -0.0582 
-1 -1 16 1.6016 0.0377 
-1 -1 17 0.0946 0.0234 
-1 -1 18 -2.2780 -0.0274 
-1 -1 19 -2.7928 0.0349 
-1 -1 20 -0.6099 0.0489 
-1 0 2 -29.0268 0.9610 
-1 0 3 -0.4521 0.4221 
-1 0 4 -0.7122 -0.0152 
-1 0 5 -3.7298 -0.1566 
-1 0 6 2.5025 -0.1105 
-1 0 7 11.1208 -0.0029 
-1 0 8 13.3488 0.0303 
-1 0 9 7.9417 0.0054 
-1 0 10 2.5654 0.0036 
-1 0 11 -0.4406 -0.0107 
-1 0 12 -1.9856 -0.0465 
-1 0 13 -1.0819 -0.0099 
-1 0 14 -0.2577 0.0555 
-1 0 15 0.0069 0.0313 
-1 0 16 1.1071 -0.0184 
-1 0 17 0.8780 -0.0188 
-1 0 18 -0.7148 0.0061 
-1 0 19 -1.4955 0.0345 
-1 0 20 -1.2122 -0.0464 
-1 1 2 -75.6533 -0.5065 
-1 1 3 -42.6566 -0.2855 
-1 1 4 -17.4347 -0.1013 
-1 1 5 -6.1859 0.0636 
-1 1 6 0.6676 0.0874 
-1 1 7 5.5106 0.0251 
-1 1 8 6.5405 -0.0196 
-1 1 9 1.7915 -0.0376 
-1 1 10 -2.1189 -0.0024 
-1 1 11 -1.4466 0.0748 
-1 1 12 -0.4361 0.0681 
-1 1 13 0.9128 -0.0348 
-1 1 14 2.0737 -0.0507 
-1 1 15 0.9490 0.0379 
-1 1 16 0.0482 0.0599 
-1 1 17 -0.2252 0.0165 
-1 1 18 -0.8503 0.0201 
-1 1 19 -0.3879 0.0711 
-1 1 20 0.2441 0.0929 
-1 2 2 -29.0325 -0.1673 
-1 2 3 -30.0063 -0.0514 
-1 2 4 -21.5707 -0.0234 
-1 2 5 -17.1030 0.0041 
-1 2 6 -14.5568 -0.0196 
-1 2 7 -10.8715 -0.0915 
-1 2 8 -4.5022 -0.0661 
-1 2 9 -0.5744 0.0404 
-1 2 10 0.4076 0.0737 
-1 2 11 2.6669 0.0166 
-1 2 12 2.9914 -0.0191 
-1 2 13 1.0335 -0.0260 
-1 2 14 0.6131 -0.0190 
-1 2 15 0.3190 0.0588 
-1 2 16 -0.0964 0.1063 
-1 2 17 0.0994 0.0286 
-1 2 18 -0.4238 -0.0204 
-1 2 19 -0.0766 0.0153 
-1 2 20 1.4222 0.0696 
-1 3 1 19.1540 0.3565 
-1 3 2 -0.5141 0.2967 
-1 3 3 -11.9586 0.1930 
-1 3 4 -12.4196 0.0648 
-1 3 5 -7.8684 0.0390 
-1 3 6 -2.7247 0.0793 
-1 3 7 -0.9756 0.0572 
-1 3 8 0.3967 -0.0044 
-1 3 9 1.2760 -0.0243 
-1 3 10 -0.5953 0.0021 
-1 3 11 -0.8421 -0.0017 
-1 3 12 0.2284 -0.0246 
-1 3 13 -0.5175 0.0180 
-1 3 14 -0.5698 0.0661 
-1 3 15 0.0715 0.0934 
-1 3 16 0.1602 0.1274 
-1 3 17 0.8169 0.0424 
-1 3 18 0.7860 -0.1219 
-1 3 19 0.4241 -0.2177 
-1 4 1 5.5396 -0.4529 
-1 4 2 2.9835 -0.3487 
-1 4 3 0.5006 -0.1901 
-1 4 4 -0.5127 -0.0684 
-1 4 5 0.6768 0.0028 
-1 4 6 4.2718 -0.0259 
-1 4 7 4.3025 -0.0769 
-1 4 8 1.4655 -0.0156 
-1 4 9 -0.0098 0.0559 
-1 4 10 -1.6879 0.0269 
-1 4 11 -2.5238 -0.0396 
-1 4 12 -1.4654 -0.0862 
-1 4 13 -1.2094 -0.0242 
-1 4 14 -1.0264 0.0997 
-1 4 15 -0.3423 0.0747 
-1 4 16 -0.2735 -0.0520 
-1 4 17 0.4986 -0.1838 
-1 4 18 0.9152 -0.3134 
-1 5 1 7.7021 0.4698 
-1 5 2 6.8106 0.4471 
-1 5 3 5.2970 0.2171 
-1 5 4 2.4795 -0.0360 
-1 5 5 -1.3091 -0.0359 
-1 5 6 -1.4677 0.0456 
-1 5 7 -0.3119 -0.0050 
-1 5 8 -0.5596 -0.0248 
-1 5 9 0.2404 0.0345 
-1 5 10 1.0190 0.0098 
-1 5 11 0.3537 -0.0301 
-1 5 12 -0.5378 -0.0181 
-1 5 13 -1.2073 -0.0038 
-1 5 14 -0.3053 0.0480 
-1 5 15 1.5096 0.0013 
-1 5 16 1.6207 -0.1922 
-1 5 17 1.6181 -0.3059 
-1 5 18 2.1690 -0.3276 
-1 6 1 7.5339 -0.4801 
-1 6 2 6.4155 -0.3430 
-1 6 3 2.5092 -0.1021 
-1 6 4 -0.1243 -0.0146 
-1 6 5 -1.8354 0.0183 
-1 6 6 -1.4787 0.0467 
-1 6 7 -0.3415 -0.0000 
-1 6 8 -0.8793 -0.0039 
-1 6 9 -0.8599 0.0943 
-1 6 10 0.5861 0.0939 
-1 6 11 1.3595 0.0086 
-1 6 12 0.0692 0.0056 
-1 6 13 -2.6090 -0.0329 
-1 6 14 -2.8873 -0.1148 
-1 6 15 -0.4329 -0.1669 
-1 6 16 0.1738 -0.2933 
-1 6 17 -0.5241 -0.3453 
-1 7 1 -3.0098 0.3880 
-1 7 2 -0.0789 0.2640 
-1 7 3 -0.4819 0.1108 
-1 7 4 -1.3535 -0.0222 
-1 7 5 -0.9733 -0.0647 
-1 7 6 0.5678 -0.0599 
-1 7 7 1.8267 -0.0457 
-1 7 8 0.5503 0.0185 
-1 7 9 -1.6661 0.0730 
-1 7 10 -2.2270 0.0147 
-1 7 11 -1.2251 -0.0700 
-1 7 12 -1.0866 0.0163 
-1 7 14 -4.5276 -0.0773 
-1 7 15 -1.1266 -0.2481 
-1 8 1 -1.2437 -0.3352 
-1 8 2 2.3048 -0.2413 
-1 8 3 2.8682 -0.1031 
-1 8 4 0.9475 0.0085 
-1 8 5 -0.1761 0.1539 
-1 8 6 0.1148 0.1582 
-1 8 7 0.7846 0.0165 
-1 8 8 -0.1044 0.0318 
-1 8 9 -2.4822 0.1128 
-1 8 10 -3.9463 0.0586 
-1 8 11 -2.3612 -0.0322 
-1 8 12 1.0998 -0.0353 
-1 8 13 1.5921 -0.0555 
-1 8 14 -0.1103 -0.2434 
-1 9 1 -0.6566 0.1072 
-1 9 2 1.2413 0.1220 
-1 9 3 2.6957 0.1322 
-1 9 4 1.5985 -0.0198 
-1 9 5 0.0188 -0.0520 
-1 9 6 -1.1657 0.0094 
-1 9 7 -1.7290 -0.1087 
-1 9 8 -1.2593 -0.0967 
-1 9 9 -0.3483 0.0356 
-1 9 10 0.0353 -0.0055 
-1 9 11 0.2434 0.0550 
-1 9 12 1.3964 0.2750 
-1 9 13 0.9994 0.2463 
-1 10 1 -2.6363 -0.0895 
-1 10 2 -2.0022 -0.1198 
-1 10 3 0.2326 0.0168 
-1 10 4 1.1690 0.0188 
-1 10 5 1.3088 -0.0168 
-1 10 6 1.2475 0.1156 
-1 10 7 0.4470 0.0410 
-1 10 8 -0.2425 -0.0545 
-1 10 9 -0.2861 0.0193 
-1 10 10 -0.5718 -0.1937 
-1 10 11 -1.5439 -0.2627 
-1 11 1 -0.2908 -0.0298 
-1 11 2 -0.4873 -0.0156 
-1 11 3 0.7649 0.0097 
-1 11 4 1.7350 -0.0157 
-1 11 5 1.7048 -0.1233 
-1 11 6 1.2154 -0.0013 
-1 11 7 -0.0167 0.0247 
-1 11 8 -1.0356 -0.0988 
-1 12 1 0.0444 0.2814 
-1 12 2 -0.0581 0.3418 
-1 12 3 0.4386 0.1799 
-1 12 4 0.7872 -0.0025 
-1 12 5 0.3226 -0.1555 
0 -13 1 -0.5938 0.3330 
0 -13 2 0.0577 0.2638 
0 -13 3 0.5257 -0.0021 
0 -13 4 -0.2002 0.0807 
0 -13 5 -0.8091 0.0656 
0 -12 1 0.0771 -0.4348 
0 -12 2 -0.3733 -0.1775 
0 -12 3 -0.2874 -0.1374 
0 -12 4 0.4699 0.0089 
0 -12 5 1.0936 0.1661 
0 -12 6 1.5376 -0.0040 
0 -12 7 1.9460 -0.0188 
0 -12 8 1.8051 0.0660 
0 -12 9 0.1457 -0.0440 
0 -12 10 -0.6984 0.1351 
0 -12 11 0.6691 0.1893 
0 -11 1 0.5534 0.3880 
0 -11 2 0.5249 0.4094 
0 -11 3 0.0934 0.1907 
0 -11 4 0.6243 -0.0733 
0 -11 5 1.4371 -0.0328 
0 -11 6 1.5355 -0.0473 
0 -11 7 0.9577 -0.1092 
0 -11 8 0.7977 0.0038 
0 -11 9 0.2642 -0.0714 
0 -11 10 -0.8190 -0.0915 
0 -11 11 0.0766 0.1319 
0 -11 12 1.4428 0.0885 
0 -11 13 1.4098 0.0913 
0 -10 1 0.2361 -0.5131 
0 -10 2 0.5091 -0.4055 
0 -10 3 0.5026 -0.1199 
0 -10 4 0.6630 0.0351 
0 -10 5 0.6214 0.1641 
0 -10 6 0.2010 0.1963 
0 -10 7 -0.4388 0.0277 
0 -10 8 -0.2796 0.0161 
0 -10 9 0.6760 0.0650 
0 -10 10 0.1873 -0.0495 
0 -10 11 -0.3964 -0.0441 
0 -10 12 0.5545 -0.0972 
0 -10 13 1.1242 -0.1422 
0 -10 14 1.6886 0.0134 
0 -10 15 1.6220 -0.1036 
0 -9 1 0.0366 0.3938 
0 -9 2 -1.1031 0.3041 
0 -9 3 -1.3611 0.1529 
0 -9 4 -0.6035 -0.0235 
0 -9 5 -0.2279 -0.1179 
0 -9 6 -0.4611 -0.0643 
0 -9 7 -0.4906 -0.0593 
0 -9 8 0.0443 -0.0546 
0 -9 9 1.8622 0.0564 
0 -9 10 2.5713 0.0208 
0 -9 11 0.3208 -0.0159 
0 -9 12 -1.7149 0.0459 
0 -9 13 -2.2015 -0.0039 
0 -9 14 -1.5907 0.0608 
0 -9 15 -0.5851 0.0352 
0 -9 16 -1.3777 -0.0157 
0 -9 17 -1.8502 0.3387 
0 -8 1 -1.4183 -0.3057 
0 -8 2 -3.4786 -0.2459 
0 -8 3 -3.1047 -0.1214 
0 -8 4 0.0185 0.0289 
0 -8 5 2.1403 0.1298 
0 -8 6 1.4990 0.1585 
0 -8 7 0.6067 0.0902 
0 -8 8 0.1515 -0.0276 
0 -8 9 0.3854 0.0039 
0 -8 10 1.5894 0.0291 
0 -8 11 0.9345 -0.0606 
0 -8 12 -1.3973 0.0238 
0 -8 13 -2.4319 0.0965 
0 -8 14 -1.5297 0.0281 
0 -8 15 0.1888 -0.0477 
0 -8 16 -0.6491 -0.1601 
0 -8 17 -3.8262 0.1244 
0 -8 18 -4.5433 0.3722 
0 -7 1 5.9397 0.2491 
0 -7 2 3.4639 0.1925 
0 -7 3 -0.5992 0.0607 
0 -7 4 -1.2963 -0.0644 
0 -7 5 -0.1692 -0.1186 
0 -7 6 -1.3865 -0.1143 
0 -7 7 -2.4982 -0.0940 
0 -7 8 -0.5467 -0.1098 
0 -7 9 1.8383 -0.0588 
0 -7 10 3.3478 0.0608 
0 -7 11 3.4909 -0.0232 
0 -7 12 1.4515 -0.1162 
0 -7 13 -0.9552 -0.0162 
0 -7 14 -1.9437 0.0032 
0 -7 15 -0.4150 -0.0349 
0 -7 16 1.7552 -0.1331 
0 -7 17 0.6216 -0.1812 
0 -7 18 -2.2538 0.0906 
0 -7 19 -4.1426 0.0592 
0 -6 1 5.3191 -0.0268 
0 -6 2 6.4572 -0.0419 
0 -6 3 2.1792 -0.0546 
0 -6 4 -1.3718 -0.0110 
0 -6 5 0.2526 0.0569 
0 -6 6 2.6978 0.0967 
0 -6 7 1.7723 0.1016 
0 -6 8 1.1594 0.0500 
0 -6 9 2.3010 -0.0434 
0 -6 10 2.7639 0.0011 
0 -6 11 2.0793 0.0724 
0 -6 12 0.4932 0.0030 
0 -6 13 -0.9699 -0.0131 
0 -6 14 -2.0921 -0.0257 
0 -6 15 -2.7531 -0.0271 
0 -6 16 -1.3311 0.1331 
0 -6 17 0.3243 0.1158 
0 -6 18 0.3030 -0.0597 
0 -6 19 0.0030 -0.0490 
0 -5 1 -9.4690 -0.0674 
0 -5 2 -1.3522 -0.0523 
0 -5 3 5.1256 -0.0333 
0 -5 4 6.9209 0.0083 
0 -5 5 6.1290 0.0205 
0 -5 6 6.1573 -0.0469 
0 -5 7 4.2573 -0.1142 
0 -5 8 0.1710 -0.0534 
0 -5 9 -1.5145 0.0158 
0 -5 10 -0.4652 0.0166 
0 -5 11 0.8423 0.0282 
0 -5 12 0.4992 -0.0065 
0 -5 13 -1.0392 -0.0062 
0 -5 14 -2.0375 0.0267 
0 -5 15 -3.1086 -0.0906 
0 -5 16 -3.4115 -0.0840 
0 -5 17 -2.1005 0.1017 
0 -5 18 -1.3020 0.0232 
0 -5 19 -0.5098 -0.1058 
0 -5 20 0.7664 0.1511 
0 -4 1 -11.1798 0.2621 
0 -4 2 -5.6522 0.1677 
0 -4 3 -1.8558 0.0200 
0 -4 4 1.7804 -0.0672 
0 -4 5 2.1259 -0.0157 
0 -4 6 0.2151 0.1017 
0 -4 7 -1.0597 0.0886 
0 -4 8 -3.2014 -0.0047 
0 -4 9 -4.3559 -0.0367 
0 -4 10 -2.1841 -0.0325 
0 -4 11 1.7193 0.0079 
0 -4 12 4.3009 0.0086 
0 -4 13 3.5014 -0.0518 
0 -4 14 1.4291 0.0082 
0 -4 15 -0.1545 0.0526 
0 -4 16 -1.5133 -0.0645 
0 -4 17 -1.5903 -0.0547 
0 -4 18 -1.7130 0.0469 
0 -4 19 -2.4935 -0.0371 
0 -4 20 -1.2288 -0.0785 
0 -3 1 -13.4701 -0.4388 
0 -3 2 -1.7198 -0.2781 
0 -3 3 -1.2513 0.0059 
0 -3 4 -6.3417 0.1649 
0 -3 5 -6.9956 0.0572 
0 -3 6 -5.7512 -0.0461 
0 -3 7 -3.6577 -0.0143 
0 -3 8 -2.7295 0.0351 
0 -3 9 -3.5795 0.0485 
0 -3 10 -2.9714 0.0042 
0 -3 11 -0.4559 -0.0239 
0 -3 12 2.5778 0.0193 
0 -3 13 3.6900 -0.0245 
0 -3 14 2.3629 -0.1054 
0 -3 15 1.1260 -0.0106 
0 -3 16 -0.0870 0.0778 
0 -3 17 -1.0637 -0.0092 
0 -3 18 -0.9753 -0.0568 
0 -3 19 -1.2239 -0.0110 
0 -3 20 -0.6257 -0.0379 
0 -2 1 -48.9772 0.7396 
0 -2 2 -34.7310 0.4195 
0 -2 3 -8.7016 -0.0200 
0 -2 4 0.4525 -0.1207 
0 -2 5 3.6517 -0.0563 
0 -2 6 6.6355 -0.0073 
0 -2 7 7.1157 0.0408 
0 -2 8 3.6431 0.0444 
0 -2 9 -3.5634 0.0206 
0 -2 10 -8.3173 -0.0144 
0 -2 11 -7.5020 -0.0680 
0 -2 12 -3.3112 -0.0266 
0 -2 13 1.0220 0.0806 
0 -2 14 2.0499 0.0409 
0 -2 15 1.4473 -0.0604 
0 -2 16 1.5713 -0.0161 
0 -2 17 1.1977 0.0254 
0 -2 18 0.6738 -0.0496 
0 -2 19 -0.1893 -0.0540 
0 -2 20 -1.4950 0.0431 
0 -1 2 -36.1749 -0.3497 
0 -1 3 -13.1167 -0.0649 
0 -1 4 3.8158 0.0163 
0 -1 5 3.5642 0.0577 
0 -1 6 -0.1784 0.0405 
0 -1 7 -1.8819 0.0215 
0 -1 8 -1.0535 -0.0136 
0 -1 9 -1.7503 -0.0471 
0 -1 10 -3.2756 -0.0056 
0 -1 11 -2.4440 0.0262 
0 -1 12 -0.9146 -0.0262 
0 -1 13 0.8121 -0.0391 
0 -1 14 1.3227 0.0300 
0 -1 15 -0.2507 0.0442 
0 -1 16 -0.7089 0.0076 
0 -1 17 -0.2253 0.0032 
0 -1 18 -0.0944 -0.0133 
0 -1 19 0.3576 -0.0246 
0 -1 20 0.1524 -0.0073 
0 0 2 5.3604 -0.0162 
0 0 3 -17.7876 0.1400 
0 0 4 -14.4993 0.0552 
0 0 5 -12.0474 -0.0773 
0 0 6 -8.2711 -0.1400 
0 0 7 -1.8221 -0.0732 
0 0 8 5.4098 0.0434 
0 0 9 8.0181 0.0424 
0 0 10 4.0976 -0.0440 
0 0 11 0.1907 -0.0668 
0 0 12 -2.0656 -0.0123 
0 0 13 -2.6442 0.0255 
0 0 14 -0.0499 0.0436 
0 0 15 2.2419 0.0665 
0 0 16 2.5784 0.0430 
0 0 17 1.5614 -0.0019 
0 0 18 -0.9409 0.0086 
0 0 19 -1.9360 0.0793 
0 0 20 -0.4422 0.1837 
0 1 2 31.3267 0.1444 
0 1 3 2.1083 -0.1691 
0 1 4 -0.6603 -0.1952 
0 1 5 1.8542 -0.0371 
0 1 6 3.5198 0.1008 
0 1 7 3.5685 0.0713 
0 1 8 3.2910 -0.0088 
0 1 9 3.1871 -0.0005 
0 1 10 -0.1148 0.0670 
0 1 11 -2.2643 0.0845 
0 1 12 -1.3515 0.0610 
0 1 13 -2.0367 0.0455 
0 1 14 -2.1613 0.0064 
0 1 15 0.4776 -0.0226 
0 1 16 3.3433 -0.0070 
0 1 17 4.4386 -0.0066 
0 1 18 1.7031 -0.0112 
0 1 19 -2.6323 -0.0106 
0 1 20 -3.8430 -0.0526 
0 2 0 -15.4249 -0.5777 
0 2 1 27.9056 -0.2743 
0 2 2 31.2921 -0.0180 
0 2 3 13.3273 0.2257 
0 2 4 1.6111 0.2583 
0 2 5 -4.5483 0.0928 
0 2 6 -5.9470 -0.0159 
0 2 7 -5.0734 -0.0215 
0 2 8 -3.9597 -0.0258 
0 2 9 -0.0040 -0.0459 
0 2 10 1.9675 -0.0116 
0 2 11 1.0012 0.0446 
0 2 12 2.1404 0.0339 
0 2 13 1.6751 0.0198 
0 2 14 -2.1017 0.0300 
0 2 15 -3.7998 -0.0046 
0 2 16 -2.1671 -0.0467 
0 2 17 0.5323 -0.0649 
0 2 18 1.0166 -0.0259 
0 2 19 -1.4175 0.1273 
0 3 0 -13.9828 0.4546 
0 3 1 2.0998 0.2396 
0 3 2 9.0156 -0.1152 
0 3 3 2.3280 -0.2524 
0 3 4 -5.4120 -0.1642 
0 3 5 -10.9667 -0.0985 
0 3 6 -10.0971 -0.0822 
0 3 7 -4.4583 -0.0425 
0 3 8 -1.6139 0.0206 
0 3 9 0.7587 0.0435 
0 3 10 2.6209 0.0120 
0 3 11 0.4516 0.0081 
0 3 12 -0.4216 0.0042 
0 3 13 1.2766 -0.0524 
0 3 14 0.6286 -0.0861 
0 3 15 -1.1018 -0.0839 
0 3 16 -1.0961 -0.0498 
0 3 17 0.3703 0.0128 
0 3 18 1.2888 0.0180 
0 3 19 -0.2718 0.0819 
0 4 0 -13.7703 -0.2008 
0 4 1 -6.9334 -0.0472 
0 4 2 1.3756 0.0846 
0 4 3 5.7129 0.1912 
0 4 4 7.5640 0.2281 
0 4 5 4.3004 0.1517 
0 4 6 0.2092 0.0558 
0 4 7 0.2502 -0.0072 
0 4 8 -0.7449 -0.0332 
0 4 9 -2.2190 0.0077 
0 4 10 -0.6805 0.0226 
0 4 11 -0.3453 -0.0275 
0 4 12 -1.3865 -0.0446 
0 4 13 -0.6414 -0.0489 
0 4 14 -0.0660 -0.0556 
0 4 15 -0.5170 -0.0400 
0 4 16 -0.4290 -0.0420 
0 4 17 0.7008 -0.0300 
0 4 18 2.3012 -0.0530 
0 5 0 -13.2652 0.0746 
0 5 1 -8.5110 -0.0336 
0 5 2 -0.9130 -0.1888 
0 5 3 3.7629 -0.2097 
0 5 4 6.5220 -0.1602 
0 5 5 5.6971 -0.1485 
0 5 6 2.6509 -0.0817 
0 5 7 2.3159 0.0345 
0 5 8 1.8350 0.0287 
0 5 9 -0.3079 -0.0426 
0 5 10 0.0514 -0.0489 
0 5 11 1.7559 -0.0490 
0 5 12 1.8076 -0.0194 
0 5 13 0.8350 0.0315 
0 5 14 -0.2527 -0.0089 
0 5 15 -0.4291 -0.0667 
0 5 16 0.2529 -0.0833 
0 5 17 0.5548 -0.0641 
0 6 0 -0.1714 0.0991 
0 6 1 -2.7658 0.1433 
0 6 2 -0.9617 0.1012 
0 6 3 0.4122 0.1377 
0 6 4 0.5460 0.2185 
0 6 5 0.2647 0.1817 
0 6 6 0.4366 0.0802 
0 6 7 2.7360 0.0452 
0 6 8 4.0047 0.0320 
0 6 9 2.0233 -0.0122 
0 6 10 0.5663 -0.0076 
0 6 11 1.6201 -0.0127 
0 6 12 3.6508 -0.0480 
0 6 13 4.0918 0.0061 
0 6 14 2.0533 0.0311 
0 6 15 1.2814 -0.0404 
0 6 16 3.4017 -0.0916 
0 7 0 2.9531 -0.1797 
0 7 1 -1.4635 -0.0765 
0 7 2 -1.4984 -0.0499 
0 7 3 0.9837 -0.0476 
0 7 4 1.7930 -0.0847 
0 7 5 0.6230 -0.1272 
0 7 6 -0.1238 -0.0643 
0 7 7 1.7389 0.0320 
0 7 8 3.7954 0.0697 
0 7 9 3.3351 0.0258 
0 7 10 1.6623 -0.0427 
0 7 11 -0.2439 -0.0786 
0 7 12 -1.0514 -0.1109 
0 7 13 -0.7779 -0.0702 
0 7 14 -2.5239 -0.0398 
0 7 15 -3.8907 -0.1694 
0 8 0 -0.4333 0.2861 
0 8 1 -1.8211 0.1343 
0 8 2 -2.0734 -0.0465 
0 8 3 0.2251 -0.0101 
0 8 4 1.9111 0.0715 
0 8 5 1.4828 0.0073 
0 8 6 0.5683 0.0188 
0 8 7 0.5938 0.0365 
0 8 8 0.0101 -0.0390 
0 8 9 -1.7044 -0.0041 
0 8 10 -1.8628 0.0936 
0 8 11 -1.4367 0.1236 
0 8 12 -1.7053 0.0968 
0 8 13 -0.6193 0.0789 
0 8 14 -0.6477 0.0687 
0 9 0 0.8913 -0.2829 
0 9 1 -0.1474 -0.0703 
0 9 2 -2.0056 -0.0212 
0 9 3 -1.7220 0.0446 
0 9 4 -0.2792 0.1363 
0 9 5 -0.0521 -0.0248 
0 9 6 -0.4101 -0.0730 
0 9 7 -0.0828 0.0840 
0 9 8 -0.3712 0.0334 
0 9 9 -1.8586 0.0072 
0 9 10 -0.8335 0.0932 
0 9 11 2.4165 -0.0160 
0 9 12 2.8510 -0.1218 
0 10 0 0.4096 0.3445 
0 10 1 1.0244 0.1957 
0 10 2 0.1220 -0.0119 
0 10 3 -1.2176 -0.1824 
0 10 4 -1.1916 -0.0490 
0 10 5 -0.8165 -0.0465 
0 10 6 -0.5794 -0.1692 
0 10 7 0.3886 -0.0516 
0 10 8 1.5828 -0.0882 
0 10 9 1.3087 -0.0910 
0 10 10 1.2057 0.2780 
0 11 0 -0.0225 -0.3886 
0 11 1 0.9392 -0.1756 
0 11 2 2.0021 0.1774 
0 11 3 1.1658 0.1912 
0 11 4 0.3959 0.1598 
0 11 5 0.9243 0.1797 
0 11 6 1.4873 0.0961 
0 11 7 0.8875 0.2556 
0 11 8 -0.3802 0.2230 
0 12 0 -0.3775 0.4566 
0 12 1 -0.3775 0.1748 
0 12 2 0.8550 0.1327 
0 12 3 0.8132 0.0793 
0 12 4 -0.4421 -0.0626 
0 12 5 -0.3231 -0.0264 
1 -13 0 0.1682 0.6802 
1 -13 1 0.2680 0.3472 
1 -13 2 -0.1328 0.0729 
1 -13 3 -0.4000 -0.1960 
1 -13 4 -0.9237 -0.3565 
1 -13 5 -2.1111 -0.1948 
1 -13 6 -2.4490 0.0189 
1 -12 0 0.3317 -0.1255 
1 -12 1 0.6826 -0.1034 
1 -12 2 0.4553 0.0452 
1 -12 3 -0.3736 0.2601 
1 -12 4 -0.8938 0.2384 
1 -12 5 -1.0573 0.1389 
1 -12 6 -0.8655 0.0244 
1 -12 7 -0.0860 -0.1398 
1 -12 8 1.4763 -0.0844 
1 -12 9 2.2669 -0.0632 
1 -12 10 0.2405 -0.2004 
1 -12 11 -1.6236 0.0646 
1 -11 0 0.3280 0.1272 
1 -11 1 0.2752 0.0789 
1 -11 2 -0.2008 -0.0877 
1 -11 3 -0.7181 -0.1327 
1 -11 4 -0.4647 -0.1374 
1 -11 5 0.2552 -0.1221 
1 -11 6 0.6434 -0.0115 
1 -11 7 0.6443 -0.0063 
1 -11 8 1.0047 -0.0345 
1 -11 9 2.2112 0.0488 
1 -11 10 1.7759 -0.0425 
1 -11 11 -0.7265 -0.0982 
1 -11 12 -1.8259 -0.0163 
1 -11 13 -1.8645 -0.0643 
1 -10 0 -0.9158 0.0166 
1 -10 1 0.4119 0.0420 
1 -10 2 0.2671 0.0732 
1 -10 3 -0.4205 0.1250 
1 -10 4 -0.1557 0.1894 
1 -10 5 0.8209 0.1475 
1 -10 6 0.9980 0.0588 
1 -10 7 0.3381 -0.0231 
1 -10 8 -0.5187 -0.1329 
1 -10 9 -0.1548 -0.0689 
1 -10 10 1.1510 0.0500 
1 -10 11 0.8934 0.0216 
1 -10 12 0.0242 0.0299 
1 -10 13 -0.3062 -0.0291 
1 -10 14 -1.0363 0.0618 
1 -10 15 -1.0960 0.1900 
1 -9 0 0.3194 -0.1680 
1 -9 1 1.6755 -0.1421 
1 -9 2 0.3194 -0.0480 
1 -9 3 -2.4802 -0.0265 
1 -9 4 -3.5449 -0.0493 
1 -9 5 -2.2590 -0.0496 
1 -9 6 -0.9632 -0.0515 
1 -9 7 0.0214 0.0029 
1 -9 8 0.8688 0.0235 
1 -9 9 0.6533 -0.0111 
1 -9 10 0.5603 0.0234 
1 -9 11 0.7128 -0.0428 
1 -9 12 0.0552 -0.1222 
1 -9 13 -0.9147 -0.1034 
1 -9 14 -1.6160 -0.0607 
1 -9 15 -0.3916 0.1109 
1 -9 16 1.7958 -0.0759 
1 -8 0 -2.4505 0.2766 
1 -8 1 -0.4418 0.1172 
1 -8 2 -0.0314 -0.0088 
1 -8 3 -2.2549 -0.0449 
1 -8 4 -3.2252 -0.0389 
1 -8 5 -0.9551 0.0075 
1 -8 6 0.7068 -0.0042 
1 -8 7 0.0315 -0.0579 
1 -8 8 0.2840 -0.0446 
1 -8 9 0.7108 -0.0604 
1 -8 10 -0.4148 -0.0048 
1 -8 11 -0.7001 0.0858 
1 -8 12 0.5523 0.0204 
1 -8 13 1.1891 -0.0144 
1 -8 14 -0.2218 -0.0183 
1 -8 15 -1.0922 0.0202 
1 -8 16 1.3302 0.0007 
1 -8 17 3.0115 -0.2705 
1 -8 18 1.3937 0.0836 
1 -7 0 -5.2830 -0.3503 
1 -7 1 -1.5999 -0.1345 
1 -7 2 3.8766 0.0454 
1 -7 3 4.1379 0.1162 
1 -7 4 -0.6493 0.0952 
1 -7 5 -3.9248 0.0518 
1 -7 6 -3.6989 0.0223 
1 -7 7 -4.2135 -0.0102 
1 -7 8 -4.1457 0.0766 
1 -7 9 -1.1238 0.1232 
1 -7 10 0.5560 0.0061 
1 -7 11 -0.4337 -0.0246 
1 -7 12 -0.7680 -0.0290 
1 -7 13 0.1699 -0.0343 
1 -7 14 -0.1458 0.0039 
1 -7 15 -2.1369 -0.0411 
1 -7 16 -1.6384 0.0206 
1 -7 17 1.5692 0.0428 
1 -7 18 2.6815 -0.0329 
1 -6 0 2.7452 0.3485 
1 -6 1 -2.4041 0.1421 
1 -6 2 -3.2784 -0.0696 
1 -6 3 -1.8162 -0.2279 
1 -6 4 -2.6053 -0.2183 
1 -6 5 -5.1477 -0.0952 
1 -6 6 -3.6499 -0.0056 
1 -6 7 -0.0259 -0.0851 
1 -6 8 0.4847 -0.1327 
1 -6 9 0.6635 0.0092 
1 -6 10 1.7528 0.0564 
1 -6 11 1.0617 0.0129 
1 -6 12 -0.4073 -0.0134 
1 -6 13 -0.4632 -0.0672 
1 -6 14 0.6058 -0.0140 
1 -6 15 0.4878 -0.0257 
1 -6 16 -0.4705 -0.0969 
1 -6 17 0.3174 0.0801 
1 -6 18 0.6923 0.0891 
1 -6 19 -0.8994 -0.1881 
1 -5 0 4.9338 -0.3692 
1 -5 1 0.8817 -0.1387 
1 -5 2 -0.5233 0.1289 
1 -5 3 1.7735 0.2414 
1 -5 4 5.9265 0.2096 
1 -5 5 5.7766 0.1483 
1 -5 6 2.4862 0.1519 
1 -5 7 2.0360 0.1202 
1 -5 8 1.3958 -0.0134 
1 -5 9 -1.1366 -0.0331 
1 -5 10 -1.6708 0.0199 
1 -5 11 -0.5550 0.0110 
1 -5 12 0.3148 0.0059 
1 -5 13 0.5654 -0.0688 
1 -5 14 0.7763 -0.0599 
1 -5 15 1.3518 0.0950 
1 -5 16 1.1749 0.0323 
1 -5 17 1.5682 -0.0385 
1 -5 18 2.7784 0.0950 
1 -5 19 1.0506 -0.0575 
1 -4 0 2.3075 0.3590 
1 -4 1 -1.2046 0.1078 
1 -4 2 2.5325 -0.1370 
1 -4 3 7.9370 -0.2395 
1 -4 4 11.8658 -0.1836 
1 -4 5 13.0518 -0.1212 
1 -4 6 8.3333 -0.0889 
1 -4 7 3.4407 -0.0231 
1 -4 8 1.5516 -0.0150 
1 -4 9 -1.1807 -0.0422 
1 -4 10 -3.1787 -0.0368 
1 -4 11 -2.6152 -0.0479 
1 -4 12 -1.1743 0.0038 
1 -4 13 -0.3407 0.0285 
1 -4 14 -0.9182 -0.0740 
1 -4 15 -1.0565 -0.0334 
1 -4 16 -0.5798 0.0597 
1 -4 17 -0.7582 -0.0381 
1 -4 18 0.2931 -0.0315 
1 -4 19 1.1332 0.1263 
1 -4 20 -0.9826 0.1419 
1 -3 0 21.7735 -0.3229 
1 -3 1 2.5264 -0.0941 
1 -3 2 -9.3865 0.1358 
1 -3 3 -6.0851 0.1961 
1 -3 4 -1.0883 0.2317 
1 -3 5 2.7870 0.2468 
1 -3 6 4.2397 0.1345 
1 -3 7 3.7158 0.0091 
1 -3 8 5.3222 -0.0451 
1 -3 9 5.5813 -0.0319 
1 -3 10 2.7951 0.0426 
1 -3 11 0.3118 0.0452 
1 -3 12 -1.0078 -0.0111 
1 -3 13 -0.9087 0.0146 
1 -3 14 -1.1281 0.0123 
1 -3 15 -2.1398 -0.0346 
1 -3 16 -1.6274 0.0142 
1 -3 17 -1.2429 0.0348 
1 -3 18 -1.2470 -0.0442 
1 -3 19 0.3177 -0.0866 
1 -3 20 1.0047 -0.0700 
1 -2 0 31.8015 0.0112 
1 -2 1 18.0824 -0.0797 
1 -2 2 -14.7705 0.0471 
1 -2 3 -23.3165 -0.0027 
1 -2 4 -13.7466 -0.1967 
1 -2 5 -2.5571 -0.2332 
1 -2 6 5.6807 -0.1260 
1 -2 7 7.4729 0.0133 
1 -2 8 6.3167 0.0651 
1 -2 9 4.3600 -0.0257 
1 -2 10 0.5191 -0.0737 
1 -2 11 -2.0851 0.0103 
1 -2 12 -2.5828 0.0625 
1 -2 13 -0.8302 0.0346 
1 -2 14 2.1840 0.0095 
1 -2 15 2.0558 -0.0199 
1 -2 16 0.2446 -0.0556 
1 -2 17 -0.5126 -0.0505 
1 -2 18 -1.3016 -0.0062 
1 -2 19 -0.5448 0.0283 
1 -2 20 1.5284 0.0035 
1 -1 0 -9.2626 0.4079 
1 -1 1 31.2902 -0.1746 
1 -1 2 19.4999 -0.3597 
1 -1 3 0.9035 -0.1489 
1 -1 4 -1.4064 0.0652 
1 -1 5 -0.4248 0.1656 
1 -1 6 0.0071 0.0974 
1 -1 7 -1.0550 -0.0274 
1 -1 8 -2.7524 -0.0189 
1 -1 9 -1.8370 0.0355 
1 -1 10 -0.8199 0.0169 
1 -1 11 -0.1931 -0.0114 
1 -1 12 -0.3246 -0.0042 
1 -1 13 -1.9222 -0.0181 
1 -1 14 -0.9360 -0.0394 
1 -1 15 1.3930 0.0154 
1 -1 16 1.6439 0.0830 
1 -1 17 1.4330 0.0598 
1 -1 18 0.0262 0.0242 
1 -1 19 -2.1205 0.0673 
1 -1 20 -1.7201 0.1423 
1 0 2 28.3151 0.3061 
1 0 3 7.5776 0.2146 
1 0 4 -6.3070 -0.0090 
1 0 5 -10.2271 -0.1023 
1 0 6 -8.2433 -0.0341 
1 0 7 -2.6804 -0.0047 
1 0 8 1.1403 -0.0033 
1 0 9 4.0854 0.0372 
1 0 10 4.9401 0.0712 
1 0 11 3.2934 0.0445 
1 0 12 2.1436 -0.0073 
1 0 13 -0.6750 -0.0071 
1 0 14 -3.8753 0.0061 
1 0 15 -3.5523 -0.0075 
1 0 16 -1.5504 -0.0193 
1 0 17 1.2214 -0.0513 
1 0 18 2.9460 -0.0625 
1 0 19 0.6620 -0.0001 
1 0 20 -2.3011 -0.0002 
1 1 0 -36.4024 0.0761 
1 1 1 -17.4547 -0.0104 
1 1 2 6.7311 -0.1205 
1 1 3 6.9813 -0.1555 
1 1 4 2.1438 -0.1097 
1 1 5 0.5189 -0.0374 
1 1 6 0.3637 0.0618 
1 1 7 2.1938 0.0956 
1 1 8 1.3472 0.0397 
1 1 9 -0.0416 -0.0354 
1 1 10 0.6751 -0.0570 
1 1 11 0.1295 -0.0149 
1 1 12 1.0102 -0.0193 
1 1 13 3.6250 -0.0701 
1 1 14 3.1187 -0.0461 
1 1 15 0.7549 0.0477 
1 1 16 -0.6757 0.1253 
1 1 17 0.2280 0.1097 
1 1 18 2.7553 0.0545 
1 1 19 2.0804 0.1750 
1 2 0 -11.4025 -0.0647 
1 2 1 -6.8662 0.0242 
1 2 2 12.0579 0.0652 
1 2 3 19.0411 0.0340 
1 2 4 15.1815 0.0708 
1 2 5 7.2101 0.0924 
1 2 6 -1.5287 0.0150 
1 2 7 -4.2750 -0.0710 
1 2 8 -4.5638 -0.0422 
1 2 9 -4.7912 0.0524 
1 2 10 -1.0538 0.0434 
1 2 11 1.2585 -0.0289 
1 2 12 -0.2243 -0.0405 
1 2 13 0.6074 -0.0221 
1 2 14 2.7656 0.0073 
1 2 15 2.4896 0.0632 
1 2 16 0.7578 0.1118 
1 2 17 0.2601 0.0898 
1 2 18 2.0663 -0.0608 
1 2 19 2.3944 -0.1587 
1 3 0 -4.5722 -0.0247 
1 3 1 -9.3675 0.0569 
1 3 2 -5.9634 0.0871 
1 3 3 -2.0563 -0.0412 
1 3 4 0.9830 -0.1235 
1 3 5 2.4153 -0.0561 
1 3 6 -0.5458 0.0028 
1 3 7 -1.2293 -0.0291 
1 3 8 0.7262 -0.0743 
1 3 9 0.0148 -0.0441 
1 3 10 0.9933 -0.0110 
1 3 11 3.2765 -0.0624 
1 3 12 0.6919 -0.0853 
1 3 13 -2.5568 -0.0141 
1 3 14 -1.6617 0.0502 
1 3 15 -0.1305 0.0513 
1 3 16 -0.6710 0.0082 
1 3 17 -1.1140 -0.0322 
1 3 18 1.2804 -0.0991 
1 4 0 -4.7047 -0.0527 
1 4 1 -13.1200 -0.1440 
1 4 2 -14.9069 -0.0757 
1 4 3 -12.5926 0.0338 
1 4 4 -7.0764 0.0907 
1 4 5 -0.3136 0.0792 
1 4 6 1.1460 -0.0074 
1 4 7 0.1594 -0.0480 
1 4 8 0.7552 0.0185 
1 4 9 -0.9517 0.0837 
1 4 10 -2.6462 0.0999 
1 4 11 -0.1957 0.0529 
1 4 12 1.6202 -0.0241 
1 4 13 0.6172 -0.0140 
1 4 14 0.4512 0.0523 
1 4 15 0.9752 0.0615 
1 4 16 -0.6671 -0.0053 
1 4 17 -3.6635 -0.1031 
1 4 18 -3.9137 -0.1455 
1 5 0 3.8157 0.1315 
1 5 1 0.0457 0.2566 
1 5 2 -1.8766 0.2155 
1 5 3 -2.5388 0.0750 
1 5 4 -2.7965 -0.0140 
1 5 5 -1.8776 -0.0005 
1 5 6 -2.2871 -0.0062 
1 5 7 -2.6621 -0.0467 
1 5 8 -0.3025 -0.0169 
1 5 9 0.6348 -0.0124 
1 5 10 -1.3945 -0.0587 
1 5 11 -2.3306 -0.0142 
1 5 12 -1.5272 0.0508 
1 5 13 -0.9609 0.0513 
1 5 14 -0.8997 0.0236 
1 5 15 -0.8056 -0.0430 
1 5 16 -1.0578 -0.1086 
1 5 17 -2.4225 -0.1428 
1 6 0 4.9033 -0.1555 
1 6 1 4.4421 -0.2728 
1 6 2 1.9445 -0.2408 
1 6 3 0.1769 -0.1215 
1 6 4 -0.5815 -0.0177 
1 6 5 -0.6819 0.0048 
1 6 6 -1.7266 -0.0304 
1 6 7 -2.4235 -0.0714 
1 6 8 -0.5452 -0.0188 
1 6 9 1.1665 0.0471 
1 6 10 0.8655 -0.0337 
1 6 11 -0.2559 -0.0874 
1 6 12 -1.2433 -0.0313 
1 6 13 -0.6904 -0.0190 
1 6 14 0.3684 -0.0176 
1 6 15 -0.3987 -0.0160 
1 6 16 -1.6025 -0.0783 
1 7 0 1.4517 0.1752 
1 7 1 1.8868 0.2743 
1 7 2 0.9083 0.2122 
1 7 3 0.2183 0.1067 
1 7 4 0.7253 0.0774 
1 7 5 1.5151 0.0354 
1 7 6 0.8150 0.0133 
1 7 7 -0.2204 0.0635 
1 7 8 0.5473 0.0905 
1 7 9 1.2560 0.0788 
1 7 10 1.8792 0.0039 
1 7 11 3.2017 -0.0278 
1 7 12 1.9895 0.0924 
1 7 13 -0.2329 0.1201 
1 7 14 0.4554 -0.0245 
1 8 0 -0.5713 -0.1324 
1 8 1 1.0060 -0.2272 
1 8 2 1.7347 -0.2395 
1 8 3 1.0255 -0.2228 
1 8 4 0.9207 -0.0678 
1 8 5 1.9918 0.0314 
1 8 6 2.4613 -0.0255 
1 8 7 2.1760 0.0155 
1 8 8 2.3888 0.0417 
1 8 9 0.7565 -0.0535 
1 8 10 -1.8113 -0.0839 
1 8 11 -0.0110 -0.0238 
1 8 12 2.4217 0.0873 
1 8 13 0.4727 0.0906 
1 9 0 -1.7621 0.1259 
1 9 1 -1.2577 0.1419 
1 9 2 0.8185 0.2112 
1 9 3 0.9271 0.1176 
1 9 4 0.0364 0.0513 
1 9 5 0.3542 0.1079 
1 9 6 0.4169 0.0183 
1 9 7 -1.0727 0.0334 
1 9 8 -1.7327 0.1735 
1 9 9 -1.9233 0.0869 
1 9 10 -3.6722 0.0733 
1 9 11 -2.4425 0.3106 
1 10 0 -0.9800 0.0542 
1 10 1 -2.8986 -0.1311 
1 10 2 -0.6175 -0.0657 
1 10 3 1.0003 -0.0113 
1 10 4 -0.4223 -0.1216 
1 10 5 -0.6608 -0.0284 
1 10 6 1.5625 0.0196 
1 10 7 2.3361 -0.0284 
1 10 8 0.7020 0.0704 
1 10 9 -0.6408 -0.0976 
1 11 0 2.1206 0.0023 
1 11 1 -0.6643 -0.1033 
1 11 2 0.3735 -0.0305 
1 11 3 3.3291 0.2112 
1 11 4 2.1358 0.0398 
1 11 5 -1.0463 -0.1839 
1 11 6 -0.6984 -0.2088 
1 11 7 2.1236 -0.2660 
1 12 0 2.0926 0.0154 
1 12 1 0.3072 0.2534 
1 12 2 -0.5073 0.2024 
1 12 3 1.9570 0.3247 
1 12 4 3.0456 0.3047 
2 -13 0 0.1523 0.3863 
2 -13 1 -0.5277 0.3326 
2 -13 2 -0.4405 0.1086 
2 -13 3 1.2404 0.0013 
2 -13 4 3.2296 -0.0123 
2 -13 5 3.3786 -0.0035 
2 -13 6 1.7392 -0.0613 
2 -12 0 0.3606 -0.0758 
2 -12 1 -0.1383 -0.0145 
2 -12 2 -0.9404 -0.0475 
2 -12 3 -0.9384 -0.0509 
2 -12 4 -0.0065 -0.0235 
2 -12 5 0.8164 -0.0127 
2 -12 6 0.8191 -0.0088 
2 -12 7 0.2446 -0.0348 
2 -12 8 -0.4660 -0.0149 
2 -12 9 0.2529 0.1435 
2 -12 10 2.0053 0.0769 
2 -11 0 0.1807 0.0852 
2 -11 1 -0.0326 0.1713 
2 -11 2 -0.5069 0.1564 
2 -11 3 -1.0467 0.0563 
2 -11 4 -1.2974 -0.0472 
2 -11 5 -0.8843 -0.0812 
2 -11 6 -0.4457 -0.0765 
2 -11 7 -0.5349 -0.0682 
2 -11 8 -1.3412 -0.0816 
2 -11 9 -1.5841 -0.0539 
2 -11 10 0.3039 0.0041 
2 -11 11 1.9352 -0.0221 
2 -11 12 1.7678 0.1123 
2 -11 13 1.6528 0.1181 
2 -10 0 0.6576 -0.0737 
2 -10 1 0.8306 -0.2290 
2 -10 2 1.0953 -0.2502 
2 -10 3 1.3105 -0.1162 
2 -10 4 1.0950 -0.0162 
2 -10 5 0.8834 0.0349 
2 -10 6 0.7618 0.0364 
2 -10 7 0.6437 -0.0291 
2 -10 8 0.6559 -0.0351 
2 -10 9 0.1943 -0.0181 
2 -10 10 0.3017 -0.0257 
2 -10 11 1.4707 -0.0860 
2 -10 12 1.8916 -0.0776 
2 -10 13 1.3910 0.0101 
2 -10 14 0.2238 -0.2334 
2 -10 15 -0.9016 -0.2282 
2 -9 0 2.1399 0.1307 
2 -9 1 3.4819 0.2520 
2 -9 2 3.9913 0.1848 
2 -9 3 2.7019 0.1315 
2 -9 4 0.3388 0.0652 
2 -9 5 -1.3692 -0.0183 
2 -9 6 -2.0356 -0.0039 
2 -9 7 -2.3824 -0.0364 
2 -9 8 -0.9463 -0.0556 
2 -9 9 1.6040 -0.0109 
2 -9 10 1.9936 -0.0448 
2 -9 11 0.8652 -0.0693 
2 -9 12 0.6102 -0.0189 
2 -9 13 1.1764 0.1197 
2 -9 14 0.5772 0.0663 
2 -9 15 -0.9319 -0.1353 
2 -9 16 0.4323 0.0866 
2 -8 0 0.1125 -0.1851 
2 -8 1 -2.3972 -0.2134 
2 -8 2 -1.8365 -0.2346 
2 -8 3 -0.0387 -0.1772 
2 -8 4 0.7278 -0.0246 
2 -8 5 0.9082 0.0329 
2 -8 6 1.5790 0.0813 
2 -8 7 0.4715 0.0709 
2 -8 8 -1.8107 -0.0034 
2 -8 9 -1.0433 0.0720 
2 -8 10 0.5547 0.0715 
2 -8 11 -0.8444 -0.0599 
2 -8 12 -2.3229 -0.0888 
2 -8 13 -0.6958 -0.0043 
2 -8 14 1.0271 0.0846 
2 -8 15 -0.9715 -0.0251 
2 -8 16 -2.8651 0.0448 
2 -8 17 -0.6789 0.2723 
2 -7 0 1.8055 0.0754 
2 -7 1 2.0746 0.1743 
2 -7 2 2.3856 0.2308 
2 -7 3 3.6933 0.1569 
2 -7 4 3.6298 0.0858 
2 -7 5 0.3796 -0.0155 
2 -7 6 -2.3113 -0.0814 
2 -7 7 -2.2507 -0.0595 
2 -7 8 -2.7049 -0.1112 
2 -7 9 -2.2051 -0.0360 
2 -7 10 1.1475 0.1145 
2 -7 11 2.4926 0.0388 
2 -7 12 0.3392 -0.0483 
2 -7 13 -0.8677 -0.0337 
2 -7 14 -0.0598 0.0366 
2 -7 15 -1.2311 0.0255 
2 -7 16 -4.4261 -0.1188 
2 -7 17 -4.1068 0.0894 
2 -7 18 -1.1631 0.2751 
2 -6 0 1.1696 0.0110 
2 -6 1 3.1580 -0.0572 
2 -6 2 0.4003 -0.0994 
2 -6 3 -3.6458 -0.1183 
2 -6 4 -4.2309 -0.0757 
2 -6 5 -3.4448 -0.0000 
2 -6 6 -4.0683 0.0309 
2 -6 7 -2.1473 0.0913 
2 -6 8 1.0290 0.0306 
2 -6 9 1.0653 -0.0920 
2 -6 10 0.7208 -0.0308 
2 -6 11 1.0317 0.0050 
2 -6 12 -0.3497 -0.0025 
2 -6 13 -1.9667 0.0222 
2 -6 14 -1.6537 -0.0163 
2 -6 15 -0.7664 0.0164 
2 -6 16 -1.7339 -0.0551 
2 -6 17 -2.3889 -0.1800 
2 -6 18 0.2691 0.0810 
2 -5 0 -7.0987 -0.0119 
2 -5 1 -6.6867 0.0216 
2 -5 2 -5.7508 0.0471 
2 -5 3 -6.9761 0.0762 
2 -5 4 -6.7089 0.0697 
2 -5 5 -1.9385 0.0260 
2 -5 6 0.3964 -0.0864 
2 -5 7 -0.2445 -0.1153 
2 -5 8 1.4909 -0.0230 
2 -5 9 2.3252 0.0233 
2 -5 10 0.7971 0.0684 
2 -5 11 0.4372 0.0386 
2 -5 12 0.7723 -0.0610 
2 -5 13 0.5759 -0.0230 
2 -5 14 -0.0249 -0.0161 
2 -5 15 -0.3854 0.0085 
2 -5 16 -0.3664 0.1693 
2 -5 17 -1.1285 0.0746 
2 -5 18 -0.9835 -0.1050 
2 -5 19 1.2407 -0.0169 
2 -4 0 -1.2429 0.0790 
2 -4 1 -0.7376 0.1602 
2 -4 2 -0.3820 0.0912 
2 -4 3 -0.4296 -0.0377 
2 -4 4 -3.0570 -0.0859 
2 -4 5 -2.5135 0.0150 
2 -4 6 -0.2499 0.1102 
2 -4 7 -2.4492 0.0793 
2 -4 8 -3.5733 0.0094 
2 -4 9 -1.2051 -0.0436 
2 -4 10 0.2129 -0.0036 
2 -4 11 1.5081 0.0636 
2 -4 12 3.3201 -0.0059 
2 -4 13 4.4093 -0.0341 
2 -4 14 3.9360 -0.0081 
2 -4 15 1.4091 -0.0854 
2 -4 16 0.1068 -0.0353 
2 -4 17 0.9388 0.0712 
2 -4 18 0.9653 -0.0316 
2 -4 19 0.9716 -0.1115 
2 -3 0 4.2502 -0.2183 
2 -3 1 12.9456 -0.3396 
2 -3 2 10.4355 -0.1883 
2 -3 3 5.1469 0.0179 
2 -3 4 -1.1051 0.0402 
2 -3 5 -5.8034 -0.0409 
2 -3 6 -4.0402 -0.0802 
2 -3 7 -2.3740 -0.0487 
2 -3 8 -2.7263 0.0201 
2 -3 9 -0.6043 0.0222 
2 -3 10 1.2110 -0.0317 
2 -3 11 1.3760 -0.0222 
2 -3 12 0.9626 -0.0038 
2 -3 13 0.2418 0.0026 
2 -3 14 1.2495 0.0587 
2 -3 15 1.6691 0.0536 
2 -3 16 0.2214 0.0048 
2 -3 17 0.8173 0.0215 
2 -3 18 2.2244 0.0260 
2 -3 19 2.0459 0.0421 
2 -2 0 -16.6744 0.2723 
2 -2 1 -5.5654 0.2599 
2 -2 2 -0.7114 0.1367 
2 -2 3 -2.6622 0.1107 
2 -2 4 -2.7410 0.0825 
2 -2 5 -2.8241 0.0633 
2 -2 6 0.1456 0.0702 
2 -2 7 4.5163 0.0494 
2 -2 8 4.0677 0.0517 
2 -2 9 1.9214 0.0688 
2 -2 10 0.2886 0.0159 
2 -2 11 -0.5316 -0.0588 
2 -2 12 0.1119 -0.0557 
2 -2 13 -1.1016 0.0024 
2 -2 14 -1.9788 0.0168 
2 -2 15 0.0995 -0.0310 
2 -2 16 0.4952 -0.0432 
2 -2 17 -0.1675 -0.0113 
2 -2 18 0.6931 -0.0518 
2 -2 19 0.6064 -0.0912 
2 -1 0 -30.6542 -0.0456 
2 -1 1 -25.0198 -0.1722 
2 -1 2 -5.9907 -0.2569 
2 -1 3 2.5836 -0.1768 
2 -1 4 4.9411 -0.0975 
2 -1 5 2.7232 -0.0610 
2 -1 6 -1.9178 0.0138 
2 -1 7 -2.9389 0.0048 
2 -1 8 -3.0251 -0.0814 
2 -1 9 -3.0193 -0.0862 
2 -1 10 -1.8853 -0.0106 
2 -1 11 -0.6721 0.0185 
2 -1 12 2.5252 -0.0298 
2 -1 13 3.8853 -0.0250 
2 -1 14 0.3426 0.0367 
2 -1 15 -1.5980 0.0178 
2 -1 16 -1.1862 -0.0096 
2 -1 17 -1.1630 0.0639 
2 -1 18 0.4726 0.1117 
2 -1 19 1.9143 0.0655 
2 0 0 6.9575 -0.1508 
2 0 1 -4.7729 0.0319 
2 0 2 0.0643 0.1897 
2 0 3 1.9633 0.2807 
2 0 4 -1.4597 0.2153 
2 0 5 -4.7033 0.0086 
2 0 6 -7.6913 -0.0653 
2 0 7 -6.5609 0.0110 
2 0 8 -3.5251 0.0519 
2 0 9 -2.2860 0.0227 
2 0 10 -1.1618 -0.0210 
2 0 11 -1.5862 -0.0114 
2 0 12 -1.5376 0.0264 
2 0 13 1.2590 0.0592 
2 0 14 1.4975 0.1166 
2 0 15 -0.3338 0.1226 
2 0 16 -0.6493 0.0564 
2 0 17 -0.9431 0.0223 
2 0 18 0.1616 0.0132 
2 0 19 2.9449 0.0568 
2 1 0 4.5385 0.1347 
2 1 1 -8.5868 0.0160 
2 1 2 -9.8710 -0.1551 
2 1 3 -3.2501 -0.2545 
2 1 4 2.3488 -0.1901 
2 1 5 6.4225 -0.0676 
2 1 6 6.3075 0.0177 
2 1 7 4.9936 0.0247 
2 1 8 4.0748 -0.0371 
2 1 9 0.2877 -0.0524 
2 1 10 -2.2559 -0.0284 
2 1 11 -2.2426 -0.0154 
2 1 12 -3.3650 0.0245 
2 1 13 -3.1982 0.0440 
2 1 14 -1.5347 -0.0103 
2 1 15 -0.8376 -0.0960 
2 1 16 0.0330 -0.1262 
2 1 17 0.4028 -0.0552 
2 1 18 0.3016 -0.0248 
2 1 19 1.0256 -0.1243 
2 2 0 -2.0640 -0.1228 
2 2 1 -0.7234 -0.0621 
2 2 2 0.5208 0.0890 
2 2 3 4.1296 0.1944 
2 2 4 6.8160 0.1475 
2 2 5 8.7826 0.0446 
2 2 6 6.7927 -0.0057 
2 2 7 2.3758 -0.0092 
2 2 8 0.7487 -0.0263 
2 2 9 -1.1863 -0.0139 
2 2 10 -2.7892 0.0362 
2 2 11 0.3575 0.0161 
2 2 12 3.0817 -0.0319 
2 2 13 1.6355 -0.0013 
2 2 14 -0.4643 0.0466 
2 2 15 -1.5806 0.0314 
2 2 16 -1.8271 -0.0007 
2 2 17 -1.7974 0.0302 
2 2 18 -1.5139 0.0737 
2 3 0 13.4738 0.2426 
2 3 1 13.5373 0.1011 
2 3 2 8.7247 -0.0931 
2 3 3 2.8184 -0.1108 
2 3 4 -1.6828 -0.0480 
2 3 5 -1.2185 -0.0034 
2 3 6 0.9797 0.0223 
2 3 7 0.9360 0.0292 
2 3 8 1.9860 0.0329 
2 3 9 2.7079 0.0344 
2 3 10 -0.0407 0.0379 
2 3 11 -1.1985 0.0346 
2 3 12 0.6527 0.0103 
2 3 13 0.7627 0.0016 
2 3 14 -0.3652 0.0119 
2 3 15 0.4399 0.0165 
2 3 16 2.1820 0.0541 
2 3 17 1.8349 0.1056 
2 3 18 -0.1758 0.0578 
2 4 0 2.4636 -0.0781 
2 4 1 3.2057 -0.0167 
2 4 2 2.3356 0.0012 
2 4 3 0.9833 0.0314 
2 4 4 -0.5165 0.0338 
2 4 5 0.0437 -0.0132 
2 4 6 1.6737 -0.0359 
2 4 7 1.0504 -0.0609 
2 4 8 0.6960 -0.0648 
2 4 9 1.8646 -0.0240 
2 4 10 0.6491 -0.0392 
2 4 11 -2.0474 -0.0688 
2 4 12 -2.0115 -0.0031 
2 4 13 -0.1680 0.0978 
2 4 14 0.9186 0.1255 
2 4 15 2.3889 0.0587 
2 4 16 5.1310 0.0196 
2 4 17 5.8741 0.1129 
2 5 0 -4.8345 0.0058 
2 5 1 -1.9119 0.0149 
2 5 2 0.2904 -0.0046 
2 5 3 0.8772 -0.0026 
2 5 4 0.1186 -0.0037 
2 5 5 -0.3638 -0.0405 
2 5 6 -0.6975 -0.0029 
2 5 7 -2.4885 0.0594 
2 5 8 -3.1941 0.0503 
2 5 9 -0.7403 0.0781 
2 5 10 1.7596 0.0971 
2 5 11 1.4176 0.0438 
2 5 12 -0.6441 0.0560 
2 5 13 -1.5383 0.0947 
2 5 14 -1.0297 0.0490 
2 5 15 -0.5141 -0.0144 
2 5 16 1.1138 -0.0105 
2 6 0 -1.2709 0.0165 
2 6 1 0.1553 -0.0130 
2 6 2 1.2360 -0.0328 
2 6 3 0.3693 0.0035 
2 6 4 -1.2829 0.0540 
2 6 5 -1.1227 0.0055 
2 6 6 0.3945 -0.0654 
2 6 7 0.0051 -0.0557 
2 6 8 -1.4574 -0.0664 
2 6 9 -1.6356 -0.0421 
2 6 10 -0.6455 0.0426 
2 6 11 0.9898 0.0195 
2 6 12 1.0605 -0.0079 
2 6 13 -0.8302 0.0485 
2 6 14 -1.4748 0.0617 
2 6 15 -1.1794 0.0956 
2 7 0 -0.8793 -0.0789 
2 7 1 -1.1742 -0.0111 
2 7 2 0.3852 0.0344 
2 7 3 0.8239 0.0397 
2 7 4 -0.6822 0.0254 
2 7 5 -1.5565 0.0069 
2 7 6 -0.4801 -0.0006 
2 7 7 0.0327 0.0909 
2 7 8 -0.3713 0.1565 
2 7 9 -0.6247 0.0917 
2 7 10 -1.7451 0.0477 
2 7 11 -1.4175 -0.0006 
2 7 12 1.0480 -0.0232 
2 7 13 0.8955 0.1116 
2 7 14 -1.1669 0.2092 
2 8 0 -0.8568 0.1534 
2 8 1 -2.5476 0.0356 
2 8 2 -1.2436 -0.0175 
2 8 3 0.5614 0.0189 
2 8 4 0.3540 0.0569 
2 8 5 0.0599 0.1022 
2 8 6 1.5884 0.0685 
2 8 7 2.4351 -0.0125 
2 8 8 1.3636 -0.0105 
2 8 9 0.7417 -0.0181 
2 8 10 -0.6957 -0.0106 
2 8 11 -2.6005 0.0108 
2 8 12 -0.4045 -0.0685 
2 9 0 3.0132 -0.1208 
2 9 1 0.2141 -0.0848 
2 9 2 -0.4120 -0.0441 
2 9 3 1.5241 0.0090 
2 9 4 1.5132 -0.0811 
2 9 5 -0.1270 -0.1294 
2 9 6 0.2909 -0.0228 
2 9 7 1.6443 -0.0079 
2 9 8 0.3742 -0.0411 
2 9 9 -1.1073 -0.0737 
2 9 10 -0.5314 -0.1454 
2 9 11 -0.4439 -0.1420 
2 10 0 1.8507 0.2038 
2 10 1 0.2764 0.0544 
2 10 2 -2.4809 -0.1197 
2 10 3 -1.5117 -0.0522 
2 10 4 -0.0143 0.0126 
2 10 5 -1.0231 -0.0641 
2 10 6 -1.2673 0.0254 
2 10 7 1.2788 0.1024 
2 10 8 2.2436 0.0619 
2 10 9 -0.5091 0.1346 
2 11 0 -0.8390 -0.1009 
2 11 1 0.7226 0.0909 
2 11 2 -1.1881 0.0967 
2 11 3 -1.9334 0.0040 
2 11 4 -0.2959 -0.0240 
2 11 5 0.1462 -0.1607 
2 11 6 -0.7106 -0.1028 
2 12 0 -1.5651 -0.1318 
2 12 1 -0.1385 -0.1570 
2 12 2 -0.2842 0.0407 
3 -13 0 -1.0149 -0.2740 
3 -13 1 -0.9893 -0.0855 
3 -13 2 -1.5621 -0.1925 
3 -13 3 -2.4310 -0.2901 
3 -13 4 -2.4322 -0.2199 
3 -13 5 -1.8838 -0.1456 
3 -12 0 0.9178 -0.0592 
3 -12 1 0.0336 0.0335 
3 -12 2 -0.6930 0.0695 
3 -12 3 -0.9803 0.0441 
3 -12 4 -1.0159 0.0778 
3 -12 5 -0.3827 0.0467 
3 -12 6 0.7272 -0.0174 
3 -12 7 1.7498 -0.0005 
3 -12 8 1.8784 0.0067 
3 -12 9 0.2652 -0.0494 
3 -12 10 -1.0576 -0.0359 
3 -11 0 1.7093 -0.0494 
3 -11 1 1.1864 -0.0508 
3 -11 2 -0.4981 -0.0900 
3 -11 3 -1.2320 -0.1344 
3 -11 4 -1.2733 -0.0798 
3 -11 5 -1.4315 -0.0504 
3 -11 6 -0.7583 -0.0559 
3 -11 7 0.9300 -0.0355 
3 -11 8 2.3879 0.0017 
3 -11 9 1.5634 0.0127 
3 -11 10 -0.5333 0.0457 
3 -11 11 -0.5699 0.0413 
3 -11 12 0.7241 -0.0871 
3 -10 0 -1.6800 0.0263 
3 -10 1 -0.9789 0.0599 
3 -10 2 -1.5120 0.0283 
3 -10 3 -1.7441 -0.0201 
3 -10 4 -0.4698 0.0602 
3 -10 5 0.3257 0.0596 
3 -10 6 -0.0658 -0.0275 
3 -10 7 -0.7300 -0.0614 
3 -10 8 -0.3322 -0.0859 
3 -10 9 0.7639 -0.0783 
3 -10 10 0.4112 -0.0395 
3 -10 11 -0.2551 0.0064 
3 -10 12 0.8008 -0.0711 
3 -10 13 2.4471 -0.0848 
3 -10 14 2.3677 0.1012 
3 -9 0 1.7865 -0.1253 
3 -9 1 2.6838 -0.0155 
3 -9 2 2.2283 0.0752 
3 -9 3 0.5879 0.0142 
3 -9 4 -0.2584 0.0436 
3 -9 5 -0.0560 0.0601 
3 -9 6 0.5548 -0.0270 
3 -9 7 0.4808 0.0285 
3 -9 8 -0.4267 0.0837 
3 -9 9 0.4666 0.0473 
3 -9 10 2.3535 0.0122 
3 -9 11 1.7181 -0.0231 
3 -9 12 -0.1551 -0.0312 
3 -9 13 0.3441 -0.0264 
3 -9 14 2.5567 0.1214 
3 -9 15 1.6166 0.0511 
3 -8 0 1.6493 0.1750 
3 -8 1 1.1465 0.0119 
3 -8 2 -0.3160 -0.0500 
3 -8 3 -1.0414 -0.1027 
3 -8 4 -0.1070 -0.0441 
3 -8 5 1.3217 0.0663 
3 -8 6 2.5490 -0.0660 
3 -8 7 3.6507 -0.1376 
3 -8 8 2.3140 -0.0470 
3 -8 9 -0.1904 -0.0198 
3 -8 10 0.2172 0.0496 
3 -8 11 1.2205 0.0840 
3 -8 12 -0.2887 0.0296 
3 -8 13 -0.7140 -0.0328 
3 -8 14 3.3785 -0.0175 
3 -8 15 7.0649 0.0519 
3 -8 16 4.5277 -0.2388 
3 -8 17 0.8194 -0.2858 
3 -7 0 -2.3453 -0.1310 
3 -7 1 2.2831 -0.0310 
3 -7 2 5.1425 0.0450 
3 -7 3 5.0137 0.0590 
3 -7 4 3.9175 0.0120 
3 -7 5 2.4434 0.0673 
3 -7 6 -0.5469 0.0181 
3 -7 7 -2.1033 -0.0575 
3 -7 8 -1.1359 0.0755 
3 -7 9 -0.9750 0.1050 
3 -7 10 -0.3862 0.0361 
3 -7 11 1.7655 0.0157 
3 -7 12 1.5995 -0.0328 
3 -7 13 -0.9417 -0.0193 
3 -7 14 -0.8219 0.0183 
3 -7 15 2.5604 0.1406 
3 -7 16 3.1951 0.1723 
3 -7 17 0.0806 -0.1307 
3 -6 0 2.0016 0.2125 
3 -6 1 5.0988 0.1210 
3 -6 2 7.4884 -0.0446 
3 -6 3 4.8413 -0.1022 
3 -6 4 -0.8624 -0.1060 
3 -6 5 -3.3003 -0.0351 
3 -6 6 -3.4633 0.0138 
3 -6 7 -3.8381 -0.0856 
3 -6 8 -1.3351 -0.0618 
3 -6 9 2.2067 0.0277 
3 -6 10 3.0446 0.0216 
3 -6 11 3.0860 0.0363 
3 -6 12 2.6955 -0.0167 
3 -6 13 0.5650 -0.0517 
3 -6 14 -1.4761 -0.0413 
3 -6 15 -1.1413 -0.0935 
3 -6 16 0.3657 0.0222 
3 -6 17 0.0885 0.0564 
3 -6 18 -0.7420 -0.1117 
3 -5 0 -3.7544 -0.2390 
3 -5 1 -3.9073 -0.0975 
3 -5 2 0.3193 -0.0202 
3 -5 3 3.9574 0.0192 
3 -5 4 1.1968 0.0437 
3 -5 5 -2.2640 0.0388 
3 -5 6 -1.1030 0.0825 
3 -5 7 -1.0075 0.0612 
3 -5 8 -2.1367 -0.0060 
3 -5 9 -0.4942 -0.0173 
3 -5 10 0.5726 -0.0177 
3 -5 11 -0.3776 0.0543 
3 -5 12 -0.9376 0.0578 
3 -5 13 -0.4739 -0.0436 
3 -5 14 0.7383 -0.0101 
3 -5 15 1.1340 -0.0240 
3 -5 16 0.5968 -0.0676 
3 -5 17 0.7118 0.0705 
3 -5 18 1.0719 0.0456 
3 -4 0 -8.1870 0.0962 
3 -4 1 -8.1031 0.0841 
3 -4 2 -3.8723 0.0640 
3 -4 3 3.9264 0.0299 
3 -4 4 6.7121 0.0134 
3 -4 5 1.9972 -0.0282 
3 -4 6 -0.3542 -0.0394 
3 -4 7 -0.4406 0.0066 
3 -4 8 -3.4684 0.0210 
3 -4 9 -4.5017 -0.0076 
3 -4 10 -2.1291 -0.0497 
3 -4 11 -0.3443 -0.0018 
3 -4 12 0.1030 0.0799 
3 -4 13 -0.5694 0.0115 
3 -4 14 -0.3314 -0.0044 
3 -4 15 0.5421 0.0896 
3 -4 16 -1.4333 0.0449 
3 -4 17 -3.7300 -0.0179 
3 -4 18 -2.8051 -0.0268 
3 -4 19 -0.6923 -0.0228 
3 -3 0 2.8293 -0.0627 
3 -3 1 -0.0903 -0.1293 
3 -3 2 -1.3520 -0.1374 
3 -3 3 0.4031 -0.0379 
3 -3 4 3.6392 0.0696 
3 -3 5 0.8260 0.0831 
3 -3 6 -3.2711 0.0159 
3 -3 7 -2.0627 -0.0407 
3 -3 8 -1.3070 -0.0443 
3 -3 9 -1.8792 -0.0216 
3 -3 10 -0.6110 -0.0169 
3 -3 11 0.7304 -0.0225 
3 -3 12 1.8920 -0.0050 
3 -3 13 1.2169 -0.0242 
3 -3 14 -1.3625 -0.0642 
3 -3 15 -1.1364 -0.0439 
3 -3 16 -0.3254 -0.0300 
3 -3 17 -2.1359 -0.0265 
3 -3 18 -2.5342 -0.0477 
3 -3 19 -0.5919 -0.1470 
3 -2 0 18.3450 0.1061 
3 -2 1 4.9182 0.2044 
3 -2 2 -3.5005 0.1295 
3 -2 3 -6.4987 0.0139 
3 -2 4 -2.2433 -0.0593 
3 -2 5 2.6276 -0.0908 
3 -2 6 2.5827 -0.0303 
3 -2 7 2.6612 0.0493 
3 -2 8 2.4948 0.0461 
3 -2 9 0.2773 -0.0071 
3 -2 10 -1.0300 -0.0169 
3 -2 11 -2.2367 0.0364 
3 -2 12 -1.3782 0.0646 
3 -2 13 2.5163 0.0545 
3 -2 14 2.9209 0.0795 
3 -2 15 1.0206 0.0728 
3 -2 16 1.0166 -0.0379 
3 -2 17 -0.3416 -0.0750 
3 -2 18 -2.1960 0.0383 
3 -2 19 -1.2304 0.0494 
3 -1 0 4.3226 -0.0787 
3 -1 1 0.2165 -0.1239 
3 -1 2 -0.9798 -0.1116 
3 -1 3 1.0448 -0.0391 
3 -1 4 4.7197 0.0932 
3 -1 5 8.6072 0.1072 
3 -1 6 7.8851 0.0315 
3 -1 7 4.8644 -0.0129 
3 -1 8 2.2825 -0.0368 
3 -1 9 -0.7092 -0.0342 
3 -1 10 -1.3439 0.0012 
3 -1 11 -1.8164 0.0563 
3 -1 12 -3.8109 0.0493 
3 -1 13 -1.2670 -0.0637 
3 -1 14 2.6765 -0.0874 
3 -1 15 2.0570 0.0303 
3 -1 16 0.9450 0.0544 
3 -1 17 -0.1051 -0.0138 
3 -1 18 -2.9677 0.0114 
3 -1 19 -4.2849 0.0547 
3 0 0 -1.3575 -0.0797 
3 0 1 3.3315 0.0331 
3 0 2 0.5874 0.0898 
3 0 3 -3.0899 -0.0176 
3 0 4 -5.8726 -0.1175 
3 0 5 -5.6529 -0.1366 
3 0 6 -4.0395 -0.1048 
3 0 7 -1.7196 -0.0223 
3 0 8 1.6457 0.0254 
3 0 9 2.4224 0.0318 
3 0 10 2.3972 0.0285 
3 0 11 3.3828 -0.0034 
3 0 12 0.6657 -0.0206 
3 0 13 -2.3507 -0.0275 
3 0 14 -1.2844 -0.0215 
3 0 15 -1.0970 0.0257 
3 0 16 -1.4803 0.0164 
3 0 17 0.4268 -0.0511 
3 0 18 1.3361 -0.0661 
3 1 0 -6.2140 0.0425 
3 1 1 -7.3383 0.0555 
3 1 2 -10.3413 0.0755 
3 1 3 -12.1802 0.0706 
3 1 4 -11.4556 0.0600 
3 1 5 -7.9816 0.0721 
3 1 6 -3.8825 0.0757 
3 1 7 -1.2534 0.0720 
3 1 8 1.2296 0.0292 
3 1 9 1.4084 -0.0327 
3 1 10 -1.1033 -0.0222 
3 1 11 -0.8011 -0.0057 
3 1 12 0.9004 -0.0389 
3 1 13 0.6065 -0.0452 
3 1 14 1.0351 -0.0073 
3 1 15 0.9908 0.0179 
3 1 16 -0.8582 -0.0162 
3 1 17 -0.4820 -0.0386 
3 1 18 2.3161 0.0526 
3 2 0 -11.0960 -0.1168 
3 2 1 -7.0186 -0.0814 
3 2 2 -1.5681 -0.0949 
3 2 3 1.4257 -0.0975 
3 2 4 1.5141 -0.0453 
3 2 5 0.7068 -0.0188 
3 2 6 0.2864 -0.0518 
3 2 7 -0.9172 -0.0725 
3 2 8 -1.6628 -0.0302 
3 2 9 -1.5829 0.0248 
3 2 10 -3.0497 0.0580 
3 2 11 -3.6169 0.0500 
3 2 12 -0.9982 -0.0021 
3 2 13 1.1405 -0.0118 
3 2 14 1.3035 0.0509 
3 2 15 0.3694 0.0982 
3 2 16 -1.9350 0.1110 
3 2 17 -3.8814 0.1790 
3 2 18 -3.7320 0.2507 
3 3 0 -0.9171 0.0649 
3 3 1 -0.2853 0.1493 
3 3 2 1.3496 0.1345 
3 3 3 1.9961 0.0379 
3 3 4 0.9554 0.0247 
3 3 5 -0.6129 0.0435 
3 3 6 -1.2544 0.0274 
3 3 7 -1.3797 0.0082 
3 3 8 -0.6917 0.0202 
3 3 9 1.4960 0.0724 
3 3 10 2.6698 0.1003 
3 3 11 1.0201 0.0451 
3 3 12 -1.1282 -0.0274 
3 3 13 -2.1907 -0.0009 
3 3 14 -3.0644 0.1076 
3 3 15 -3.6825 0.1207 
3 3 16 -2.8196 -0.0028 
3 3 17 -0.7540 0.0162 
3 4 0 3.3975 -0.1116 
3 4 1 -0.1557 -0.1777 
3 4 2 -1.2944 -0.1364 
3 4 3 -0.7086 -0.0681 
3 4 4 0.5160 0.0149 
3 4 5 2.1632 0.0231 
3 4 6 3.4137 -0.0319 
3 4 7 2.5928 -0.0101 
3 4 8 0.4051 0.0274 
3 4 9 -0.6265 0.0067 
3 4 10 0.0293 -0.0182 
3 4 11 0.4976 -0.0335 
3 4 12 -0.3656 -0.0129 
3 4 13 -0.6608 0.0655 
3 4 14 0.3251 0.1367 
3 4 15 -0.3836 0.1013 
3 4 16 -2.5683 -0.0942 
3 5 0 0.6150 0.1780 
3 5 1 0.1155 0.1877 
3 5 2 1.1963 0.1034 
3 5 3 2.1721 0.0259 
3 5 4 1.4196 0.0214 
3 5 5 0.6077 0.0228 
3 5 6 1.5114 -0.0138 
3 5 7 2.1844 0.0461 
3 5 8 1.0779 0.1225 
3 5 9 -0.5088 0.0495 
3 5 10 -1.1655 -0.0294 
3 5 11 -0.3596 0.0134 
3 5 12 0.0403 0.1250 
3 5 13 -0.7307 0.1850 
3 5 14 0.4608 0.0601 
3 5 15 2.2731 -0.1493 
3 6 0 -2.2452 -0.0963 
3 6 1 -2.4667 -0.0945 
3 6 2 -1.0746 -0.0744 
3 6 3 0.9489 -0.0024 
3 6 4 0.9811 0.0795 
3 6 5 -0.4123 0.0602 
3 6 6 -0.0524 -0.0609 
3 6 7 2.0936 -0.0708 
3 6 8 3.3843 0.0422 
3 6 9 3.0680 0.0413 
3 6 10 1.2587 -0.0055 
3 6 11 -0.2250 0.0419 
3 6 12 0.0742 0.0868 
3 6 13 -0.3102 0.0618 
3 6 14 -0.5617 -0.1049 
3 7 0 0.4049 0.1375 
3 7 1 -1.1822 0.1258 
3 7 2 -1.4223 0.0496 
3 7 3 -0.0943 -0.0428 
3 7 4 0.1472 -0.0747 
3 7 5 -1.3058 -0.0750 
3 7 6 -2.0976 -0.0955 
3 7 7 -0.6725 -0.0660 
3 7 8 1.4362 0.0121 
3 7 9 3.3130 -0.0443 
3 7 10 4.0990 -0.1175 
3 7 11 2.7359 0.0236 
3 7 12 1.5856 0.1684 
3 7 13 1.0487 0.1492 
3 8 0 0.9426 -0.1120 
3 8 1 -0.6215 -0.1713 
3 8 2 -2.3153 -0.0852 
3 8 3 -1.9861 0.0252 
3 8 4 -1.1388 0.0546 
3 8 5 -0.7871 0.0326 
3 8 6 -0.1816 0.0176 
3 8 7 0.9832 0.0238 
3 8 8 0.8646 0.0238 
3 8 9 -0.9804 -0.0624 
3 8 10 -1.8835 -0.0938 
3 8 11 -1.9115 0.2112 
3 9 0 -0.4044 0.1709 
3 9 1 0.5948 0.0239 
3 9 2 0.0239 -0.0334 
3 9 3 -0.3224 -0.0034 
3 9 4 -0.2452 -0.0336 
3 9 5 -0.5884 -0.0970 
3 9 6 -0.7461 -0.0447 
3 9 7 0.1012 0.0853 
3 9 8 1.0186 0.0827 
3 9 9 -0.2468 -0.1164 
3 9 10 -1.9724 -0.3151 
3 10 0 0.8406 -0.1257 
3 10 1 2.2709 -0.1571 
3 10 2 2.8440 -0.0521 
3 10 3 1.1466 0.1091 
3 10 4 -0.9836 0.1401 
3 10 5 -2.1862 0.0514 
3 10 6 -1.8957 0.0251 
3 10 7 -0.6484 0.1482 
3 11 0 -0.4486 -0.1042 
3 11 1 -0.0158 -0.2229 
3 11 2 2.6760 -0.0689 
3 11 3 3.5963 0.1142 
3 11 4 2.0560 0.0101 
3 12 0 2.1842 0.1513 
4 -13 2 1.0014 0.2022 
4 -12 0 -0.0595 -0.0468 
4 -12 1 0.8165 -0.2758 
4 -12 2 0.2691 -0.1725 
4 -12 3 0.6166 -0.0791 
4 -12 4 1.4911 -0.1033 
4 -12 5 -0.1039 -0.0373 
4 -12 6 -2.3525 -0.0320 
4 -12 7 -2.2618 -0.1136 
4 -12 8 -0.1779 -0.0205 
4 -12 9 1.4125 0.1224 
4 -11 0 0.2108 0.1766 
4 -11 1 1.4517 0.1700 
4 -11 2 1.3034 0.1872 
4 -11 3 -0.2971 0.1684 
4 -11 4 0.2703 0.0627 
4 -11 5 0.9134 0.0689 
4 -11 6 -0.8821 0.1045 
4 -11 7 -2.5889 0.0353 
4 -11 8 -1.7596 -0.0333 
4 -11 9 0.7689 -0.0408 
4 -11 10 1.6365 -0.1419 
4 -11 11 0.6106 -0.0916 
4 -11 12 0.5268 0.2613 
4 -10 0 -0.8873 -0.2100 
4 -10 1 -0.3693 -0.2371 
4 -10 2 1.1622 -0.1467 
4 -10 3 0.1678 -0.0695 
4 -10 4 -0.8128 -0.1088 
4 -10 5 0.2824 -0.0804 
4 -10 6 0.6493 -0.0236 
4 -10 7 -0.7961 0.0139 
4 -10 8 -2.6367 0.0812 
4 -10 9 -2.5679 0.1185 
4 -10 10 -0.9067 -0.0055 
4 -10 11 -0.6073 -0.2182 
4 -10 12 -1.3006 -0.1224 
4 -10 13 -1.0019 0.0057 
4 -9 0 -1.0429 0.1088 
4 -9 1 -0.4227 0.1051 
4 -9 2 0.6604 0.1037 
4 -9 3 0.1040 0.1101 
4 -9 4 -1.9372 0.0183 
4 -9 5 -2.6534 0.0213 
4 -9 6 -1.9095 0.0472 
4 -9 7 -0.4778 -0.0279 
4 -9 8 -0.0044 -0.0029 
4 -9 9 -0.9780 0.0530 
4 -9 10 -0.6253 0.0181 
4 -9 11 0.5099 -0.0874 
4 -9 12 -0.5393 -0.0611 
4 -9 13 -3.0732 0.1167 
4 -9 14 -3.6454 0.0405 
4 -9 15 -1.1670 -0.0035 
4 -8 0 -0.4998 -0.1120 
4 -8 1 -1.4071 -0.0819 
4 -8 2 -2.1610 -0.0843 
4 -8 3 -2.6264 -0.0144 
4 -8 4 -2.1499 -0.0116 
4 -8 5 -0.2087 0.0133 
4 -8 6 1.3526 0.1132 
4 -8 7 2.4333 0.0225 
4 -8 8 3.6339 -0.0289 
4 -8 9 2.2446 0.0608 
4 -8 10 -0.5675 0.0436 
4 -8 11 -0.8012 -0.0290 
4 -8 12 0.0903 -0.0416 
4 -8 13 -1.0551 0.0868 
4 -8 14 -3.0270 0.0679 
4 -8 15 -2.0762 -0.1289 
4 -8 16 0.1645 -0.0170 
4 -7 0 -5.2152 -0.0156 
4 -7 1 -3.1267 0.0356 
4 -7 2 0.9245 0.0071 
4 -7 3 3.3057 0.0136 
4 -7 4 3.2118 0.0318 
4 -7 5 3.1456 -0.0548 
4 -7 6 2.6161 -0.0366 
4 -7 7 0.3460 -0.0527 
4 -7 8 -0.2759 -0.1020 
4 -7 9 0.6765 0.0411 
4 -7 10 -0.3385 0.0957 
4 -7 11 -1.4141 -0.0180 
4 -7 12 -0.1871 -0.1155 
4 -7 13 1.2946 -0.0661 
4 -7 14 0.9112 0.1046 
4 -7 15 0.1036 0.0308 
4 -7 16 0.7618 0.0017 
4 -7 17 0.1024 0.2364 
4 -6 0 0.2103 0.0050 
4 -6 1 -0.3119 0.0830 
4 -6 2 1.9293 0.0618 
4 -6 3 4.3510 -0.0313 
4 -6 4 2.7277 0.0319 
4 -6 5 -0.6920 0.0609 
4 -6 6 -1.5501 0.0528 
4 -6 7 -2.0399 0.0750 
4 -6 8 -2.8013 0.0077 
4 -6 9 -0.5942 0.0332 
4 -6 10 2.1311 0.1046 
4 -6 11 1.9934 0.0607 
4 -6 12 0.2752 0.0020 
4 -6 13 -1.1363 -0.0726 
4 -6 14 -1.4462 -0.0031 
4 -6 15 -1.2442 0.1004 
4 -6 16 -0.6301 -0.0169 
4 -6 17 0.3603 0.0737 
4 -5 0 1.0634 -0.0612 
4 -5 1 -2.6204 -0.0755 
4 -5 2 -3.8293 0.0058 
4 -5 3 -0.0969 -0.0246 
4 -5 4 3.4714 -0.0516 
4 -5 5 1.9897 -0.0476 
4 -5 6 0.3566 -0.1048 
4 -5 7 1.2586 -0.0805 
4 -5 8 0.1322 -0.0285 
4 -5 9 -1.7000 -0.0070 
4 -5 10 -0.7523 0.0188 
4 -5 11 0.9311 -0.0088 
4 -5 12 1.1001 0.0080 
4 -5 13 -0.6680 -0.0275 
4 -5 14 -2.1174 -0.1497 
4 -5 15 -1.0147 -0.0681 
4 -5 16 0.4024 0.0328 
4 -5 17 0.7687 -0.0046 
4 -5 18 1.0982 0.0130 
4 -4 0 -0.7699 0.0202 
4 -4 1 -1.2537 -0.0315 
4 -4 2 -2.3656 -0.0404 
4 -4 3 -0.9084 -0.0013 
4 -4 4 3.7875 0.0321 
4 -4 5 4.5098 0.0834 
4 -4 6 0.3874 0.0623 
4 -4 7 -1.1280 0.0141 
4 -4 8 -1.1245 0.0334 
4 -4 9 -3.0874 0.0501 
4 -4 10 -3.7656 0.0360 
4 -4 11 -1.8807 -0.0216 
4 -4 12 1.3529 -0.0283 
4 -4 13 3.4450 0.0488 
4 -4 14 1.8291 0.0019 
4 -4 15 -0.1247 -0.0657 
4 -4 16 -0.1842 0.0056 
4 -4 17 -0.8919 0.0321 
4 -4 18 -1.5610 -0.0819 
4 -3 0 -0.2204 0.0214 
4 -3 1 2.9084 0.0159 
4 -3 2 3.3792 -0.0052 
4 -3 3 1.1681 -0.0017 
4 -3 4 0.8533 -0.0058 
4 -3 5 1.8032 -0.0441 
4 -3 6 -0.7793 -0.0802 
4 -3 7 -2.9492 -0.0858 
4 -3 8 -1.8015 -0.0193 
4 -3 9 -1.2399 0.0640 
4 -3 10 -1.1291 0.0763 
4 -3 11 -1.2097 0.0241 
4 -3 12 -1.6903 -0.0422 
4 -3 13 0.3168 -0.0343 
4 -3 14 1.9397 0.0193 
4 -3 15 0.4163 0.0093 
4 -3 16 -0.3669 -0.0458 
4 -3 17 -0.4776 -0.0574 
4 -3 18 -1.6529 0.0687 
4 -2 0 3.0061 -0.0092 
4 -2 1 1.2031 -0.0205 
4 -2 2 -1.8764 -0.0066 
4 -2 3 -4.9713 -0.0162 
4 -2 4 -6.0466 0.0073 
4 -2 5 -3.0445 0.0440 
4 -2 6 -0.1160 0.0707 
4 -2 7 0.9411 0.0878 
4 -2 8 1.9603 0.0615 
4 -2 9 1.1732 0.0069 
4 -2 10 0.4071 -0.0531 
4 -2 11 1.0544 -0.0626 
4 -2 12 -1.3302 0.0027 
4 -2 13 -3.3698 0.0324 
4 -2 14 -0.7567 0.0096 
4 -2 15 1.2000 0.0151 
4 -2 16 1.6282 -0.0030 
4 -2 17 2.9145 -0.0909 
4 -2 18 2.5725 -0.0584 
4 -1 0 -2.2114 0.0699 
4 -1 1 -2.3815 -0.0462 
4 -1 2 -0.6511 -0.0362 
4 -1 3 1.7714 -0.0066 
4 -1 4 2.7952 -0.0110 
4 -1 5 2.7079 -0.0069 
4 -1 6 1.5542 -0.0169 
4 -1 7 -0.1233 -0.0195 
4 -1 8 -0.0675 -0.0290 
4 -1 9 -0.6552 -0.0443 
4 -1 10 -1.7134 -0.0317 
4 -1 11 1.5237 -0.0225 
4 -1 12 3.9681 0.0080 
4 -1 13 1.3965 0.0268 
4 -1 14 0.5150 -0.0420 
4 -1 15 1.3518 -0.0849 
4 -1 16 0.2938 -0.0368 
4 -1 17 0.7812 0.0077 
4 -1 18 2.6944 0.0699 
4 0 0 5.5836 -0.0613 
4 0 1 6.3770 -0.0512 
4 0 2 7.2735 0.0112 
4 0 3 7.0510 0.0656 
4 0 4 5.6288 0.0129 
4 0 5 3.5565 -0.0453 
4 0 6 1.0405 -0.0415 
4 0 7 -1.4056 0.0059 
4 0 8 -1.2978 0.0343 
4 0 9 -0.4274 -0.0126 
4 0 10 -2.2133 -0.0477 
4 0 11 -1.8254 -0.0363 
4 0 12 1.9300 -0.0160 
4 0 13 2.1181 0.0312 
4 0 14 0.3155 0.0713 
4 0 15 0.1885 0.0869 
4 0 16 -1.7471 0.0557 
4 0 17 -3.9353 -0.0813 
4 0 18 -2.4375 -0.2197 
4 1 0 4.2659 0.0524 
4 1 1 -2.6827 -0.0146 
4 1 2 -6.3418 -0.0684 
4 1 3 -6.5116 -0.0779 
4 1 4 -4.5968 -0.0434 
4 1 5 -1.5460 0.0146 
4 1 6 1.1427 0.0661 
4 1 7 2.3086 0.0795 
4 1 8 3.5379 0.0671 
4 1 9 4.9453 0.0183 
4 1 10 2.7921 -0.0296 
4 1 11 -1.3815 -0.0140 
4 1 12 -2.1401 0.0195 
4 1 13 -1.2987 0.0277 
4 1 14 -1.0224 0.0081 
4 1 15 1.1265 -0.0140 
4 1 16 2.7722 -0.0032 
4 1 17 1.0796 0.0403 
4 2 0 -1.7815 -0.0668 
4 2 1 -5.4494 0.0051 
4 2 2 -7.2777 0.1003 
4 2 3 -6.3355 0.0849 
4 2 4 -4.2071 0.0429 
4 2 5 -1.4439 0.0443 
4 2 6 0.4084 0.0264 
4 2 7 -0.4313 -0.0341 
4 2 8 -1.9296 -0.0718 
4 2 9 -1.2946 -0.0437 
4 2 10 0.2717 0.0087 
4 2 11 1.0221 0.0319 
4 2 12 2.1727 0.0002 
4 2 13 3.5398 -0.0453 
4 2 14 2.8359 -0.0306 
4 2 15 1.0713 0.0353 
4 2 16 0.5179 0.0589 
4 2 17 0.8131 0.0313 
4 3 0 5.2105 0.0466 
4 3 1 4.7472 -0.0461 
4 3 2 1.1429 -0.0519 
4 3 3 -2.4829 -0.0476 
4 3 4 -5.1346 -0.0491 
4 3 5 -4.8533 0.0129 
4 3 6 -2.0622 0.0510 
4 3 7 -1.0940 0.0330 
4 3 8 -2.5072 0.0286 
4 3 9 -3.1105 0.0482 
4 3 10 -2.1338 0.0568 
4 3 11 -0.8052 0.0429 
4 3 12 -0.3244 0.0257 
4 3 13 -0.5041 0.0199 
4 3 14 -0.2710 0.0455 
4 3 15 -0.4883 0.1120 
4 3 16 -1.8392 0.0942 
4 4 0 1.4509 0.0325 
4 4 1 1.8906 0.0641 
4 4 2 0.5071 0.0913 
4 4 3 -0.7252 0.1267 
4 4 4 -2.6270 0.0903 
4 4 5 -3.8671 0.0251 
4 4 6 -1.6769 -0.0452 
4 4 7 1.3071 -0.0831 
4 4 8 1.7338 -0.0194 
4 4 9 0.6953 0.0580 
4 4 10 -0.7003 0.0244 
4 4 11 -1.5431 -0.0847 
4 4 12 -1.7673 -0.1022 
4 4 13 -2.8191 0.0236 
4 4 14 -2.2394 0.1013 
4 4 15 1.4809 0.0287 
4 5 0 -0.0163 -0.0405 
4 5 1 0.9798 -0.0493 
4 5 2 1.2884 -0.1066 
4 5 3 2.0990 -0.1283 
4 5 4 1.4358 -0.0837 
4 5 5 -1.6848 -0.0203 
4 5 6 -3.7230 0.0136 
4 5 7 -2.6189 0.0221 
4 5 8 -0.2770 0.0374 
4 5 9 1.9523 0.0200 
4 5 10 2.4999 -0.0296 
4 5 11 1.2582 -0.0725 
4 5 12 0.6766 -0.0806 
4 5 13 -0.9576 0.0090 
4 5 14 -4.2756 0.0749 
4 6 0 -0.4828 0.0020 
4 6 1 -0.2428 0.0293 
4 6 2 -0.3417 0.0616 
4 6 3 1.0474 0.0413 
4 6 4 2.5622 0.0094 
4 6 5 1.9732 -0.0126 
4 6 6 -0.3243 -0.0596 
4 6 7 -2.3364 -0.0489 
4 6 8 -2.9566 0.0739 
4 6 9 -1.7911 0.1269 
4 6 10 -0.4477 0.0708 
4 6 11 -1.1871 0.0664 
4 6 12 -1.4113 0.0463 
4 6 13 0.0757 -0.0367 
4 7 0 -1.6424 -0.0335 
4 7 1 -0.7867 -0.1109 
4 7 2 -0.5063 -0.1112 
4 7 3 0.5690 -0.0589 
4 7 4 1.4285 -0.0594 
4 7 5 1.1713 -0.0189 
4 7 6 0.6002 0.0180 
4 7 7 -0.2262 -0.0121 
4 7 8 -1.0991 0.0200 
4 7 9 -0.8516 0.0449 
4 7 10 0.6286 -0.0409 
4 7 11 1.0410 -0.0050 
4 7 12 0.1528 0.1103 
4 8 0 -0.6587 0.2033 
4 8 1 -1.3364 0.1134 
4 8 2 -2.3587 0.0169 
4 8 3 -2.5635 0.0993 
4 8 4 -2.2281 0.0786 
4 8 5 -1.9674 -0.0110 
4 8 6 0.0498 0.0163 
4 8 7 2.8435 0.0170 
4 8 8 3.5448 -0.0342 
4 8 9 2.0098 -0.0488 
4 8 10 -0.0844 -0.1046 
4 9 0 -2.7755 0.0068 
4 9 1 -2.9293 0.0716 
4 9 2 -1.5793 -0.0338 
4 9 3 0.4103 0.0022 
4 9 4 1.5440 0.0023 
4 9 5 0.4146 -0.1333 
4 9 6 -0.2963 -0.0876 
4 9 7 0.8758 0.0594 
4 9 8 1.1407 0.0412 
4 10 0 -1.4758 0.0308 
4 10 1 -2.4250 -0.0521 
4 10 2 -1.6069 -0.1130 
4 10 3 0.3280 0.0433 
4 10 4 1.0386 0.1719 
4 10 5 -0.7892 -0.0224 
4 10 6 -2.3768 -0.1827 
4 11 0 -1.2744 -0.0858 
4 11 1 -1.8511 -0.0696 
4 11 2 -1.8577 -0.1052 
5 -12 0 0.7188 0.0696 
5 -12 1 1.0174 0.1911 
5 -12 2 1.5541 -0.0512 
5 -12 3 -1.0693 -0.0428 
5 -12 4 -2.2582 0.0884 
5 -12 5 -0.1621 0.0554 
5 -12 6 -0.0124 0.0356 
5 -12 7 -2.0044 -0.0104 
5 -11 0 -1.1801 -0.1072 
5 -11 1 -1.7403 -0.0449 
5 -11 2 1.4340 -0.0794 
5 -11 3 2.6670 -0.0222 
5 -11 4 0.3677 0.1289 
5 -11 5 0.5316 0.0821 
5 -11 6 1.8961 -0.0101 
5 -11 7 0.6882 0.0263 
5 -11 8 -1.5272 -0.0107 
5 -11 9 -1.9137 -0.0832 
5 -11 10 -0.4423 0.0626 
5 -10 0 -0.1542 0.0672 
5 -10 1 -2.5332 0.0611 
5 -10 2 -1.5447 0.0416 
5 -10 3 2.0372 0.0545 
5 -10 4 2.3641 0.1400 
5 -10 5 1.5151 0.0764 
5 -10 6 1.9877 -0.0668 
5 -10 7 1.7232 -0.0603 
5 -10 8 0.3287 0.0308 
5 -10 9 -0.8749 -0.0245 
5 -10 10 -0.2363 -0.0538 
5 -10 11 1.0230 0.0130 
5 -10 12 0.7480 -0.0490 
5 -9 0 1.6150 -0.1126 
5 -9 1 1.3757 -0.0955 
5 -9 2 0.4055 -0.0869 
5 -9 3 0.9693 -0.0929 
5 -9 4 0.9045 -0.0147 
5 -9 5 -0.3148 -0.0212 
5 -9 6 -1.1231 -0.0728 
5 -9 7 -1.5227 -0.0443 
5 -9 8 -0.7557 0.0400 
5 -9 9 0.0861 0.0469 
5 -9 10 -0.3892 -0.0793 
5 -9 11 -0.9758 -0.1018 
5 -9 12 -1.6769 -0.0877 
5 -9 13 -1.9756 -0.0052 
5 -9 14 -1.0214 0.2117 
5 -8 0 2.0328 0.0977 
5 -8 1 0.2882 0.1152 
5 -8 2 -2.3098 0.1360 
5 -8 3 -4.2828 0.0833 
5 -8 4 -4.7453 0.1365 
5 -8 5 -3.2133 0.1140 
5 -8 6 -0.7669 -0.0222 
5 -8 7 -0.1441 -0.0399 
5 -8 8 0.4506 -0.0013 
5 -8 9 2.8608 0.0571 
5 -8 10 3.3078 0.0482 
5 -8 11 0.5785 -0.0092 
5 -8 12 -2.6718 -0.0203 
5 -8 13 -4.0411 -0.0410 
5 -8 14 -2.6927 0.1642 
5 -8 15 -0.4921 0.2281 
5 -7 0 -0.1515 -0.0292 
5 -7 1 -0.1563 -0.0333 
5 -7 2 0.0824 -0.0003 
5 -7 3 0.3099 -0.1104 
5 -7 4 -0.7374 -0.1170 
5 -7 5 -1.5601 0.0170 
5 -7 6 -0.1957 -0.0022 
5 -7 7 0.2986 -0.0127 
5 -7 8 -1.4504 0.0055 
5 -7 9 -1.0306 -0.0075 
5 -7 10 1.5025 0.0339 
5 -7 11 2.1254 0.0377 
5 -7 12 0.1210 0.0363 
5 -7 13 -2.6047 -0.0455 
5 -7 14 -3.1975 -0.0854 
5 -7 15 -2.1207 0.1597 
5 -7 16 -1.2551 0.0790 
5 -6 0 1.8726 0.0182 
5 -6 1 3.3024 -0.0108 
5 -6 2 2.8262 0.0759 
5 -6 3 2.5344 0.0961 
5 -6 4 1.3542 -0.0116 
5 -6 5 -1.7881 0.0247 
5 -6 6 -3.3545 0.0426 
5 -6 7 -1.5923 0.0115 
5 -6 8 -0.4233 0.0284 
5 -6 9 -0.6279 -0.0361 
5 -6 10 0.3050 -0.0667 
5 -6 11 2.0070 -0.0488 
5 -6 12 2.8702 -0.0125 
5 -6 13 1.2546 0.0618 
5 -6 14 -1.7132 -0.0199 
5 -6 15 -2.9570 -0.0018 
5 -6 16 -3.4331 0.1893 
5 -5 0 -0.9020 0.0028 
5 -5 1 0.6472 -0.0531 
5 -5 2 0.8200 -0.1136 
5 -5 3 0.9038 -0.0339 
5 -5 4 2.3482 -0.0271 
5 -5 5 2.5360 -0.0301 
5 -5 6 0.2540 0.0077 
5 -5 7 -0.3570 0.0013 
5 -5 8 1.6505 0.0421 
5 -5 9 2.4552 0.0413 
5 -5 10 1.1846 -0.0034 
5 -5 11 -0.4642 -0.0105 
5 -5 12 -0.4449 -0.0785 
5 -5 13 1.0295 -0.0758 
5 -5 14 0.9256 -0.0530 
5 -5 15 -0.1336 -0.1379 
5 -5 16 -0.6447 -0.0120 
5 -5 17 -1.9834 0.2874 
5 -4 0 -6.4135 0.0290 
5 -4 1 -5.0926 0.0598 
5 -4 2 -1.8467 -0.0275 
5 -4 3 1.0858 -0.0499 
5 -4 4 3.8970 0.0109 
5 -4 5 6.2378 0.0375 
5 -4 6 4.8400 0.0470 
5 -4 7 0.6529 0.0009 
5 -4 8 -1.3118 -0.0461 
5 -4 9 -0.8495 -0.0420 
5 -4 10 -0.2202 -0.0203 
5 -4 11 -0.5490 0.0670 
5 -4 12 -1.7183 0.0801 
5 -4 13 -0.9022 -0.0004 
5 -4 14 1.4518 0.0425 
5 -4 15 1.8637 0.0787 
5 -4 16 0.7949 0.0148 
5 -4 17 -1.2053 -0.0102 
5 -3 0 -4.3891 -0.0732 
5 -3 1 -3.6686 -0.0246 
5 -3 2 -1.4199 0.0300 
5 -3 3 1.0557 0.0438 
5 -3 4 1.9260 0.0635 
5 -3 5 2.0108 0.0555 
5 -3 6 1.5028 0.0198 
5 -3 7 -0.4433 0.0103 
5 -3 8 -1.6285 0.0192 
5 -3 9 -1.2305 0.0396 
5 -3 10 -0.2314 0.0254 
5 -3 11 1.5086 -0.0004 
5 -3 12 1.3069 -0.0055 
5 -3 13 -1.0162 -0.0654 
5 -3 14 -1.0083 -0.0748 
5 -3 15 0.2280 0.0424 
5 -3 16 -0.0611 0.1095 
5 -3 17 -0.7877 0.0248 
5 -2 0 1.8694 0.0821 
5 -2 1 -1.7895 0.0150 
5 -2 2 -5.0073 -0.0456 
5 -2 3 -4.9058 -0.0658 
5 -2 4 -2.2825 -0.0771 
5 -2 5 0.1267 -0.0530 
5 -2 6 1.2330 -0.0425 
5 -2 7 0.7076 -0.0519 
5 -2 8 -0.0029 -0.0540 
5 -2 9 -0.4507 -0.0419 
5 -2 10 -2.0096 -0.0108 
5 -2 11 -1.8511 -0.0093 
5 -2 12 0.5638 -0.0156 
5 -2 13 0.4514 0.0000 
5 -2 14 -0.4658 -0.0100 
5 -2 15 0.6500 -0.0379 
5 -2 16 0.5826 -0.0881 
5 -2 17 -0.1898 -0.1547 
5 -1 0 -0.1810 -0.0852 
5 -1 1 -5.0347 -0.0197 
5 -1 2 -8.4677 0.0275 
5 -1 3 -8.1564 0.1072 
5 -1 4 -3.9300 0.1087 
5 -1 5 0.9274 0.0572 
5 -1 6 3.3623 0.0369 
5 -1 7 2.7989 0.0165 
5 -1 8 1.3621 -0.0177 
5 -1 9 0.6659 -0.0530 
5 -1 10 -1.6077 -0.0242 
5 -1 11 -4.4213 0.0567 
5 -1 12 -3.0029 0.0707 
5 -1 13 0.0095 0.0245 
5 -1 14 1.1769 -0.0263 
5 -1 15 2.5622 -0.0397 
5 -1 16 2.0641 -0.0011 
5 -1 17 -1.3264 0.0152 
5 0 0 8.4497 0.0236 
5 0 1 7.7977 0.0103 
5 0 2 3.7923 -0.0327 
5 0 3 -0.4900 -0.0443 
5 0 4 -2.6750 -0.0516 
5 0 5 -2.3130 -0.1073 
5 0 6 -1.2415 -0.1185 
5 0 7 -1.4485 -0.0508 
5 0 8 -2.1013 0.0340 
5 0 9 -0.9225 0.0525 
5 0 10 0.8181 -0.0124 
5 0 11 0.5649 -0.0641 
5 0 12 0.4703 -0.0642 
5 0 13 1.4554 -0.0187 
5 0 14 0.8369 0.0383 
5 0 15 0.1948 0.0558 
5 0 16 0.2724 0.0729 
5 0 17 -1.9371 0.0220 
5 1 0 12.2125 -0.0026 
5 1 1 10.9653 -0.0107 
5 1 2 6.1243 0.0174 
5 1 3 1.1619 0.0269 
5 1 4 -2.5363 0.0415 
5 1 5 -3.6214 0.0701 
5 1 6 -1.8329 0.0690 
5 1 7 -0.2782 0.0297 
5 1 8 -0.7152 -0.0083 
5 1 9 -1.5782 -0.0050 
5 1 10 -1.7109 0.0107 
5 1 11 -1.6790 0.0128 
5 1 12 -1.3911 0.0072 
5 1 13 -0.1933 0.0104 
5 1 14 0.4602 -0.0027 
5 1 15 0.1370 -0.1159 
5 1 16 0.5369 -0.2378 
5 2 0 -0.6878 0.0435 
5 2 1 2.6921 0.0027 
5 2 2 3.9713 0.0212 
5 2 3 3.9441 0.0449 
5 2 4 2.0576 -0.0255 
5 2 5 -0.3487 -0.0611 
5 2 6 0.8537 -0.0099 
5 2 7 3.8812 0.0260 
5 2 8 3.9181 0.0096 
5 2 9 0.9635 -0.0061 
5 2 10 -2.4179 0.0034 
5 2 11 -3.4897 0.0099 
5 2 12 -1.4733 -0.0086 
5 2 14 2.6234 -0.0629 
5 2 15 1.8542 -0.0495 
5 2 16 -0.4945 0.0728 
5 3 0 -1.6956 0.0534 
5 3 1 1.8424 -0.0175 
5 3 2 3.4373 -0.0960 
5 3 3 3.9588 -0.0223 
5 3 4 2.6073 0.0472 
5 3 5 -1.7170 0.0244 
5 3 6 -3.7542 0.0019 
5 3 7 -0.7526 -0.0156 
5 3 8 2.4986 -0.0452 
5 3 9 3.3905 -0.0551 
5 3 10 2.2512 -0.0497 
5 3 11 0.4465 -0.0827 
5 3 12 0.3263 -0.1215 
5 3 13 -0.0183 -0.0524 
5 3 14 -2.2369 0.0936 
5 3 15 -3.1032 0.1522 
5 4 0 -1.4351 -0.0459 
5 4 1 -1.0653 0.0017 
5 4 2 -0.8028 -0.0002 
5 4 3 0.6562 0.0135 
5 4 4 2.9203 0.0396 
5 4 5 1.8017 -0.0161 
5 4 6 -1.7162 -0.0710 
5 4 7 -2.6685 -0.0257 
5 4 8 -1.6779 0.0317 
5 4 9 -0.6078 -0.0224 
5 4 10 0.0866 -0.1017 
5 4 11 -0.6575 -0.0793 
5 4 12 -0.1073 -0.0019 
5 4 13 1.9968 0.1285 
5 4 14 0.6440 0.2936 
5 5 0 -1.8966 -0.0088 
5 5 1 -0.9613 -0.0184 
5 5 2 -0.5734 0.0117 
5 5 3 -0.2221 0.0395 
5 5 4 1.2926 0.0479 
5 5 5 1.8035 0.0194 
5 5 6 0.0356 -0.0527 
5 5 7 -1.4202 -0.0528 
5 5 8 -1.4574 0.0680 
5 5 9 -0.2348 0.0646 
5 5 10 2.1347 -0.1160 
5 5 11 2.0969 -0.1094 
5 5 12 0.1770 0.1168 
5 5 13 1.5761 0.2796 
5 6 0 -0.4261 0.0022 
5 6 1 -0.7207 -0.0363 
5 6 2 -1.3601 -0.0444 
5 6 3 -2.0265 0.0201 
5 6 4 -1.2985 0.0137 
5 6 5 -0.0454 0.0024 
5 6 6 0.9322 0.0371 
5 6 7 1.5376 -0.0022 
5 6 8 0.7050 -0.0229 
5 6 9 -0.9324 0.0129 
5 6 10 -0.3104 -0.0512 
5 6 11 0.8185 0.0217 
5 6 12 -1.1217 0.3368 
5 7 0 -0.0104 0.1093 
5 7 1 0.7332 0.0800 
5 7 2 1.5929 -0.0457 
5 7 3 1.7223 -0.0307 
5 7 4 1.7280 -0.0425 
5 7 5 0.1948 -0.1456 
5 7 6 -1.8069 -0.0331 
5 7 7 -1.4382 0.1307 
5 7 8 -0.3901 0.0350 
5 7 9 -1.0312 -0.1426 
5 7 10 -1.1937 -0.2748 
5 7 11 0.4013 -0.2125 
5 8 0 2.1288 -0.0377 
5 8 1 1.0670 -0.0187 
5 8 2 0.0451 -0.0672 
5 8 3 -0.8627 -0.0242 
5 8 4 -0.1676 0.0839 
5 8 5 0.2922 -0.0376 
5 8 6 -0.9092 -0.0951 
5 8 7 -0.1407 0.0861 
5 8 8 2.6775 0.0202 
5 8 9 3.6372 -0.2943 
5 9 0 0.3347 0.0622 
5 9 1 -1.2359 0.0446 
5 9 2 -2.2732 0.0372 
5 9 3 -1.9232 -0.0317 
5 9 4 0.2610 -0.0614 
5 9 5 2.7251 -0.1561 
5 9 6 2.1125 -0.1437 
5 9 7 0.7843 0.2423 
5 10 0 0.9864 -0.0216 
5 10 1 -0.3276 -0.2316 
5 10 2 -2.2021 -0.2030 
5 10 3 -2.1262 0.1064 
5 10 4 -0.3988 0.4335 
5 11 0 0.7679 0.0742 
6 -12 0 0.4668 0.1602 
6 -12 1 -3.1971 0.2342 
6 -12 2 -2.7696 0.3408 
6 -12 3 1.3547 0.0268 
6 -12 4 1.2477 -0.2575 
6 -12 5 0.0166 -0.2020 
6 -11 0 3.6964 -0.0183 
6 -11 1 0.7491 -0.2083 
6 -11 2 -3.0787 -0.1011 
6 -11 3 -1.5773 -0.0220 
6 -11 4 -0.2074 -0.0557 
6 -11 5 -1.5032 0.0023 
6 -11 6 -0.2485 -0.0044 
6 -11 7 1.6785 -0.0422 
6 -11 8 0.0126 0.1271 
6 -11 9 -3.4740 0.1250 
6 -10 0 0.8969 0.1201 
6 -10 1 0.9672 0.0559 
6 -10 2 -1.6821 0.0692 
6 -10 3 -1.9796 0.1023 
6 -10 4 0.5772 0.0169 
6 -10 5 1.2426 -0.0047 
6 -10 6 1.4214 0.0088 
6 -10 7 2.1566 -0.0625 
6 -10 8 1.2183 -0.0088 
6 -10 9 -1.3268 0.1555 
6 -10 10 -2.8142 -0.0236 
6 -10 11 -0.2396 -0.1662 
6 -9 0 0.7523 -0.0016 
6 -9 1 2.3731 -0.1238 
6 -9 2 1.5440 -0.1326 
6 -9 3 -1.2374 -0.0492 
6 -9 4 -2.0271 -0.0222 
6 -9 5 -1.0673 0.0002 
6 -9 6 0.2299 -0.0026 
6 -9 7 0.7934 -0.0467 
6 -9 8 0.1963 -0.0461 
6 -9 9 0.3654 0.0812 
6 -9 10 1.0970 0.0367 
6 -9 11 1.9588 -0.2421 
6 -9 12 3.1331 -0.1385 
6 -9 13 2.3074 0.1379 
6 -8 0 1.4327 0.0407 
6 -8 1 2.7578 0.0343 
6 -8 2 2.9142 0.0716 
6 -8 3 0.3201 0.1209 
6 -8 4 -3.3240 0.0483 
6 -8 5 -4.8171 0.0282 
6 -8 6 -2.9107 -0.0023 
6 -8 7 -0.2177 -0.0980 
6 -8 8 -0.1619 -0.1008 
6 -8 9 -0.4967 0.0251 
6 -8 10 1.0282 0.1445 
6 -8 11 2.4177 -0.0014 
6 -8 12 2.8557 -0.0974 
6 -8 13 1.6531 0.0598 
6 -8 14 -0.2126 -0.0606 
6 -7 0 -3.3063 0.0433 
6 -7 1 -1.4136 0.0419 
6 -7 2 0.8285 0.0256 
6 -7 3 2.4471 0.1045 
6 -7 4 2.1028 0.0125 
6 -7 5 -0.2099 -0.0804 
6 -7 6 -1.9590 -0.0215 
6 -7 7 -1.3003 -0.0219 
6 -7 8 -0.4282 -0.0251 
6 -7 9 -0.5963 0.0019 
6 -7 10 -0.2167 0.0480 
6 -7 11 0.6353 0.0264 
6 -7 12 1.9586 -0.1024 
6 -7 13 2.6549 0.0053 
6 -7 14 0.9208 0.0825 
6 -7 15 -0.1380 -0.1138 
6 -6 0 -2.2424 -0.0854 
6 -6 1 -0.2371 -0.0507 
6 -6 2 1.3666 -0.1152 
6 -6 3 2.0216 -0.0166 
6 -6 4 2.2747 0.0764 
6 -6 5 1.2375 -0.0200 
6 -6 6 -1.6879 -0.0561 
6 -6 7 -4.3062 -0.0504 
6 -6 8 -4.1460 -0.0174 
6 -6 9 -1.8457 0.0426 
6 -6 10 0.3017 0.0326 
6 -6 11 0.3770 0.0604 
6 -6 12 -0.1146 0.0157 
6 -6 13 1.0241 -0.0350 
6 -6 14 0.6899 0.1043 
6 -6 15 -1.6773 0.0508 
6 -5 0 -1.6051 0.0030 
6 -5 1 -2.5044 0.1348 
6 -5 2 -1.8559 0.1175 
6 -5 3 -1.2159 0.0278 
6 -5 4 -0.3764 0.0532 
6 -5 5 1.1817 0.0247 
6 -5 6 2.1907 -0.0165 
6 -5 7 0.8328 0.0007 
6 -5 8 -1.2442 0.0236 
6 -5 9 -1.0663 0.0606 
6 -5 10 0.7687 -0.0103 
6 -5 11 0.9469 -0.0543 
6 -5 12 -1.2038 0.0320 
6 -5 13 -1.7766 -0.0038 
6 -5 14 -0.2057 -0.0134 
6 -5 15 0.0675 0.0789 
6 -5 16 0.3204 0.0582 
6 -4 0 0.1317 -0.0873 
6 -4 1 -2.7215 -0.1086 
6 -4 2 -3.3160 -0.0609 
6 -4 3 -1.4720 -0.0689 
6 -4 4 1.5407 -0.0456 
6 -4 5 3.8842 -0.0059 
6 -4 6 4.9757 -0.0295 
6 -4 7 3.7545 -0.0362 
6 -4 8 0.2410 -0.0065 
6 -4 9 -2.1360 0.0567 
6 -4 10 -1.3957 0.0476 
6 -4 11 0.5292 -0.0570 
6 -4 12 0.8223 -0.0242 
6 -4 13 -0.1866 0.0294 
6 -4 14 0.2611 -0.0404 
6 -4 15 1.4761 -0.0245 
6 -4 16 2.0448 0.0415 
6 -3 0 2.1576 0.0793 
6 -3 1 0.9778 0.0781 
6 -3 2 -0.8589 0.0405 
6 -3 3 -1.9246 0.0073 
6 -3 4 -0.4134 -0.0229 
6 -3 5 1.8438 0.0130 
6 -3 6 2.8906 0.0428 
6 -3 7 2.8064 0.0018 
6 -3 8 1.3708 -0.0368 
6 -3 9 -0.2304 0.0021 
6 -3 10 -0.6632 0.0876 
6 -3 11 -0.4962 0.0686 
6 -3 12 -0.3167 -0.0150 
6 -3 13 -0.9780 -0.0426 
6 -3 14 -1.7782 -0.0721 
6 -3 15 -1.1461 -0.0610 
6 -3 16 -0.6277 -0.0520 
6 -2 0 6.7228 -0.0434 
6 -2 1 6.2036 -0.0276 
6 -2 2 2.6604 -0.0544 
6 -2 3 -2.5859 -0.0409 
6 -2 4 -4.8274 -0.0454 
6 -2 5 -2.7992 -0.0719 
6 -2 6 -0.0756 -0.0084 
6 -2 7 1.5607 0.0609 
6 -2 8 2.2913 0.0319 
6 -2 9 2.6259 -0.0573 
6 -2 10 2.9134 -0.0984 
6 -2 11 1.6821 -0.0498 
6 -2 12 -0.8474 0.0100 
6 -2 13 -2.7478 0.0527 
6 -2 14 -3.4523 0.0708 
6 -2 15 -1.7465 0.0771 
6 -2 16 0.6918 0.0353 
6 -1 0 0.0680 -0.0308 
6 -1 1 1.8175 -0.0105 
6 -1 2 2.3406 -0.0240 
6 -1 3 0.2042 -0.0045 
6 -1 4 -2.4242 0.0673 
6 -1 5 -2.0206 0.0240 
6 -1 6 0.2592 -0.0650 
6 -1 7 1.5503 -0.0590 
6 -1 8 1.6827 -0.0077 
6 -1 9 1.3715 0.0110 
6 -1 10 1.4614 -0.0190 
6 -1 11 1.4483 -0.0260 
6 -1 12 0.1616 0.0079 
6 -1 13 -1.0597 0.0142 
6 -1 14 -1.0512 -0.0378 
6 -1 15 1.0967 -0.1067 
6 -1 16 5.2214 -0.0203 
6 0 0 -4.4936 0.0350 
6 0 1 -0.2082 0.0892 
6 0 2 3.1508 0.0563 
6 0 3 4.2383 -0.0547 
6 0 4 2.6606 -0.0697 
6 0 5 0.9363 0.0146 
6 0 6 1.2346 0.0598 
6 0 7 1.7044 0.0529 
6 0 8 0.9090 0.0332 
6 0 9 -0.5375 0.0327 
6 0 10 -1.7802 0.0320 
6 0 11 -1.3281 -0.0075 
6 0 12 0.4262 -0.0739 
6 0 13 1.3703 -0.1147 
6 0 14 0.4983 -0.0455 
6 0 15 -1.0168 0.0401 
6 1 0 -0.2081 -0.0639 
6 1 1 -0.3881 -0.0795 
6 1 2 -0.2735 -0.0379 
6 1 3 0.8382 0.0171 
6 1 4 1.3461 -0.0029 
6 1 5 -0.5749 -0.0293 
6 1 6 -1.8830 -0.0069 
6 1 7 -0.3752 0.0022 
6 1 8 1.8749 -0.0437 
6 1 9 3.1002 -0.0991 
6 1 10 1.4373 -0.1062 
6 1 11 -2.3487 -0.0586 
6 1 12 -3.5167 0.0067 
6 1 13 -1.0627 0.0110 
6 1 14 1.5715 -0.0261 
6 1 15 1.9191 -0.1119 
6 2 0 -1.3800 0.0614 
6 2 1 -2.6008 0.0892 
6 2 2 -2.6686 -0.0061 
6 2 3 -0.8638 -0.0333 
6 2 4 2.3886 0.0052 
6 2 5 2.6939 -0.0164 
6 2 6 -0.1580 -0.0481 
6 2 7 -1.2522 -0.0613 
6 2 8 -0.3351 -0.0834 
6 2 9 1.0875 -0.0719 
6 2 10 1.8979 -0.0073 
6 2 11 -0.0240 0.0384 
6 2 12 -1.2402 0.0217 
6 2 13 1.8725 -0.0405 
6 2 14 5.3039 -0.0871 
6 3 0 0.7891 0.0025 
6 3 1 1.2057 0.0328 
6 3 2 0.6619 -0.0231 
6 3 3 -0.1346 -0.0881 
6 3 4 1.3551 -0.0318 
6 3 5 3.1843 0.0143 
6 3 6 1.7559 -0.0125 
6 3 7 0.0348 -0.0247 
6 3 8 -0.1534 -0.0064 
6 3 9 -0.2138 0.0085 
6 3 10 0.7988 0.0157 
6 3 11 0.9071 0.0111 
6 3 12 -0.2663 -0.0305 
6 3 13 2.1015 -0.0412 
6 3 14 5.6930 0.1118 
6 4 0 0.7377 0.0090 
6 4 1 -0.2485 -0.0102 
6 4 2 -1.0268 0.0010 
6 4 3 -2.1148 0.0310 
6 4 4 -1.6614 0.0642 
6 4 5 0.8717 0.0461 
6 4 6 1.8831 -0.0485 
6 4 7 1.2827 -0.0967 
6 4 8 0.9800 0.0248 
6 4 9 -0.3643 0.1901 
6 4 10 -1.1281 0.1496 
6 4 11 -0.9397 -0.0126 
6 4 12 -2.9018 -0.0527 
6 4 13 -2.7695 0.0497 
6 5 0 -0.9670 0.0191 
6 5 1 -0.7229 0.0099 
6 5 2 0.7823 -0.0288 
6 5 3 1.0742 0.0067 
6 5 4 -0.1374 0.0148 
6 5 5 -1.1671 -0.0455 
6 5 6 -2.0460 -0.0632 
6 5 7 -2.2269 -0.0555 
6 5 8 -0.5188 -0.0400 
6 5 9 0.6433 0.0699 
6 5 10 1.1344 0.1089 
6 5 11 3.0373 0.0355 
6 5 12 2.0788 0.1739 
6 6 0 0.2712 -0.0482 
6 6 1 -1.0584 -0.0276 
6 6 2 -0.7838 -0.0415 
6 6 3 -0.4110 0.0445 
6 6 4 -0.4161 0.1253 
6 6 5 -0.3319 -0.0198 
6 6 6 -0.9131 -0.1367 
6 6 7 -1.1538 -0.0313 
6 6 8 0.5702 -0.0073 
6 6 9 1.4424 -0.1054 
6 6 10 -0.4205 -0.1791 
6 6 11 -0.7317 -0.2342 
6 7 0 0.7882 0.0911 
6 7 1 0.5636 0.0795 
6 7 2 0.8367 -0.0355 
6 7 3 0.4824 -0.1370 
6 7 4 -0.3659 -0.0739 
6 7 5 0.0057 -0.0407 
6 7 6 -0.4951 -0.0898 
6 7 7 -2.3346 0.0307 
6 7 8 -2.0339 0.0873 
6 7 9 -0.1189 -0.1257 
6 8 0 2.0872 -0.0278 
6 8 1 1.9155 -0.0428 
6 8 2 0.9591 0.0640 
6 8 3 -0.8242 0.1693 
6 8 4 -3.5581 0.1135 
6 8 5 -3.7016 -0.0102 
6 8 6 -1.8261 -0.0859 
6 8 7 -1.5086 0.0456 
6 9 0 2.0862 0.2860 
6 9 1 1.9721 0.0865 
6 9 2 -0.2043 -0.1717 
6 9 3 -2.1541 -0.0676 
6 9 4 -3.7076 0.0729 
6 9 5 -3.6341 0.0059 
6 10 0 0.1946 0.0014 
6 10 1 1.9269 0.1711 
7 -11 0 -2.4437 -0.0655 
7 -11 1 -1.5235 0.1451 
7 -11 2 -1.3119 -0.1410 
7 -11 3 -1.7379 -0.1826 
7 -11 4 0.3192 0.0361 
7 -11 5 0.9255 0.0308 
7 -11 6 -0.4240 0.0248 
7 -11 7 1.2255 0.1532 
7 -10 0 -0.1354 -0.1523 
7 -10 1 -0.8723 0.0404 
7 -10 2 -0.3671 -0.0163 
7 -10 3 -1.8153 -0.1052 
7 -10 4 -2.6554 0.0156 
7 -10 5 -1.2100 -0.0433 
7 -10 6 -0.1923 -0.2152 
7 -10 7 0.5734 -0.0509 
7 -10 8 1.5017 0.1763 
7 -10 9 1.8667 0.1324 
7 -9 0 -0.5376 0.1404 
7 -9 1 -0.1976 0.0967 
7 -9 2 2.4464 -0.0260 
7 -9 3 3.8104 -0.1400 
7 -9 4 1.4721 -0.0407 
7 -9 5 -0.8481 0.0880 
7 -9 6 -0.9704 0.0113 
7 -9 7 0.0580 -0.0612 
7 -9 8 0.2530 -0.0065 
7 -9 9 -0.2423 -0.0491 
7 -9 10 0.4428 -0.0308 
7 -9 11 0.6197 0.0026 
7 -8 0 0.9085 -0.0742 
7 -8 1 -0.0656 -0.0027 
7 -8 2 -0.1919 -0.0097 
7 -8 3 1.2492 -0.0156 
7 -8 4 1.4656 -0.0045 
7 -8 5 0.0040 -0.0213 
7 -8 6 -0.8622 -0.0037 
7 -8 7 -0.2390 0.0415 
7 -8 8 0.6288 0.0907 
7 -8 9 0.4828 -0.0078 
7 -8 10 0.5878 -0.1403 
7 -8 11 0.9133 -0.0369 
7 -8 12 0.6638 -0.0754 
7 -7 0 -0.8691 0.0918 
7 -7 1 0.3530 0.1344 
7 -7 2 0.5103 0.0549 
7 -7 3 0.2743 -0.0012 
7 -7 4 0.4728 0.0671 
7 -7 5 0.7313 0.0108 
7 -7 6 0.9091 -0.0713 
7 -7 7 0.3261 -0.0117 
7 -7 8 -0.8666 0.0925 
7 -7 9 -1.3070 0.1091 
7 -7 10 -0.3892 -0.0264 
7 -7 11 0.2717 0.0063 
7 -7 12 -0.2657 0.1107 
7 -7 13 1.2157 -0.1461 
7 -6 0 -2.7999 -0.0505 
7 -6 1 -0.8243 -0.0211 
7 -6 2 1.3477 -0.0058 
7 -6 3 1.9150 -0.0779 
7 -6 4 0.9537 -0.0212 
7 -6 5 -0.5937 0.0291 
7 -6 6 -1.0702 -0.0371 
7 -6 7 -0.9704 -0.0230 
7 -6 8 -2.1148 0.0209 
7 -6 9 -2.6341 0.0307 
7 -6 10 -0.3152 -0.0409 
7 -6 11 2.1316 -0.1006 
7 -6 12 1.3086 0.0870 
7 -6 13 0.4062 0.1456 
7 -6 14 3.0982 -0.0505 
7 -5 0 -1.8706 0.0073 
7 -5 1 -2.1462 -0.0163 
7 -5 2 -2.0950 0.0312 
7 -5 3 -2.3348 0.0357 
7 -5 4 -2.5492 0.0288 
7 -5 5 -2.6894 0.0500 
7 -5 6 -1.7559 -0.0203 
7 -5 7 0.8438 -0.0493 
7 -5 8 1.6432 0.0085 
7 -5 9 -0.1178 0.0463 
7 -5 10 -0.3493 0.0567 
7 -5 11 1.1081 -0.0500 
7 -5 12 0.4810 -0.1100 
7 -5 13 -1.7032 -0.0186 
7 -5 14 -1.1198 -0.0035 
7 -4 0 -1.3145 -0.0299 
7 -4 1 -1.6399 -0.0394 
7 -4 2 -1.8636 -0.0480 
7 -4 3 -2.6942 -0.0356 
7 -4 4 -2.8025 -0.0441 
7 -4 5 -1.8237 -0.0034 
7 -4 6 -1.0413 0.0445 
7 -4 7 0.5697 0.0255 
7 -4 8 1.8862 0.0047 
7 -4 9 0.5497 -0.0003 
7 -4 10 -0.4179 0.0617 
7 -4 11 0.8359 0.1109 
7 -4 12 1.1545 0.0181 
7 -4 13 -0.3705 -0.0709 
7 -4 14 -0.9617 -0.0966 
7 -4 15 0.3795 -0.0011 
7 -3 0 -0.7705 -0.0840 
7 -3 1 0.1619 -0.0173 
7 -3 2 1.7932 0.0160 
7 -3 3 1.3819 0.0232 
7 -3 4 -0.7141 -0.0064 
7 -3 5 -1.6236 -0.0775 
7 -3 6 -2.1621 -0.0536 
7 -3 7 -2.6449 0.0173 
7 -3 8 -1.6645 0.0087 
7 -3 9 -0.7807 -0.0473 
7 -3 10 0.4481 -0.0358 
7 -3 11 3.3651 0.0811 
7 -3 12 4.5565 0.1278 
7 -3 13 2.5858 0.0250 
7 -3 14 0.3898 -0.0971 
7 -3 15 -0.0987 -0.0409 
7 -2 0 0.2691 -0.0096 
7 -2 1 0.3264 -0.0484 
7 -2 2 2.1796 -0.0546 
7 -2 3 3.0712 -0.0378 
7 -2 4 0.8177 0.0776 
7 -2 5 -1.1061 0.1097 
7 -2 6 -0.9506 0.0223 
7 -2 7 -1.2577 -0.0002 
7 -2 8 -1.7729 0.0198 
7 -2 9 -1.6643 -0.0042 
7 -2 10 -0.7593 -0.0713 
7 -2 11 2.3096 -0.1162 
7 -2 12 4.5222 -0.0778 
7 -2 13 2.4696 0.0124 
7 -2 14 -1.1091 0.0893 
7 -2 15 -2.9714 0.0855 
7 -1 0 0.3468 -0.0542 
7 -1 1 -1.9049 0.0161 
7 -1 2 -1.3827 0.1123 
7 -1 3 0.8236 0.0343 
7 -1 4 0.3306 -0.0621 
7 -1 5 -2.3396 -0.0434 
7 -1 6 -2.2374 -0.0454 
7 -1 7 0.3155 -0.0646 
7 -1 8 2.0571 -0.0506 
7 -1 9 2.1886 -0.0279 
7 -1 10 0.4203 0.0013 
7 -1 11 -0.9028 0.0145 
7 -1 12 0.3158 0.0138 
7 -1 13 1.5495 -0.0037 
7 -1 14 1.3880 -0.0283 
7 -1 15 0.0410 -0.0855 
7 0 0 0.0831 -0.0544 
7 0 1 -0.9593 -0.0865 
7 0 2 -1.5220 -0.0123 
7 0 3 0.2203 0.0352 
7 0 4 2.2819 -0.0233 
7 0 5 1.1806 -0.0592 
7 0 6 -1.0933 -0.0289 
7 0 7 -0.8873 0.0085 
7 0 8 0.6355 0.0267 
7 0 9 2.3336 0.0120 
7 0 10 3.1151 -0.0138 
7 0 11 1.0371 -0.0375 
7 0 12 -1.5814 -0.0385 
7 0 13 -1.9657 -0.0442 
7 0 14 -0.5150 -0.0707 
7 1 0 3.6335 -0.0241 
7 1 1 2.6736 -0.0375 
7 1 2 0.2524 -0.0759 
7 1 3 -1.0508 -0.1001 
7 1 4 0.3665 -0.0671 
7 1 5 1.8382 -0.0357 
7 1 6 0.4085 -0.0162 
7 1 7 -1.0420 0.0014 
7 1 8 -0.8990 -0.0095 
7 1 9 -0.1036 -0.0349 
7 1 10 2.1222 -0.0299 
7 1 11 2.7275 -0.0244 
7 1 12 -0.9082 -0.0150 
7 1 13 -4.3721 0.0222 
7 1 14 -3.8624 -0.0714 
7 2 0 0.7067 -0.0524 
7 2 1 -0.0557 0.0500 
7 2 2 -1.3843 0.1207 
7 2 3 -2.6406 0.0445 
7 2 4 -2.2293 -0.0094 
7 2 5 0.7000 0.0165 
7 2 6 2.4725 0.0469 
7 2 7 2.3948 0.0780 
7 2 8 2.4048 0.0454 
7 2 9 0.3174 -0.0699 
7 2 10 -2.1872 -0.1058 
7 2 11 -1.9522 -0.0148 
7 2 12 -2.1943 0.0349 
7 2 13 -2.9974 -0.0277 
7 3 0 0.1393 0.0173 
7 3 1 1.3555 -0.0115 
7 3 2 1.9247 -0.0428 
7 3 3 1.2211 -0.0687 
7 3 4 -0.7374 -0.0291 
7 3 5 -0.9846 0.0589 
7 3 6 0.1235 0.0696 
7 3 7 0.7193 0.0588 
7 3 8 3.1675 0.0904 
7 3 9 4.9922 0.0730 
7 3 10 2.5396 -0.0106 
7 3 11 -0.2012 -0.0722 
7 3 12 -2.6942 -0.1268 
7 4 0 0.9288 -0.0001 
7 4 1 -0.0579 0.0698 
7 4 2 -0.1496 0.0337 
7 4 3 0.7204 0.0050 
7 4 4 0.6106 0.0421 
7 4 5 0.2633 0.0498 
7 4 6 0.3767 -0.0407 
7 4 7 -1.0998 -0.0981 
7 4 8 -1.7495 -0.0352 
7 4 9 0.1017 0.0496 
7 4 10 0.1385 0.0254 
7 4 11 -0.0914 -0.1585 
7 5 0 -0.2210 -0.0034 
7 5 1 -1.3914 -0.0279 
7 5 2 -1.4524 -0.1087 
7 5 3 0.1881 -0.1294 
7 5 4 1.2629 -0.0136 
7 5 5 1.2407 0.0319 
7 5 6 0.9635 -0.0889 
7 5 7 -0.5640 -0.1026 
7 5 8 -1.7752 0.0526 
7 5 9 0.2177 0.1063 
7 5 10 1.2109 -0.0044 
7 6 0 -1.6411 0.0336 
7 6 1 -1.5027 0.1268 
7 6 2 -0.6806 0.1015 
7 6 3 1.0445 0.0104 
7 6 4 1.4892 -0.0272 
7 6 5 1.1490 -0.0107 
7 6 6 1.4290 -0.0547 
7 6 7 1.0188 -0.0566 
7 6 8 0.3839 0.0166 
7 6 9 2.9662 -0.1187 
7 7 0 -2.6597 -0.0724 
7 7 1 -2.3146 -0.0784 
7 7 2 -0.7276 -0.0826 
7 7 3 2.2259 0.0515 
7 7 4 3.0851 0.0575 
7 7 5 1.5089 -0.1173 
7 7 6 0.7539 -0.1085 
7 7 7 0.0833 0.2386 
7 8 0 0.4658 0.2026 
7 8 1 0.8260 0.1964 
7 8 2 0.2462 -0.0784 
7 8 3 0.4439 -0.0374 
7 8 4 0.9245 0.2075 
7 8 5 -0.3297 -0.0486 
7 9 0 -0.4014 -0.2003 
7 9 1 1.8677 -0.0232 
7 9 2 2.7762 -0.0912 
8 -11 0 3.0774 -0.2706 
8 -11 1 1.6019 -0.4257 
8 -11 2 1.2282 0.0096 
8 -11 3 0.8564 -0.0241 
8 -11 4 -0.5041 -0.0912 
8 -10 0 2.0572 0.0423 
8 -10 1 -0.0375 -0.1941 
8 -10 2 -0.9748 0.0165 
8 -10 3 0.7637 0.0690 
8 -10 4 1.2447 -0.1183 
8 -10 5 0.6477 0.0823 
8 -10 6 1.1107 0.1727 
8 -10 7 1.6170 -0.2210 
8 -9 0 3.1659 0.0260 
8 -9 1 2.0564 -0.0019 
8 -9 2 -1.0719 0.0687 
8 -9 3 -2.2853 0.1795 
8 -9 4 -1.2657 0.0108 
8 -9 5 -0.6293 -0.0490 
8 -9 6 -0.2362 0.1233 
8 -9 7 -0.1126 0.0207 
8 -9 8 -0.1037 -0.0937 
8 -9 9 -0.0603 0.0973 
8 -8 0 0.6286 -0.0294 
8 -8 1 2.8158 -0.0138 
8 -8 2 2.9145 -0.0346 
8 -8 3 0.2297 0.0392 
8 -8 4 -1.9892 0.0786 
8 -8 5 -2.7588 -0.0131 
8 -8 6 -2.0894 -0.0524 
8 -8 7 -1.0616 -0.0936 
8 -8 8 -1.0652 -0.1772 
8 -8 9 -0.9437 -0.0342 
8 -8 10 -0.0834 0.0299 
8 -8 11 0.6373 -0.1030 
8 -7 0 -2.6011 0.0135 
8 -7 1 -1.8957 0.0521 
8 -7 2 0.6288 0.0278 
8 -7 3 1.6667 -0.0307 
8 -7 4 1.2928 -0.0150 
8 -7 5 0.6599 -0.0087 
8 -7 6 0.4696 -0.0592 
8 -7 7 1.2205 -0.0114 
8 -7 8 0.7277 0.0366 
8 -7 9 -1.0573 0.0229 
8 -7 10 -1.4175 -0.0301 
8 -7 11 -0.6788 -0.2261 
8 -7 12 -1.3059 -0.1431 
8 -6 0 -0.1741 0.0099 
8 -6 1 -0.4062 0.0502 
8 -6 2 1.0763 0.0693 
8 -6 3 2.6096 0.0591 
8 -6 4 2.9231 0.0606 
8 -6 5 2.0741 0.0804 
8 -6 6 -0.1100 -0.0219 
8 -6 7 -1.1563 -0.0750 
8 -6 8 -0.9436 0.0947 
8 -6 9 -1.8484 0.1749 
8 -6 10 -1.9834 0.0609 
8 -6 11 -0.2914 -0.1241 
8 -6 12 0.0259 -0.2281 
8 -5 0 0.4199 0.0018 
8 -5 1 0.1840 -0.0000 
8 -5 2 0.8928 -0.0581 
8 -5 3 1.4604 -0.0903 
8 -5 4 0.8527 -0.0701 
8 -5 5 0.1995 0.0209 
8 -5 6 -1.1321 0.0526 
8 -5 7 -1.8513 -0.0756 
8 -5 8 0.0011 -0.0706 
8 -5 9 0.8266 0.0849 
8 -5 10 -0.1236 0.1102 
8 -5 11 0.4558 0.0620 
8 -5 12 0.8376 0.0270 
8 -5 13 -0.9821 -0.0186 
8 -4 0 -0.4748 -0.0331 
8 -4 1 -1.1849 0.0195 
8 -4 2 -0.5293 0.0680 
8 -4 3 0.8773 0.0807 
8 -4 4 1.4374 0.0336 
8 -4 5 2.4243 -0.0629 
8 -4 6 2.8905 -0.0493 
8 -4 7 0.7400 0.0115 
8 -4 8 -0.8059 0.0022 
8 -4 9 -1.1656 0.0122 
8 -4 10 -2.3495 0.0009 
8 -4 11 -1.7133 -0.0100 
8 -4 12 -0.1451 0.0858 
8 -4 13 -1.3664 0.1664 
8 -3 0 0.0708 0.0097 
8 -3 1 -1.3003 -0.0293 
8 -3 2 -0.8539 -0.0670 
8 -3 3 0.9115 -0.0934 
8 -3 4 0.6496 -0.0266 
8 -3 5 -0.3148 0.0216 
8 -3 6 0.9789 -0.0078 
8 -3 7 1.2220 0.0269 
8 -3 8 -0.8887 0.0536 
8 -3 9 -2.6179 0.0102 
8 -3 10 -3.9400 -0.0247 
8 -3 11 -2.8385 -0.0421 
8 -3 12 0.8275 -0.0093 
8 -3 13 1.0478 0.0314 
8 -2 0 1.6179 0.0454 
8 -2 1 -0.4495 0.0237 
8 -2 2 -1.0924 0.0534 
8 -2 3 1.7423 0.0285 
8 -2 4 3.3626 -0.0172 
8 -2 5 0.4189 0.0269 
8 -2 6 -2.4088 0.0114 
8 -2 7 -2.4699 -0.0598 
8 -2 8 -2.3296 -0.0644 
8 -2 9 -2.0379 -0.0431 
8 -2 10 -1.9946 0.0008 
8 -2 11 -2.1486 0.0244 
8 -2 12 -0.0593 -0.0151 
8 -2 13 1.0105 -0.0329 
8 -1 0 1.5307 -0.0683 
8 -1 1 0.3789 -0.1288 
8 -1 2 -1.3038 -0.0700 
8 -1 3 0.0043 0.0358 
8 -1 4 3.1953 0.0059 
8 -1 5 3.2186 -0.0359 
8 -1 6 -0.2464 -0.0042 
8 -1 7 -2.5808 0.0116 
8 -1 8 -2.7158 0.0207 
8 -1 9 -1.2597 0.0100 
8 -1 10 1.1749 -0.0160 
8 -1 11 1.6940 -0.0207 
8 -1 12 0.9885 -0.0240 
8 -1 13 0.7960 -0.0092 
8 0 0 -0.6711 0.0800 
8 0 1 -0.9804 0.0327 
8 0 2 -2.4068 -0.0105 
8 0 3 -3.0633 -0.0251 
8 0 4 -1.4512 -0.0461 
8 0 5 1.4540 -0.0552 
8 0 6 2.2294 -0.0186 
8 0 7 0.3933 -0.0043 
8 0 8 -1.9231 -0.0262 
8 0 9 -3.3584 -0.0329 
8 0 10 -1.5280 -0.0027 
8 0 11 2.5743 0.0236 
8 0 12 4.5095 -0.0115 
8 0 13 3.4723 0.0507 
8 1 0 0.8112 -0.0737 
8 1 1 1.1536 -0.0731 
8 1 2 0.4141 0.0451 
8 1 3 -0.9702 0.1089 
8 1 4 -2.9267 0.0684 
8 1 5 -3.3083 0.0500 
8 1 6 -1.8199 0.0755 
8 1 7 -1.1239 0.0741 
8 1 8 -0.7524 0.0066 
8 1 9 -0.7935 -0.1041 
8 1 10 -2.0754 -0.1334 
8 1 11 -2.2877 -0.0005 
8 1 12 -1.6308 0.1012 
8 2 0 0.2141 0.0542 
8 2 1 -0.9140 0.0139 
8 2 2 -1.3392 0.0283 
8 2 3 -0.9882 0.0122 
8 2 4 -1.8648 -0.0779 
8 2 5 -3.2112 -0.0824 
8 2 6 -2.2283 -0.0092 
8 2 7 -1.5033 0.0260 
8 2 8 -1.4400 0.0349 
8 2 9 1.0661 -0.0231 
8 2 10 3.0191 -0.1536 
8 2 11 2.5991 -0.1408 
8 2 12 2.1156 0.0409 
8 3 0 -0.3522 -0.1293 
8 3 1 -1.3153 -0.0223 
8 3 2 -1.5004 0.0928 
8 3 3 -0.1654 0.0828 
8 3 4 0.3917 0.0100 
8 3 5 -0.7801 0.0473 
8 3 6 -0.0245 0.1143 
8 3 7 1.3948 0.0142 
8 3 8 -0.2373 -0.1177 
8 3 9 -0.4157 -0.1206 
8 3 10 1.8568 -0.0692 
8 3 11 1.9479 0.0136 
8 4 0 2.3591 -0.0307 
8 4 1 1.8953 -0.0718 
8 4 2 0.3789 -0.0373 
8 4 3 0.0082 -0.0577 
8 4 4 0.0350 -0.0530 
8 4 5 -0.9289 0.0573 
8 4 6 -0.4830 0.0938 
8 4 7 2.1070 -0.1069 
8 4 8 1.8988 -0.2750 
8 4 9 0.2498 -0.1819 
8 4 10 0.8188 0.0218 
8 5 0 0.3721 -0.0282 
8 5 1 0.4822 0.0470 
8 5 2 -0.1258 0.1064 
8 5 3 -0.0677 0.0379 
8 5 4 -0.1234 -0.0400 
8 5 5 -1.2985 0.0093 
8 5 6 -2.4851 0.0645 
8 5 7 -2.4366 -0.0528 
8 5 8 -3.4209 -0.0928 
8 6 0 -0.0029 -0.0957 
8 6 1 -1.2814 -0.0320 
8 6 2 -2.1856 -0.0166 
8 6 3 -1.3978 -0.0411 
8 6 4 -0.2280 0.0170 
8 6 5 -0.2768 0.0464 
8 6 6 -0.3519 0.0042 
8 6 7 0.2855 -0.0435 
8 7 0 -0.4407 0.0129 
8 7 1 0.0757 0.1998 
8 7 2 0.2725 0.1397 
8 7 3 0.5710 -0.1389 
8 7 4 1.1850 0.0034 
8 7 5 0.5319 0.2698 
8 8 0 -1.2931 -0.1838 
8 8 1 -1.0947 -0.0791 
8 8 2 -0.1392 0.1387 
9 -10 0 0.6252 0.0321 
9 -10 1 1.6987 0.1463 
9 -10 2 1.4463 -0.2338 
9 -10 3 -0.3829 -0.1561 
9 -10 4 -1.5918 -0.0496 
9 -9 0 -1.9994 -0.2052 
9 -9 1 -0.6886 0.0110 
9 -9 2 2.6213 -0.0883 
9 -9 3 3.5163 -0.1227 
9 -9 4 1.6635 0.0615 
9 -9 5 -0.2151 -0.1387 
9 -9 6 0.0975 -0.2305 
9 -9 7 2.2374 0.1703 
9 -8 0 -0.3087 0.0158 
9 -8 1 -1.7842 0.1345 
9 -8 2 -0.6074 0.1221 
9 -8 3 1.5543 -0.0474 
9 -8 4 1.3928 0.0168 
9 -8 5 -0.0305 0.0014 
9 -8 6 -0.8792 -0.1965 
9 -8 7 0.4301 -0.0015 
9 -8 8 1.7030 0.2237 
9 -8 9 0.7226 -0.1859 
9 -7 0 -0.8033 -0.0432 
9 -7 1 -1.0812 -0.0178 
9 -7 2 -1.8542 0.0533 
9 -7 3 -1.1785 0.0132 
9 -7 4 -0.8144 0.0626 
9 -7 5 -0.2943 0.1739 
9 -7 6 0.5101 0.0049 
9 -7 7 1.5183 -0.1726 
9 -7 8 2.5791 0.0715 
9 -7 9 1.4902 0.2046 
9 -7 10 0.2303 -0.1557 
9 -6 0 -2.4336 0.0050 
9 -6 1 -1.3835 0.0726 
9 -6 2 -1.1773 0.0876 
9 -6 3 0.4538 -0.0190 
9 -6 4 1.8698 -0.1178 
9 -6 5 2.0400 -0.0171 
9 -6 6 1.3534 0.1426 
9 -6 7 0.0239 0.0379 
9 -6 8 0.3812 -0.0582 
9 -6 9 1.0803 0.1612 
9 -6 10 0.0467 0.2211 
9 -6 11 0.3884 -0.1109 
9 -5 0 -0.1065 -0.0213 
9 -5 1 0.0553 0.0306 
9 -5 2 -0.8528 0.0499 
9 -5 3 -1.0854 0.0332 
9 -5 4 -0.7490 -0.0101 
9 -5 5 -0.5961 -0.1005 
9 -5 6 0.1176 -0.0658 
9 -5 7 -0.2563 0.0341 
9 -5 8 -0.5779 -0.0823 
9 -5 9 1.1581 -0.1190 
9 -5 10 1.8937 0.1260 
9 -5 11 2.2257 0.2462 
9 -4 0 -0.2748 -0.0602 
9 -4 1 -1.0968 -0.0477 
9 -4 2 -1.9432 -0.0455 
9 -4 3 -1.5549 -0.0590 
9 -4 4 -1.0282 0.0144 
9 -4 5 -1.8237 0.0267 
9 -4 6 -0.6486 -0.0957 
9 -4 7 1.9972 -0.0273 
9 -4 8 1.8775 0.1264 
9 -4 9 0.3774 0.0647 
9 -4 10 -1.1156 -0.0017 
9 -4 11 -1.3713 0.0017 
9 -3 0 0.5309 0.0562 
9 -3 1 0.1305 0.1052 
9 -3 2 -1.7727 0.0978 
9 -3 3 -1.2118 -0.0122 
9 -3 4 1.4121 -0.0855 
9 -3 5 0.7772 0.0164 
9 -3 6 -1.4160 0.0564 
9 -3 7 0.1549 -0.0039 
9 -3 8 2.3663 0.0289 
9 -3 9 1.6898 0.0114 
9 -3 10 -0.8634 -0.0523 
9 -3 11 -3.7156 -0.0183 
9 -3 12 -2.0414 -0.0291 
9 -2 0 -1.3911 -0.1110 
9 -2 1 -1.1295 -0.1225 
9 -2 2 -3.0134 -0.0835 
9 -2 3 -3.5136 0.0258 
9 -2 4 -0.0725 0.0620 
9 -2 5 2.4690 0.0446 
9 -2 6 0.4501 0.0330 
9 -2 7 -1.5582 -0.0375 
9 -2 8 -1.1014 -0.0546 
9 -2 9 -0.3213 -0.0130 
9 -2 10 0.7594 -0.0149 
9 -2 11 0.4086 0.0325 
9 -2 12 -1.5710 0.0600 
9 -1 0 -0.4058 0.1112 
9 -1 1 -0.1684 0.0843 
9 -1 2 -0.5964 0.0076 
9 -1 3 -1.5539 -0.0018 
9 -1 4 -1.4669 0.0210 
9 -1 5 -0.7065 -0.0414 
9 -1 6 -0.8050 -0.1109 
9 -1 7 -1.1879 -0.1221 
9 -1 8 -1.2987 -0.0371 
9 -1 9 -2.6482 0.1413 
9 -1 10 -3.0985 0.2384 
9 -1 11 -0.8424 0.1993 
9 0 0 0.7430 0.0144 
9 0 1 0.2067 -0.0501 
9 0 2 0.3363 -0.0699 
9 0 3 1.2334 -0.0110 
9 0 4 2.0359 0.0534 
9 0 5 1.4925 0.0606 
9 0 6 0.9865 0.0602 
9 0 7 1.6124 0.0680 
9 0 8 2.2274 0.0330 
9 0 9 1.0708 -0.0117 
9 0 10 -0.7440 -0.0213 
9 0 11 0.6321 0.0769 
9 1 0 1.8787 0.1076 
9 1 1 0.8695 0.0449 
9 1 2 0.6341 -0.0066 
9 1 3 1.8387 0.0324 
9 1 4 2.9282 0.0227 
9 1 5 1.1654 -0.0701 
9 1 6 -1.1861 -0.0842 
9 1 7 -0.8411 0.0145 
9 1 8 0.1009 0.0954 
9 1 9 0.0728 0.0598 
9 1 10 -0.1257 -0.1097 
9 2 0 3.3492 -0.0312 
9 2 1 1.5892 -0.0830 
9 2 2 -0.5709 -0.0026 
9 2 3 -0.4370 0.1284 
9 2 4 0.8024 0.1011 
9 2 5 -0.3579 -0.0764 
9 2 6 -2.8441 -0.1202 
9 2 7 -1.8799 0.0175 
9 2 8 -0.4246 0.1351 
9 2 9 -2.2374 0.1204 
9 2 10 -3.6777 -0.0943 
9 3 0 0.2605 0.1125 
9 3 1 0.6391 -0.0484 
9 3 2 -0.4787 -0.0373 
9 3 3 0.0081 0.0248 
9 3 4 1.5347 -0.0545 
9 3 5 1.1771 -0.1825 
9 3 6 -1.6461 -0.1005 
9 3 7 -1.6737 0.1021 
9 3 8 1.3667 0.1265 
9 3 9 1.5736 -0.0323 
9 4 0 -2.3355 0.0275 
9 4 1 -1.2343 -0.0436 
9 4 2 -0.5885 0.0370 
9 4 3 0.7189 0.1298 
9 4 4 1.5263 0.0390 
9 4 5 0.9598 -0.0487 
9 4 6 -0.6573 0.0634 
9 4 7 -1.2766 0.0849 
9 4 8 -0.0271 -0.2633 
9 5 0 -1.7575 -0.0044 
9 5 1 -2.0360 -0.1533 
9 5 2 -1.2093 -0.0197 
9 5 3 1.1267 0.1221 
9 5 4 2.3941 -0.0252 
9 5 5 0.8588 -0.1388 
9 5 6 -0.4567 0.1585 
9 6 0 -0.3546 -0.0053 
9 6 1 -2.7028 -0.0527 
9 6 2 -3.2480 0.2236 
9 6 3 -0.8229 0.3293 
9 6 4 2.6859 -0.0984 
9 7 0 1.1097 0.0035 
9 7 1 -0.9620 -0.3253 
9 7 2 -1.8877 0.0061 
10 -9 0 4.2097 -0.0633 
10 -9 1 2.0462 -0.2672 
10 -9 2 -0.9753 -0.0366 
10 -9 3 -1.3346 -0.0601 
10 -9 4 -0.6515 -0.0262 
10 -8 0 2.5747 0.1828 
10 -8 1 4.1407 0.0781 
10 -8 2 3.1363 0.1818 
10 -8 3 1.8327 0.1629 
10 -8 4 0.4413 0.0123 
10 -8 5 -0.8440 0.1234 
10 -8 6 -1.2044 0.0185 
10 -7 0 0.8760 0.0419 
10 -7 1 2.0141 -0.0971 
10 -7 2 1.1391 -0.1202 
10 -7 3 -0.5838 -0.0394 
10 -7 4 -1.1206 -0.0609 
10 -7 5 -1.4021 -0.0158 
10 -7 6 -1.5646 0.1137 
10 -7 7 -2.0262 -0.0409 
10 -6 0 -1.2937 -0.0428 
10 -6 1 0.0301 0.0715 
10 -6 2 0.2140 0.1383 
10 -6 3 -1.8191 0.1536 
10 -6 4 -2.1819 0.1274 
10 -6 5 -0.6490 0.0139 
10 -6 6 0.5634 -0.0451 
10 -6 7 -1.0334 0.1072 
10 -6 8 -4.3672 0.0973 
10 -5 0 0.0858 0.0018 
10 -5 1 0.9460 -0.0445 
10 -5 2 1.9992 -0.0608 
10 -5 3 0.5629 -0.1497 
10 -5 4 -1.3694 -0.1265 
10 -5 5 -2.1553 0.0285 
10 -5 6 -1.2443 -0.0509 
10 -5 7 0.9735 -0.1137 
10 -5 8 0.9845 0.1478 
10 -5 9 -0.5790 0.2137 
10 -4 0 -0.0667 0.0081 
10 -4 1 0.7494 0.0726 
10 -4 2 1.2792 0.1855 
10 -4 3 0.6804 0.1247 
10 -4 4 0.7307 -0.1056 
10 -4 5 0.6725 -0.0818 
10 -4 6 -1.3746 0.0382 
10 -4 7 -1.5861 -0.0831 
10 -4 8 1.4398 -0.0649 
10 -4 9 3.8610 0.1155 
10 -3 0 -1.8189 -0.0930 
10 -3 1 -0.7623 -0.0817 
10 -3 2 0.0854 -0.0404 
10 -3 3 -1.0560 0.0067 
10 -3 4 -1.0510 -0.0730 
10 -3 5 1.5329 -0.0930 
10 -3 6 1.5087 0.1418 
10 -3 7 -1.8799 0.2780 
10 -3 8 -3.4912 0.1978 
10 -3 9 -2.6125 0.0617 
10 -3 10 -0.3723 -0.2377 
10 -2 0 0.5525 0.0162 
10 -2 1 -1.1620 0.0631 
10 -2 2 -0.9872 0.0542 
10 -2 3 -0.8558 0.0090 
10 -2 4 -0.8504 0.0163 
10 -2 5 0.9064 0.0278 
10 -2 6 2.3071 0.0379 
10 -2 7 0.7110 -0.0164 
10 -2 8 -1.5241 -0.1070 
10 -2 9 -3.2182 0.0231 
10 -1 0 1.0171 0.0005 
10 -1 1 -0.9331 0.0412 
10 -1 2 -1.2046 0.0491 
10 -1 3 -0.2422 -0.0177 
10 -1 4 0.3092 -0.0345 
10 -1 5 0.2425 0.0599 
10 -1 6 -0.4215 0.1435 
10 -1 7 -1.3570 0.0723 
10 -1 8 -0.9740 -0.1522 
10 -1 9 -0.3629 -0.1975 
10 0 0 1.3975 0.0917 
10 0 1 -1.5010 0.0598 
10 0 2 -3.1939 -0.0205 
10 0 3 -1.8613 -0.0729 
10 0 4 0.7578 -0.0666 
10 0 5 2.5911 -0.0201 
10 0 6 1.8807 0.0305 
10 0 7 -0.6534 0.0582 
10 0 8 -2.2012 -0.0060 
10 0 9 -1.6345 -0.1240 
10 1 0 2.3756 0.0168 
10 1 1 0.9598 0.0099 
10 1 2 -1.8874 -0.0617 
10 1 3 -1.4137 -0.0540 
10 1 4 1.3039 0.0711 
10 1 5 3.4603 0.1555 
10 1 6 2.9772 0.0976 
10 1 7 0.6716 0.0003 
10 1 8 -0.6751 -0.0384 
10 2 0 1.4795 0.1086 
10 2 1 1.8653 -0.0449 
10 2 2 -1.7607 -0.1808 
10 2 3 -3.9986 -0.1276 
10 2 4 -3.3656 0.0110 
10 2 5 -1.8487 0.0269 
10 2 6 -1.0731 -0.1019 
10 2 7 -1.6089 -0.1456 
10 3 0 0.7198 0.0185 
10 3 1 0.9157 -0.0064 
10 3 2 -1.0845 -0.0391 
10 3 3 -1.9575 0.1179 
10 3 4 -0.7735 0.2081 
10 3 5 -0.6942 0.0885 
10 3 6 -1.1750 -0.0129 
10 4 0 3.4409 0.2448 
10 4 1 1.5605 0.0920 
10 4 2 -0.9146 -0.1590 
10 4 3 -0.9239 -0.0159 
10 4 4 2.4344 0.1083 
10 4 5 2.6355 -0.1697 
10 5 0 2.9020 0.0906 
10 5 1 1.3934 -0.0061 
10 5 2 -1.7109 -0.2324 
10 5 3 -3.9465 0.1546 
10 6 0 2.5949 0.2567 
11 -8 0 -1.0564 0.2952 
11 -8 1 -0.1536 0.3811 
11 -7 0 -0.7854 -0.0364 
11 -7 1 0.5817 0.1618 
11 -7 2 2.6775 0.1150 
11 -7 3 2.2077 -0.0337 
11 -7 4 0.4482 -0.0232 
11 -6 0 -0.1395 -0.0507 
11 -6 1 -0.8516 -0.0679 
11 -6 2 0.7899 -0.0121 
11 -6 3 2.1930 0.0149 
11 -6 4 0.5815 -0.0289 
11 -6 5 -1.9047 0.0862 
11 -5 0 0.4246 0.2258 
11 -5 1 0.7379 0.1722 
11 -5 2 0.7251 0.0547 
11 -5 3 1.3253 0.1228 
11 -5 4 0.8054 0.0353 
11 -5 5 -1.2623 -0.0688 
11 -5 6 -4.2557 0.1142 
11 -4 0 1.4001 -0.1607 
11 -4 1 2.3754 -0.0910 
11 -4 2 2.8422 -0.1363 
11 -4 3 2.8345 0.0250 
11 -4 4 1.5410 0.1504 
11 -4 5 0.6597 -0.1096 
11 -4 6 0.7875 -0.1732 
11 -4 7 0.1128 0.1898 
11 -3 0 2.3825 0.0673 
11 -3 1 3.5052 0.0943 
11 -3 2 4.0151 0.0695 
11 -3 3 4.7732 0.0554 
11 -3 4 3.4901 0.1588 
11 -3 5 0.7248 0.0776 
11 -3 6 0.2306 -0.1517 
11 -3 7 1.6150 -0.1728 
11 -2 0 0.3471 -0.1343 
11 -2 1 0.6864 -0.1392 
11 -2 2 0.3665 -0.0227 
11 -2 3 2.2506 0.0434 
11 -2 4 4.5565 0.0151 
11 -2 5 4.2063 -0.0230 
11 -2 6 2.3345 -0.0256 
11 -2 7 0.6236 -0.0167 
11 -1 0 1.4715 0.1210 
11 -1 1 0.8797 0.1099 
11 -1 2 -1.1608 0.0724 
11 -1 3 -1.2252 0.0732 
11 -1 4 0.4231 0.0067 
11 -1 5 1.4812 -0.1136 
11 -1 6 2.3840 -0.1286 
11 -1 7 2.9961 0.0414 
11 0 0 0.5835 -0.1303 
11 0 1 1.3596 -0.0506 
11 0 2 -1.2876 -0.0357 
11 0 3 -3.1839 -0.0401 
11 0 4 -2.3132 -0.0256 
11 0 5 -1.2261 0.0173 
11 0 6 0.6966 0.1005 
11 1 0 -1.5214 0.0448 
11 1 1 1.2327 0.1260 
11 1 2 1.6576 0.0983 
11 1 3 0.4983 0.0043 
11 1 4 1.4328 -0.0711 
11 1 5 1.5893 -0.0338 
11 2 0 1.3492 0.0573 
11 2 1 2.6610 0.0128 
11 2 2 2.7256 -0.1017 
11 2 3 0.0136 -0.0508 
11 2 4 -0.0230 0.1289 
11 3 0 0.5448 -0.0294 
11 3 1 2.1561 0.0755 
11 3 2 2.2417 -0.0555 
11 3 3 -1.6052 -0.1028 
11 4 0 -1.0366 -0.0912 
11 4 1 0.6409 0.2271 
12 -6 0 -0.2409 0.2090 
12 -5 0 -3.1258 -0.1787 
12 -5 1 -1.1348 0.3216 
12 -5 2 0.2076 0.2814 
12 -4 0 -3.6988 -0.1162 
12 -4 1 -2.7132 0.0885 
12 -4 2 -1.4253 0.1817 
12 -4 3 -0.4684 -0.2575 
12 -3 0 -2.7909 -0.0433 
12 -3 1 -1.9949 -0.0803 
12 -3 2 -1.1137 0.0319 
12 -3 3 -1.1972 -0.0239 
12 -2 0 -1.6950 0.0297 
12 -2 1 -2.2609 0.0072 
12 -2 2 -0.9959 -0.0187 
12 -2 3 0.0360 0.0448 
12 -1 0 -1.3487 -0.0325 
12 -1 1 -2.7935 0.0736 
12 -1 2 -1.0212 0.0328 
12 -1 3 1.8206 -0.0793 
12 0 0 2.0090 0.0083 
12 0 1 -3.1095 -0.0066 
12 0 2 -4.4877 0.0352 
12 1 0 2.3195 0.0101 
12 1 1 -1.1273 0.0579 
12 2 0 -0.3654 0.1473 
0 0 0 0.0 0.0 
;
_shelx_fab_checksum              47251
_olex2_submission_special_instructions 'No special instructions were received'
loop_
_space_group_symop_operation_xyz
'x, y, z'
'-x, -y, -z'
loop_
_atom_site_label
_atom_site_type_symbol
_atom_site_fract_x
_atom_site_fract_y
_atom_site_fract_z
_atom_site_U_iso_or_equiv
_atom_site_adp_type
_atom_site_occupancy
_atom_site_site_symmetry_order
_atom_site_calc_flag
_atom_site_refinement_flags_posn
_atom_site_refinement_flags_adp
_atom_site_refinement_flags_occupancy
_atom_site_disorder_assembly
_atom_site_disorder_group
Eu1 Eu 0.29137(2) 0.45752(2) 0.46771(2) 0.01796(10) Uani 1 1 d . . . . .
O1 O 0.4430(4) 0.4172(4) 0.3921(2) 0.0351(10) Uani 1 1 d . . . . .
O2 O 0.6522(4) 0.4597(3) 0.3947(2) 0.0290(9) Uani 1 1 d . . . . .
O3 O 1.1137(4) 0.3358(3) 0.5099(2) 0.0328(9) Uani 1 1 d . . . . .
O4 O 1.1783(3) 0.2356(3) 0.4108(2) 0.0255(8) Uani 1 1 d . . . . .
O5 O 0.3845(3) 0.6641(3) 0.4629(2) 0.0254(8) Uani 1 1 d . . . . .
O6 O 0.5974(3) 0.6909(3) 0.4687(2) 0.0258(8) Uani 1 1 d . . . . .
O7 O 1.0662(6) 1.4462(6) 0.6709(3) 0.0814(18) Uani 1 1 d . U . . .
O8 O 1.2459(8) 1.3779(9) 0.7030(5) 0.126(2) Uani 1 1 d . U . . .
H8 H 1.2501 1.3880 0.6572 0.189 Uiso 1 1 calc R . . . .
O9 O 0.1400(4) 0.6041(4) 0.4892(3) 0.0422(11) Uani 1 1 d . . . . .
H9A H 0.1153 0.6015 0.5357 0.063 Uiso 1 1 d GR . . . .
H9B H 0.0644 0.5801 0.4537 0.063 Uiso 1 1 d GR . . . .
O10 O 0.1633(5) 0.4635(4) 0.3406(3) 0.0470(12) Uani 1 1 d . . . . .
H10A H 0.0807 0.4702 0.3428 0.071 Uiso 1 1 d GR . . . .
H10B H 0.1540 0.3901 0.3082 0.071 Uiso 1 1 d GR . . . .
C1 C 0.5376(5) 0.4208(5) 0.3591(3) 0.0252(12) Uani 1 1 d . . . . .
C2 C 0.5124(5) 0.3807(5) 0.2714(3) 0.0285(12) Uani 1 1 d . . . . .
C3 C 0.4185(6) 0.4327(6) 0.2238(4) 0.0388(15) Uani 1 1 d . . . . .
H3 H 0.3692 0.4849 0.2479 0.047 Uiso 1 1 calc R . . . .
C4 C 0.3977(7) 0.4095(7) 0.1442(4) 0.0527(19) Uani 1 1 d . . . . .
H4 H 0.3348 0.4453 0.1132 0.063 Uiso 1 1 calc R . . . .
C5 C 0.4709(7) 0.3315(7) 0.1082(4) 0.0528(19) Uani 1 1 d . . . . .
H5 H 0.4585 0.3164 0.0528 0.063 Uiso 1 1 calc R . . . .
C6 C 0.5612(6) 0.2767(6) 0.1538(4) 0.0408(15) Uani 1 1 d . . . . .
H6 H 0.6084 0.2228 0.1291 0.049 Uiso 1 1 calc R . . . .
C7 C 0.5831(5) 0.3005(5) 0.2360(3) 0.0280(12) Uani 1 1 d . . . . .
C8 C 0.6714(5) 0.2325(5) 0.2836(3) 0.0260(12) Uani 1 1 d . . . . .
C9 C 0.7988(5) 0.2300(5) 0.2750(3) 0.0286(12) Uani 1 1 d . . . . .
H9 H 0.8289 0.2696 0.2357 0.034 Uiso 1 1 calc R . . . .
C10 C 0.8816(5) 0.1703(5) 0.3232(3) 0.0275(12) Uani 1 1 d . . . . .
H10 H 0.9665 0.1696 0.3157 0.033 Uiso 1 1 calc R . . . .
C11 C 0.8409(5) 0.1116(4) 0.3822(3) 0.0230(11) Uani 1 1 d . . . . .
C12 C 0.7118(5) 0.1103(5) 0.3893(3) 0.0252(12) Uani 1 1 d . . . . .
H12 H 0.6805 0.0680 0.4271 0.030 Uiso 1 1 calc R . . . .
C13 C 0.6306(5) 0.1702(5) 0.3413(3) 0.0286(12) Uani 1 1 d . . . . .
H13 H 0.5450 0.1689 0.3479 0.034 Uiso 1 1 calc R . . . .
C14 C 0.9269(5) 0.0543(4) 0.4401(3) 0.0204(11) Uani 1 1 d . . . . .
C15 C 0.8783(5) -0.0603(4) 0.4605(3) 0.0215(11) Uani 1 1 d . . . . .
H15 H 0.7955 -0.1022 0.4335 0.026 Uiso 1 1 calc R . . . .
C16 C 1.0515(5) 0.1144(4) 0.4805(3) 0.0202(11) Uani 1 1 d . . . . .
C17 C 1.1164(5) 0.2362(5) 0.4647(3) 0.0211(11) Uani 1 1 d . . . . .
C18 C 0.4927(5) 0.7309(5) 0.4684(3) 0.0210(11) Uani 1 1 d . . . . .
C19 C 0.4963(5) 0.8710(4) 0.4787(3) 0.0175(10) Uani 1 1 d . . . . .
C20 C 0.5892(5) 0.9414(4) 0.5420(3) 0.0196(11) Uani 1 1 d . . . . .
H20 H 0.6510 0.9009 0.5702 0.023 Uiso 1 1 calc R . . . .
C21 C 0.5944(5) 1.0705(5) 0.5656(3) 0.0208(11) Uani 1 1 d . . . . .
C22 C 0.6961(5) 1.1384(5) 0.6338(3) 0.0245(12) Uani 1 1 d . . . . .
C23 C 0.6704(6) 1.2239(5) 0.6929(3) 0.0313(13) Uani 1 1 d . . . . .
H23 H 0.5854 1.2395 0.6909 0.038 Uiso 1 1 calc R . . . .
C24 C 0.7698(7) 1.2861(5) 0.7548(4) 0.0402(16) Uani 1 1 d . . . . .
H24 H 0.7513 1.3437 0.7943 0.048 Uiso 1 1 calc R . . . .
C25 C 0.8960(6) 1.2648(6) 0.7593(4) 0.0425(16) Uani 1 1 d . . . . .
C26 C 0.9198(7) 1.1746(7) 0.7035(4) 0.0518(18) Uani 1 1 d . . . . .
H26 H 1.0034 1.1543 0.7079 0.062 Uiso 1 1 calc R . . . .
C27 C 0.8224(6) 1.1142(6) 0.6415(4) 0.0386(15) Uani 1 1 d . . . . .
H27 H 0.8414 1.0549 0.6032 0.046 Uiso 1 1 calc R . . . .
C28 C 1.0112(5) 1.3327(6) 0.8210(3) 0.0728(17) Uani 1 1 d . U . . .
C29 C 1.0052(5) 1.3335(6) 0.8999(3) 0.0837(19) Uani 1 1 d G U . . .
H29 H 0.9286 1.2975 0.9131 0.100 Uiso 1 1 calc R . . . .
C30 C 1.1126(6) 1.3876(6) 0.9592(2) 0.092(2) Uani 1 1 d G U . . .
H30 H 1.1085 1.3882 1.0125 0.110 Uiso 1 1 calc R . . . .
C31 C 1.2259(5) 1.4409(6) 0.9396(3) 0.092(2) Uani 1 1 d G U . . .
H31 H 1.2985 1.4775 0.9797 0.111 Uiso 1 1 calc R . . . .
C32 C 1.2319(5) 1.4401(6) 0.8607(3) 0.0881(19) Uani 1 1 d G U . . .
H32 H 1.3086 1.4761 0.8475 0.106 Uiso 1 1 calc R . . . .
C33 C 1.1246(6) 1.3860(6) 0.8014(2) 0.0801(16) Uani 1 1 d G U . . .
C34 C 1.1304(10) 1.4050(10) 0.7180(6) 0.0811(18) Uani 1 1 d . U . . .
O11 O 0.1119(6) 0.2693(6) 0.2199(3) 0.0772(18) Uani 1 1 d . . . . .
N1 N 0.2028(8) 0.1087(7) 0.1700(4) 0.080(2) Uani 1 1 d . . . . .
C35 C 0.1877(9) 0.1903(9) 0.2268(5) 0.067(2) Uani 1 1 d . . . . .
H35 H 0.2374 0.1909 0.2776 0.081 Uiso 1 1 calc R . . . .
C36 C 0.1293(19) 0.1010(16) 0.0896(7) 0.225(11) Uani 1 1 d . U . . .
H36A H 0.1884 0.1204 0.0553 0.338 Uiso 1 1 calc GR . . . .
H36B H 0.0697 0.1607 0.0888 0.338 Uiso 1 1 calc GR . . . .
H36C H 0.0809 0.0169 0.0711 0.338 Uiso 1 1 calc GR . . . .
C37 C 0.3001(11) 0.0261(9) 0.1846(6) 0.089(3) Uani 1 1 d . . . . .
H37A H 0.3452 0.0453 0.2396 0.133 Uiso 1 1 calc GR . . . .
H37B H 0.3618 0.0393 0.1510 0.133 Uiso 1 1 calc GR . . . .
H37C H 0.2574 -0.0607 0.1727 0.133 Uiso 1 1 calc GR . . . .
loop_
_atom_site_aniso_label
_atom_site_aniso_U_11
_atom_site_aniso_U_22
_atom_site_aniso_U_33
_atom_site_aniso_U_23
_atom_site_aniso_U_13
_atom_site_aniso_U_12
Eu1 0.01397(15) 0.01132(13) 0.02906(16) 0.00395(10) 0.00520(10) 0.00223(9)
O1 0.037(2) 0.029(2) 0.049(2) 0.0102(19) 0.027(2) 0.0130(18)
O2 0.025(2) 0.031(2) 0.031(2) 0.0050(17) 0.0038(17) 0.0054(16)
O3 0.030(2) 0.0139(18) 0.058(3) 0.0007(18) 0.025(2) -0.0016(15)
O4 0.023(2) 0.0179(18) 0.035(2) 0.0046(16) 0.0075(17) -0.0022(15)
O5 0.020(2) 0.0153(18) 0.040(2) 0.0076(16) 0.0044(17) 0.0015(15)
O6 0.0199(19) 0.0178(18) 0.042(2) 0.0064(16) 0.0070(17) 0.0094(15)
O7 0.084(4) 0.086(4) 0.068(3) 0.021(3) -0.015(3) 0.028(3)
O8 0.100(5) 0.182(6) 0.113(5) 0.046(5) 0.040(4) 0.037(5)
O9 0.024(2) 0.030(2) 0.071(3) -0.003(2) 0.009(2) 0.0113(18)
O10 0.053(3) 0.034(2) 0.045(3) 0.008(2) -0.010(2) 0.005(2)
C1 0.033(3) 0.016(3) 0.033(3) 0.010(2) 0.013(3) 0.014(2)
C2 0.023(3) 0.029(3) 0.035(3) 0.008(2) 0.006(2) 0.007(2)
C3 0.034(3) 0.045(4) 0.040(4) 0.010(3) 0.005(3) 0.018(3)
C4 0.052(5) 0.068(5) 0.038(4) 0.013(3) -0.007(3) 0.027(4)
C5 0.064(5) 0.065(5) 0.027(3) 0.005(3) -0.002(3) 0.022(4)
C6 0.042(4) 0.046(4) 0.033(3) -0.002(3) 0.006(3) 0.017(3)
C7 0.026(3) 0.029(3) 0.030(3) 0.006(2) 0.006(2) 0.007(2)
C8 0.026(3) 0.023(3) 0.029(3) 0.003(2) 0.006(2) 0.005(2)
C9 0.030(3) 0.030(3) 0.029(3) 0.012(2) 0.010(2) 0.006(2)
C10 0.022(3) 0.027(3) 0.035(3) 0.011(2) 0.008(2) 0.002(2)
C11 0.023(3) 0.011(2) 0.033(3) 0.000(2) 0.004(2) 0.001(2)
C12 0.020(3) 0.021(3) 0.040(3) 0.014(2) 0.014(2) 0.002(2)
C13 0.022(3) 0.025(3) 0.042(3) 0.009(2) 0.009(3) 0.007(2)
C14 0.019(3) 0.013(2) 0.029(3) 0.003(2) 0.006(2) 0.0035(19)
C15 0.016(3) 0.016(2) 0.031(3) 0.004(2) 0.003(2) 0.0012(19)
C16 0.019(3) 0.010(2) 0.033(3) 0.002(2) 0.011(2) 0.0023(19)
C17 0.013(2) 0.016(3) 0.035(3) 0.006(2) 0.005(2) 0.0019(19)
C18 0.022(3) 0.018(3) 0.022(3) 0.005(2) 0.002(2) 0.003(2)
C19 0.017(2) 0.013(2) 0.028(3) 0.007(2) 0.013(2) 0.0034(19)
C20 0.013(2) 0.016(2) 0.033(3) 0.009(2) 0.007(2) 0.0058(19)
C21 0.019(3) 0.017(2) 0.030(3) 0.007(2) 0.008(2) 0.005(2)
C22 0.023(3) 0.017(3) 0.032(3) 0.006(2) 0.001(2) 0.001(2)
C23 0.033(3) 0.022(3) 0.038(3) 0.004(2) 0.004(3) 0.010(2)
C24 0.057(4) 0.025(3) 0.033(3) 0.001(3) -0.002(3) 0.004(3)
C25 0.038(4) 0.034(3) 0.043(4) 0.009(3) -0.016(3) -0.003(3)
C26 0.030(4) 0.056(4) 0.061(5) 0.001(4) -0.003(3) 0.007(3)
C27 0.027(3) 0.037(3) 0.049(4) 0.001(3) 0.003(3) 0.009(3)
C28 0.068(3) 0.083(4) 0.058(3) 0.028(3) -0.006(3) -0.011(3)
C29 0.080(4) 0.093(4) 0.063(3) 0.020(3) -0.008(3) -0.014(3)
C30 0.087(4) 0.104(4) 0.064(3) 0.016(3) -0.015(3) -0.011(3)
C31 0.083(4) 0.110(4) 0.065(3) 0.019(3) -0.013(3) -0.009(3)
C32 0.076(3) 0.104(4) 0.070(3) 0.022(3) -0.010(3) -0.007(3)
C33 0.070(3) 0.095(3) 0.067(3) 0.028(3) -0.003(3) -0.001(3)
C34 0.070(3) 0.105(4) 0.072(3) 0.038(3) 0.006(3) 0.017(3)
O11 0.070(4) 0.086(5) 0.066(4) -0.010(3) 0.008(3) 0.007(3)
N1 0.117(7) 0.066(5) 0.050(4) -0.004(4) 0.005(4) 0.026(5)
C35 0.072(6) 0.078(6) 0.047(5) 0.004(4) 0.015(4) 0.001(5)
C36 0.33(3) 0.234(19) 0.081(9) -0.065(11) -0.070(12) 0.172(19)
C37 0.115(9) 0.069(6) 0.087(7) 0.022(5) 0.026(6) 0.016(6)
loop_
_atom_type_symbol
_atom_type_description
_atom_type_scat_dispersion_real
_atom_type_scat_dispersion_imag
_atom_type_scat_source
C C 0.0033 0.0016 'International Tables Vol C Tables 4.2.6.8 and 6.1.1.4'
H H 0.0000 0.0000 'International Tables Vol C Tables 4.2.6.8 and 6.1.1.4'
Eu Eu -0.1578 3.6682 'International Tables Vol C Tables 4.2.6.8 and 6.1.1.4'
N N 0.0061 0.0033 'International Tables Vol C Tables 4.2.6.8 and 6.1.1.4'
O O 0.0106 0.0060 'International Tables Vol C Tables 4.2.6.8 and 6.1.1.4'
loop_
_geom_angle_atom_site_label_1
_geom_angle_atom_site_label_2
_geom_angle_atom_site_label_3
_geom_angle
_geom_angle_site_symmetry_1
_geom_angle_site_symmetry_3
_geom_angle_publ_flag
O1 Eu1 Eu1 50.64(11) . 2_666 ?
O1 Eu1 O2 123.45(14) . 2_666 ?
O1 Eu1 O3 136.99(13) . 1_455 ?
O1 Eu1 O4 85.89(13) . 1_455 ?
O1 Eu1 O5 80.10(13) . . ?
O1 Eu1 O6 76.10(13) . 2_666 ?
O1 Eu1 O9 141.46(15) . . ?
O1 Eu1 O10 81.53(16) . . ?
O1 Eu1 C1 104.52(14) . 2_666 ?
O1 Eu1 C17 110.79(14) . 1_455 ?
O2 Eu1 Eu1 73.05(9) 2_666 2_666 ?
O2 Eu1 O3 81.23(13) 2_666 1_455 ?
O2 Eu1 O4 124.34(12) 2_666 1_455 ?
O2 Eu1 O6 73.66(12) 2_666 2_666 ?
O2 Eu1 O9 74.27(14) 2_666 . ?
O2 Eu1 O10 147.65(15) 2_666 . ?
O2 Eu1 C1 19.10(13) 2_666 2_666 ?
O2 Eu1 C17 101.73(14) 2_666 1_455 ?
O3 Eu1 Eu1 138.35(10) 1_455 2_666 ?
O3 Eu1 O4 52.36(12) 1_455 1_455 ?
O3 Eu1 O9 74.55(13) 1_455 . ?
O3 Eu1 C1 97.84(14) 1_455 2_666 ?
O3 Eu1 C17 26.47(13) 1_455 1_455 ?
O4 Eu1 Eu1 120.29(8) 1_455 2_666 ?
O4 Eu1 C1 131.53(12) 1_455 2_666 ?
O4 Eu1 C17 26.20(13) 1_455 1_455 ?
O5 Eu1 Eu1 64.05(9) . 2_666 ?
O5 Eu1 O2 79.93(13) . 2_666 ?
O5 Eu1 O3 142.45(12) . 1_455 ?
O5 Eu1 O4 155.70(13) . 1_455 ?
O5 Eu1 O6 125.10(12) . 2_666 ?
O5 Eu1 O9 69.20(13) . . ?
O5 Eu1 O10 85.49(14) . . ?
O5 Eu1 C1 71.70(13) . 2_666 ?
O5 Eu1 C17 164.40(13) . 1_455 ?
O6 Eu1 Eu1 62.52(8) 2_666 2_666 ?
O6 Eu1 O3 79.25(13) 2_666 1_455 ?
O6 Eu1 O4 69.42(12) 2_666 1_455 ?
O6 Eu1 O9 141.05(15) 2_666 . ?
O6 Eu1 C1 67.72(12) 2_666 2_666 ?
O6 Eu1 C17 69.63(13) 2_666 1_455 ?
O9 Eu1 Eu1 126.32(10) . 2_666 ?
O9 Eu1 O4 113.24(13) . 1_455 ?
O9 Eu1 C1 87.75(14) . 2_666 ?
O9 Eu1 C17 96.14(14) . 1_455 ?
O10 Eu1 Eu1 125.28(12) . 2_666 ?
O10 Eu1 O3 93.59(15) . 1_455 ?
O10 Eu1 O4 72.81(13) . 1_455 ?
O10 Eu1 O6 137.01(14) . 2_666 ?
O10 Eu1 O9 73.58(16) . . ?
O10 Eu1 C1 154.66(14) . 2_666 ?
O10 Eu1 C17 85.18(15) . 1_455 ?
C1 Eu1 Eu1 53.99(10) 2_666 2_666 ?
C17 Eu1 Eu1 131.43(10) 1_455 2_666 ?
C17 Eu1 C1 114.32(14) 1_455 2_666 ?
C1 O1 Eu1 166.5(4) . . ?
C1 O2 Eu1 122.2(3) . 2_666 ?
C17 O3 Eu1 93.9(3) . 1_655 ?
C17 O4 Eu1 90.3(3) . 1_655 ?
C18 O5 Eu1 141.1(3) . . ?
C18 O6 Eu1 136.6(3) . 2_666 ?
C34 O8 H8 109.5 . . ?
Eu1 O9 H9A 112.1 . . ?
Eu1 O9 H9B 110.5 . . ?
H9A O9 H9B 102.5 . . ?
Eu1 O10 H10A 111.9 . . ?
Eu1 O10 H10B 111.1 . . ?
H10A O10 H10B 102.4 . . ?
O1 C1 Eu1 85.1(3) . 2_666 ?
O1 C1 C2 118.6(5) . . ?
O2 C1 Eu1 38.7(3) . 2_666 ?
O2 C1 O1 123.8(5) . . ?
O2 C1 C2 117.6(5) . . ?
C2 C1 Eu1 156.0(4) . 2_666 ?
C3 C2 C1 117.9(5) . . ?
C7 C2 C1 122.5(5) . . ?
C7 C2 C3 119.5(5) . . ?
C2 C3 H3 119.3 . . ?
C4 C3 C2 121.5(6) . . ?
C4 C3 H3 119.3 . . ?
C3 C4 H4 120.4 . . ?
C3 C4 C5 119.3(6) . . ?
C5 C4 H4 120.4 . . ?
C4 C5 H5 119.9 . . ?
C6 C5 C4 120.3(6) . . ?
C6 C5 H5 119.9 . . ?
C5 C6 H6 119.7 . . ?
C5 C6 C7 120.7(6) . . ?
C7 C6 H6 119.7 . . ?
C2 C7 C6 118.8(5) . . ?
C2 C7 C8 121.1(5) . . ?
C6 C7 C8 119.9(5) . . ?
C9 C8 C7 122.7(5) . . ?
C13 C8 C7 120.2(5) . . ?
C13 C8 C9 117.0(5) . . ?
C8 C9 H9 119.3 . . ?
C10 C9 C8 121.4(5) . . ?
C10 C9 H9 119.3 . . ?
C9 C10 H10 119.5 . . ?
C11 C10 C9 120.9(5) . . ?
C11 C10 H10 119.5 . . ?
C10 C11 C12 117.8(5) . . ?
C10 C11 C14 124.0(5) . . ?
C12 C11 C14 118.1(5) . . ?
C11 C12 H12 119.6 . . ?
C13 C12 C11 120.8(5) . . ?
C13 C12 H12 119.6 . . ?
C8 C13 H13 119.0 . . ?
C12 C13 C8 122.0(5) . . ?
C12 C13 H13 119.0 . . ?
C15 C14 C11 118.9(4) . . ?
C15 C14 C16 117.7(5) . . ?
C16 C14 C11 123.1(4) . . ?
C14 C15 H15 118.8 . . ?
C16 C15 C14 122.3(5) 2_756 . ?
C16 C15 H15 118.8 2_756 . ?
C14 C16 C17 123.8(5) . . ?
C15 C16 C14 119.9(5) 2_756 . ?
C15 C16 C17 116.3(4) 2_756 . ?
O3 C17 Eu1 59.7(3) . 1_655 ?
O3 C17 C16 118.7(5) . . ?
O4 C17 Eu1 63.5(3) . 1_655 ?
O4 C17 O3 122.0(5) . . ?
O4 C17 C16 119.1(4) . . ?
C16 C17 Eu1 164.8(4) . 1_655 ?
O5 C18 C19 116.7(4) . . ?
O6 C18 O5 125.3(5) . . ?
O6 C18 C19 117.9(4) . . ?
C20 C19 C18 115.9(4) . . ?
C20 C19 C21 119.9(4) . 2_676 ?
C21 C19 C18 123.9(4) 2_676 . ?
C19 C20 H20 118.6 . . ?
C19 C20 C21 122.7(5) . . ?
C21 C20 H20 118.6 . . ?
C19 C21 C20 117.3(5) 2_676 . ?
C19 C21 C22 123.3(5) 2_676 . ?
C20 C21 C22 119.3(5) . . ?
C23 C22 C21 122.8(5) . . ?
C23 C22 C27 117.6(5) . . ?
C27 C22 C21 119.6(5) . . ?
C22 C23 H23 119.9 . . ?
C24 C23 C22 120.2(6) . . ?
C24 C23 H23 119.9 . . ?
C23 C24 H24 119.4 . . ?
C25 C24 C23 121.2(6) . . ?
C25 C24 H24 119.4 . . ?
C24 C25 C28 125.2(6) . . ?
C26 C25 C24 118.5(6) . . ?
C26 C25 C28 116.3(6) . . ?
C25 C26 H26 119.7 . . ?
C27 C26 C25 120.5(6) . . ?
C27 C26 H26 119.7 . . ?
C22 C27 H27 119.1 . . ?
C26 C27 C22 121.8(6) . . ?
C26 C27 H27 119.1 . . ?
C29 C28 C25 117.7(5) . . ?
C29 C28 C33 120.0 . . ?
C33 C28 C25 122.1(5) . . ?
C28 C29 H29 120.0 . . ?
C30 C29 C28 120.0 . . ?
C30 C29 H29 120.0 . . ?
C29 C30 H30 120.0 . . ?
C31 C30 C29 120.0 . . ?
C31 C30 H30 120.0 . . ?
C30 C31 H31 120.0 . . ?
C30 C31 C32 120.0 . . ?
C32 C31 H31 120.0 . . ?
C31 C32 H32 120.0 . . ?
C33 C32 C31 120.0 . . ?
C33 C32 H32 120.0 . . ?
C28 C33 C34 122.1(5) . . ?
C32 C33 C28 120.0 . . ?
C32 C33 C34 117.3(5) . . ?
O7 C34 O8 117.4(9) . . ?
O7 C34 C33 133.5(10) . . ?
O8 C34 C33 108.6(7) . . ?
C35 N1 C36 120.9(9) . . ?
C35 N1 C37 120.5(8) . . ?
C36 N1 C37 118.5(8) . . ?
O11 C35 N1 125.5(9) . . ?
O11 C35 H35 117.2 . . ?
N1 C35 H35 117.2 . . ?
N1 C36 H36A 109.5 . . ?
N1 C36 H36B 109.5 . . ?
N1 C36 H36C 109.5 . . ?
H36A C36 H36B 109.5 . . ?
H36A C36 H36C 109.5 . . ?
H36B C36 H36C 109.5 . . ?
N1 C37 H37A 109.5 . . ?
N1 C37 H37B 109.5 . . ?
N1 C37 H37C 109.5 . . ?
H37A C37 H37B 109.5 . . ?
H37A C37 H37C 109.5 . . ?
H37B C37 H37C 109.5 . . ?
loop_
_geom_bond_atom_site_label_1
_geom_bond_atom_site_label_2
_geom_bond_distance
_geom_bond_site_symmetry_2
_geom_bond_publ_flag
Eu1 Eu1 4.3132(5) 2_666 ?
Eu1 O1 2.326(4) . ?
Eu1 O2 2.383(4) 2_666 ?
Eu1 O3 2.447(4) 1_455 ?
Eu1 O4 2.532(3) 1_455 ?
Eu1 O5 2.353(3) . ?
Eu1 O6 2.398(3) 2_666 ?
Eu1 O9 2.467(4) . ?
Eu1 O10 2.387(4) . ?
Eu1 C1 3.226(6) 2_666 ?
Eu1 C17 2.829(5) 1_455 ?
O1 C1 1.253(6) . ?
O2 Eu1 2.383(4) 2_666 ?
O2 C1 1.248(6) . ?
O3 Eu1 2.447(4) 1_655 ?
O3 C17 1.264(6) . ?
O4 Eu1 2.532(3) 1_655 ?
O4 C17 1.249(6) . ?
O5 C18 1.257(6) . ?
O6 Eu1 2.398(3) 2_666 ?
O6 C18 1.253(6) . ?
O7 C34 1.146(10) . ?
O8 H8 0.8300 . ?
O8 C34 1.370(12) . ?
O9 H9A 0.9045 . ?
O9 H9B 0.9012 . ?
O10 H10A 0.9012 . ?
O10 H10B 0.8996 . ?
C1 Eu1 3.226(6) 2_666 ?
C1 C2 1.498(8) . ?
C2 C3 1.406(8) . ?
C2 C7 1.391(8) . ?
C3 H3 0.9400 . ?
C3 C4 1.349(9) . ?
C4 H4 0.9400 . ?
C4 C5 1.399(10) . ?
C5 H5 0.9400 . ?
C5 C6 1.381(9) . ?
C6 H6 0.9400 . ?
C6 C7 1.393(8) . ?
C7 C8 1.477(7) . ?
C8 C9 1.398(8) . ?
C8 C13 1.390(8) . ?
C9 H9 0.9400 . ?
C9 C10 1.389(8) . ?
C10 H10 0.9400 . ?
C10 C11 1.388(7) . ?
C11 C12 1.403(7) . ?
C11 C14 1.492(7) . ?
C12 H12 0.9400 . ?
C12 C13 1.378(7) . ?
C13 H13 0.9400 . ?
C14 C15 1.401(7) . ?
C14 C16 1.405(7) . ?
C15 H15 0.9400 . ?
C15 C16 1.398(7) 2_756 ?
C16 C15 1.398(7) 2_756 ?
C16 C17 1.495(7) . ?
C17 Eu1 2.829(5) 1_655 ?
C18 C19 1.509(7) . ?
C19 C20 1.394(7) . ?
C19 C21 1.397(7) 2_676 ?
C20 H20 0.9400 . ?
C20 C21 1.405(7) . ?
C21 C19 1.397(7) 2_676 ?
C21 C22 1.483(7) . ?
C22 C23 1.392(8) . ?
C22 C27 1.393(8) . ?
C23 H23 0.9400 . ?
C23 C24 1.387(8) . ?
C24 H24 0.9400 . ?
C24 C25 1.386(9) . ?
C25 C26 1.377(10) . ?
C25 C28 1.501(7) . ?
C26 H26 0.9400 . ?
C26 C27 1.370(9) . ?
C27 H27 0.9400 . ?
C28 C29 1.3900 . ?
C28 C33 1.3900 . ?
C29 H29 0.9400 . ?
C29 C30 1.3900 . ?
C30 H30 0.9400 . ?
C30 C31 1.3900 . ?
C31 H31 0.9400 . ?
C31 C32 1.3900 . ?
C32 H32 0.9400 . ?
C32 C33 1.3900 . ?
C33 C34 1.509(10) . ?
O11 C35 1.261(10) . ?
N1 C35 1.294(10) . ?
N1 C36 1.457(13) . ?
N1 C37 1.473(11) . ?
C35 H35 0.9400 . ?
C36 H36A 0.9700 . ?
C36 H36B 0.9700 . ?
C36 H36C 0.9700 . ?
C37 H37A 0.9700 . ?
C37 H37B 0.9700 . ?
C37 H37C 0.9700 . ?
loop_
_smtbx_masks_void_nr
_smtbx_masks_void_average_x
_smtbx_masks_void_average_y
_smtbx_masks_void_average_z
_smtbx_masks_void_volume
_smtbx_masks_void_count_electrons
_smtbx_masks_void_content
1 -0.500 0.000 0.000 447.1 153.2 ?
