#------------------------------------------------------------------------------
#$Date: 2022-02-04 21:31:48 +0200 (Fri, 04 Feb 2022) $
#$Revision: 272651 $
#$URL: file:///home/coder/svn-repositories/cod/cif/7/70/90/7709038.cif $
#------------------------------------------------------------------------------
#
# This file is available in the Crystallography Open Database (COD),
# http://www.crystallography.net/
#
# All data on this site have been placed in the public domain by the
# contributors.
#
data_7709038
loop_
_publ_author_name
'Fonseca de Lima, Juliana'
'Moreno, Fernanda V. S.'
'Menezes, Bruno A. T.'
'da Silva Barbosa, Jader'
'Waddington, Matthew C.'
'Franklin, Si\^an A'
'Clarkson, Guy J.'
'Walker, Marc'
'Serra, Osvaldo A.'
'Walton, Richard I.'
_publ_section_title
;
 Investigation of the preparation and reactivity of metal-organic
 frameworks of cerium and pyridine-2,4,6-tricarboxylate.
;
_journal_issue                   1
_journal_name_full
'Dalton transactions (Cambridge, England : 2003)'
_journal_page_first              145
_journal_page_last               155
_journal_paper_doi               10.1039/d1dt03514b
_journal_volume                  51
_journal_year                    2021
_chemical_absolute_configuration ad
_chemical_formula_moiety         'C11 H11 Ce N2 O8, H2 O'
_chemical_formula_sum            'C11 H13 Ce N2 O9'
_chemical_formula_weight         457.35
_space_group_crystal_system      monoclinic
_space_group_IT_number           9
_space_group_name_Hall           'C -2yc'
_space_group_name_H-M_alt        'C 1 c 1'
_atom_sites_solution_hydrogens   mixed
_atom_sites_solution_primary     heavy
_audit_creation_date             2017-03-13
_audit_creation_method
;
Olex2 1.2
(compiled 2017.01.04 svn.r3372 for OlexSys, GUI svn.r5292)
;
_audit_update_record
;
2021-09-20 deposited with the CCDC.	2021-11-29 downloaded from the CCDC.
;
_cell_angle_alpha                90
_cell_angle_beta                 90.062(4)
_cell_angle_gamma                90
_cell_formula_units_Z            4
_cell_length_a                   15.8285(3)
_cell_length_b                   10.1903(9)
_cell_length_c                   9.1832(3)
_cell_measurement_reflns_used    7899
_cell_measurement_temperature    150(2)
_cell_measurement_theta_max      29.2000
_cell_measurement_theta_min      3.9860
_cell_volume                     1481.22(14)
_computing_cell_refinement       'CrysAlisPro 1.171.38.43f (Rigaku OD, 2015)'
_computing_data_collection       'CrysAlisPro 1.171.38.43f (Rigaku OD, 2015)'
_computing_data_reduction        'CrysAlisPro 1.171.38.43f (Rigaku OD, 2015)'
_computing_molecular_graphics    'Olex2 (Dolomanov et al., 2009)'
_computing_publication_material  'Olex2 (Dolomanov et al., 2009)'
_computing_structure_refinement  'ShelXL (Sheldrick, 2015)'
_computing_structure_solution    'ShelXS (Sheldrick, 2008)'
_diffrn_ambient_temperature      150(2)
_diffrn_detector                 'CCD plate'
_diffrn_detector_area_resol_mean 5.3046
_diffrn_detector_type            AtlasS2
_diffrn_measured_fraction_theta_full 0.999
_diffrn_measured_fraction_theta_max 0.913
_diffrn_measurement_details
;
List of Runs (angles in degrees, time in seconds):

  # Type    Start    End  Width  t~exp~   \w     \q     \k     \f   Frames
#--------------------------------------------------------------------------
  1  \w    -29.00  92.00   1.00   14.00    --   11.87  19.00 -60.00  121
  2  \w    -63.00  36.00   1.00   14.00    --   11.87 -37.00 120.00   99
  3  \w    -39.00 -14.00   1.00   14.00    --  -10.70  57.00-150.00   25
  4  \w    -20.00  30.00   1.00   14.00    --  -10.70 -99.00 -60.00   50
  5  \w    -83.00  17.00   1.00   14.00    --  -10.70 -57.00  60.00  100
  6  \w     34.00  99.00   1.00   14.00    --   11.87-178.00 120.00   65
  7  \w     34.00  99.00   1.00   14.00    --   11.87-178.00   0.00   65
;
_diffrn_measurement_device       'four-circle diffractometer'
_diffrn_measurement_device_type  'SuperNova, Dual, Cu at zero, AtlasS2'
_diffrn_measurement_method       '\w scans'
_diffrn_orient_matrix_type
'CrysAlisPro convention (1999,Acta A55,543-557)'
_diffrn_orient_matrix_UB_11      -0.0576734000
_diffrn_orient_matrix_UB_12      -0.0289197000
_diffrn_orient_matrix_UB_13      0.0546367000
_diffrn_orient_matrix_UB_21      0.0157110000
_diffrn_orient_matrix_UB_22      -0.0769905000
_diffrn_orient_matrix_UB_23      0.0087430000
_diffrn_orient_matrix_UB_31      0.0489165000
_diffrn_orient_matrix_UB_32      -0.0094793000
_diffrn_orient_matrix_UB_33      0.0615677000
_diffrn_radiation_monochromator  mirror
_diffrn_radiation_probe          x-ray
_diffrn_radiation_type           MoK\a
_diffrn_radiation_wavelength     0.71073
_diffrn_reflns_av_R_equivalents  0.0265
_diffrn_reflns_av_unetI/netI     0.0289
_diffrn_reflns_Laue_measured_fraction_full 0.999
_diffrn_reflns_Laue_measured_fraction_max 0.913
_diffrn_reflns_limit_h_max       21
_diffrn_reflns_limit_h_min       -21
_diffrn_reflns_limit_k_max       13
_diffrn_reflns_limit_k_min       -13
_diffrn_reflns_limit_l_max       12
_diffrn_reflns_limit_l_min       -12
_diffrn_reflns_number            10412
_diffrn_reflns_point_group_measured_fraction_full 0.994
_diffrn_reflns_point_group_measured_fraction_max 0.852
_diffrn_reflns_theta_full        25.242
_diffrn_reflns_theta_max         29.715
_diffrn_reflns_theta_min         3.251
_diffrn_source                   'micro-focus sealed X-ray tube'
_diffrn_source_type              'SuperNova (Mo) X-ray Source'
_exptl_absorpt_coefficient_mu    3.123
_exptl_absorpt_correction_T_max  1.00000
_exptl_absorpt_correction_T_min  0.78895
_exptl_absorpt_correction_type   multi-scan
_exptl_absorpt_process_details
;
CrysAlisPro 1.171.38.43f (Rigaku Oxford Diffraction, 2015)
Empirical absorption correction using spherical harmonics,
 implemented in SCALE3 ABSPACK scaling algorithm.
;
_exptl_crystal_colour            yellow
_exptl_crystal_colour_primary    yellow
_exptl_crystal_density_diffrn    2.051
_exptl_crystal_description       block
_exptl_crystal_F_000             892
_exptl_crystal_size_max          0.16
_exptl_crystal_size_mid          0.08
_exptl_crystal_size_min          0.04
_refine_diff_density_max         0.378
_refine_diff_density_min         -0.451
_refine_diff_density_rms         0.077
_refine_ls_abs_structure_details
;
 Flack x determined using 1578 quotients [(I+)-(I-)]/[(I+)+(I-)]
 (Parsons, Flack and Wagner, Acta Cryst. B69 (2013) 249-259).

Hooft y: -0.012(7) Olex2
Flack x: -0.028(7) Shelx 2016
;
_refine_ls_abs_structure_Flack   -0.028(7)
_refine_ls_extinction_method     none
_refine_ls_goodness_of_fit_ref   1.058
_refine_ls_hydrogen_treatment    constr
_refine_ls_matrix_type           full
_refine_ls_number_parameters     232
_refine_ls_number_reflns         3584
_refine_ls_number_restraints     26
_refine_ls_restrained_S_all      1.093
_refine_ls_R_factor_all          0.0178
_refine_ls_R_factor_gt           0.0169
_refine_ls_shift/su_max          0.001
_refine_ls_shift/su_mean         0.000
_refine_ls_structure_factor_coef Fsqd
_refine_ls_weighting_details
'w=1/[\s^2^(Fo^2^)+(0.0165P)^2^] where P=(Fo^2^+2Fc^2^)/3'
_refine_ls_weighting_scheme      calc
_refine_ls_wR_factor_gt          0.0357
_refine_ls_wR_factor_ref         0.0363
_reflns_Friedel_coverage         0.864
_reflns_Friedel_fraction_full    0.989
_reflns_Friedel_fraction_max     0.791
_reflns_number_gt                3501
_reflns_number_total             3584
_reflns_threshold_expression     'I > 2\s(I)'
_cod_data_source_file            d1dt03514b2.cif
_cod_data_source_block           fvs3
_cod_depositor_comments
'Adding full bibliography for 7709038--7709041.cif.'
_cod_original_cell_volume        1481.22(15)
_cod_database_code               7709038
_shelx_shelxl_version_number     2014/7
_chemical_oxdiff_formula         'C20 H20 N2 O2 Ce'
_shelx_space_group_comment
;
The symmetry employed for this shelxl refinement is uniquely defined
by the following loop, which should always be used as a source of
symmetry information in preference to the above space-group names.
They are only intended as comments.
;
_reflns_odcompleteness_completeness 99.84
_reflns_odcompleteness_iscentric 1
_reflns_odcompleteness_theta     26.32
_olex2_refinement_description
;
The DMF was modeled as disordered over two positions related by a rotation about the metal carbonyl 
bond. The occupancy was originally linked to a free variable but refined to approximately 70:30 and 
was fixed at this for the rest of the refinement.
The hydrogens were located in a difference map but placed at calculated positions for the refinement.

1. Fixed Uiso
 At 1.2 times of:
  All C(H) groups
 At 1.5 times of:
  All C(H,H,H) groups, All O(H,H) groups
2. Uiso/Uaniso restraints and constraints
O12 \\sim C13 \\sim N14 \\sim C14 \\sim C15: within 1.7A with sigma of 0.003
and sigma for terminal atoms of 0.006
3. Others
 Fixed Sof: C13(0.7) H13(0.7) N14(0.7) C14(0.7) H14A(0.7) H14B(0.7) H14C(0.7)
 C15(0.7) H15A(0.7) H15B(0.7) H15C(0.7) C13A(0.3) H13A(0.3) N14A(0.3) C14A(0.3)
 H14D(0.3) H14E(0.3) H14F(0.3) C15A(0.3) H15D(0.3) H15E(0.3) H15F(0.3)
4.a Free rotating group:
 O17(H17A,H17B)
4.b Rotating group:
 O16(H16A,H16B)
4.c Aromatic/amide H refined with riding coordinates:
 C4(H4), C13(H13), C6(H6), C13A(H13A)
4.d Idealised Me refined as rotating group:
 C14(H14A,H14B,H14C), C15(H15A,H15B,H15C), C14A(H14D,H14E,H14F), C15A(H15D,
 H15E,H15F)
;
_shelx_res_file
;
    fvs3.res created by SHELXL-2014/7

TITL fvs3 in Cc #9
REM reset to Cc #9
CELL 0.71073 15.828527 10.190314 9.18317 90 90.0615 90
ZERR 4 0.000293 0.000931 0.00031 0 0.0035 0
LATT -7
SYMM +X,-Y,0.5+Z
SFAC C H Ce N O
UNIT 44 52 4 8 36
EQIV $1 +X,-1-Y,0.5+Z
EQIV $2 +X,-1+Y,+Z
SIMU 0.003 0.006 1.7 O12 C13 N14 C14 C15

L.S. 4
PLAN  20
TEMP -123(2)
HTAB O16 O9_$1
HTAB O16 O17
HTAB O17 O8_$1
HTAB O17 O8_$2
HTAB
BOND $H
fmap 2
ACTA
REM <olex2.extras>
REM <HklSrc "%.\\fvs3.hkl">
REM </olex2.extras>

WGHT    0.016500
FVAR       1.85771
CE1   3   -0.499840   -0.431558   -0.749220    11.00000    0.00944    0.01128 =
         0.00950   -0.00074    0.00222    0.00041
O2    5   -0.647555   -0.450908   -0.320751    11.00000    0.01719    0.02234 =
         0.01507    0.00699    0.00584    0.00617
O10   5   -0.870879    0.016456   -0.613126    11.00000    0.01200    0.01779 =
         0.02250    0.00263   -0.00039    0.00377
O11   5   -0.883313   -0.109699   -0.415963    11.00000    0.01951    0.03243 =
         0.01773    0.00360    0.00915    0.00964
O16   5   -0.493740   -0.677348   -0.694325    11.00000    0.03048    0.01785 =
         0.01613    0.00241    0.00316   -0.00197
AFIX   7
H16A  2   -0.528860   -0.721228   -0.750845    11.00000   -1.50000
H16B  2   -0.507829   -0.692848   -0.602995    11.00000   -1.50000
AFIX   0
O9    5   -0.561155   -0.269172   -0.922711    11.00000    0.02254    0.01953 =
         0.01324    0.00430    0.00506    0.00972
O12   5   -0.447267   -0.220019   -0.657947    11.00000    0.02547    0.02106 =
         0.02854   -0.00542    0.00240   -0.00531
C10   1   -0.847726   -0.073629   -0.531192    11.00000    0.01340    0.01940 =
         0.01538   -0.00323    0.00098   -0.00055
C2    1   -0.618467   -0.412141   -0.438154    11.00000    0.01461    0.01429 =
         0.01278   -0.00319    0.00233    0.00111
C3    1   -0.663941   -0.312883   -0.530473    11.00000    0.01369    0.01533 =
         0.01346    0.00092    0.00165    0.00099
C4    1   -0.735408   -0.245221   -0.482444    11.00000    0.01706    0.01965 =
         0.01172    0.00168    0.00308    0.00210
AFIX  43
H4    2   -0.759708   -0.262943   -0.389964    11.00000   -1.20000
AFIX   0
C8    1   -0.617811   -0.185361   -0.893945    11.00000    0.01939    0.01977 =
         0.01328   -0.00115    0.00316    0.00207
N3    4   -0.629496   -0.291925   -0.661367    11.00000    0.01270    0.01139 =
         0.01328    0.00049    0.00208   -0.00025
C7    1   -0.662767   -0.202281   -0.750255    11.00000    0.01406    0.01637 =
         0.01146   -0.00022    0.00024    0.00166
PART 1
C13   1   -0.448991   -0.143241   -0.558509    10.70000    0.02393    0.03324 =
         0.02990   -0.01188    0.00627   -0.00834
AFIX  43
H13   2   -0.501900   -0.111150   -0.525186    10.70000   -1.20000
AFIX   0
PART 0
O8    5   -0.638112   -0.090106   -0.972813    11.00000    0.04359    0.02662 =
         0.01787    0.01129    0.00801    0.01643
C5    1   -0.770069   -0.150178   -0.575498    11.00000    0.01216    0.01562 =
         0.01577   -0.00068    0.00248   -0.00057
C6    1   -0.732975   -0.128282   -0.710836    11.00000    0.01403    0.01744 =
         0.01585    0.00270    0.00273    0.00391
AFIX  43
H6    2   -0.755243   -0.063914   -0.775118    11.00000   -1.20000
AFIX   0
O1    5   -0.546132   -0.449909   -0.487501    11.00000    0.01252    0.02023 =
         0.01210    0.00134    0.00354    0.00592
PART 1
N14   4   -0.377434   -0.101721   -0.493293    10.70000    0.03648    0.05281 =
         0.03909   -0.02058    0.00265   -0.01575
C14   1   -0.296950   -0.147762   -0.536637    10.70000    0.03227    0.05996 =
         0.04636   -0.00594   -0.01665   -0.00137
AFIX 137
H14A  2   -0.302019   -0.237760   -0.573235    10.70000   -1.50000
H14B  2   -0.258480   -0.146336   -0.452965    10.70000   -1.50000
H14C  2   -0.274615   -0.091076   -0.613730    10.70000   -1.50000
AFIX   0
C15   1   -0.387767   -0.003768   -0.376134    10.70000    0.07523    0.09632 =
         0.06478   -0.04815    0.01051   -0.02801
AFIX 137
H15A  2   -0.381457    0.084651   -0.416662    10.70000   -1.50000
H15B  2   -0.344664   -0.018158   -0.301128    10.70000   -1.50000
H15C  2   -0.444038   -0.012797   -0.332867    10.70000   -1.50000
AFIX   6

PART 0
O17   5   -0.590469   -0.884606   -0.767297    11.00000    0.07999    0.04562 =
         0.02550   -0.00685    0.00969   -0.03259
H17A  2   -0.610309   -0.932286   -0.835177    11.00000   -1.50000
H17B  2   -0.612127   -0.907609   -0.686556    11.00000   -1.50000
AFIX   0

PART 2
C13A  1   -0.406828   -0.200033   -0.531392    10.30000    0.04315
AFIX  43
H13A  2   -0.384347   -0.275006   -0.483612    10.30000   -1.20000
AFIX   0

N14A  4   -0.395919   -0.089204   -0.469600    10.30000    0.02808
C14A  1   -0.350724   -0.080148   -0.329658    10.30000    0.04338
AFIX 137
H14D  2   -0.336706   -0.168546   -0.295243    10.30000   -1.50000
H14E  2   -0.386754   -0.036344   -0.257828    10.30000   -1.50000
H14F  2   -0.298644   -0.029529   -0.342799    10.30000   -1.50000
AFIX   0

C15A  1   -0.437489    0.031097   -0.510272    10.30000    0.08022
AFIX 137
H15D  2   -0.485310    0.011319   -0.574493    10.30000   -1.50000
H15E  2   -0.397442    0.088124   -0.561377    10.30000   -1.50000
H15F  2   -0.457998    0.075695   -0.422619    10.30000   -1.50000
AFIX   0
HKLF 4

REM  fvs3 in Cc #9
REM R1 =  0.0169 for    3501 Fo > 4sig(Fo)  and  0.0178 for all    3584 data
REM    232 parameters refined using     26 restraints

END

WGHT      0.0165      0.0000

REM Instructions for potential hydrogen bonds
HTAB O16 O17
HTAB O16 O9_$1
HTAB C15 O17_$1
HTAB O17 O8_$2
HTAB O17 O8_$1
EQIV $3 x+1/2, y-1/2, z
HTAB C13A O10_$3
EQIV $4 x+1/2, y+1/2, z
HTAB C14A O2_$4
EQIV $5 x, y+1, z
HTAB C15A O17_$5
EQIV $6 x, -y, z+1/2
HTAB C15A O9_$6

REM Highest difference peak  0.378,  deepest hole -0.451,  1-sigma level  0.077
Q1    1  -0.3722 -0.0580 -0.3423  11.00000  0.05    0.38
Q2    1  -0.5339 -0.4883 -0.7217  11.00000  0.05    0.37
Q3    1  -0.4995 -0.7049 -0.7499  11.00000  0.05    0.35
Q4    1  -0.4703 -0.4905 -0.7836  11.00000  0.05    0.34
Q5    1  -0.6202 -0.2834 -0.5942  11.00000  0.05    0.34
Q6    1  -0.5403 -0.4748 -0.7819  11.00000  0.05    0.32
Q7    1  -0.6117 -0.7991 -0.9230  11.00000  0.05    0.31
Q8    1  -0.5359 -0.3691 -0.7191  11.00000  0.05    0.31
Q9    1  -0.6283 -0.9442 -0.6510  11.00000  0.05    0.31
Q10   1  -0.4596 -0.4789 -0.7108  11.00000  0.05    0.31
Q11   1  -0.6588 -0.1689 -1.0214  11.00000  0.05    0.31
Q12   1  -0.6529 -0.2029 -0.8301  11.00000  0.05    0.29
Q13   1  -0.2639 -0.1800 -0.6347  11.00000  0.05    0.29
Q14   1  -0.5828 -0.3193 -0.6717  11.00000  0.05    0.29
Q15   1  -0.8799 -0.2139 -0.4114  11.00000  0.05    0.29
Q16   1  -0.3422 -0.1610 -0.4729  11.00000  0.05    0.29
Q17   1  -0.8969 -0.0411 -0.3986  11.00000  0.05    0.28
Q18   1  -0.9501 -0.0806 -0.5196  11.00000  0.05    0.28
Q19   1  -0.4607 -0.3720 -0.7706  11.00000  0.05    0.27
Q20   1  -0.8851  0.0617 -0.6935  11.00000  0.05    0.27
;
_shelx_res_checksum              603
_shelx_hkl_file
;
  -6  -2  12 8094.31 756.560   1
  -5  -1  12 14426.1 970.468   1
  -4  -2  12 9369.21 824.609   1
  -4   0  12 19842.9 1143.96   1
  -3  -1  12 14367.4 1013.02   1
  -2  -2  12 5795.21 670.541   1
  -3   1  12 14575.1 960.935   1
  -2   0  12 18881.7 1147.98   1
  -1  -1  12 17125.9 1112.61   1
  -1   1  12 18042.5 1111.96   1
   0   0  12 27882.3 1448.41   1
   1  -1  12 17293.7 1160.58   1
   0   2  12 5545.56 603.466   1
   1   1  12 16340.0 1099.20   1
   2   0  12 24666.1 1404.43   1
   2   2  12 12369.6 957.268   1
   3   1  12 19547.9 1256.03   1
 -10  -2  11 17306.0 1034.40   1
  -9  -3  11 17237.0 1071.29   1
  -9  -1  11 2757.95 400.277   1
  -8  -2  11 12613.2 876.537   1
  -7  -3  11 22944.7 1251.25   1
  -6  -4  11 27726.9 1422.28   1
 -10   2  11 17640.5 1116.76   5
  -7  -1  11 3450.62 448.673   1
  -6  -2  11 12658.8 883.541   1
  -5  -3  11 22998.1 1257.63   1
  -4  -4  11 23611.9 1313.36   1
  -9   3  11 16274.4 1080.99   5
  -8   2  11 13861.6 991.341   5
  -6   0  11 55.7863 130.519   1
  -5  -1  11 5613.14 582.506   1
  -4  -2  11 15673.0 1012.02   1
  -3  -3  11 28572.5 1431.97   1
  -2  -4  11 19523.9 1202.81   1
  -7   3  11 23565.9 1328.13   5
  -6   2  11 12974.1 958.440   5
  -5   1  11 5495.77 532.981   1
  -4   0  11-161.742 178.352   1
  -3  -1  11 6140.27 625.722   1
  -2  -2  11 19361.2 1154.56   1
  -1  -3  11 17700.7 1134.78   1
   0  -4  11 23233.8 1342.89   1
  -6   4  11 27631.7 1481.24   5
  -5   3  11 22658.7 1303.29   5
  -4   2  11 14910.2 1024.92   5
  -3   1  11 5070.24 540.799   1
  -2   0  11-211.229 209.101   1
  -1  -1  11 7274.13 693.900   1
   0  -2  11 18154.6 1142.44   1
   1  -3  11 16251.7 1103.67   1
   2  -4  11 15189.4 1110.55   1
  -4   4  11 24463.4 1392.75   5
  -3   3  11 28738.6 1485.74   5
  -2   2  11 21921.8 1108.74   1
  -2   2  11 22731.6 1285.80   5
  -1   1  11 9252.30 795.858   5
  -1   1  11 8434.34 716.725   1
   0   0  11-145.299 135.241   1
   1  -1  11 8372.86 769.876   1
   2  -2  11 12310.7 964.464   1
   3  -3  11 20578.1 1289.09   1
  -2   4  11 20692.2 1276.85   5
  -1   3  11 17831.0 1171.74   5
  -1   3  11 16617.7 966.981   1
   0   2  11 18320.6 1162.81   5
   0   2  11 18127.0 1048.11   1
   1   1  11 7740.48 706.336   1
   1   1  11 7758.65 730.911   5
   2   0  11 106.029 130.771   1
   3  -1  11 8853.46 809.354   1
   4  -2  11 10448.1 917.265   1
   1   3  11 15505.2 1095.23   5
   2   2  11 12285.5 954.912   5
   3   1  11 8571.66 788.301   5
   4   0  11 0.85608 144.235   5
   3   3  11 22577.2 1338.03   5
   4   2  11 10843.7 895.714   5
   5   1  11 3982.30 528.105   5
   6   0  11 61.4503 152.949   5
   7  -1  11 3420.05 501.698   5
   8  -2  11 16155.3 1083.91   5
   6   2  11 12982.5 1002.87   5
   7   1  11 3360.84 512.206   5
   8   0  11 17.2571 136.671   5
   9  -1  11 1422.14 336.692   5
 -12  -2  10 8924.08 688.987   1
 -11  -3  10 3030.54 425.418   1
 -10  -4  10-53.5654 110.640   1
 -11  -1  10 24017.7 1104.99   1
 -10  -2  10 10666.0 770.936   1
  -9  -3  10 1434.99 289.828   1
  -8  -4  10 789.481 259.383   1
  -7  -5  10 9840.03 813.767   1
  -9  -1  10 25552.6 1156.70   1
  -8  -2  10 19093.6 1035.30   1
  -7  -3  10 2608.43 411.547   1
  -6  -4  10 215.213 164.214   1
  -5  -5  10 10792.1 859.927   1
  -4  -6  10 10415.2 875.677   1
 -11   3  10 3706.94 535.612   4
 -11   3  10 3891.18 480.999   5
 -10   2  10 12407.2 869.420   5
  -8   0  10 16779.4 878.016   1
  -7  -1  10 23418.5 1106.86   1
  -6  -2  10 14047.9 891.860   1
  -5  -3  10 4092.91 497.448   1
  -4  -4  10 2761.91 435.122   1
  -3  -5  10 6853.83 701.176   1
  -2  -6  10 23681.1 1334.74   1
 -10   4  10-10.9907 123.870   4
 -10   4  10-69.5120 118.424   5
  -9   3  10 1093.39 272.385   5
  -9   3  10 618.249 238.405   4
  -8   2  10 19288.8 1097.57   5
  -8   2  10 20244.1 1078.64   4
  -7   1  10 24886.7 1048.59   1
  -6   0  10 20723.7 1000.27   1
  -5  -1  10 27067.1 1222.99   1
  -4  -2  10 22058.4 1138.67   1
  -3  -3  10 4856.24 556.489   1
  -2  -4  10 2082.44 390.048   1
  -1  -5  10 10196.4 863.004   1
   0  -6  10 19779.7 1239.17   1
  -9   5  10 3642.09 492.292   5
  -9   5  10 5435.92 629.643   4
  -8   4  10 702.775 232.505   4
  -8   4  10 865.317 242.645   5
  -7   3  10 2430.38 364.308   4
  -7   3  10 2410.79 390.231   5
  -6   2  10 15812.9 987.721   5
  -6   2  10 16113.9 864.422   4
  -6   2  10 14873.5 769.917   1
  -5   1  10 27047.3 1141.14   1
  -4   0  10 23245.4 1113.20   1
  -3  -1  10 24136.0 1180.01   1
  -2  -2  10 15216.5 957.938   1
  -1  -3  10 4523.66 538.749   1
   0  -4  10 621.751 233.005   1
   1  -5  10 9782.62 847.200   1
   2  -6  10 15932.3 1123.59   1
  -8   6  10 19186.1 1203.38   5
  -8   6  10 21748.0 1311.52   4
  -7   5  10 11792.4 895.431   4
  -7   5  10 9911.58 832.089   5
  -6   4  10 57.5354 88.4801   4
  -6   4  10 194.634 149.469   5
  -5   3  10 5367.86 506.360   4
  -5   3  10 5140.58 568.155   5
  -4   2  10 21645.3 990.091   1
  -4   2  10 21912.5 1175.92   5
  -3   1  10 24449.2 1110.09   1
  -2   0  10 33739.0 1392.33   1
  -1  -1  10 20163.0 1100.15   1
   0  -2  10 10506.5 814.667   1
   1  -3  10 1505.69 329.668   1
   2  -4  10 476.192 224.182   1
   3  -5  10 9588.52 862.004   1
  -7   7  10 22812.7 1380.51   5
  -7   7  10 21805.0 1355.84   4
  -6   6  10 19733.7 1226.09   5
  -6   6  10 17922.6 1146.16   4
  -5   5  10 12732.3 958.312   5
  -5   5  10 12767.2 901.125   4
  -4   4  10 2012.71 373.542   5
  -4   4  10 2129.59 338.268   4
  -3   3  10 3033.14 446.033   5
  -3   3  10 4970.92 459.094   1
  -3   3  10 4886.94 448.972   4
  -2   2  10 16485.6 1014.20   5
  -2   2  10 16027.4 877.991   1
  -1   1  10 22067.0 1103.85   1
   0   0  10 26729.5 1273.21   1
   1  -1  10 21163.0 1157.78   1
   2  -2  10 7981.34 724.377   1
   3  -3  10 3370.45 497.299   1
   4  -4  10-62.0119 189.350   1
   5  -5  10 8041.32 799.350   1
   7  -7  10 15744.5 1067.95   6
  -5   7  10 18721.4 1216.25   4
  -5   7  10 17646.2 1223.73   5
  -4   6  10 9443.61 805.149   4
  -4   6  10 10475.9 903.743   5
  -3   5  10 7802.95 668.841   4
  -3   5  10 7903.62 757.398   5
  -2   4  10 1543.42 326.983   5
  -2   4  10 2397.24 345.584   4
  -2   4  10 2153.48 304.764   1
  -1   3  10 4302.61 525.039   5
  -1   3  10 3573.48 405.864   1
   0   2  10 11054.1 820.108   5
   0   2  10 8699.03 672.745   1
   1   1  10 22573.5 1189.99   5
   6  -4  10 198.103 143.174   1
   7  -5  10 4960.97 540.236   6
  -4   8  10 19314.9 1281.92   4
  -3   7  10 16067.8 1098.86   4
  -2   6  10 23614.6 1254.32   4
  -2   6  10 24603.7 1412.66   5
  -1   5  10 8705.75 796.517   5
   0   4  10 515.983 192.322   5
   1   3  10 1094.88 277.230   5
   2   2  10 9451.96 783.059   5
   3   1  10 20922.9 1149.28   5
   0   6  10 19208.0 1258.01   5
   1   5  10 10344.7 897.049   5
   2   4  10 155.777 150.213   5
   3   3  10 3416.73 480.533   5
   4   2  10 12217.1 896.301   5
   5   1  10 17521.8 1063.55   5
   6   0  10 45383.2 1760.79   5
   7  -1  10 24907.4 1262.24   5
   2   6  10 18470.3 1257.25   5
   3   5  10 10944.1 934.464   5
   4   4  10 446.426 210.713   5
   5   3  10 4215.56 549.514   5
   6   2  10 8054.57 734.386   5
   7   1  10 24885.6 1302.20   5
   8   0  10 16020.8 1018.56   5
   9  -1  10 17216.6 1056.36   5
  10  -2  10 14996.9 984.489   5
  11  -3  10 2759.92 433.673   5
   5   5  10 6157.04 722.929   5
   6   4  10 679.108 263.487   5
   7   3  10 1398.67 315.927   5
   8   2  10 14387.6 1012.45   5
   9   1  10 18553.2 1140.73   5
  10   0  10 13268.9 950.485   5
  11  -1  10 14323.9 984.400   5
  12  -2  10 10545.7 840.644   5
   8   4  10 510.474 202.284   5
   9   3  10 2273.55 443.294   5
  10   2  10 14705.9 1053.07   5
  11   1  10 14799.0 1036.74   5
  12   0  10 18050.6 1138.66   5
  13  -1  10 14281.1 1013.99   5
  11   3  10 3930.84 573.290   5
  12   2  10 10046.4 894.227   5
  13   1  10 14814.2 1067.93   5
 -14  -2   9 14657.5 850.327   1
 -13  -3   9 23140.9 1132.12   1
 -12  -4   9 25010.6 1222.35   1
 -11  -5   9 16983.6 1043.05   1
 -13  -1   9 7618.52 575.122   1
 -12  -2   9 13484.1 814.624   1
 -11  -3   9 17738.1 986.320   1
 -10  -4   9 27190.9 1294.38   1
  -9  -5   9 22569.7 1194.69   1
  -8  -6   9 14548.8 977.230   1
 -14   2   9 17072.2 1184.81   4
 -11  -1   9 10740.1 688.102   1
 -10  -2   9 22810.1 1080.02   1
  -9  -3   9 32558.1 1360.88   1
  -8  -4   9 19367.0 1066.80   1
  -7  -5   9 20675.3 1142.19   1
  -6  -6   9 6731.19 657.820   1
  -5  -7   9 748.684 276.212   1
 -13   3   9 21678.8 1338.90   4
 -12   2   9 14515.3 869.669   5
 -12   2   9 13216.3 977.258   4
 -11   1   9 11431.7 838.708   4
 -10   0   9-24.9161 96.7015   1
  -9  -1   9 6796.99 553.552   1
  -8  -2   9 19734.8 1004.28   1
  -7  -3   9 24664.8 1172.17   1
  -6  -4   9 17295.5 998.730   1
  -5  -5   9 8897.63 741.167   1
  -4  -6   9 3051.12 462.496   1
  -3  -7   9-598.101 222.079   1
 -12   4   9 23908.1 1390.52   4
 -11   3   9 18938.8 1171.89   4
 -11   3   9 18527.6 987.962   5
 -10   2   9 21677.6 1083.61   5
 -10   2   9 22704.0 1204.31   4
  -9   1   9 6966.13 605.171   4
  -9   1   9 7533.83 509.197   1
  -8   0   9-85.1456 90.1178   1
  -7  -1   9 8250.54 608.952   1
  -6  -2   9 17307.5 937.920   1
  -5  -3   9 29786.9 1303.07   1
  -4  -4   9 26906.5 1280.31   1
  -3  -5   9 15363.3 985.914   1
  -2  -6   9 9055.57 773.047   1
  -1  -7   9 3325.65 480.468   1
 -11   5   9 18503.7 1228.72   4
 -10   4   9 27676.8 1258.86   5
 -10   4   9 27639.2 1424.29   4
  -9   3   9 32690.6 1454.68   4
  -9   3   9 31193.1 1337.02   5
  -8   2   9 18853.5 776.237   1
  -8   2   9 19133.3 1021.68   4
  -8   2   9 22277.0 1088.24   5
  -7   1   9 7414.41 564.312   4
  -7   1   9 7782.42 531.840   1
  -6   0   9 151.889 105.525   1
  -6   0   9-39.8925 85.8649   4
  -5  -1   9 6205.66 532.399   1
  -4  -2   9 29349.9 1275.10   1
  -3  -3   9 34494.9 1442.82   1
  -2  -4   9 36111.2 1529.68   1
  -1  -5   9 19839.0 1152.08   1
   0  -6   9 6802.68 681.437   1
   1  -7   9 409.378 168.561   1
 -10   6   9 10028.8 903.076   4
 -10   6   9 9442.51 772.667   5
  -9   5   9 20719.8 1227.74   4
  -9   5   9 19314.7 1091.75   5
  -8   4   9 19428.5 1050.57   5
  -8   4   9 19339.9 1099.98   4
  -7   3   9 25619.3 1196.99   5
  -7   3   9 24590.3 1160.06   4
  -6   2   9 18367.8 915.069   4
  -6   2   9 16825.9 760.546   1
  -5   1   9 5884.69 479.173   1
  -5   1   9 5993.11 463.749   4
  -4   0   9 6.30249 47.2374   4
  -4   0   9 12.5906 85.9270   1
  -3  -1   9 6596.14 565.541   1
  -2  -2   9 29155.3 1282.01   1
  -1  -3   9 35261.9 1470.21   1
  -1  -3   9 34610.8 1121.49   7
   0  -4   9 23658.5 1219.05   1
   1  -5   9 13754.0 952.820   1
   2  -6   9 5141.46 588.815   1
   3  -7   9 855.264 253.942   1
  -9   7   9 1192.76 293.822   4
  -9   7   9 822.973 272.282   5
  -8   6   9 15997.5 1028.60   5
  -8   6   9 15713.0 1086.33   4
  -7   5   9 19125.2 1090.38   5
  -7   5   9 19610.0 1142.61   4
  -6   4   9 15940.5 963.248   5
  -6   4   9 18055.8 1005.85   4
  -5   3   9 29136.2 1203.14   4
  -5   3   9 30483.0 1028.71   1
  -5   3   9 31269.5 1339.77   5
  -4   2   9 31167.3 1317.49   5
  -4   2   9 28406.7 1088.09   1
  -4   2   9 30130.9 1107.42   4
  -3   1   9 6361.84 425.548   4
  -3   1   9 5749.71 492.190   1
  -2   0   9 35.0115 32.3575   4
  -2   0   9 77.4665 86.7306   1
  -1  -1   9 8402.63 652.877   1
   0  -2   9 21624.4 872.942   7
   0  -2   9 21559.9 1107.13   1
   1  -3   9 22925.3 1185.30   1
   2  -4   9 26433.2 1322.58   1
   3  -5   9 16323.8 1049.99   1
   4  -6   9 7079.66 713.424   1
   5  -7   9 1587.85 352.614   1
   6  -8   9 1230.02 307.054   6
  -8   8   9 1238.23 309.840   5
  -7   7   9 322.029 159.232   5
  -7   7   9 322.350 146.357   4
  -6   6   9 6943.54 686.363   5
  -6   6   9 7145.03 701.883   4
  -5   5   9 9961.99 784.870   5
  -5   5   9 7865.73 685.617   4
  -4   4   9 26827.4 1275.45   5
  -4   4   9 25564.3 1157.84   4
  -4   4   9 26627.8 934.999   1
  -3   3   9 35454.8 1265.93   4
  -3   3   9 35664.5 1210.88   1
  -3   3   9 35968.5 1468.13   5
  -2   2   9 33391.0 1372.12   5
  -2   2   9 29525.0 1034.04   4
  -2   2   9 30425.1 1170.83   1
  -1   1   9 8637.22 438.931   4
  -1   1   9 7990.43 605.746   1
   0   0   9 62.6037 30.9200   4
   0   0   9-41.7790 85.5259   1
   1  -1   9 6417.90 482.776   7
   1  -1   9 6408.84 587.657   1
   2  -2   9 13213.4 883.471   1
   2  -2   9 12777.7 631.263   7
   3  -3   9 31633.4 1436.94   1
   4  -4   9 32041.7 1490.36   1
   5  -5   9 22437.5 1278.74   1
   6  -6   9 14967.6 1073.47   1
   7  -7   9 1358.89 312.097   6
   8  -8   9 559.769 202.800   6
  -6   8   9 985.885 297.160   4
  -6   8   9 1038.07 314.653   5
  -5   7   9 958.749 281.522   5
  -5   7   9 645.860 228.319   4
  -4   6   9 2841.38 426.600   4
  -4   6   9 2981.60 453.006   5
  -3   5   9 18306.7 1008.45   4
  -3   5   9 18374.5 1085.56   5
  -2   4   9 36427.4 1363.41   4
  -2   4   9 37277.2 1531.30   5
  -2   4   9 35579.2 1211.57   1
  -1   3   9 32624.8 1417.59   5
  -1   3   9 36875.1 1236.91   4
   0   2   9 22409.0 945.278   6
   0   2   9 23264.3 1136.72   5
   0   2   9 22873.7 835.693   4
   1   1   9 6963.32 489.116   6
   1   1   9 7505.94 365.181   4
   3  -1   9 3749.74 363.324   7
   7  -5   9 23851.5 1152.56   6
   8  -6   9 5400.56 568.363   6
   8  -6   9 4810.39 634.633   1
   9  -7   9 127.410 171.229   6
  -4   8   9 3408.44 527.802   5
  -3   7   9 173.636 155.040   5
  -2   6   9 8360.03 765.824   5
  -1   5   9 20848.9 1172.91   5
   0   4   9 24449.0 1239.97   5
   1   3   9 25290.7 977.826   6
   1   3   9 25313.1 1231.84   5
   2   2   9 12885.1 641.113   6
   2   2   9 14350.3 891.661   5
   3   1   9 3670.72 325.369   6
   3   1   9 3658.65 443.356   5
   3   1   9 3583.71 232.374   4
   8  -4   9 18726.0 938.207   6
   9  -5   9 14276.4 842.632   6
  -2   8   9 1569.03 364.101   5
  -1   7   9 4009.67 566.176   5
   0   6   9 7947.41 762.013   5
   1   5   9 16339.3 1045.77   5
   2   4   9 26697.2 1316.33   5
   3   3   9 31225.9 1390.60   5
   4   2   9 30223.3 1347.44   5
   5   1   9 30175.1 1328.42   5
   6   0   9 193.564 167.856   5
   0   8   9 33.8899 135.027   5
   1   7   9 852.341 280.616   5
   2   6   9 6263.76 677.114   5
   3   5   9 17130.3 1109.50   5
   4   4   9 30937.0 1459.96   5
   5   3   9 34930.7 1504.56   5
   6   2   9 16889.6 1005.89   5
   7   1   9 14137.4 899.260   5
   8   0   9-78.3979 119.863   5
   9  -1   9 2051.36 339.308   5
  10  -2   9 14067.6 886.560   5
  11  -3   9 18180.2 1020.01   5
  12  -4   9 16396.0 964.722   5
   3   7   9 1042.27 261.362   5
   4   6   9 8244.02 812.834   5
   5   5   9 21166.4 1258.76   5
   6   4   9 30806.2 1488.23   5
   7   3   9 25255.7 1300.32   5
   8   2   9 21862.9 1180.53   5
   9   1   9 2065.61 357.757   5
  10   0   9 15.6409 126.895   5
  11  -1   9 2891.66 419.071   5
  12  -2   9 17851.6 1020.80   5
   5   7   9 1177.04 331.100   5
   6   6   9 14392.5 1090.45   5
   7   5   9 23853.7 1374.73   5
   8   4   9 19524.6 1208.99   5
   9   3   9 22212.7 1249.29   5
  10   2   9 13614.5 957.735   5
  11   1   9 3556.11 531.796   5
  12   0   9 214.614 147.042   5
  13  -1   9 4703.53 538.205   5
   8   6   9 5580.90 700.262   5
   9   5   9 14435.4 1102.11   5
  10   4   9 21727.5 1321.82   5
  11   3   9 17536.6 1147.57   5
  12   2   9 19242.1 1182.04   5
  13   1   9 5986.60 649.294   5
  14   0   9-44.1265 208.200   5
  11   5   9 12273.7 1041.35   5
  12   4   9 18464.5 1250.70   5
  13   3   9 19442.4 1254.40   5
  14   2   9 7892.10 782.911   5
  14   4   9 13437.0 1095.12   5
 -15  -3   8 1066.30 240.432   1
 -14  -4   8 2285.11 356.208   1
 -13  -5   8 9988.91 768.402   1
 -14  -2   8 13002.6 776.619   1
 -13  -3   8 2633.78 364.152   1
 -12  -4   8 1382.04 278.966   1
 -11  -5   8 11368.2 808.636   1
 -10  -6   8 10937.6 818.729   1
  -9  -7   8 24480.3 1279.99   1
 -13  -1   8 16616.9 826.638   1
 -12  -2   8 9559.04 653.825   1
 -11  -3   8 5981.07 534.905   1
 -10  -4   8 596.784 202.182   1
  -9  -5   8 5057.14 532.911   1
  -8  -6   8 15600.6 983.683   1
  -7  -7   8 20509.0 1161.65   1
  -6  -8   8 17468.5 1095.72   1
 -15   3   8 964.499 306.505   4
 -14   2   8 14128.4 1049.91   4
 -13   1   8 17324.6 1100.13   4
 -12   0   8 40236.5 1269.50   1
 -11  -1   8 23228.1 977.163   1
 -10  -2   8 14558.9 810.625   1
  -9  -3   8 4229.96 443.603   1
  -8  -4   8 198.120 126.234   1
  -7  -5   8 8212.52 677.182   1
  -6  -6   8 30249.8 1368.88   1
  -5  -7   8 29546.8 1388.32   1
  -4  -8   8 21847.7 1222.87   1
 -14   4   8 3297.67 537.411   4
 -13   3   8 2716.89 467.994   4
 -12   2   8 9614.84 803.645   4
 -12   2   8 9690.39 644.739   5
 -11   1   8 22658.1 1180.92   4
 -11   1   8 23103.3 854.148   1
 -10   0   8 27244.9 1017.77   1
  -9  -1   8 23421.2 991.186   1
  -8  -2   8 8176.57 595.792   1
  -7  -3   8 3172.09 385.491   1
  -6  -4   8 3870.77 452.642   1
  -5  -5   8 18275.3 1010.29   1
  -4  -6   8 42455.6 1646.04   1
  -3  -7   8 49428.8 1848.12   1
  -2  -8   8 27790.0 1374.12   1
  -1  -9   8 11421.9 895.609   1
 -13   5   8 11964.1 1011.25   4
 -12   4   8 2258.78 431.015   4
 -11   3   8 5854.91 623.836   4
 -11   3   8 6440.15 530.622   5
 -10   2   8 14344.4 920.368   4
 -10   2   8 14197.3 597.811   1
  -9   1   8 22389.7 1087.40   4
  -9   1   8 23659.8 879.912   1
  -8   0   8 31830.7 1117.61   1
  -8   0   8 32846.3 1239.83   4
  -7  -1   8 24221.7 1011.82   1
  -6  -2   8 21391.9 989.021   1
  -5  -3   8 1921.72 306.901   1
  -4  -4   8 1686.92 242.329   7
  -4  -4   8 1904.63 331.726   1
  -3  -5   8 7679.62 653.845   1
  -2  -6   8 13763.1 907.347   1
  -1  -7   8 20397.4 1145.66   1
   0  -8   8 20942.5 1205.66   1
   1  -9   8 16032.0 1066.79   1
 -12   6   8 27120.4 1537.69   4
 -11   5   8 9367.47 688.038   5
 -11   5   8 10877.8 897.702   4
 -10   4   8 238.796 125.386   5
 -10   4   8 362.910 177.193   4
  -9   3   8 3352.70 390.163   5
  -9   3   8 4162.29 488.375   4
  -8   2   8 8007.75 628.811   4
  -8   2   8 7796.78 454.335   1
  -7   1   8 24453.9 1039.34   4
  -7   1   8 23302.3 893.794   1
  -6   0   8 34948.1 1204.63   1
  -6   0   8 36283.4 1193.72   4
  -5  -1   8 49734.8 1551.06   1
  -4  -2   8 22813.1 1044.42   1
  -3  -3   8 4345.93 367.856   7
  -3  -3   8 5288.20 510.666   1
  -2  -4   8 1602.62 208.539   7
  -2  -4   8 1277.34 264.631   1
  -1  -5   8 6566.52 617.784   1
   0  -6   8 22744.9 1190.06   1
   1  -7   8 24348.5 1274.59   1
   2  -8   8 24237.7 1317.57   1
   3  -9   8 13205.1 984.973   1
 -10   6   8 12059.8 827.009   5
 -10   6   8 12647.4 980.958   4
  -9   5   8 5431.25 523.209   5
  -9   5   8 6625.41 656.608   4
  -8   4   8 92.7168 106.329   4
  -8   4   8 208.458 101.795   5
  -7   3   8 3070.70 393.179   4
  -7   3   8 3230.90 269.162   1
  -7   3   8 3624.06 407.577   5
  -6   2   8 22542.2 986.101   4
  -6   2   8 20871.5 800.377   1
  -5   1   8 47825.3 1399.32   1
  -5   1   8 47221.4 1396.35   4
  -4   0   8 46729.2 1470.70   1
  -4   0   8 45441.0 1247.23   4
  -3  -1   8 39850.5 1375.65   1
  -3  -1   8 37975.8 1258.08   7
  -2  -2   8 20600.0 832.017   7
  -2  -2   8 19457.5 965.875   1
  -1  -3   8 4191.61 336.328   7
  -1  -3   8 4822.60 495.509   1
   0  -4   8-121.979 136.423   1
   0  -4   8 24.1500 40.7519   7
   1  -5   8 16529.6 989.481   1
   2  -6   8 34829.5 1515.47   1
   3  -7   8 28805.4 1414.41   1
   4  -8   8 28457.8 1444.38   1
   5  -9   8 7223.13 758.370   6
   5  -9   8 8877.40 814.496   1
  -9   7   8 25104.6 1278.48   5
  -9   7   8 24197.7 1406.62   4
  -8   6   8 14652.8 928.477   5
  -8   6   8 16948.9 1094.42   4
  -7   5   8 8681.97 725.812   4
  -7   5   8 9439.48 699.275   5
  -6   4   8 2819.66 381.973   4
  -6   4   8 3202.71 240.449   1
  -6   4   8 2816.38 372.602   5
  -5   3   8 1391.03 239.261   4
  -5   3   8 1495.86 195.947   1
  -5   3   8 1946.33 308.062   5
  -4   2   8 24443.7 919.092   1
  -4   2   8 23020.8 931.450   4
  -3   1   8 38733.2 1126.81   4
  -3   1   8 39445.3 1289.99   1
  -2   0   8 40673.6 1015.22   4
  -2   0   8 40757.2 1378.49   1
  -1  -1   8 29790.1 1203.85   1
  -1  -1   8 31150.6 1075.80   7
   0  -2   8 27235.6 936.792   7
   0  -2   8 29119.0 1226.51   1
   1  -3   8 14169.2 862.904   1
   1  -3   8 14923.2 595.288   7
   2  -4   8 4082.69 259.163   7
   2  -4   8 3544.20 444.590   1
   3  -5   8 21086.2 1146.32   1
   4  -6   8 30299.1 1428.34   1
   5  -7   8 27675.8 1406.88   1
   6  -8   8 18018.1 1152.28   1
   6  -8   8 18111.5 1148.84   6
   7  -9   8 8118.31 802.188   6
  -8   8   8 10642.3 865.181   5
  -8   8   8 11686.1 989.856   4
  -7   7   8 20759.9 1182.47   5
  -7   7   8 22241.4 1295.96   4
  -6   6   8 29722.7 1359.50   5
  -6   6   8 28798.3 1393.09   4
  -5   5   8 19612.0 1054.26   4
  -5   5   8 18826.1 1019.85   5
  -4   4   8 1958.64 320.015   5
  -4   4   8 1943.87 220.521   1
  -4   4   8 1857.08 303.338   4
  -4   4   8 2245.53 209.190   1
  -3   3   8 5144.50 437.222   4
  -3   3   8 5212.83 495.496   5
  -3   3   8 4447.95 369.096   1
  -2   2   8 20312.5 879.822   1
  -2   2   8 20122.3 895.248   6
  -2   2   8 20635.1 983.587   5
  -2   2   8 20828.7 821.099   4
  -1   1   8 31031.5 1171.66   1
  -1   1   8 32757.1 924.814   4
   0   0   8 39088.1 1289.20   7
   0   0   8 40721.9 874.980   4
   1  -1   8 30699.6 1047.04   7
   2  -2   8 47478.0 1262.01   7
   3  -3   8 2503.17 219.741   7
   4  -4   8-111.013 160.351   1
   5  -5   8 13881.1 948.055   1
   6  -6   8 15372.1 1023.11   1
   7  -7   8 17591.0 1061.76   6
   7  -7   8 17726.8 1140.09   1
   8  -8   8 13917.5 1041.27   1
   8  -8   8 13446.1 980.170   6
   9  -9   8 10087.5 881.288   6
  -7   9   8 6812.39 730.690   5
  -6   8   8 17205.7 1140.33   5
  -6   8   8 18634.9 1217.19   4
  -5   7   8 33166.3 1522.78   5
  -5   7   8 31862.6 1519.41   4
  -4   6   8 50065.3 1837.93   5
  -3   5   8 7613.98 643.368   5
  -3   5   8 6989.48 408.087   1
  -2   4   8 2044.58 329.268   5
  -2   4   8 1321.36 175.761   1
  -2   4   8 1638.86 221.804   1
  -1   3   8 5044.51 426.467   6
  -1   3   8 5043.46 488.649   5
  -1   3   8 4536.26 346.749   1
   0   2   8 30395.9 1221.51   5
   0   2   8 29144.9 1029.85   6
   1   1   8 32025.1 860.336   4
   2   0   8 39535.7 1291.85   7
   3  -1   8 61907.3 1605.47   7
   4  -2   8 21775.4 777.722   7
   5  -3   8 4390.45 281.498   7
   7  -5   8 7897.59 626.428   6
   8  -6   8 20428.1 1084.15   6
   8  -6   8 20844.7 1230.36   1
   9  -7   8 22543.5 1332.21   1
   9  -7   8 23545.7 1229.23   6
  10  -8   8 12204.5 926.589   6
  -6  10   8 1360.66 386.050   5
  -5   9   8 9283.00 876.805   5
  -4   8   8 20829.0 1262.02   5
  -3   7   8 51497.2 1961.10   5
  -2   6   8 13375.4 912.487   5
  -1   5   8 6123.86 372.815   1
  -1   5   8 6617.59 609.087   5
   0   4   8 6.81306 50.5800   1
   0   4   8 1.94008 84.5079   5
   0   4   8 108.327 93.0566   6
   1   3   8 15590.4 882.676   5
   1   3   8 15105.5 685.823   6
   1   3   8 14641.2 677.705   1
   2   2   8 51031.1 1671.20   5
   3   1   8 65801.5 1922.56   5
   4   0   8 35890.9 716.123   4
   5  -1   8 33565.2 1112.19   7
   6  -2   8 7925.68 457.980   7
   8  -4   8 117.800 74.7297   6
   9  -5   8 5878.16 526.715   6
  10  -6   8 20757.4 1075.11   6
  11  -7   8 18576.0 1075.93   6
  -4  10   8 4033.39 625.622   5
  -3   9   8 10192.7 938.778   5
  -2   8   8 26902.2 1469.28   5
  -1   7   8 24646.8 1331.92   5
   0   6   8 24266.1 1268.84   5
   1   5   8 18430.3 1048.58   5
   1   5   8 16984.9 792.147   6
   1   5   8 18139.9 730.156   1
   2   4   8 3891.78 461.873   5
   3   3   8 2558.80 238.438   6
   3   3   8 3116.26 398.094   5
   4   2   8 21212.4 1042.70   5
   4   2   8 22386.0 710.117   6
   5   1   8 38686.2 954.278   6
   5   1   8 35722.4 1374.11   5
   6   0   8 50906.4 1064.15   4
   6   0   8 49977.0 1646.41   5
   8  -2   8 16441.4 693.299   6
   9  -3   8 5546.10 420.793   6
  10  -4   8 1583.43 252.158   6
  11  -5   8 7661.35 586.717   6
  -1   9   8 13169.0 1079.23   5
   0   8   8 20865.7 1312.56   5
   1   7   8 23000.4 1316.63   5
   2   6   8 36263.1 1604.52   5
   3   5   8 20901.5 1155.23   5
   4   4   8 144.181 52.4612   6
   4   4   8 298.354 175.229   5
   5   3   8 4632.52 260.678   6
   5   3   8 4534.82 492.191   5
   6   2   8 8881.28 667.717   5
   6   2   8 8268.07 301.961   6
   7   1   8 22929.9 1087.82   5
   7   1   8 23036.2 534.402   6
   8   0   8 35922.8 787.720   6
   8   0   8 34873.0 1354.24   5
   9  -1   8 19253.5 976.216   5
   9  -1   8 21246.4 636.005   6
  10  -2   8 12684.1 779.250   5
   1   9   8 18669.9 1323.05   5
   2   8   8 25053.7 1472.39   5
   3   7   8 30189.9 1540.92   5
   4   6   8 32719.5 1545.05   5
   5   5   8 16498.5 1038.86   5
   6   4   8 86.4688 129.817   5
   7   3   8 7861.78 660.357   5
   8   2   8 17811.1 989.852   5
   9   1   8 18362.6 988.931   5
  10   0   8 29636.5 1259.99   5
  11  -1   8 18814.6 977.972   5
  12  -2   8 6171.67 545.664   5
  13  -3   8 1440.21 262.614   5
   3   9   8 13368.3 1147.05   5
   4   8   8 27345.2 1587.46   5
   5   7   8 30515.5 1584.55   5
   6   6   8 16532.9 1119.35   5
   7   5   8 8831.74 788.807   5
   8   4   8 227.849 160.327   5
   9   3   8 6046.79 600.797   5
  10   2   8 13799.1 892.378   5
  11   1   8 19164.2 1037.05   5
  12   0   8 17507.0 978.417   5
  13  -1   8 16404.2 934.148   5
  14  -2   8 10016.0 713.512   5
   6   8   8 18859.1 1336.23   5
   7   7   8 18626.4 1266.77   5
   8   6   8 20911.3 1316.12   5
   9   5   8 4622.83 584.731   5
  10   4   8 1353.49 316.951   5
  11   3   8 430.230 172.763   5
  12   2   8 5370.67 595.568   5
  13   1   8 18567.9 1069.24   5
  14   0   8 16220.8 978.545   5
   9   7   8 22157.2 1444.08   5
  10   6   8 21445.7 1365.57   5
  11   5   8 8363.60 824.940   5
  12   4   8 809.493 276.872   5
  13   3   8 1709.84 365.651   5
  14   2   8 10359.2 843.000   5
  15   1   8 16438.0 1039.20   5
  12   6   8 14593.5 1158.52   5
  13   5   8 8957.57 882.301   5
  14   4   8 470.239 274.094   5
  15   3   8 2478.98 466.118   5
  15   5   8 3355.01 565.490   5
 -17  -3   7 14064.0 859.327   1
 -16  -4   7 16035.6 940.579   1
 -15  -5   7 11791.1 827.227   1
 -16  -2   7 15541.3 852.002   1
 -15  -3   7 27583.9 1191.40   1
 -14  -4   7 32184.5 1334.94   1
 -13  -5   7 25084.8 1193.32   1
 -12  -6   7 5381.23 555.066   1
 -11  -7   7 659.069 242.968   1
 -15  -1   7 3918.68 390.076   1
 -14  -2   7 22938.0 1016.12   1
 -13  -3   7 25773.4 1115.88   1
 -12  -4   7 24978.4 1129.36   1
 -11  -5   7 11583.8 782.169   1
 -10  -6   7 5754.82 566.661   1
  -9  -7   7 935.059 266.963   1
  -8  -8   7 1596.48 336.377   1
  -7  -9   7 8556.16 755.401   1
 -16   2   7 14267.8 1107.81   4
 -14   0   7 148.983 92.9985   1
 -13  -1   7 4192.28 389.316   1
 -12  -2   7 11650.9 685.374   1
 -11  -3   7 23533.6 1039.66   1
 -10  -4   7 23556.8 1085.02   1
  -9  -5   7 22433.4 1096.46   1
  -8  -6   7 10141.4 745.861   1
  -7  -7   7 1069.31 271.391   1
  -6  -8   7 2436.92 396.201   1
  -5  -9   7 9721.71 789.876   1
 -15   3   7 27467.7 1538.26   4
 -14   2   7 23595.5 1339.05   4
 -13   1   7 4147.64 330.814   1
 -13   1   7 4642.56 549.546   4
 -12   0   7 21.2951 65.6922   1
 -11  -1   7 3973.31 370.630   1
 -10  -2   7 16387.2 817.494   1
  -9  -3   7 28158.8 1145.74   1
  -8  -4   7 54832.4 1732.19   1
  -7  -5   7 25106.9 1149.74   1
  -6  -6   7 12376.1 813.222   1
  -5  -7   7 188.010 162.381   1
  -4  -8   7 3796.92 474.800   1
  -3  -9   7 9079.04 764.378   1
  -2 -10   7 14877.0 1005.74   1
 -14   4   7 34438.2 1720.82   4
 -13   3   7 26697.3 1411.61   4
 -12   2   7 13490.4 925.883   4
 -12   2   7 11552.8 650.147   5
 -12   2   7 11992.1 521.002   1
 -11   1   7 4193.65 481.066   4
 -11   1   7 4191.41 327.882   1
 -10   0   7 62.2757 81.0828   1
 -10   0   7-140.840 135.724   4
  -9  -1   7 10042.1 596.720   1
  -8  -2   7 32572.4 1185.30   1
  -7  -3   7 83153.5 2169.23   1
  -6  -4   7 70093.0 2002.73   1
  -5  -5   7 46361.3 1604.53   1
  -4  -6   7 18727.6 1008.23   1
  -3  -7   7 3027.56 429.863   1
  -2  -8   7 3764.67 482.341   1
  -1  -9   7 10827.3 825.193   1
   0 -10   7 17737.6 1094.94   1
 -13   5   7 23986.1 1408.13   4
 -12   4   7 26239.6 1045.06   5
 -12   4   7 26004.4 1389.31   4
 -11   3   7 22500.2 1198.48   4
 -11   3   7 23008.1 950.764   5
 -10   2   7 18314.6 1010.68   4
 -10   2   7 17017.9 622.510   1
  -9   1   7 9341.47 496.516   1
  -9   1   7 10292.1 700.952   4
  -8   0   7 186.441 107.468   4
  -8   0   7-70.8884 108.625   1
  -7  -1   7 19092.1 839.201   1
  -6  -2   7 35757.8 1243.03   1
  -5  -3   7 44274.1 1335.95   7
  -5  -3   7 45439.1 1485.78   1
  -4  -4   7 18545.0 769.045   7
  -4  -4   7 16016.4 873.404   1
  -3  -5   7 18656.7 964.879   1
  -2  -6   7 22733.7 1122.58   1
  -1  -7   7 3529.69 447.583   1
   0  -8   7 1822.00 332.403   1
   1  -9   7 9793.89 793.644   1
   2 -10   7 20796.9 1195.35   1
 -12   6   7 5227.82 650.643   4
 -11   5   7 12997.4 753.459   5
 -11   5   7 12699.4 945.164   4
 -10   4   7 23126.8 980.581   5
 -10   4   7 21764.0 1176.12   4
  -9   3   7 26398.0 1047.44   2
  -9   3   7 28052.3 740.379   1
  -9   3   7 27836.5 1077.19   5
  -9   3   7 27283.6 1232.54   4
  -8   2   7 30708.0 909.493   1
  -8   2   7 31194.1 1166.72   2
  -8   2   7 34116.8 1293.15   4
  -7   1   7 19927.5 904.907   4
  -7   1   7 19880.0 761.808   1
  -6   0   7-103.697 82.3830   1
  -6   0   7 11.2020 56.9111   4
  -5  -1   7 13943.3 709.388   7
  -5  -1   7 14584.7 727.833   1
  -4  -2   7 29683.7 1128.65   1
  -4  -2   7 29107.1 1017.92   7
  -3  -3   7 32745.9 1240.04   1
  -3  -3   7 30281.9 990.414   7
  -2  -4   7 36803.7 1050.87   7
  -2  -4   7 38553.4 1405.48   1
  -1  -5   7 53200.7 1761.75   1
   0  -6   7 9112.35 703.225   1
   1  -7   7 2418.43 380.180   1
   2  -8   7 1642.13 338.271   1
   3  -9   7 15717.5 1017.12   1
   4 -10   7 22143.9 1248.24   1
   4 -10   7 22414.5 1373.75   6
 -11   7   7 935.201 273.782   4
 -10   6   7 5930.83 537.392   5
 -10   6   7 6015.06 655.250   4
  -9   5   7 22641.7 1026.98   5
  -9   5   7 22353.5 1204.09   4
  -8   4   7 56644.2 1044.41   1
  -8   4   7 55521.7 1552.55   2
  -8   4   7 57208.4 1677.63   5
  -8   4   7 56462.9 1870.89   4
  -7   3   7 76820.2 1988.39   2
  -7   3   7 82046.8 2069.31   5
  -7   3   7 81322.3 1601.66   1
  -7   3   7 81526.9 2190.31   4
  -6   2   7 33325.7 1189.43   4
  -6   2   7 33620.3 976.863   1
  -6   2   7 32036.2 1177.04   2
  -5   1   7 13996.7 642.568   1
  -5   1   7 13967.9 672.243   4
  -5   1   7 12804.9 725.634   2
  -4   0   7-25.9095 46.5149   4
  -4   0   7 39.6511 61.3247   1
  -4   0   7-114.220 77.7596   7
  -3  -1   7 9117.76 540.688   7
  -3  -1   7 9535.70 594.263   1
  -2  -2   7 41665.7 1191.76   7
  -2  -2   7 46615.9 1469.94   1
  -1  -3   7 34993.9 999.463   7
  -1  -3   7 36625.5 1331.20   1
   0  -4   7 86707.1 1701.65   7
   0  -4   7 84914.2 2295.12   1
   1  -5   7 25256.0 1163.77   1
   2  -6   7 9021.81 701.079   1
   3  -7   7 486.323 208.074   1
   4  -8   7 1102.54 278.938   1
   5  -9   7 11338.3 875.557   1
   5  -9   7 13591.3 1006.21   6
   6 -10   7 20332.8 1221.67   1
   6 -10   7 18329.6 1238.40   6
 -10   8   7 1569.43 369.424   4
  -9   7   7 349.134 153.597   5
  -9   7   7 926.192 243.306   4
  -8   6   7 12395.8 895.949   4
  -8   6   7 10943.8 748.685   5
  -7   5   7 26132.9 1127.72   5
  -7   5   7 28494.7 1297.73   4
  -6   4   7 68363.0 1884.51   5
  -6   4   7 67221.5 1304.26   1
  -6   4   7 66249.0 1971.16   4
  -6   4   7 64610.0 1718.55   2
  -5   3   7 44955.3 1456.65   4
  -5   3   7 46743.2 1469.45   5
  -5   3   7 46393.5 1158.44   1
  -5   3   7 45401.2 1408.48   2
  -4   2   7 29338.2 958.959   1
  -4   2   7 30882.0 1054.68   4
  -4   2   7 28737.6 1104.26   2
  -4   2   7 29421.7 1109.85   6
  -3   1   7 9987.78 504.500   4
  -3   1   7 9457.47 548.113   1
  -3   1   7 9285.06 615.404   2
  -3   1   7 9519.66 599.639   7
  -2   0   7 36.3677 87.3337   2
  -2   0   7 46.0639 38.2516   4
  -2   0   7 0.85122 69.3547   1
  -2   0   7 92.1085 69.1623   7
  -1  -1   7 10793.4 647.792   1
  -1  -1   7 10981.7 567.697   7
   0  -2   7 55736.5 1348.47   7
   0  -2   7 53843.1 1657.99   1
   1  -3   7 90974.9 1798.28   7
   1  -3   7 94361.6 2383.81   1
   2  -4   7 38580.8 865.412   7
   2  -4   7 40466.0 1477.21   1
   3  -5   7 20713.2 1064.83   1
   4  -6   7 8127.71 671.472   1
   5  -7   7 1027.31 283.945   1
   6  -8   7 570.777 227.445   1
   6  -8   7-411.241 195.452   6
   7  -9   7 11029.2 905.677   6
   7  -9   7 10362.6 850.279   1
  -8   8   7 1977.67 386.919   4
  -8   8   7 1937.50 348.998   5
  -7   7   7 1418.27 295.309   5
  -7   7   7 1739.62 356.496   4
  -6   6   7 12083.2 848.427   4
  -6   6   7 12625.7 810.758   5
  -5   5   7 44795.6 870.265   1
  -5   5   7 47632.5 1644.60   4
  -5   5   7 44841.1 1352.56   2
  -5   5   7 45941.0 1566.04   5
  -5   5   7 45411.7 903.753   1
  -4   4   7 17816.0 625.884   1
  -4   4   7 19213.9 848.099   2
  -4   4   7 17193.4 872.134   4
  -4   4   7 17711.8 570.590   1
  -4   4   7 20278.6 945.436   5
  -3   3   7 33120.3 1000.17   1
  -3   3   7 32278.2 1197.10   5
  -3   3   7 33391.3 1150.01   4
  -3   3   7 33659.0 1189.98   2
  -3   3   7 31453.4 1144.36   6
  -2   2   7 45266.0 1297.70   1
  -2   2   7 48001.7 1295.52   4
  -2   2   7 46375.5 1470.33   2
  -2   2   7 45603.3 1352.98   6
  -1   1   7 10922.6 679.679   2
  -1   1   7 11757.2 652.430   7
  -1   1   7 11067.2 488.682   4
   0   0   7 296.626 105.852   7
   0   0   7 111.399 40.2977   4
   1  -1   7 16510.7 683.249   7
   2  -2   7 33322.8 948.466   7
   3  -3   7 43204.3 997.980   7
   4  -4   7 16374.5 409.664   7
   5  -5   7 15956.4 950.369   1
   6  -6   7 7270.83 659.209   1
   6  -6   7 7527.96 632.196   6
   7  -7   7 2743.70 411.498   6
   7  -7   7 2459.42 401.463   1
   8  -8   7 2251.58 409.720   1
   8  -8   7 1493.71 315.672   6
   9  -9   7 7713.00 758.181   6
   9  -9   7 8794.96 799.486   1
  -7   9   7 9057.22 826.726   5
  -7   9   7 8870.40 854.333   4
  -6   8   7 2960.72 452.418   5
  -5   7   7 502.777 198.144   5
  -4   6   7 23179.5 919.600   2
  -4   6   7 22274.5 1110.21   5
  -4   6   7 21780.7 509.787   1
  -3   5   7 17703.7 539.280   1
  -3   5   7 17086.7 603.806   1
  -3   5   7 17504.5 818.501   2
  -3   5   7 17953.1 945.946   5
  -2   4   7 39149.2 989.394   1
  -2   4   7 35500.2 1258.35   2
  -2   4   7 38756.2 1383.66   5
  -2   4   7 38958.5 1274.98   6
  -1   3   7 36068.3 1151.55   6
  -1   3   7 35125.1 994.706   1
  -1   3   7 34998.9 1255.40   2
  -1   3   7 38271.4 1316.66   5
   0   2   7 55192.7 1669.38   2
   0   2   7 54414.1 1634.84   7
   0   2   7 56786.1 1643.67   5
   1   1   7 16837.2 867.954   2
   1   1   7 17063.9 802.692   7
   2   0   7 19.5805 22.1621   4
   2   0   7-14.4314 62.1833   7
   3  -1   7 8669.27 484.311   7
   4  -2   7 23222.5 759.861   7
   5  -3   7 27384.6 718.004   7
   7  -5   7 26427.7 1139.34   6
   8  -6   7 5637.73 551.456   6
   9  -7   7 193.117 170.714   6
   9  -7   7 179.551 146.074   1
  10  -8   7 1523.35 333.630   1
  10  -8   7 2219.09 394.908   6
  11  -9   7 8883.48 807.853   6
  -6  10   7 18430.0 1278.46   5
  -5   9   7 9480.93 856.316   5
  -4   8   7 3616.48 501.891   5
  -3   7   7 3105.87 443.556   5
  -2   6   7 24630.0 1194.12   5
  -2   6   7 24038.1 655.895   1
  -1   5   7 50300.1 1575.87   2
  -1   5   7 53060.3 1209.15   1
  -1   5   7 53523.4 1741.60   5
  -1   5   7 51425.9 1526.21   6
   0   4   7 94030.3 2347.61   5
   0   4   7 86413.6 1824.26   1
   0   4   7 89850.9 2021.58   6
   0   4   7 84999.8 2230.04   2
   1   3   7 95213.9 2356.37   5
   1   3   7 93835.0 2380.71   2
   1   3   7 94456.0 1984.62   1
   2   2   7 35316.2 1262.76   5
   2   2   7 32657.6 1041.49   1
   2   2   7 34608.0 969.946   6
   7  -3   7 25908.3 982.603   6
   7  -3   7 28962.9 763.440   7
   8  -4   7 40956.8 1366.30   6
   9  -5   7 14879.5 827.775   6
  10  -6   7 5022.33 507.320   6
  11  -7   7 32.0980 117.253   6
  12  -8   7 2926.26 451.903   6
  -5  11   7 19334.0 1402.42   5
  -4  10   7 16887.7 1238.20   5
  -3   9   7 9109.77 846.434   5
  -2   8   7 4787.89 585.632   5
  -1   7   7 4484.92 536.958   5
   0   6   7 10277.0 763.400   5
   0   6   7 9582.26 611.172   6
   0   6   7 9789.08 449.169   1
   1   5   7 26253.2 959.099   6
   1   5   7 25712.7 833.566   1
   1   5   7 25805.5 1193.15   5
   2   4   7 38965.8 1119.12   6
   2   4   7 39716.9 1134.61   1
   2   4   7 37827.9 1417.22   5
   3   3   7 44920.3 1267.47   1
   3   3   7 44243.2 1091.11   6
   3   3   7 45402.5 1522.82   5
   4   2   7 23432.1 672.158   6
   4   2   7 22940.7 1012.48   5
   5   1   7 8372.80 574.304   5
   5   1   7 7901.87 341.517   6
   6   0   7 50.6009 46.1394   4
   7  -1   7 7078.60 387.284   6
   7  -1   7 7651.89 328.009   4
   8  -2   7 21502.6 780.458   6
   9  -3   7 32846.5 1079.26   6
  10  -4   7 16658.2 796.471   6
  11  -5   7 18244.8 908.404   6
  12  -6   7 5263.75 516.469   6
  13  -7   7 412.717 193.865   6
  -2  10   7 15529.1 1206.85   5
  -1   9   7 12311.1 1002.57   5
   0   8   7 2186.42 407.848   5
   1   7   7 1661.76 258.102   6
   1   7   7 1245.56 297.308   5
   2   6   7 8703.17 475.349   1
   2   6   7 9303.01 560.584   6
   2   6   7 11182.2 815.105   5
   3   5   7 21823.9 1113.13   5
   3   5   7 21614.7 810.799   1
   3   5   7 21744.8 781.371   6
   4   4   7 17699.4 953.938   5
   4   4   7 17664.1 604.315   6
   5   3   7 27937.1 1183.39   5
   5   3   7 27778.1 673.934   6
   6   2   7 27076.1 1124.03   5
   7   1   7 6974.00 535.833   5
   8   0   7 193.529 110.008   5
   8   0   7 48.4589 64.1788   4
   8   0   7 52.3053 36.9329   6
   9  -1   7 9888.63 631.630   5
   9  -1   7 10552.6 411.506   6
   9  -1   7 10441.0 488.218   4
  10  -2   7 21620.8 728.264   6
  10  -2   7 21154.5 944.914   5
  11  -3   7 26303.1 913.461   6
  12  -4   7 24212.1 951.041   6
   0  10   7 17777.5 1313.72   5
   1   9   7 10514.4 948.682   5
   2   8   7 1789.88 375.531   5
   3   7   7 284.864 184.602   5
   4   6   7 6798.05 652.309   5
   5   5   7 16754.7 998.771   5
   6   4   7 48036.7 1700.84   5
   7   3   7 27261.2 1207.58   5
   8   2   7 23908.9 1078.85   5
   9   1   7 11391.4 636.058   4
   9   1   7 10725.5 692.405   5
  10   0   7 132.224 114.561   5
  10   0   7 40.6145 99.2207   4
  11  -1   7 10610.9 664.939   5
  12  -2   7 17375.3 861.831   5
  13  -3   7 21259.2 949.157   5
   2  10   7 20526.2 1441.99   5
   3   9   7 15634.5 1193.01   5
   4   8   7 1937.61 416.116   5
   5   7   7 1112.14 333.790   5
   6   6   7 7187.52 694.540   5
   7   5   7 27615.8 1339.23   5
   8   4   7 41987.0 1629.00   5
   9   3   7 33730.0 1394.22   5
  10   2   7 22086.9 1082.13   5
  10   2   7 22706.5 1044.54   4
  11   1   7 9587.85 678.600   5
  12   0   7-29.1992 124.237   5
  13  -1   7 7066.42 558.765   5
  14  -2   7 17726.8 887.257   5
   5   9   7 12127.7 1077.01   5
   6   8   7 346.741 257.588   5
   7   7   7 3096.27 511.300   5
   8   6   7 5434.20 643.750   5
   9   5   7 15085.8 1003.99   5
  10   4   7 16096.8 1013.63   5
  11   3   7 26102.2 1271.49   5
  12   2   7 15122.0 921.665   5
  13   1   7 6527.57 581.352   5
  14   0   7 252.980 138.866   5
   7   9   7 10575.0 1031.30   5
   8   8   7 712.596 289.137   5
   9   7   7 240.635 184.925   5
  10   6   7 4173.69 586.672   5
  11   5   7 19472.6 1200.11   5
  12   4   7 25531.9 1335.27   5
  13   3   7 20725.4 1164.57   5
  14   2   7 15767.2 988.757   5
  15   1   7 3554.83 449.917   5
  10   8   7 2231.09 469.319   5
  11   7   7-161.453 219.291   5
  12   6   7 5915.64 723.708   5
  13   5   7 16928.5 1165.31   5
  14   4   7 19364.0 1220.53   5
  15   3   7 20696.4 1216.52   5
  13   7   7 647.651 285.254   5
  14   6   7 9680.49 952.958   5
  15   5   7 11435.1 1021.20   5
  16   4   7 16439.5 1185.68   5
 -18  -2   6 4601.23 468.571   1
 -17  -3   6 469.352 197.860   1
 -16  -4   6 2631.92 372.433   1
 -15  -5   6 6740.97 604.605   1
 -14  -6   6 16472.2 972.177   1
 -13  -7   6 15768.5 976.471   1
 -17  -1   6 21772.7 970.039   1
 -16  -2   6 13627.3 768.861   1
 -15  -3   6 4336.29 445.683   1
 -14  -4   6 686.242 209.295   1
 -13  -5   6 6740.41 580.504   1
 -12  -6   6 18020.5 996.802   1
 -11  -7   6 33330.4 1414.69   1
 -10  -8   6 35653.4 1495.25   1
  -9  -9   6 17587.3 1053.78   1
 -16   0   6 36682.7 1215.04   1
 -15  -1   6 27145.5 1047.01   1
 -14  -2   6 12885.2 716.691   1
 -13  -3   6 3138.79 362.353   1
 -12  -4   6 447.095 171.365   1
 -11  -5   6 7877.07 603.224   1
 -10  -6   6 34415.7 1379.29   1
  -9  -7   6 30445.0 1314.11   1
  -8  -8   6 29885.7 1346.64   1
  -7  -9   6 13653.8 916.329   1
  -6 -10   6 3941.75 504.979   1
 -16   2   6 13431.4 1049.39   4
 -15   1   6 26732.2 1418.62   4
 -15   1   6 27848.0 947.168   1
 -14   0   6 26010.6 948.009   1
 -13  -1   6 27742.6 1023.16   1
 -12  -2   6 16085.3 782.630   1
 -11  -3   6 3347.08 370.525   1
 -10  -4   6 1243.18 239.229   1
  -9  -5   6 24416.0 1095.90   1
  -8  -6   6 24914.6 1148.03   1
  -7  -7   6 26903.6 1221.28   1
  -6  -8   6 26292.3 1244.66   1
  -5  -9   6 15079.1 941.324   1
  -4 -10   6 4514.15 526.851   1
  -3 -11   6 90.3010 180.610   1
 -16   4   6 2460.61 466.642   4
 -15   3   6 4388.75 582.856   4
 -14   2   6 11340.9 890.775   4
 -13   1   6 27906.9 904.742   1
 -13   1   6 27831.6 1350.41   4
 -12   0   6 41706.5 1497.67   5
 -12   0   6 41452.9 1200.40   1
 -11  -1   6 32007.6 1331.48   5
 -11  -1   6 33582.5 1110.53   1
 -10  -2   6 24137.7 952.967   1
  -9  -3   6 3038.94 353.938   1
  -8  -4   6 3498.62 388.459   1
  -7  -5   6 29049.7 1176.02   1
  -6  -6   6 18741.5 960.001   1
  -5  -7   6 28872.0 1253.11   1
  -4  -8   6 31722.0 1359.26   1
  -3  -9   6 16187.5 976.530   1
  -2 -10   6 4945.75 546.390   1
  -1 -11   6 434.737 194.155   1
 -15   5   6 7021.11 781.379   4
 -14   4   6 50.5660 146.644   4
 -13   3   6 1939.45 363.641   4
 -13   3   6 3338.13 309.115   5
 -12   2   6 14700.0 944.908   4
 -12   2   6 14702.4 564.353   1
 -12   2   6 15906.6 696.994   5
 -11   1   6 34081.1 1403.67   4
 -11   1   6 32649.9 966.299   1
 -10   0   6 70861.9 1657.25   1
 -10   0   6 69540.8 2017.62   4
  -9  -1   6 68703.5 1715.32   1
  -8  -2   6 44952.6 1362.30   1
  -7  -3   6 22217.5 935.954   7
  -7  -3   6 22020.5 935.310   1
  -6  -4   6 1507.21 258.084   1
  -5  -5   6 12635.6 751.055   1
  -4  -6   6 24202.5 1103.92   1
  -3  -7   6 72136.3 2104.19   1
  -2  -8   6 25942.2 1205.41   1
  -1  -9   6 9682.11 746.609   1
   0 -10   6 2082.81 366.689   1
   1 -11   6 232.478 169.715   1
 -14   6   6 17860.4 1251.49   4
 -13   5   6 6643.82 714.746   4
 -12   4   6 355.057 162.100   4
 -12   4   6 332.651 100.127   5
 -11   3   6 3042.21 203.107   1
 -11   3   6 3584.46 348.210   2
 -11   3   6 2857.92 409.928   4
 -11   3   6 3194.35 307.366   5
 -10   2   6 23753.1 1124.38   4
 -10   2   6 23063.4 924.990   2
 -10   2   6 23797.3 719.992   1
  -9   1   6 66425.2 1763.67   2
  -9   1   6 68852.4 1523.22   1
  -9   1   6 65577.4 1909.92   4
  -8   0   6 56794.6 1646.85   4
  -8   0   6 58167.3 1444.21   1
  -8   0   6 55958.8 1607.20   2
  -7  -1   6 54992.5 1450.89   1
  -7  -1   6 51590.6 1561.02   2
  -6  -2   6 17378.5 787.015   7
  -6  -2   6 19899.6 838.408   1
  -5  -3   6 3274.40 343.019   1
  -5  -3   6 3200.15 305.846   7
  -4  -4   6 1891.68 277.791   1
  -3  -5   6 3887.97 409.833   1
  -2  -6   6 67260.3 1961.11   1
  -1  -7   6 45587.7 1600.30   1
   0  -8   6 20536.4 1063.09   1
   1  -9   6 6876.05 625.316   1
   2 -10   6 3155.24 438.448   1
   3 -11   6 101.394 149.281   1
 -13   7   6 18179.9 1260.96   4
 -12   6   6 17484.3 1157.06   4
 -11   5   6 8857.29 578.636   5
 -11   5   6 9180.78 775.770   4
 -10   4   6 781.528 166.686   5
 -10   4   6 1003.17 253.120   4
 -10   4   6 942.409 171.107   2
 -10   4   6 913.752 69.1982   1
  -9   3   6 2264.89 261.057   2
  -9   3   6 2448.36 345.487   4
  -9   3   6 2398.84 278.861   5
  -9   3   6 2514.36 175.408   1
  -8   2   6 44118.4 1472.83   4
  -8   2   6 44920.2 1067.99   1
  -8   2   6 44889.5 1334.02   2
  -7   1   6 50832.7 1473.94   2
  -7   1   6 53679.5 1540.06   4
  -7   1   6 52393.5 1278.22   1
  -6   0   6 43527.4 1357.31   2
  -6   0   6 44533.7 1223.98   1
  -6   0   6 44516.6 1284.15   4
  -6   0   6 44531.0 1364.10   7
  -5  -1   6 48492.7 1264.50   4
  -5  -1   6 49073.7 1381.24   7
  -5  -1   6 49806.3 1494.40   2
  -5  -1   6 49680.5 1372.69   1
  -4  -2   6 30462.3 1068.25   1
  -4  -2   6 27775.7 1087.90   2
  -4  -2   6 27158.2 930.183   7
  -3  -3   6 2463.16 241.093   7
  -3  -3   6 2576.15 311.021   1
  -2  -4   6 3592.31 388.861   1
  -2  -4   6 3533.68 270.229   7
  -1  -5   6 30629.4 1215.68   1
   0  -6   6 26809.9 1168.91   1
   1  -7   6 33139.9 1348.42   1
   2  -8   6 19984.1 1062.95   1
   3  -9   6 11556.3 822.405   1
   4 -10   6 5588.18 594.033   1
   4 -10   6 5078.25 622.729   6
   5 -11   6 774.226 260.995   1
 -11   7   6 35642.1 1705.31   4
 -10   6   6 38481.2 1666.59   4
 -10   6   6 36131.8 1322.74   5
  -9   5   6 23517.4 984.427   5
  -9   5   6 23857.3 1207.90   4
  -8   4   6 4150.45 156.000   1
  -8   4   6 4138.03 378.412   5
  -8   4   6 4128.38 458.753   4
  -8   4   6 4464.74 353.084   2
  -7   3   6 21194.4 593.482   1
  -7   3   6 21277.4 827.773   2
  -7   3   6 20630.4 962.357   4
  -7   3   6 21695.6 865.334   5
  -6   2   6 18682.1 836.886   4
  -6   2   6 19555.6 644.225   1
  -6   2   6 18430.8 793.837   2
  -5   1   6 49737.2 1454.85   7
  -5   1   6 47714.0 1237.29   1
  -5   1   6 48158.1 1325.41   4
  -5   1   6 47810.7 1399.10   2
  -4   0   6 87549.0 2000.43   7
  -4   0   6 88605.2 1935.11   1
  -4   0   6 84133.3 1800.38   4
  -4   0   6 83084.7 2052.88   2
  -3  -1   6 39590.6 1215.60   1
  -3  -1   6 40120.7 968.868   4
  -3  -1   6 38051.9 1123.67   7
  -3  -1   6 38562.3 1287.69   2
  -2  -2   6 35315.3 997.229   7
  -2  -2   6 36944.0 1210.23   1
  -2  -2   6 34781.1 1237.54   2
  -1  -3   6 3329.62 251.266   7
  -1  -3   6 3469.77 365.329   1
  -1  -3   6 3007.11 346.377   2
   0  -4   6 6809.85 325.260   7
   0  -4   6 6981.41 535.465   1
   1  -5   6 15013.2 824.592   1
   2  -6   6 25115.5 1127.63   1
   3  -7   6 33258.6 1362.82   1
   4  -8   6 30039.9 1336.45   1
   5  -9   6 20318.6 1201.95   6
   5  -9   6 19742.1 1103.64   1
   6 -10   6 1967.99 394.845   6
   6 -10   6 2764.56 440.512   1
   7 -11   6 1045.74 270.081   1
 -10   8   6 35903.6 1747.14   4
 -10   8   6 33900.1 1452.62   5
  -9   7   6 30129.8 1285.18   5
  -9   7   6 32963.2 1554.10   4
  -8   6   6 26117.8 1298.08   4
  -8   6   6 26131.0 1125.78   5
  -7   5   6 30857.2 937.770   2
  -7   5   6 30045.5 1151.81   5
  -7   5   6 31554.3 1334.78   4
  -6   4   6 1272.11 212.101   5
  -6   4   6 1570.64 264.815   4
  -6   4   6 1879.48 225.807   2
  -6   4   6 1558.19 117.604   1
  -6   4   6 1784.25 125.059   1
  -5   3   6 3713.83 333.137   2
  -5   3   6 4200.16 390.009   4
  -5   3   6 3623.84 239.429   1
  -5   3   6 3586.38 343.164   5
  -5   3   6 3336.20 350.066   6
  -4   2   6 28714.5 988.246   4
  -4   2   6 27566.3 1019.68   6
  -4   2   6 29813.4 870.795   1
  -4   2   6 28730.1 1010.19   2
  -4   2   6 28268.5 1074.25   7
  -3   1   6 37880.3 1217.50   2
  -3   1   6 38568.9 1067.80   4
  -3   1   6 39345.3 1227.62   7
  -3   1   6 39873.0 1124.83   1
  -2   0   6 87113.7 1946.39   7
  -2   0   6 85955.5 1667.81   4
  -2   0   6 87759.4 1975.06   1
  -2   0   6 88415.4 2102.73   2
  -1  -1   6 55131.3 1587.68   2
  -1  -1   6 54545.8 1502.42   1
  -1  -1   6 55400.9 1353.26   7
   0  -2   6 23453.4 946.453   1
   0  -2   6 22608.2 718.483   7
   1  -3   6 10391.2 641.738   1
   1  -3   6 10069.9 643.719   2
   1  -3   6 11083.2 416.294   7
   2  -4   6 134.359 94.2317   1
   2  -4   6 173.584 43.2696   7
   3  -5   6 6080.83 527.727   1
   4  -6   6 35454.4 1392.22   1
   5  -7   6 31751.5 1373.15   6
   5  -7   6 31712.6 1353.13   1
   6  -8   6 27045.1 1284.28   1
   6  -8   6 27509.2 1346.64   6
   7  -9   6 13117.3 914.420   1
   7  -9   6 12362.0 935.502   6
   8 -10   6 2244.09 390.419   1
   8 -10   6 2015.66 400.922   6
  -9   9   6 20317.3 1190.23   5
  -9   9   6 20608.8 1332.88   4
  -8   8   6 29677.5 1370.97   5
  -8   8   6 32431.9 1578.81   4
  -7   7   6 26991.0 1338.70   4
  -7   7   6 25486.1 1185.25   5
  -6   6   6 20449.6 1083.18   4
  -6   6   6 18005.7 933.108   5
  -6   6   6 20738.2 718.147   2
  -5   5   6 12638.9 726.687   5
  -5   5   6 12089.8 266.794   1
  -5   5   6 13544.9 601.294   2
  -4   4   6 2102.32 277.471   5
  -4   4   6 1909.36 163.789   1
  -4   4   6 1982.16 149.159   1
  -4   4   6 2032.06 249.881   2
  -4   4   6 2205.36 282.777   6
  -3   3   6 2816.00 241.725   1
  -3   3   6 3417.50 336.623   5
  -3   3   6 2523.26 314.807   7
  -3   3   6 3334.69 326.679   6
  -3   3   6 2275.76 267.518   2
  -2   2   6 38865.0 1251.88   7
  -2   2   6 36011.3 1170.80   2
  -2   2   6 36360.7 1112.06   6
  -1   1   6 56068.9 1546.59   2
  -1   1   6 53813.2 1476.02   7
  -1   1   6 56169.7 1257.39   4
   0   0   6 60583.6 1501.15   7
   0   0   6 61265.1 1676.46   2
   0   0   6 61257.8 1157.19   4
   1  -1   6 53442.4 1292.14   7
   2  -2   6 20102.6 912.154   2
   2  -2   6 18792.0 613.111   7
   3  -3   6 2984.27 185.820   7
   3  -3   6 3600.29 382.975   2
   6  -6   6 41380.6 1543.23   1
   6  -6   6 40113.2 1486.83   6
   7  -7   6 21980.3 1137.36   1
   7  -7   6 22404.7 1138.38   6
   8  -8   6 21142.1 1173.85   6
   8  -8   6 20697.1 1136.24   1
   9  -9   6 13134.2 926.130   1
   9  -9   6 12622.0 951.205   6
  10 -10   6 1684.41 337.843   1
  -8  10   6 3477.38 544.283   5
  -7   9   6 11261.9 901.383   5
  -6   8   6 25506.3 1273.44   5
  -5   7   6 26782.0 1237.85   5
  -4   6   6 26995.7 1171.89   5
  -3   5   6 2985.60 302.578   2
  -3   5   6 3509.98 361.671   6
  -3   5   6 3584.47 225.507   1
  -3   5   6 3598.92 190.853   1
  -3   5   6 3935.43 408.263   5
  -2   4   6 3635.65 344.466   6
  -2   4   6 3022.77 309.106   2
  -2   4   6 3679.23 371.662   5
  -2   4   6 3200.11 218.252   1
  -1   3   6 3167.80 349.470   7
  -1   3   6 3226.40 240.098   1
  -1   3   6 3347.18 331.568   2
  -1   3   6 3266.56 332.709   5
   0   2   6 24733.2 939.506   5
   0   2   6 23147.9 930.897   2
   0   2   6 23350.4 789.081   6
   0   2   6 23603.6 940.199   7
   1   1   6 53785.5 1543.48   2
   2   0   6 40772.5 1336.62   2
   4  -2   6 36141.5 1298.54   2
   4  -2   6 36158.4 920.288   7
   5  -3   6 3974.56 212.826   7
   7  -5   6 29490.7 1173.62   6
   8  -6   6 15063.7 863.495   6
   9  -7   6 25397.1 1258.08   1
   9  -7   6 24110.9 1189.76   6
  10  -8   6 16382.1 1031.99   6
  10  -8   6 16779.4 1053.63   1
  11  -9   6 11261.0 902.581   6
  11  -9   6 12731.9 951.071   1
  -7  11   6 544.595 308.849   5
  -6  10   6 3924.13 568.214   5
  -5   9   6 14790.8 1040.46   5
  -4   8   6 34509.8 1516.94   5
  -3   7   6 72127.6 2170.37   5
  -3   7   6 66786.4 1093.45   1
  -2   6   6 63116.1 1814.17   6
  -2   6   6 62752.8 1948.99   5
  -2   6   6 65739.6 1223.65   1
  -1   5   6 31915.2 1101.92   6
  -1   5   6 30959.7 1214.81   5
  -1   5   6 31571.4 1094.75   2
  -1   5   6 30405.8 781.583   1
   0   4   6 8082.81 564.675   5
   0   4   6 7312.05 509.310   2
   0   4   6 7216.81 372.756   1
   1   3   6 10824.3 490.213   1
   1   3   6 11369.4 644.282   5
   1   3   6 9750.89 473.483   6
   1   3   6 10181.2 616.595   2
   2   2   6 20461.3 854.228   5
   2   2   6 19299.4 710.167   1
   2   2   6 19522.5 634.175   6
   2   2   6 18984.8 874.664   2
   3   1   6 51074.4 1564.58   2
   4   0   6 48660.6 1547.30   2
   5  -1   6 30354.0 652.204   4
   5  -1   6 29072.3 1185.22   2
   7  -3   6 2735.76 285.617   6
   8  -4   6 975.120 191.457   6
   9  -5   6 15995.7 832.332   6
  10  -6   6 21811.1 1060.90   6
  11  -7   6 22511.9 1146.23   6
  12  -8   6 23683.1 1301.81   1
  12  -8   6 24884.6 1278.90   6
  13  -9   6 9792.64 846.769   6
  13  -9   6 9121.41 830.286   1
  -5  11   6-313.708 248.301   5
  -4  10   6 3655.56 568.366   5
  -3   9   6 15784.5 1089.84   5
  -2   8   6 25100.5 1302.11   5
  -1   7   6 44621.0 1710.48   5
  -1   7   6 48128.6 1042.76   1
   0   6   6 26903.5 760.903   1
   0   6   6 28370.9 1239.51   5
   0   6   6 28221.2 1060.96   6
   1   5   6 15810.6 582.987   1
   1   5   6 16546.3 878.430   5
   2   4   6 130.030 105.063   2
   2   4   6 28.2296 74.1304   5
   2   4   6 111.701 49.7699   6
   2   4   6 72.3382 48.8781   1
   3   3   6 2608.88 318.591   5
   3   3   6 3110.16 281.200   1
   3   3   6 3271.76 229.312   6
   3   3   6 3506.19 381.986   2
   4   2   6 35283.1 1078.32   1
   4   2   6 37119.2 1334.87   2
   4   2   6 36543.0 813.253   6
   4   2   6 37737.2 1239.55   5
   5   1   6 30058.4 1212.90   2
   5   1   6 30825.9 1023.78   1
   5   1   6 32177.9 1104.45   5
   6   0   6 32413.7 886.561   4
   7  -1   6 40928.3 997.957   6
   7  -1   6 40492.3 975.968   4
   8  -2   6 22408.9 773.045   6
   8  -2   6 22238.3 688.011   4
   9  -3   6 8106.05 485.229   6
  10  -4   6 1908.83 139.651   7
  10  -4   6 1754.93 252.615   6
  11  -5   6 8347.57 592.767   6
  12  -6   6 24960.3 1138.02   6
  13  -7   6 21235.8 1115.11   6
  14  -8   6 14790.1 987.181   6
  -3  11   6-280.636 275.300   5
  -2  10   6 5538.13 704.296   5
  -1   9   6 8556.76 815.384   5
   0   8   6 20069.6 1180.81   5
   1   7   6 34807.8 1505.03   5
   1   7   6 36025.2 1255.96   6
   1   7   6 37079.2 990.394   1
   2   6   6 24140.5 791.320   1
   2   6   6 25103.6 1188.53   5
   3   5   6 5916.09 378.431   1
   3   5   6 6265.18 552.664   5
   3   5   6 6086.16 377.314   6
   4   4   6 4000.51 325.036   1
   4   4   6 4395.20 439.459   5
   4   4   6 4270.77 262.956   6
   5   3   6 3963.13 189.945   6
   5   3   6 4222.12 343.888   1
   5   3   6 4076.05 406.403   5
   6   2   6 21437.4 919.960   5
   7   1   6 42237.6 1329.52   5
   8   0   6 42719.3 1169.02   4
   8   0   6 39330.4 1258.40   5
   8   0   6 38476.4 748.168   6
   9  -1   6 51308.1 1449.91   5
   9  -1   6 48476.3 1278.35   4
   9  -1   6 50030.6 1063.38   6
  10  -2   6 26525.2 986.087   5
  10  -2   6 27593.4 918.012   4
  10  -2   6 28222.8 833.125   6
  11  -3   6 6361.92 370.040   7
  11  -3   6 8887.21 490.152   6
  12  -4   6 221.957 114.668   6
  13  -5   6 4854.17 450.040   6
  14  -6   6 17788.6 952.404   6
  -1  11   6 1070.83 373.556   5
   0  10   6 2503.14 486.333   5
   1   9   6 6389.07 708.219   5
   2   8   6 21514.0 1257.36   5
   3   7   6 34546.0 1036.99   1
   3   7   6 33982.4 1527.20   5
   4   6   6 37051.5 1099.51   1
   4   6   6 36293.2 1516.81   5
   5   5   6 15945.5 925.514   5
   5   5   6 14857.6 671.871   1
   6   4   6 1562.52 282.819   5
   7   3   6 3220.21 379.475   5
   8   2   6 22188.4 977.064   5
   9   1   6 48148.0 1447.20   4
   9   1   6 50188.2 1513.57   5
  10   0   6 67066.4 1784.28   5
  10   0   6 68477.6 1766.70   4
  11  -1   6 34530.0 1151.83   4
  11  -1   6 34335.1 764.178   6
  11  -1   6 33333.4 1151.51   5
  12  -2   6 12898.8 672.520   5
  12  -2   6 12914.7 517.223   6
  12  -2   6 11886.5 673.533   4
  13  -3   6 1789.20 219.525   6
  13  -3   6 1613.64 208.260   7
  13  -3   6 1575.44 225.298   5
  14  -4   6 1241.50 210.736   6
   1  11   6-272.980 332.493   5
   2  10   6 3849.82 644.130   5
   3   9   6 10336.6 945.932   5
   4   8   6 31851.6 1593.39   5
   5   7   6 33898.6 1561.08   5
   6   6   6 42799.0 1705.56   5
   7   5   6 30785.8 1359.30   5
   8   4   6 730.172 196.242   5
   9   3   6 8526.81 640.913   5
  10   2   6 27323.3 1142.24   5
  11   1   6 33985.4 1250.61   5
  11   1   6 32407.8 1248.12   4
  12   0   6 40871.1 1363.57   5
  12   0   6 42462.6 1434.66   4
  13  -1   6 17892.1 833.241   5
  14  -2   6 8728.34 556.418   5
  14  -2   6 9798.85 585.698   7
   4  10   6 5578.15 748.365   5
   5   9   6 20915.9 1385.98   5
   6   8   6 28879.6 1558.26   5
   7   7   6 25371.8 1377.84   5
   8   6   6 15764.2 1032.71   5
   9   5   6 16251.7 1009.95   5
  10   4   6 1706.91 312.387   5
  11   3   6 7726.77 641.815   5
  12   2   6 12927.6 803.911   5
  13   1   6 18191.0 930.944   5
  14   0   6 22238.6 1009.82   5
  15  -1   6 22553.7 1008.20   7
  15  -1   6 23056.5 996.409   5
   6  10   6 2285.31 475.753   5
   7   9   6 13509.7 1148.60   5
   8   8   6 20263.8 1337.82   5
   9   7   6 26374.8 1471.01   5
  10   6   6 24396.6 1346.88   5
  11   5   6 8803.32 772.248   5
  12   4   6 289.517 157.607   5
  13   3   6 1066.43 259.387   5
  14   2   6 9629.67 726.295   5
  15   1   6 22936.9 1092.35   5
  16   0   6 19446.0 1024.42   7
   9   9   6 13260.4 1169.77   5
  10   8   6 16565.8 1259.69   5
  11   7   6 23239.7 1433.69   5
  12   6   6 25596.0 1466.73   5
  13   5   6 5271.46 629.229   5
  14   4   6 1202.93 320.934   5
  15   3   6 1492.00 322.442   5
  16   2   6 14381.3 931.066   5
  12   8   6 25705.7 1630.85   5
  13   7   6 20242.9 1400.58   5
  14   6   6 16249.7 1205.94   5
  15   5   6 6933.96 773.448   5
  16   4   6 165.470 184.112   5
  15   7   6 19354.9 1428.19   5
  16   6   6 16620.9 1297.18   5
 -19  -3   5 22231.2 1125.92   1
 -18  -4   5 21706.3 1111.90   1
 -17  -5   5 14545.0 916.178   1
 -19  -1   5 5853.35 532.165   1
 -18  -2   5 19396.4 982.889   1
 -17  -3   5 28640.2 1211.84   1
 -16  -4   5 26862.6 1192.57   1
 -15  -5   5 19359.5 1010.88   1
 -14  -6   5 8360.80 669.511   1
 -13  -7   5 2854.31 406.964   1
 -12  -8   5 3109.49 423.944   1
 -11  -9   5 10760.8 809.518   1
 -17  -1   5 3489.89 375.662   1
 -16  -2   5 8098.83 577.997   1
 -15  -3   5 27847.1 1133.39   1
 -14  -4   5 35844.3 1338.78   1
 -13  -5   5 35832.7 1371.19   1
 -12  -6   5 14547.5 858.969   1
 -11  -7   5 697.778 233.359   1
 -10  -8   5 2769.14 388.441   1
  -9  -9   5 12868.8 862.774   1
  -8 -10   5 21476.2 1147.25   1
 -16   0   5 99.4845 74.8088   1
 -15  -1   5 4625.28 401.431   1
 -14  -2   5 20125.0 889.120   1
 -13  -3   5 30616.4 1152.63   1
 -12  -4   5 50264.3 1580.44   1
 -11  -5   5 35538.0 1316.26   1
 -10  -6   5 4067.34 434.148   1
  -9  -7   5 1013.82 243.640   1
  -8  -8   5 751.060 220.519   1
  -7  -9   5 12631.8 839.816   1
  -6 -10   5 21092.5 1121.20   1
  -5 -11   5 16526.6 1017.41   1
 -17   3   5 28479.5 1598.15   4
 -16   2   5 9638.14 862.375   4
 -15   1   5 5051.82 377.669   1
 -15   1   5 4921.85 574.182   4
 -14   0   5 97.7625 78.4221   1
 -13  -1   5 9177.37 660.378   5
 -13  -1   5 9554.29 556.697   1
 -12  -2   5 36071.5 1417.71   5
 -12  -2   5 36723.8 1199.55   1
 -11  -3   5 36719.9 1235.48   1
 -10  -4   5 40125.4 1340.28   1
  -9  -5   5 25932.1 1076.80   1
  -8  -6   5 5332.74 487.225   1
  -7  -7   5 771.895 219.422   1
  -6  -8   5 1336.52 286.902   1
  -5  -9   5 18983.2 1024.60   1
  -4 -10   5 27579.8 1296.36   1
  -3 -11   5 25347.2 1263.91   1
  -2 -12   5 15133.8 980.056   1
 -16   4   5 28689.2 1583.42   4
 -15   3   5 26272.7 1429.71   4
 -14   2   5 22097.7 1230.45   4
 -14   2   5 21103.5 735.631   1
 -14   2   5 21774.9 710.239   5
 -13   1   5 8903.24 728.169   4
 -13   1   5 8988.44 474.976   1
 -13   1   5 10454.5 607.050   5
 -12   0   5 49.6188 96.7181   5
 -12   0   5 32.7503 108.938   4
 -12   0   5 4.82785 64.8664   1
 -11  -1   5 29449.2 983.926   1
 -11  -1   5 27727.5 1143.81   5
 -10  -2   5 50197.5 1409.54   1
 -10  -2   5 48777.2 1632.84   5
  -9  -3   5 63114.1 1667.68   1
  -9  -3   5 59797.3 1922.96   5
  -8  -4   5 48141.9 1466.47   1
  -7  -5   5 30297.5 1162.55   1
  -6  -6   5 9118.91 627.382   1
  -5  -7   5 7798.07 597.385   1
  -4  -8   5 9585.39 683.110   1
  -3  -9   5 13961.8 856.964   1
  -2 -10   5 19204.0 1036.80   1
  -1 -11   5 24833.2 1227.15   1
   0 -12   5 13645.8 927.094   1
 -15   5   5 20235.9 1308.82   4
 -14   4   5 36014.4 1670.22   4
 -13   3   5 29248.7 1429.45   4
 -13   3   5 31812.6 829.780   1
 -13   3   5 33198.0 943.698   5
 -12   2   5 38585.1 1046.23   5
 -12   2   5 37216.9 1187.59   2
 -12   2   5 41880.8 1599.13   4
 -12   2   5 36752.7 961.433   1
 -11   1   5 27510.4 825.542   1
 -11   1   5 26963.4 1204.05   4
 -11   1   5 26496.7 990.932   2
 -10   0   5 68.6444 90.9676   4
 -10   0   5-10.8773 69.5548   1
 -10   0   5 71.8069 74.8903   2
  -9  -1   5 2696.16 269.991   1
  -9  -1   5 2550.57 306.752   2
  -8  -2   5 8787.31 563.777   7
  -8  -2   5 8919.11 523.540   1
  -8  -2   5 8503.82 568.551   2
  -7  -3   5 43117.9 1310.92   1
  -7  -3   5 43905.5 1536.15   5
  -6  -4   5 62360.2 1689.95   1
  -6  -4   5 63123.4 1980.41   5
  -5  -5   5 30718.6 1145.41   1
  -4  -6   5 20311.1 938.103   1
  -3  -7   5 1669.12 284.808   1
  -2  -8   5 6841.03 577.942   1
  -1  -9   5 15373.6 900.892   1
   0 -10   5 17575.7 988.016   1
   1 -11   5 24602.1 1417.69   6
   1 -11   5 22944.5 1178.72   1
   2 -12   5 19584.7 1111.84   1
 -14   6   5 10197.9 907.161   4
 -13   5   5 36629.6 1667.46   4
 -12   4   5 50531.1 1314.83   5
 -12   4   5 50488.4 1886.17   4
 -11   3   5 38641.6 1071.66   5
 -11   3   5 37684.7 850.837   1
 -11   3   5 39279.7 1532.64   4
 -11   3   5 36434.8 1102.40   2
 -10   2   5 48838.6 1079.85   1
 -10   2   5 46946.6 1311.27   2
 -10   2   5 46317.4 1607.07   4
  -9   1   5 3088.05 241.170   1
  -9   1   5 2816.06 341.773   4
  -9   1   5 2975.07 296.584   2
  -8   0   5-72.1876 71.9558   2
  -8   0   5 25.9112 65.2872   1
  -8   0   5 2.66423 51.2493   7
  -8   0   5-16.9796 74.7506   4
  -7  -1   5 10351.2 591.771   2
  -7  -1   5 11382.7 550.311   1
  -7  -1   5 10339.2 589.667   7
  -6  -2   5 36898.6 1127.94   1
  -6  -2   5 34475.8 1168.95   2
  -6  -2   5 37447.7 1146.03   7
  -5  -3   5 56986.8 1523.04   1
  -5  -3   5 54861.2 1580.81   2
  -5  -3   5 57970.2 1450.36   7
  -4  -4   5 65509.8 1734.18   1
  -4  -4   5 64348.9 1755.63   2
  -4  -4   5 67430.0 2000.71   5
  -3  -5   5 41258.0 1342.40   1
  -2  -6   5 4328.46 416.251   1
  -1  -7   5 365.960 137.646   1
   0  -8   5 2901.54 366.596   1
   1  -9   5 10316.0 722.684   1
   2 -10   5 20260.4 1221.52   6
   2 -10   5 18074.7 1008.36   1
   3 -11   5 26732.7 1262.01   1
   3 -11   5 23474.6 1399.92   6
   4 -12   5 17545.9 1045.72   1
 -13   7   5 2029.87 431.696   4
 -12   6   5 15326.2 1056.36   4
 -11   5   5 36858.2 1578.71   4
 -11   5   5 37458.4 1175.07   5
 -10   4   5 36978.3 1121.49   5
 -10   4   5 38976.4 1516.85   4
 -10   4   5 40446.0 1068.77   2
 -10   4   5 36611.0 643.547   1
  -9   3   5 63214.5 1156.48   1
  -9   3   5 59401.5 1468.36   2
  -9   3   5 62333.3 1872.70   4
  -9   3   5 62185.1 1506.14   5
  -8   2   5 8723.84 366.309   1
  -8   2   5 8144.91 567.070   4
  -8   2   5 8128.13 467.622   2
  -7   1   5 11392.6 565.502   2
  -7   1   5 11105.9 474.581   1
  -7   1   5 11628.4 640.130   7
  -7   1   5 11276.0 629.932   6
  -7   1   5 11015.7 614.671   4
  -6   0   5-42.2861 80.0844   7
  -6   0   5-21.8295 56.4795   2
  -6   0   5 2.78609 55.6131   4
  -6   0   5 23.4246 55.3887   1
  -5  -1   5 14308.9 598.666   4
  -5  -1   5 14445.0 619.084   1
  -5  -1   5 12586.2 632.820   2
  -5  -1   5 13065.0 609.360   7
  -4  -2   5 46683.3 1287.98   1
  -4  -2   5 44878.0 1198.87   7
  -3  -3   5 69384.2 1527.65   7
  -3  -3   5 71582.6 1763.85   1
  -2  -4   5 40046.2 1300.22   2
  -2  -4   5 40678.6 1287.41   1
  -1  -5   5 28022.3 1077.62   2
  -1  -5   5 26999.6 1221.92   5
  -1  -5   5 28056.5 1083.09   1
   0  -6   5 14451.9 777.429   2
   0  -6   5 14825.4 793.012   1
   1  -7   5 4794.85 465.551   1
   2  -8   5 9058.38 668.063   1
   3  -9   5 9362.38 696.373   1
   3  -9   5 10265.0 819.752   6
   4 -10   5 21141.6 1264.37   6
   4 -10   5 22745.5 1136.13   1
   5 -11   5 16135.8 984.881   1
   5 -11   5 17983.3 1215.25   6
   6 -12   5 13247.3 901.638   1
 -12   8   5 2911.05 502.463   4
 -11   7   5 408.358 206.452   4
 -11   7   5 269.257 117.846   5
 -10   6   5 5786.26 605.041   4
 -10   6   5 4819.32 432.121   5
  -9   5   5 25969.4 987.496   5
  -9   5   5 28129.9 1281.51   4
  -9   5   5 29064.4 781.931   2
  -8   4   5 50527.7 1226.35   2
  -8   4   5 51177.4 1682.20   4
  -8   4   5 51605.0 1383.61   5
  -7   3   5 43489.0 1416.76   4
  -7   3   5 42866.2 855.850   1
  -7   3   5 44749.5 1218.41   5
  -7   3   5 43488.4 1165.23   2
  -6   2   5 36366.7 1190.32   6
  -6   2   5 34661.8 1191.46   7
  -6   2   5 35367.4 851.892   1
  -6   2   5 35756.0 1050.42   2
  -6   2   5 35216.6 1152.85   4
  -5   1   5 13256.5 610.043   2
  -5   1   5 13528.2 609.627   4
  -5   1   5 13140.4 515.343   1
  -5   1   5 12782.0 639.191   7
  -4   0   5 2.25352 52.1480   7
  -4   0   5 44.9806 55.2630   1
  -4   0   5-38.5289 78.7634   2
  -4   0   5-37.9605 53.2024   4
  -3  -1   5 10345.2 420.597   4
  -3  -1   5 10088.3 557.041   2
  -3  -1   5 10622.4 499.320   7
  -3  -1   5 11162.9 544.487   1
  -2  -2   5 47950.1 1328.42   1
  -2  -2   5 48722.1 1144.80   7
  -1  -3   5 82886.2 1969.05   1
  -1  -3   5 84632.5 1611.65   7
   0  -4   5 54204.6 1563.45   2
   0  -4   5 57080.9 1593.92   1
   1  -5   5 50485.2 1688.24   5
   1  -5   5 47477.1 1471.13   2
   1  -5   5 48106.3 1488.82   1
   2  -6   5 30651.1 1169.09   2
   2  -6   5 31848.2 1209.78   1
   3  -7   5 3163.47 383.158   1
   4  -8   5 7920.03 682.477   6
   4  -8   5 8428.20 642.487   1
   5  -9   5 13306.0 847.257   1
   5  -9   5 13319.7 943.349   6
   6 -10   5 24534.8 1207.91   1
   6 -10   5 23609.3 1348.51   6
   7 -11   5 19562.3 1091.72   1
 -11   9   5 12267.6 1040.88   4
 -10   8   5 3252.42 427.004   5
 -10   8   5 2753.94 464.253   4
  -9   7   5 1034.96 278.173   4
  -9   7   5 739.060 193.732   5
  -8   6   5 5717.69 475.301   5
  -8   6   5 5381.59 559.850   4
  -7   5   5 33202.5 1146.83   5
  -7   5   5 32862.1 864.310   2
  -7   5   5 35483.5 1379.43   4
  -6   4   5 67152.2 1658.85   5
  -6   4   5 66754.3 1464.32   2
  -6   4   5 66409.7 1860.09   4
  -6   4   5 63959.2 1789.36   6
  -5   3   5 53218.4 1514.91   6
  -5   3   5 57379.8 1446.46   5
  -5   3   5 56097.1 1551.74   4
  -5   3   5 56003.6 1361.60   2
  -5   3   5 57365.9 1620.18   7
  -5   3   5 56435.3 1086.82   1
  -4   2   5 45043.6 1247.22   4
  -4   2   5 43733.6 1263.22   6
  -4   2   5 44815.6 1044.62   1
  -4   2   5 45424.4 1201.63   2
  -3   1   5 10682.2 556.159   7
  -3   1   5 10875.2 480.318   1
  -3   1   5 10521.1 535.793   2
  -3   1   5 10328.0 475.888   4
  -2   0   5 47.0785 47.6815   7
  -2   0   5 55.9039 74.6446   1
  -2   0   5 17.8685 40.0081   4
  -2   0   5 92.1488 84.7254   2
  -1  -1   5 14578.7 555.274   7
  -1  -1   5 15427.8 661.341   1
  -1  -1   5 14716.3 399.579   4
   0  -2   5 30879.9 787.588   7
   0  -2   5 29308.7 1009.19   1
   1  -3   5 53425.4 1489.87   1
   1  -3   5 53096.7 1037.36   7
   2  -4   5 72465.8 1870.68   2
   2  -4   5 74642.6 1901.88   1
   3  -5   5 39092.0 1306.24   2
   3  -5   5 37791.6 1321.06   1
   3  -5   5 40949.9 1482.26   5
   4  -6   5 28989.9 1170.16   1
   4  -6   5 28569.1 1119.76   2
   5  -7   5 1212.94 244.304   1
   5  -7   5 561.350 165.390   2
   5  -7   5 850.924 232.215   6
   6  -8   5 565.952 191.393   1
   6  -8   5 690.276 207.309   6
   7  -9   5 15367.0 920.682   1
   7  -9   5 14378.1 988.269   6
   8 -10   5 19481.5 1215.21   6
   8 -10   5 18140.5 1052.87   1
   9 -11   5 17581.5 1057.84   1
  -9   9   5 14397.8 1078.40   4
  -9   9   5 11899.7 881.184   5
  -8   8   5 692.878 238.038   4
  -8   8   5 1034.40 249.618   5
  -7   7   5 878.468 213.792   5
  -7   7   5 573.637 201.694   4
  -6   6   5 11360.8 685.508   5
  -5   5   5 31488.5 876.579   2
  -5   5   5 30244.4 1097.83   5
  -4   4   5 70740.8 1881.86   7
  -4   4   5 69476.6 1719.25   5
  -4   4   5 68535.2 1161.70   1
  -4   4   5 68211.3 1214.13   1
  -4   4   5 69102.5 1775.25   6
  -4   4   5 68918.2 1524.65   2
  -3   3   5 72838.6 1411.98   1
  -3   3   5 71403.3 1705.91   5
  -3   3   5 73945.9 1730.54   6
  -3   3   5 70634.3 1612.84   2
  -2   2   5 48552.8 1269.60   2
  -2   2   5 48235.7 1363.11   7
  -1   1   5 15180.2 646.630   7
  -1   1   5 14557.2 649.055   2
   0   0   5 21.0078 23.9685   4
   0   0   5-8.81894 50.4242   7
   1  -1   5 24196.5 719.060   7
   2  -2   5 78438.1 1467.01   7
   3  -3   5 60668.5 1064.38   7
   3  -3   5 59405.7 1627.36   2
   4  -4   5 57695.5 1631.31   2
   5  -5   5 35338.8 1367.48   5
   5  -5   5 35201.6 1242.42   2
   6  -6   5 15481.3 901.579   5
   6  -6   5 13744.5 804.769   6
   6  -6   5 13568.9 758.092   2
   6  -6   5 13554.9 796.962   1
   7  -7   5 1185.46 260.664   6
   7  -7   5 1368.76 269.396   1
   8  -8   5 1648.27 299.237   1
   8  -8   5 1532.70 319.754   6
   9  -9   5 7698.62 667.291   1
   9  -9   5 6722.81 688.381   6
  10 -10   5 20030.9 1129.26   1
  10 -10   5 19329.7 1218.64   6
  -8  10   5 21311.4 1358.66   4
  -8  10   5 21826.6 1304.40   5
  -7   9   5 13390.9 945.634   5
  -6   8   5 992.002 249.373   5
  -5   7   5 5844.89 532.660   5
  -4   6   5 19205.4 931.123   5
  -4   6   5 20686.4 954.308   3
  -3   5   5 45241.3 1426.47   3
  -3   5   5 42873.3 1368.23   5
  -3   5   5 41417.9 1120.27   2
  -3   5   5 41882.0 1326.67   6
  -3   5   5 42775.8 779.945   1
  -2   4   5 39616.4 1188.51   6
  -2   4   5 42347.8 1360.30   7
  -2   4   5 40887.7 1252.34   5
  -2   4   5 38529.6 1111.67   2
  -2   4   5 41267.7 855.273   1
  -1   3   5 83993.5 1866.56   2
  -1   3   5 85094.8 1801.45   6
  -1   3   5 85979.8 1924.83   5
  -1   3   5 82707.1 1568.80   1
   0   2   5 31378.0 1002.50   2
   0   2   5 30915.5 865.471   6
   1   1   5 26527.9 930.642   2
   4  -2   5 38823.9 1253.49   2
   5  -3   5 74245.0 1906.21   2
   5  -3   5 72585.9 1254.82   7
   6  -4   5 43076.4 1307.68   6
   6  -4   5 41074.5 1370.14   2
   7  -5   5 41842.1 1413.30   2
   7  -5   5 40540.9 1441.33   5
   7  -5   5 39963.5 1359.94   6
   8  -6   5 6608.24 553.715   6
   8  -6   5 6679.98 580.702   5
   9  -7   5 2694.60 378.042   6
  10  -8   5 3627.84 460.976   1
  10  -8   5 2913.34 418.977   6
  11  -9   5 12369.7 928.665   6
  11  -9   5 12316.1 881.610   1
  12 -10   5 13117.0 925.122   1
  -7  11   5 19481.9 1330.60   5
  -6  10   5 22203.4 1339.62   5
  -5   9   5 18980.7 1148.94   5
  -4   8   5 8527.70 710.842   5
  -3   7   5 1898.37 321.832   5
  -2   6   5 3928.58 411.789   5
  -2   6   5 3199.05 349.348   6
  -2   6   5 4277.10 204.877   1
  -1   5   5 26424.9 958.251   6
  -1   5   5 28229.8 1094.34   5
  -1   5   5 26618.8 656.424   1
  -1   5   5 26737.0 1094.24   3
   0   4   5 54425.2 1540.52   5
   0   4   5 55558.7 1369.91   6
   0   4   5 54732.7 1443.18   2
   0   4   5 54812.7 1609.44   3
   0   4   5 55053.7 1161.96   1
   1   3   5 52089.9 1178.66   1
   1   3   5 55253.6 1548.98   3
   1   3   5 54175.1 1442.61   2
   1   3   5 52544.3 1205.51   6
   2   2   5 76796.2 1832.02   2
   2   2   5 73997.9 1569.58   1
   2   2   5 76140.7 1456.89   6
   5  -1   5 28502.6 670.570   4
   6  -2   5 27972.0 1085.82   2
   7  -3   5 83587.6 2132.11   2
   7  -3   5 80344.1 1852.20   6
   8  -4   5 53745.3 1645.26   2
   8  -4   5 54471.6 1494.77   6
   8  -4   5 49176.6 873.911   7
   9  -5   5 37667.9 1354.69   5
   9  -5   5 36955.0 1294.71   6
  10  -6   5 8386.40 623.772   6
  10  -6   5 7461.41 599.681   5
  11  -7   5 3219.56 422.039   6
  12  -8   5 742.345 218.255   6
  12  -8   5 167.790 172.316   1
  13  -9   5 14521.4 979.470   1
  13  -9   5 14248.3 1005.60   6
  -6  12   5 11272.1 1099.77   5
  -5  11   5 17621.4 1278.57   5
  -4  10   5 26851.3 1493.92   5
  -3   9   5 15534.0 1045.98   5
  -2   8   5 6540.16 632.058   5
  -2   8   5 6320.21 266.659   1
  -1   7   5 515.900 173.855   5
  -1   7   5 241.265 65.5243   1
  -1   7   5 363.320 136.359   6
   0   6   5 16507.7 886.715   5
   0   6   5 15099.1 508.657   1
   0   6   5 16327.9 758.334   6
   1   5   5 53117.5 1605.49   5
   1   5   5 49893.5 1130.19   1
   1   5   5 50988.9 1634.24   3
   2   4   5 73287.7 1540.18   1
   2   4   5 76860.1 1584.88   6
   2   4   5 74137.4 1982.82   3
   2   4   5 78130.5 1943.99   5
   3   3   5 60556.1 1689.49   3
   3   3   5 60576.5 1388.57   1
   3   3   5 62552.1 1223.42   6
   3   3   5 59079.7 1644.14   2
   4   2   5 38673.0 765.438   6
   4   2   5 36869.8 1256.69   2
   4   2   5 38417.3 1057.58   1
   4   2   5 37850.2 1164.50   5
   5   1   5 29733.3 590.347   6
   5   1   5 29846.5 939.252   1
   5   1   5 30142.3 980.037   5
   6   0   5 17.7631 23.2112   6
   6   0   5 60.6567 65.8928   1
   6   0   5 4.31417 37.9121   4
   7  -1   5 23878.5 672.534   6
   7  -1   5 23752.6 730.563   4
   7  -1   5 23585.2 1027.34   2
   7  -1   5 22990.5 875.097   1
   8  -2   5 51627.8 1238.81   4
   8  -2   5 51161.9 1647.96   2
   8  -2   5 53064.3 1249.24   6
   9  -3   5 48877.8 1079.85   7
   9  -3   5 48233.0 1298.72   6
  10  -4   5 58451.5 1587.38   6
  10  -4   5 59145.6 1163.00   7
  11  -5   5 19287.0 933.190   5
  11  -5   5 21238.7 949.337   6
  12  -6   5 3717.63 426.536   6
  13  -7   5 786.315 227.352   6
  14  -8   5 2491.03 415.297   6
  -4  12   5 10048.2 1043.15   5
  -3  11   5 27262.9 1621.35   5
  -2  10   5 22747.6 1395.02   5
  -1   9   5 16998.7 1120.96   5
   0   8   5 3945.91 506.997   5
   0   8   5 3733.57 269.287   1
   1   7   5 5160.12 317.778   1
   1   7   5 5815.31 570.263   5
   1   7   5 4052.61 390.876   6
   2   6   5 31541.3 887.477   1
   2   6   5 31370.6 1294.73   5
   3   5   5 42233.5 1449.75   5
   3   5   5 40551.0 1060.34   1
   3   5   5 40757.0 1087.20   6
   4   4   5 60238.7 1720.04   5
   4   4   5 57736.6 1743.82   3
   4   4   5 60366.5 1411.86   1
   5   3   5 73045.6 1944.19   3
   5   3   5 74012.0 1674.46   1
   5   3   5 77500.0 1924.03   5
   6   2   5 27644.3 1045.46   3
   6   2   5 28630.5 942.067   1
   6   2   5 28955.9 1021.83   5
   7   1   5 23940.7 874.716   1
   7   1   5 24218.2 896.549   5
   8   0   5 91.5813 72.9530   5
   8   0   5 19.0026 19.0979   6
   8   0   5-12.1586 53.1319   4
   9  -1   5 5528.32 386.097   5
   9  -1   5 6010.44 288.879   6
   9  -1   5 5303.36 378.031   4
  10  -2   5 27307.9 951.153   4
  10  -2   5 26798.5 816.166   6
  11  -3   5 14241.2 581.514   7
  11  -3   5 18685.1 727.987   6
  12  -4   5 30901.9 846.328   7
  12  -4   5 27750.9 1040.83   6
  13  -5   5 15946.3 830.296   6
  14  -6   5 7495.16 613.351   6
  15  -7   5-35.5627 159.531   6
  -2  12   5 16083.9 1320.96   5
  -1  11   5 25997.8 1602.69   5
   0  10   5 15756.7 1166.47   5
   1   9   5 9791.84 869.566   5
   2   8   5 9340.40 796.505   5
   2   8   5 8374.40 463.858   1
   3   7   5 3077.80 274.147   1
   3   7   5 4043.91 483.425   5
   4   6   5 32536.6 988.432   1
   4   6   5 32948.9 1371.56   5
   5   5   5 36159.0 1372.64   5
   5   5   5 34139.9 1033.05   1
   6   4   5 43607.5 1219.84   1
   6   4   5 42754.2 1458.76   5
   7   3   5 84657.2 2112.69   5
   7   3   5 80179.6 2099.62   3
   7   3   5 81560.7 1876.49   1
   8   2   5 52102.9 1504.31   5
   8   2   5 51210.9 1535.44   3
   9   1   5 5628.34 427.050   5
   9   1   5 6116.16 459.792   4
  10   0   5 181.652 108.708   4
  10   0   5 5.23061 69.8814   5
  11  -1   5 8831.16 560.890   4
  11  -1   5 8869.17 356.791   6
  11  -1   5 9069.97 516.404   5
  12  -2   5 25337.2 1020.05   4
  12  -2   5 25332.5 786.002   6
  12  -2   5 25448.2 897.375   7
  13  -3   5 29231.3 977.134   6
  13  -3   5 31256.1 992.978   7
  14  -4   5 26236.7 1010.34   6
  15  -5   5 16224.0 861.752   6
  16  -6   5 3316.98 420.982   6
   1  11   5 24297.4 1586.64   5
   2  10   5 17220.8 1253.04   5
   3   9   5 7984.46 800.661   5
   4   8   5 8937.21 807.018   5
   4   8   5 8601.96 513.280   1
   5   7   5 1108.82 281.267   5
   6   6   5 15459.4 947.683   5
   7   5   5 43528.8 1576.68   5
   8   4   5 55135.7 1745.25   5
   9   3   5 48029.3 1556.04   5
  10   2   5 27836.5 1096.20   5
  10   2   5 27423.9 1091.99   3
  11   1   5 9063.28 578.707   5
  11   1   5 8305.41 597.668   4
  12   0   5 18.9420 79.4433   5
  12   0   5-1.06362 89.1294   4
  13  -1   5 7777.17 498.400   5
  14  -2   5 13577.4 692.477   7
  15  -3   5 36900.3 1147.13   6
  15  -3   5 38087.9 1206.65   7
   3  11   5 25115.0 1656.12   5
   4  10   5 23064.7 1491.72   5
   5   9   5 11335.2 988.789   5
   6   8   5 729.986 279.783   5
   7   7   5 1195.68 300.723   5
   8   6   5 8351.28 722.914   5
   9   5   5 36277.8 1484.11   5
  10   4   5 56858.5 1848.07   5
  11   3   5 20841.7 1018.93   5
  12   2   5 24633.7 1064.05   5
  13   1   5 8807.84 594.384   5
  14   0   5 56.4330 73.4285   5
  15  -1   5 4907.96 454.300   7
  16  -2   5 21768.3 981.836   7
   5  11   5 19474.4 1493.42   5
   6  10   5 25963.9 1636.45   5
   7   9   5 15340.3 1199.29   5
   8   8   5 936.465 314.182   5
   9   7   5 3189.95 490.735   5
  10   6   5 7324.88 714.752   5
  11   5   5 18764.1 1097.47   5
  12   4   5 29085.4 1330.69   5
  13   3   5 28219.1 1252.47   5
  14   2   5 13373.7 803.934   5
  15   1   5 5909.65 511.520   5
  16   0   5 107.620 103.086   7
  17  -1   5 6036.13 544.058   7
   8  10   5 18823.2 1429.45   5
   9   9   5 6822.32 823.967   5
  10   8   5 3904.90 595.786   5
  11   7   5 3521.63 552.941   5
  12   6   5 5408.76 633.729   5
  13   5   5 15153.4 1030.60   5
  14   4   5 26114.8 1325.84   5
  15   3   5 37042.0 1549.17   5
  16   2   5 23274.9 1145.70   5
  17   1   5 6350.98 618.778   7
  18   0   5 347.471 166.488   7
  11   9   5 13262.1 1198.58   5
  12   8   5 859.010 274.081   5
  13   7   5 1281.02 394.289   5
  14   6   5 8992.68 870.439   5
  15   5   5 16123.1 1130.46   5
  16   4   5 18481.8 1160.68   5
  18   2   5 7555.48 719.308   7
  19   1   5 5836.10 625.184   7
  14   8   5 2598.06 533.520   5
  15   7   5 72.4416 221.956   5
  16   6   5 3440.20 602.274   5
  17   5   5 10344.3 951.134   5
  17   7   5 318.170 302.361   5
 -20  -2   4 9410.46 714.054   1
 -19  -3   4 1471.20 305.313   1
 -18  -4   4 671.528 186.213   1
 -17  -5   4 7163.65 632.743   1
 -16  -6   4 16194.1 965.440   1
 -15  -7   4 26472.5 1264.10   1
 -19  -1   4 24809.3 1104.53   1
 -18  -2   4 13799.1 812.599   1
 -17  -3   4 2529.66 351.718   1
 -16  -4   4 2100.03 321.275   1
 -15  -5   4 7657.44 623.453   1
 -14  -6   4 18556.7 981.876   1
 -13  -7   4 33483.1 1372.70   1
 -12  -8   4 16904.1 974.087   1
 -11  -9   4 8622.46 699.301   1
 -10 -10   4 5270.19 562.034   1
 -18   0   4 20767.2 931.977   1
 -17  -1   4 22572.7 985.084   1
 -16  -2   4 16426.8 840.144   1
 -15  -3   4 2320.49 311.893   1
 -14  -4   4 1077.62 229.853   1
 -13  -5   4 6056.78 520.093   1
 -12  -6   4 20947.0 1012.97   1
 -11  -7   4 26653.8 1171.87   1
 -10  -8   4 20267.4 1033.65   1
  -9  -9   4 17385.1 972.745   1
  -8 -10   4 7474.24 646.236   1
  -7 -11   4 327.392 140.701   1
 -17   1   4 25112.0 964.862   1
 -16   0   4 25088.3 968.046   1
 -15  -1   4 27326.7 1026.76   1
 -14  -2   4 21648.5 907.094   1
 -14  -2   4 20343.7 1009.80   5
 -13  -3   4 2526.37 376.691   5
 -13  -3   4 2612.62 312.626   1
 -12  -4   4 992.717 213.984   1
 -11  -5   4 10533.6 660.320   1
 -10  -6   4 27407.9 1133.53   1
  -9  -7   4 37382.0 1370.60   1
  -8  -8   4 30888.3 1259.21   1
  -7  -9   4 25164.2 1153.73   1
  -6 -10   4 362.170 158.284   1
  -5 -11   4 570.985 210.386   1
  -4 -12   4 3279.08 443.781   1
 -17   3   4 2594.72 458.520   4
 -16   2   4 17218.3 710.479   1
 -16   2   4 17437.0 1144.15   4
 -15   1   4 27028.8 931.213   1
 -15   1   4 26767.7 1361.16   4
 -14   0   4 45121.1 1274.30   1
 -13  -1   4 34004.5 1236.24   5
 -13  -1   4 34731.6 1107.04   1
 -12  -2   4 8247.24 621.533   5
 -12  -2   4 8052.30 506.012   1
 -11  -3   4 2331.03 282.610   1
 -11  -3   4 1867.28 324.975   5
 -10  -4   4 852.165 178.543   1
 -10  -4   4 880.246 255.499   5
  -9  -5   4 12876.9 706.732   1
  -8  -6   4 39318.8 1342.88   1
  -7  -7   4 30164.4 1192.01   1
  -6  -8   4 62143.8 1849.84   1
  -5  -9   4 17997.9 952.463   1
  -4 -10   4 6134.69 567.706   1
  -3 -11   4 2410.18 356.192   1
  -2 -12   4 1800.36 324.682   1
  -1 -13   4 5326.33 567.867   1
 -16   4   4 2530.50 460.208   4
 -15   3   4 3075.99 475.366   4
 -15   3   4 3644.91 277.329   1
 -14   2   4 23428.3 912.356   2
 -14   2   4 20859.4 1181.44   4
 -14   2   4 21865.8 604.719   5
 -14   2   4 21260.3 742.093   1
 -13   1   4 37059.5 1101.04   5
 -13   1   4 34918.7 1009.00   1
 -13   1   4 34711.0 1470.19   4
 -13   1   4 34349.3 1160.36   2
 -12   0   4 108259. 2186.51   1
 -12   0   4 108173. 2730.47   4
 -12   0   4 108081. 2420.58   2
 -12   0   4 108262. 2375.97   5
 -11  -1   4 51039.4 1530.20   5
 -11  -1   4 52815.4 1518.56   2
 -11  -1   4 52269.2 1357.10   1
 -10  -2   4 28424.9 966.162   1
 -10  -2   4 26740.3 1105.21   5
  -9  -3   4 4242.60 442.197   5
  -9  -3   4 4434.20 369.402   1
  -8  -4   4 4236.20 377.520   1
  -8  -4   4 3879.02 454.737   5
  -7  -5   4 19720.4 867.977   1
  -6  -6   4 34145.0 1218.84   1
  -5  -7   4 38097.7 1328.56   1
  -4  -8   4 28641.0 1165.15   1
  -3  -9   4 27178.9 1162.92   1
  -2 -10   4 7462.03 608.780   1
  -1 -11   4 146.878 157.204   1
   0 -12   4 4406.72 499.761   1
   1 -13   4 13158.6 891.817   1
 -16   6   4 17673.8 1269.01   4
 -15   5   4 7955.70 791.316   4
 -14   4   4 560.085 233.053   4
 -13   3   4 2257.35 370.172   4
 -13   3   4 1674.07 173.012   1
 -13   3   4 2147.70 241.167   2
 -13   3   4 2291.68 185.925   5
 -12   2   4 8372.35 402.465   1
 -12   2   4 8270.14 669.285   4
 -12   2   4 7723.85 364.018   5
 -12   2   4 8672.64 495.736   2
 -11   1   4 49136.0 1180.63   1
 -11   1   4 51105.0 1683.22   4
 -11   1   4 50316.7 1376.95   2
 -10   0   4 34866.6 975.074   1
 -10   0   4 33188.5 1255.77   4
 -10   0   4 36554.7 1134.23   2
  -9  -1   4 39406.9 1274.76   5
  -9  -1   4 42494.7 1139.36   1
  -9  -1   4 41052.1 1240.83   2
  -9  -1   4 43261.0 1344.29   7
  -8  -2   4 10908.1 647.756   5
  -8  -2   4 11994.3 570.633   1
  -8  -2   4 10632.7 588.089   2
  -8  -2   4 11114.3 615.591   7
  -7  -3   4 1452.17 223.899   2
  -7  -3   4 1636.98 275.655   5
  -7  -3   4 1972.55 245.705   1
  -6  -4   4 539.938 141.277   2
  -6  -4   4 548.657 166.306   5
  -6  -4   4 740.189 174.776   1
  -5  -5   4 28477.2 1266.63   5
  -5  -5   4 28978.0 1052.92   1
  -5  -5   4 29118.1 1071.92   2
  -4  -6   4 28789.6 1085.57   1
  -3  -7   4 38079.0 1312.16   1
  -2  -8   4 43786.6 1462.70   1
  -1  -9   4 34198.6 1305.52   1
   0 -10   4 5728.25 528.802   1
   1 -11   4 43.6063 115.818   1
   1 -11   4 111.715 132.242   6
   2 -12   4 5616.21 571.288   1
   3 -13   4 10861.1 799.234   1
 -15   7   4 28787.2 1627.78   4
 -14   6   4 20458.5 1277.50   4
 -13   5   4 7622.26 720.697   4
 -12   4   4 1041.37 150.749   5
 -12   4   4 1369.21 299.274   4
 -12   4   4 1201.33 163.520   2
 -11   3   4 2271.23 171.619   1
 -11   3   4 2128.54 192.652   5
 -11   3   4 2351.77 349.302   4
 -11   3   4 1987.04 211.832   2
 -10   2   4 27731.8 777.501   5
 -10   2   4 25736.3 855.737   2
 -10   2   4 26771.7 1138.57   4
 -10   2   4 26457.4 711.252   1
  -9   1   4 41979.9 1332.57   7
  -9   1   4 41662.5 1376.21   4
  -9   1   4 39992.8 1297.61   6
  -9   1   4 41575.9 989.312   1
  -9   1   4 40798.8 1138.65   2
  -8   0   4 76033.6 1867.96   7
  -8   0   4 76955.6 1600.54   1
  -8   0   4 77752.1 1917.69   4
  -8   0   4 76944.6 1740.86   2
  -7  -1   4 53370.2 1421.88   7
  -7  -1   4 52611.3 1280.66   1
  -7  -1   4 50293.5 1346.24   2
  -6  -2   4 20389.8 775.961   7
  -6  -2   4 20649.5 755.172   1
  -6  -2   4 19811.9 785.460   2
  -5  -3   4 8367.32 571.491   5
  -5  -3   4 8506.74 491.210   1
  -4  -4   4 1423.24 247.732   5
  -4  -4   4 1595.18 231.491   1
  -3  -5   4 24420.7 933.198   1
  -3  -5   4 23550.5 1105.72   5
  -3  -5   4 22740.0 909.745   2
  -2  -6   4 29043.9 1068.89   2
  -2  -6   4 31471.9 1116.83   1
  -1  -7   4 50238.4 1514.68   2
  -1  -7   4 52736.7 1561.29   1
   0  -8   4 44893.2 1455.23   1
   0  -8   4 40110.1 1365.38   2
   1  -9   4 27279.7 1142.78   1
   2 -10   4 5349.57 610.979   6
   2 -10   4 5136.69 497.854   1
   3 -11   4 395.529 168.171   1
   3 -11   4 943.519 293.778   6
   4 -12   4 2844.46 394.092   1
 -13   7   4 35303.9 1697.53   4
 -12   6   4 19767.8 1177.93   4
 -11   5   4 10514.1 534.538   5
 -11   5   4 10391.1 386.527   2
 -11   5   4 9982.72 777.611   4
 -10   4   4 497.396 112.642   5
 -10   4   4 751.463 118.437   2
 -10   4   4 438.933 153.795   4
  -9   3   4 4570.78 299.612   2
  -9   3   4 4623.17 300.947   5
  -9   3   4 4217.92 199.670   1
  -9   3   4 4177.56 423.124   4
  -8   2   4 10568.0 604.178   7
  -8   2   4 10912.3 377.226   1
  -8   2   4 11008.8 495.276   2
  -8   2   4 10759.1 633.107   4
  -8   2   4 10951.6 622.007   6
  -7   1   4 53617.1 1462.59   4
  -7   1   4 53687.9 1139.22   1
  -7   1   4 52256.0 1279.63   2
  -6   0   4 78863.5 1781.11   4
  -6   0   4 79545.9 1594.24   1
  -6   0   4 76607.9 1697.10   2
  -5  -1   4 79724.9 1644.04   4
  -5  -1   4 78151.4 1694.39   2
  -5  -1   4 83298.8 1698.14   7
  -4  -2   4 50939.9 1279.99   1
  -4  -2   4 49026.9 1197.14   7
  -3  -3   4 7723.10 386.990   7
  -3  -3   4 7549.80 451.300   1
  -2  -4   4 7085.71 466.494   1
  -2  -4   4 5972.85 497.890   5
  -1  -5   4 17206.9 756.141   2
  -1  -5   4 17050.6 773.016   1
  -1  -5   4 15818.8 874.903   5
   0  -6   4 69138.6 2082.49   5
   0  -6   4 68433.3 1796.42   1
   0  -6   4 65058.4 1718.60   2
   1  -7   4 61324.4 1680.87   2
   1  -7   4 62716.4 1745.49   1
   2  -8   4 51451.8 1544.34   2
   2  -8   4 53284.4 1623.80   1
   3  -9   4 6551.41 517.729   2
   3  -9   4 6542.28 636.092   6
   3  -9   4 7667.11 588.136   1
   4 -10   4 8416.47 644.597   1
   4 -10   4 6831.97 684.558   6
   5 -11   4 378.142 159.392   1
   5 -11   4 442.203 211.290   6
   6 -12   4 2691.69 398.772   1
 -12   8   4 18940.9 1246.41   4
 -11   7   4 30366.1 1500.53   4
 -11   7   4 31315.8 1167.62   5
 -10   6   4 30438.9 1083.16   5
 -10   6   4 30459.0 1404.62   4
  -9   5   4 12761.9 616.195   5
  -9   5   4 14229.6 868.871   4
  -9   5   4 12922.2 402.214   2
  -8   4   4 4418.76 444.273   4
  -8   4   4 4026.38 311.340   5
  -8   4   4 4043.20 251.096   2
  -7   3   4 1609.12 102.036   1
  -7   3   4 2094.70 263.965   6
  -7   3   4 1860.98 187.472   2
  -7   3   4 1461.77 233.987   4
  -7   3   4 2149.12 271.704   7
  -7   3   4 1646.14 186.122   5
  -6   2   4 19086.5 654.766   2
  -6   2   4 19666.0 805.030   4
  -6   2   4 21414.1 539.656   1
  -5   1   4 78237.6 1663.41   2
  -5   1   4 79669.1 1754.04   4
  -5   1   4 82505.2 1533.54   1
  -4   0   4 121642. 2292.19   4
  -4   0   4 126492. 2375.89   7
  -4   0   4 127953. 2374.89   2
  -4   0   4 126801. 2264.25   1
  -3  -1   4 150077. 2674.50   1
  -3  -1   4 145576. 2592.60   7
  -3  -1   4 147192. 2487.41   4
  -2  -2   4 89375.2 1881.05   1
  -2  -2   4 87131.1 1661.71   7
  -1  -3   4 10758.5 391.202   7
  -1  -3   4 11560.4 572.382   1
   0  -4   4 15861.4 712.637   1
   1  -5   4 9271.69 639.818   5
   1  -5   4 8452.79 533.052   1
   1  -5   4 7637.87 491.504   2
   2  -6   4 40618.6 1272.18   2
   2  -6   4 41369.2 1322.98   1
   2  -6   4 40471.3 1524.44   5
   3  -7   4 61756.2 1678.53   2
   3  -7   4 64181.7 1786.83   1
   4  -8   4 36521.5 1239.11   2
   4  -8   4 34649.9 1294.71   1
   4  -8   4 36617.2 1473.99   6
   5  -9   4 14109.0 745.023   2
   5  -9   4 13673.7 805.628   1
   5  -9   4 15101.8 973.723   6
   6 -10   4 7347.33 724.513   6
   6 -10   4 7166.10 599.277   1
   7 -11   4 592.224 205.523   1
   7 -11   4 560.312 241.780   6
 -11   9   4 9448.06 897.533   4
 -10   8   4 23194.8 1099.85   5
 -10   8   4 21878.7 1298.53   4
  -9   7   4 38638.8 1360.92   5
  -9   7   4 40860.8 1663.58   4
  -8   6   4 39060.8 1274.95   5
  -8   6   4 40564.2 1557.95   4
  -7   5   4 17812.1 487.602   2
  -7   5   4 19308.0 957.829   4
  -7   5   4 18725.9 776.727   5
  -6   4   4 633.726 127.868   5
  -6   4   4 407.142 128.270   7
  -6   4   4 615.735 150.186   4
  -6   4   4 471.529 89.1879   2
  -6   4   4 557.887 141.944   6
  -5   3   4 8746.84 516.973   6
  -5   3   4 9267.75 265.678   1
  -5   3   4 9728.59 557.995   4
  -5   3   4 9156.86 455.435   5
  -5   3   4 9233.82 405.643   2
  -4   2   4 49432.9 1284.28   4
  -4   2   4 49588.2 1159.00   2
  -4   2   4 48909.4 993.073   1
  -3   1   4 145708. 2591.51   4
  -3   1   4 148718. 2636.72   2
  -3   1   4 146676. 2499.50   1
  -2   0   4 106062. 2098.43   2
  -2   0   4 105689. 1857.00   4
  -2   0   4 107724. 2038.03   7
  -2   0   4 111162. 2038.64   1
  -1  -1   4 81320.2 1710.59   1
  -1  -1   4 80763.3 1344.22   4
  -1  -1   4 79970.2 1545.06   7
   0  -2   4 53916.6 1059.81   7
   0  -2   4 52325.3 1333.49   1
   1  -3   4 16145.3 691.091   1
   1  -3   4 15680.5 396.623   7
   2  -4   4 2779.05 291.686   1
   3  -5   4 12706.6 666.919   1
   3  -5   4 12754.7 736.602   5
   3  -5   4 12291.4 632.876   2
   4  -6   4 25123.1 968.139   2
   4  -6   4 27468.5 1055.95   1
   4  -6   4 26819.7 1176.24   5
   5  -7   4 60068.3 1874.10   6
   5  -7   4 60969.4 1979.32   5
   5  -7   4 59695.5 1639.10   2
   5  -7   4 60818.9 1754.46   1
   6  -8   4 28571.6 1169.52   1
   6  -8   4 26931.9 1045.85   2
   6  -8   4 27537.3 1279.89   6
   7  -9   4 17617.4 934.071   1
   7  -9   4 16491.6 1042.03   6
   8 -10   4 4658.80 584.507   6
   8 -10   4 3870.57 456.724   1
   9 -11   4 453.580 182.336   1
 -10  10   4 4214.42 599.885   4
  -9   9   4 18892.6 1096.98   5
  -9   9   4 20145.7 1248.40   4
  -8   8   4 33662.0 1385.85   5
  -8   8   4 34060.3 1553.09   4
  -7   7   4 33184.4 1151.00   3
  -7   7   4 30574.0 1227.76   5
  -6   6   4 34019.6 1197.29   5
  -6   6   4 34703.7 1150.76   3
  -5   5   4 31018.5 1150.96   7
  -5   5   4 32290.9 1074.16   3
  -5   5   4 30933.1 742.659   2
  -5   5   4 32044.5 1067.68   5
  -5   5   4 30805.9 1144.50   6
  -4   4   4 1736.55 233.872   6
  -4   4   4 1548.33 153.843   2
  -4   4   4 2016.66 237.333   5
  -3   3   4 7834.28 377.115   2
  -3   3   4 7392.49 279.708   1
  -3   3   4 7521.47 420.081   5
  -2   2   4 90010.9 1826.80   5
  -2   2   4 90097.9 1803.26   6
  -2   2   4 90577.4 1788.71   2
  -1   1   4 83939.3 1730.07   2
  -1   1   4 83570.0 1736.85   7
   0   0   4 180146. 3024.89   7
   1  -1   4 53350.2 1102.72   7
   2  -2   4 68810.7 1220.39   7
   5  -5   4 21700.0 870.211   2
   5  -5   4 22048.8 982.274   5
   5  -5   4 21773.9 926.456   6
   6  -6   4 28755.7 1117.55   1
   6  -6   4 28840.2 1199.73   5
   6  -6   4 28443.5 1040.39   2
   6  -6   4 30002.4 1183.38   6
   7  -7   4 39960.9 1399.30   1
   7  -7   4 39302.2 1507.23   5
   7  -7   4 37579.1 1264.12   2
   7  -7   4 41080.8 1510.82   6
   8  -8   4 20402.2 1096.98   6
   8  -8   4 19426.2 889.536   2
   8  -8   4 19304.1 977.206   1
   9  -9   4 16157.6 911.938   1
   9  -9   4 15017.0 991.274   6
  10 -10   4 2757.67 389.203   1
  10 -10   4 3372.12 500.571   6
  -8  10   4 7816.30 745.603   5
  -7   9   4 27598.4 1340.24   5
  -6   8   4 66324.9 2054.29   5
  -6   8   4 63882.7 1887.27   3
  -5   7   4 38918.0 1410.03   5
  -5   7   4 38764.6 1343.15   3
  -4   6   4 28672.3 1092.86   3
  -4   6   4 28845.4 1130.04   6
  -4   6   4 29049.2 1108.62   5
  -3   5   4 26174.8 1012.13   7
  -3   5   4 25283.3 957.634   3
  -3   5   4 25495.0 946.836   6
  -3   5   4 24574.4 932.549   5
  -2   4   4 7008.22 440.074   5
  -2   4   4 6639.89 355.716   2
  -2   4   4 5943.47 431.237   3
  -2   4   4 6220.94 223.086   1
  -1   3   4 11207.8 486.604   2
  -1   3   4 11098.1 360.457   1
  -1   3   4 11020.8 562.483   3
  -1   3   4 9947.38 464.653   6
   0   2   4 53388.8 1283.39   2
   0   2   4 54948.0 1165.62   6
   1   1   4 51563.4 1276.45   2
   3  -1   4 128286. 1940.47   4
   5  -3   4 5886.15 193.330   7
   6  -4   4 5116.54 405.904   6
   6  -4   4 5797.38 436.840   2
   7  -5   4 21638.4 899.020   2
   7  -5   4 21661.7 945.591   5
   7  -5   4 20457.3 907.683   6
   8  -6   4 57151.0 1763.28   5
   8  -6   4 58737.9 1652.55   2
   8  -6   4 60567.5 1797.68   6
   9  -7   4 36246.0 1264.83   2
   9  -7   4 33461.7 1351.48   5
   9  -7   4 35712.2 1412.28   6
  10  -8   4 26191.4 1178.77   1
  10  -8   4 26570.3 1273.13   6
  11  -9   4 11020.6 870.321   6
  11  -9   4 11925.0 802.060   1
  12 -10   4 1405.40 345.168   6
  12 -10   4 1373.24 302.163   1
  -7  11   4 510.857 246.836   5
  -6  10   4 590.800 278.673   5
  -5   9   4 18644.4 1110.87   5
  -4   8   4 28936.3 1309.51   5
  -3   7   4 38529.5 1425.69   3
  -3   7   4 36013.8 1382.79   5
  -2   6   4 31425.8 1200.62   3
  -2   6   4 30851.5 656.559   1
  -2   6   4 30061.8 1106.64   6
  -2   6   4 30578.4 1168.26   5
  -1   5   4 16927.1 816.082   3
  -1   5   4 16576.9 450.559   1
  -1   5   4 17709.4 808.403   5
   0   4   4 15983.2 471.497   1
   0   4   4 16595.5 629.344   6
   0   4   4 16293.0 763.784   3
   1   3   4 16117.4 511.317   1
   1   3   4 16789.2 663.015   2
   1   3   4 15902.1 715.548   3
   1   3   4 17099.8 552.421   6
   2   2   4 70375.1 1622.65   2
   2   2   4 68966.7 1278.56   6
   2   2   4 71994.1 1666.63   3
   2   2   4 68985.5 1393.09   1
   3   1   4 136111. 2408.81   1
   5  -1   4 122626. 2076.37   4
   6  -2   4 27213.0 989.336   2
   6  -2   4 25078.4 698.796   4
   6  -2   4 28144.5 818.952   6
   7  -3   4 5310.56 429.085   2
   7  -3   4 4728.57 223.322   7
   7  -3   4 4724.73 347.197   6
   8  -4   4 10058.9 312.493   7
   8  -4   4 9800.30 564.534   6
   8  -4   4 9661.12 601.319   2
   9  -5   4 6320.93 495.366   2
   9  -5   4 5839.10 476.495   6
   9  -5   4 6014.39 472.156   5
  10  -6   4 22811.6 1010.86   5
  10  -6   4 22596.9 991.908   2
  10  -6   4 23591.0 1062.51   6
  11  -7   4 22020.8 1092.54   6
  12  -8   4 27227.3 1241.56   1
  12  -8   4 26681.7 1310.52   6
  13  -9   4 12120.3 843.149   1
  13  -9   4 12003.0 918.586   6
  -6  12   4 5762.72 770.175   5
  -5  11   4 453.190 235.123   5
  -4  10   4 7284.39 749.880   5
  -3   9   4 29585.5 1445.37   5
  -2   8   4 43549.2 926.865   1
  -2   8   4 43137.7 1670.39   5
  -1   7   4 54569.8 1771.83   5
  -1   7   4 54425.7 1127.43   1
  -1   7   4 52288.0 1614.03   6
   0   6   4 66497.0 1728.69   6
   0   6   4 70713.9 1373.78   1
   0   6   4 71632.6 1972.23   5
   0   6   4 70158.9 2017.94   3
   1   5   4 8765.24 597.575   3
   1   5   4 9408.09 376.447   1
   1   5   4 7887.81 548.957   5
   1   5   4 8484.84 467.028   6
   2   4   4 2258.23 185.644   1
   2   4   4 2662.60 310.972   3
   2   4   4 2593.65 213.502   6
   3   3   4 5516.08 313.022   1
   3   3   4 5746.69 433.014   3
   3   3   4 5858.79 263.143   6
   4   2   4 41949.6 744.260   6
   4   2   4 44067.2 1070.68   1
   4   2   4 41113.4 1217.63   3
   6   0   4 107299. 1727.51   6
   6   0   4 106473. 2064.55   4
   6   0   4 112418. 2114.42   5
   7  -1   4 40295.0 1300.23   2
   7  -1   4 40878.3 1047.74   4
   7  -1   4 40994.0 913.200   6
   8  -2   4 23982.0 984.732   2
   8  -2   4 22782.9 778.780   4
   8  -2   4 22336.2 835.932   1
   8  -2   4 23144.8 730.948   6
   9  -3   4 4313.58 363.818   1
   9  -3   4 4446.36 266.342   7
   9  -3   4 4644.92 433.870   2
   9  -3   4 4064.03 324.093   6
  10  -4   4 3187.93 216.674   7
  10  -4   4 2954.20 308.513   6
  11  -5   4 10739.4 409.468   7
  11  -5   4 9613.36 626.303   6
  11  -5   4 11197.0 622.344   5
  12  -6   4 17273.9 914.851   6
  13  -7   4 19059.8 1043.28   6
  14  -8   4 12345.1 899.925   6
  -4  12   4 2440.09 546.792   5
  -3  11   4 355.215 218.929   5
  -2  10   4 5922.37 685.443   5
  -1   9   4 37882.8 1693.82   5
   0   8   4 46477.2 1777.44   5
   0   8   4 46523.4 1134.11   1
   1   7   4 65102.8 2011.57   5
   1   7   4 61455.0 1372.85   1
   2   6   4 39648.0 1491.79   3
   2   6   4 41083.4 1028.24   1
   2   6   4 42110.2 1469.26   5
   3   5   4 12779.9 511.643   1
   3   5   4 13219.0 774.544   3
   4   4   4 5506.62 333.354   1
   4   4   4 5434.04 462.957   3
   5   3   4 6276.08 446.056   5
   5   3   4 6130.24 363.465   1
   5   3   4 6344.25 469.703   3
   6   2   4 25430.2 931.238   3
   6   2   4 25013.7 823.269   1
   7   1   4 40892.9 1184.08   3
   8   0   4 40631.7 1169.74   4
   8   0   4 39566.5 741.117   6
   9  -1   4 25789.0 805.690   5
   9  -1   4 25551.5 897.447   4
   9  -1   4 24727.4 904.743   1
   9  -1   4 24490.6 665.025   6
  10  -2   4 16001.1 601.815   5
  10  -2   4 15973.8 722.616   4
  10  -2   4 15910.6 600.862   6
  10  -2   4 16754.0 645.718   7
  11  -3   4 6423.63 419.811   6
  11  -3   4 5702.35 449.903   4
  11  -3   4 6743.19 384.398   7
  11  -3   4 6155.47 351.610   5
  12  -4   4 195.407 107.937   5
  12  -4   4 50.1639 72.1533   6
  12  -4   4 21.4988 51.0943   7
  13  -5   4 22290.4 996.950   6
  13  -5   4 23705.0 764.830   7
  14  -6   4 19098.6 991.955   6
  15  -7   4 14459.0 919.909   6
  16  -8   4 13546.9 956.923   6
  -2  12   4 1204.80 389.874   5
  -1  11   4-64.8471 216.717   5
   0  10   4 5450.00 676.921   5
   1   9   4 26665.0 1421.86   5
   1   9   4 27116.2 895.400   1
   2   8   4 55940.2 1997.71   5
   2   8   4 54472.1 1371.44   1
   3   7   4 63478.0 1493.19   1
   3   7   4 65775.4 2079.10   5
   4   6   4 27249.0 1199.61   5
   4   6   4 25694.6 840.272   1
   5   5   4 21161.6 987.705   5
   5   5   4 23599.8 1083.25   3
   5   5   4 22039.4 767.045   1
   6   4   4 5133.51 444.021   5
   6   4   4 5456.26 481.797   3
   6   4   4 5575.38 368.148   1
   7   3   4 4914.30 359.373   1
   7   3   4 5163.31 423.014   5
   7   3   4 4562.63 416.464   3
   8   2   4 23071.6 894.344   5
   8   2   4 22686.6 912.610   3
   8   2   4 23543.0 851.607   1
   9   1   4 25614.1 983.272   4
   9   1   4 25166.8 918.674   3
   9   1   4 23938.9 887.298   1
  10   0   4 65480.9 1735.21   4
  11  -1   4 44855.7 1193.74   5
  11  -1   4 48504.0 1063.42   6
  11  -1   4 47443.3 1435.99   4
  12  -2   4 14162.6 568.839   5
  12  -2   4 13546.5 751.972   4
  12  -2   4 14484.6 656.937   7
  12  -2   4 14452.8 587.341   6
  13  -3   4 7369.57 373.903   5
  13  -3   4 6397.18 437.451   6
  13  -3   4 7520.62 455.109   7
  14  -4   4 3286.92 303.875   7
  14  -4   4 3989.26 380.043   6
  15  -5   4 11955.8 735.563   6
  16  -6   4 18100.2 993.403   6
  17  -7   4 18797.1 1094.56   6
   0  12   4 4574.40 719.840   5
   1  11   4 177.905 230.717   5
   2  10   4 5746.21 727.203   5
   3   9   4 7949.87 507.664   1
   3   9   4 7885.27 778.590   5
   4   8   4 36360.3 1137.57   1
   4   8   4 34381.7 1600.73   5
   5   7   4 62431.9 2083.27   5
   5   7   4 60610.7 1550.16   1
   6   6   4 30615.3 997.312   1
   6   6   4 29439.0 1308.63   5
   7   5   4 23166.9 1075.39   5
   7   5   4 20679.9 808.677   1
   8   4   4 9039.14 639.354   3
   8   4   4 9634.91 651.609   5
   9   3   4 4602.16 417.805   5
   9   3   4 4303.87 418.247   3
  10   2   4 15328.7 751.761   3
  10   2   4 15873.4 760.066   5
  11   1   4 44808.3 1490.64   4
  11   1   4 45353.2 1323.98   3
  12   0   4 50236.7 1602.37   4
  13  -1   4 31952.0 1120.78   7
  13  -1   4 30815.9 964.877   5
  14  -2   4 15560.4 755.855   7
  14  -2   4 16489.7 618.034   5
  15  -3   4 1348.75 213.156   6
  15  -3   4 1062.94 195.764   7
  16  -4   4 614.798 148.403   6
  17  -5   4 3615.53 422.214   6
   2  12   4 6322.94 847.495   5
   3  11   4-79.6653 252.135   5
   4  10   4 9700.91 956.568   5
   5   9   4 14751.0 1110.92   5
   6   8   4 32012.8 1581.92   5
   7   7   4 39198.4 1685.25   5
   8   6   4 59860.2 2025.42   5
   9   5   4 5203.12 532.349   5
  10   4   4 3158.22 377.890   5
  11   3   4 5992.15 516.180   5
  11   3   4 4768.80 451.637   3
  12   2   4 13626.3 732.463   3
  12   2   4 14659.0 766.787   5
  13   1   4 31435.7 1110.31   5
  14   0   4 25558.5 1069.80   7
  15  -1   4 21855.3 794.575   5
  15  -1   4 22349.3 988.576   7
  16  -2   4 13853.4 764.947   7
  17  -3   4 761.296 165.107   7
   5  11   4 81.3214 296.667   5
   6  10   4 6634.23 796.771   5
   7   9   4 16216.1 1211.24   5
   8   8   4 20567.9 1296.86   5
   9   7   4 36214.3 1663.06   5
  10   6   4 21854.0 1215.16   5
  11   5   4 10603.0 800.706   5
  12   4   4 247.203 146.964   5
  13   3   4 6857.40 581.900   5
  14   2   4 15299.6 793.528   3
  14   2   4 16631.7 875.049   5
  15   1   4 22228.2 965.414   5
  16   0   4 25241.8 1139.31   7
  17  -1   4 18885.8 976.577   7
  18  -2   4 8013.13 626.552   7
   7  11   4 807.141 386.685   5
   8  10   4 4190.96 680.913   5
   9   9   4 17768.4 1307.15   5
  10   8   4 28445.9 1596.02   5
  11   7   4 23518.3 1371.78   5
  12   6   4 16107.0 1088.29   5
  13   5   4 20865.7 1189.44   5
  14   4   4 4636.60 540.622   5
  15   3   4 1936.19 345.312   5
  16   2   4 14133.6 842.385   5
  17   1   4 18807.7 1045.87   7
  18   0   4 31188.8 1372.42   7
  19  -1   4 23435.1 1176.39   7
  10  10   4 2863.73 598.401   5
  11   9   4 11171.0 1074.49   5
  12   8   4 27168.3 1625.29   5
  13   7   4 20110.6 1339.39   5
  14   6   4 18621.4 1229.34   5
  15   5   4 10941.1 902.021   5
  16   4   4 702.719 245.253   5
  18   2   4 8247.10 733.234   7
  19   1   4 23224.7 1241.26   7
  20   0   4 17613.7 1079.17   7
  13   9   4 11003.6 1115.89   5
  14   8   4 13292.3 1169.48   5
  15   7   4 13746.8 1155.04   5
  16   6   4 15907.5 1182.22   5
  17   5   4 3886.33 579.976   5
  19   3   4 2858.81 465.954   7
  16   8   4 14164.3 1252.10   5
  17   7   4 17794.4 1338.82   5
 -21  -1   3 6001.22 574.700   1
 -20  -2   3 12400.4 827.467   1
 -19  -3   3 22518.7 1124.20   1
 -18  -4   3 30290.3 1327.97   1
 -17  -5   3 14141.2 881.773   1
 -16  -6   3 5856.29 565.778   1
 -15  -7   3 332.718 168.337   1
 -14  -8   3 5762.65 572.279   1
 -13  -9   3 9318.84 740.777   1
 -20   0   3-103.096 163.745   1
 -19  -1   3 2881.54 372.463   1
 -18  -2   3 11511.4 740.608   1
 -17  -3   3 29680.6 1223.05   1
 -16  -4   3 22651.1 1063.19   1
 -15  -5   3 16692.2 903.358   1
 -14  -6   3 6838.20 580.485   1
 -13  -7   3 80.8420 101.142   1
 -12  -8   3 3497.26 424.445   1
 -11  -9   3 9151.46 698.518   1
 -10 -10   3 13362.3 867.757   1
  -9 -11   3 31262.9 1385.61   1
 -19   1   3 3371.62 365.232   1
 -18   0   3-42.3596 129.188   1
 -17  -1   3 1285.12 226.882   1
 -16  -2   3 13237.4 743.414   1
 -15  -3   3 31527.4 1200.63   1
 -14  -4   3 27133.0 1107.01   1
 -13  -5   3 17826.6 895.831   1
 -12  -6   3 10561.4 688.965   1
 -11  -7   3 1723.20 287.132   1
 -10  -8   3 4999.42 487.881   1
  -9  -9   3 7570.04 615.124   1
  -8 -10   3 33222.7 1370.63   1
  -7 -11   3 19822.2 1048.79   1
  -6 -12   3 24086.1 1190.61   1
 -17   1   3 1497.90 225.586   1
 -16   0   3 53.1856 73.4851   1
 -15  -1   3 992.340 180.963   1
 -14  -2   3 27545.1 1028.09   1
 -14  -2   3 24623.9 1037.97   5
 -13  -3   3 45008.4 1382.93   1
 -13  -3   3 42955.2 1533.29   5
 -12  -4   3 56428.8 1898.18   5
 -12  -4   3 59225.5 1650.06   1
 -11  -5   3 43213.8 1384.05   1
 -10  -6   3 11990.1 700.780   1
  -9  -7   3 205.717 113.710   1
  -8  -8   3 7349.27 575.056   1
  -7  -9   3 22359.4 1040.16   1
  -6 -10   3 18839.7 974.501   1
  -5 -11   3 20812.6 1048.74   1
  -4 -12   3 17431.7 1189.88   6
  -4 -12   3 19166.3 1019.54   1
  -3 -13   3 7111.49 627.317   1
 -18   4   3 29789.9 1677.57   4
 -17   3   3 31949.4 1638.97   4
 -16   2   3 13501.0 634.517   1
 -16   2   3 14066.8 1014.87   4
 -15   1   3 710.616 216.204   4
 -15   1   3 904.175 166.644   1
 -14   0   3-12.0024 67.5278   5
 -14   0   3-8.53792 75.7730   1
 -13  -1   3 16505.3 763.823   5
 -13  -1   3 16595.9 727.312   1
 -12  -2   3 23052.5 878.600   1
 -12  -2   3 22357.1 978.476   5
 -11  -3   3 51808.0 1426.91   1
 -11  -3   3 50302.3 1648.54   5
 -10  -4   3 64330.9 2000.83   5
 -10  -4   3 65248.6 1686.06   1
  -9  -5   3 41038.1 1606.55   5
  -9  -5   3 40656.5 1296.01   1
  -8  -6   3 24517.5 990.157   1
  -7  -7   3 1440.20 251.285   1
  -6  -8   3 1436.61 247.506   1
  -5  -9   3 9288.31 647.516   1
  -4 -10   3 18056.9 931.676   1
  -3 -11   3 19817.5 1001.43   1
  -2 -12   3 11747.3 972.781   6
  -2 -12   3 13304.1 828.734   1
  -1 -13   3 6462.64 596.167   1
 -17   5   3 14093.7 1115.96   4
 -16   4   3 24474.4 1396.43   4
 -15   3   3 32525.3 958.120   1
 -15   3   3 31953.7 1529.94   4
 -14   2   3 26288.6 849.093   1
 -14   2   3 26168.4 954.303   2
 -14   2   3 26217.0 1302.30   4
 -13   1   3 16813.2 972.772   4
 -13   1   3 17120.8 597.436   5
 -13   1   3 16371.6 649.477   1
 -12   0   3 148.761 107.295   5
 -12   0   3 21.3138 51.6365   1
 -11  -1   3 3744.90 352.567   5
 -11  -1   3 3324.77 288.337   1
 -10  -2   3 41451.2 1167.29   1
 -10  -2   3 40662.6 1334.83   5
  -9  -3   3 46266.6 1523.42   5
  -9  -3   3 46712.7 1290.29   1
  -8  -4   3 55545.0 1767.06   5
  -8  -4   3 56345.8 1482.09   1
  -8  -4   3 52008.1 1500.83   2
  -7  -5   3 55591.0 1577.37   2
  -7  -5   3 59630.0 1932.51   5
  -7  -5   3 62528.0 1607.50   1
  -6  -6   3 19461.0 855.115   1
  -5  -7   3 337.982 135.914   1
  -4  -8   3 572.437 172.767   1
  -3  -9   3 13642.2 764.821   1
  -2 -10   3 29938.8 1208.31   1
  -1 -11   3 32975.3 1306.30   1
  -1 -11   3 32163.7 1564.01   6
   0 -12   3 20615.6 1305.25   6
   0 -12   3 22884.2 1091.22   1
   1 -13   3 11588.2 778.030   1
 -16   6   3 7120.16 792.453   4
 -15   5   3 17260.0 1153.56   4
 -14   4   3 26781.2 1363.63   4
 -13   3   3 42082.1 1657.33   4
 -13   3   3 43558.7 1171.81   2
 -13   3   3 43848.4 1057.37   1
 -12   2   3 23064.5 561.637   5
 -12   2   3 22664.8 642.063   5
 -12   2   3 22567.7 809.862   2
 -12   2   3 23541.8 722.235   1
 -12   2   3 21781.9 1094.54   4
 -11   1   3 3921.77 274.936   1
 -11   1   3 3797.71 277.145   5
 -11   1   3 4574.86 452.720   4
 -11   1   3 4033.05 325.220   2
 -10   0   3 56.2754 55.0105   7
 -10   0   3-5.12910 70.6814   5
 -10   0   3-53.1514 53.1342   2
 -10   0   3 27.6249 67.5465   4
 -10   0   3 48.4276 61.1554   1
 -10   0   3 88.4622 65.3838   6
  -9  -1   3 11817.0 588.275   2
  -9  -1   3 12607.2 613.091   5
  -9  -1   3 12606.4 539.566   1
  -9  -1   3 13318.9 673.497   7
  -8  -2   3 33353.6 1136.08   5
  -8  -2   3 34763.0 997.756   1
  -8  -2   3 33620.0 1059.75   2
  -7  -3   3 65312.3 1795.00   5
  -7  -3   3 67685.8 1579.35   1
  -6  -4   3 97174.1 2114.37   1
  -6  -4   3 99410.1 2437.85   5
  -5  -5   3 83830.4 2308.67   5
  -5  -5   3 80945.4 1923.65   2
  -5  -5   3 87050.3 1955.41   1
  -4  -6   3 23922.9 1179.14   5
  -4  -6   3 23939.5 925.923   1
  -4  -6   3 22521.1 892.438   2
  -3  -7   3 5028.86 420.503   1
  -3  -7   3 4317.27 376.384   2
  -2  -8   3 5127.41 435.848   1
  -2  -8   3 4673.12 405.759   2
  -1  -9   3 20519.3 936.236   1
   0 -10   3 38007.7 1631.71   6
   0 -10   3 39243.2 1376.18   1
   1 -11   3 22856.5 1057.31   1
   1 -11   3 26026.2 1382.82   6
   2 -12   3 19092.7 1250.53   6
   2 -12   3 18747.6 975.210   1
   3 -13   3 4609.73 483.365   1
 -15   7   3 832.015 288.549   4
 -14   6   3 6752.58 708.643   4
 -13   5   3 19677.1 608.963   2
 -13   5   3 19007.5 1126.28   4
 -12   4   3 59394.0 1170.47   5
 -12   4   3 60549.0 1996.57   4
 -12   4   3 59871.4 1291.15   2
 -11   3   3 52388.4 1096.46   1
 -11   3   3 53432.9 1076.87   5
 -11   3   3 53329.2 1742.07   4
 -11   3   3 52730.7 1218.51   2
 -10   2   3 42984.6 913.711   5
 -10   2   3 43450.0 1360.22   7
 -10   2   3 40996.0 1419.45   4
 -10   2   3 40617.6 1332.35   6
 -10   2   3 41312.0 946.197   1
 -10   2   3 42185.5 1075.27   2
  -9   1   3 11950.7 453.020   1
  -9   1   3 12099.7 679.630   4
  -9   1   3 12550.3 635.512   6
  -9   1   3 12085.1 526.745   2
  -8   0   3 27.4609 60.9054   2
  -8   0   3 41.0013 64.6537   4
  -8   0   3 12.5348 50.7853   1
  -7  -1   3 28197.9 923.333   5
  -7  -1   3 30553.3 849.539   1
  -7  -1   3 28524.3 883.521   2
  -6  -2   3 43935.1 1278.28   5
  -6  -2   3 45517.4 1151.42   1
  -5  -3   3 99650.1 2266.25   5
  -5  -3   3 98031.6 2024.89   1
  -4  -4   3 117137. 2649.54   5
  -4  -4   3 115066. 2334.96   1
  -3  -5   3 56563.4 1453.39   2
  -3  -5   3 58813.8 1499.67   1
  -3  -5   3 57281.6 1786.15   5
  -2  -6   3 13078.0 832.970   5
  -2  -6   3 13227.2 657.300   1
  -2  -6   3 14039.2 657.784   2
  -1  -7   3 4460.90 390.442   1
  -1  -7   3 4110.16 363.269   2
   0  -8   3 3064.09 329.667   1
   0  -8   3 2277.15 271.652   2
   1  -9   3 20534.8 885.199   2
   1  -9   3 21105.6 1121.65   6
   1  -9   3 21000.1 938.206   1
   2 -10   3 16648.3 816.895   2
   2 -10   3 19300.5 1137.99   6
   2 -10   3 17471.5 875.752   1
   3 -11   3 24662.3 1353.03   6
   3 -11   3 21451.4 1006.13   1
   4 -12   3 16546.6 897.286   1
   4 -12   3 14998.7 1115.18   6
 -14   8   3 5699.77 690.684   4
 -13   7   3 299.397 204.018   4
 -12   6   3 11425.4 518.550   5
 -12   6   3 11446.3 869.876   4
 -11   5   3 41640.0 846.867   2
 -11   5   3 43077.5 1630.10   4
 -11   5   3 42226.5 1084.93   5
 -10   4   3 66036.4 1393.85   5
 -10   4   3 64689.7 1954.01   4
 -10   4   3 66751.6 1297.47   2
  -9   3   3 47976.8 1407.05   7
  -9   3   3 47185.9 1042.60   5
  -9   3   3 47188.2 917.638   1
  -9   3   3 47920.7 1509.99   4
  -9   3   3 45764.5 1041.55   2
  -9   3   3 47033.8 1441.69   6
  -8   2   3 35214.6 828.280   5
  -8   2   3 34897.6 759.034   1
  -8   2   3 34942.9 1172.10   4
  -8   2   3 33924.0 877.710   2
  -7   1   3 28214.4 788.723   2
  -7   1   3 27083.2 688.606   1
  -7   1   3 29598.3 988.829   4
  -6   0   3 39.6800 51.6602   1
  -6   0   3-16.6252 42.5723   2
  -6   0   3 4.88604 45.6697   4
  -5  -1   3 67381.6 1493.87   4
  -5  -1   3 70588.8 1515.57   7
  -5  -1   3 69921.4 1443.99   1
  -5  -1   3 68042.9 1476.19   2
  -4  -2   3 47060.3 1142.20   1
  -4  -2   3 46776.4 1109.98   7
  -3  -3   3 127017. 2401.78   1
  -3  -3   3 126747. 2618.06   5
  -2  -4   3 159167. 2882.28   1
  -2  -4   3 149325. 3132.99   5
  -1  -5   3 78745.4 2080.89   5
  -1  -5   3 77638.7 1791.19   1
   0  -6   3 9055.10 667.907   5
   0  -6   3 8805.46 527.613   1
   1  -7   3 711.993 166.794   1
   1  -7   3 827.052 160.127   2
   1  -7   3 1045.33 251.715   5
   2  -8   3 4477.04 381.124   2
   2  -8   3 3665.25 358.261   1
   2  -8   3 4140.52 460.512   6
   3  -9   3 16535.7 766.911   2
   3  -9   3 17475.2 843.557   1
   3  -9   3 17304.5 1014.10   6
   4 -10   3 15528.7 825.007   1
   4 -10   3 17244.8 1079.49   6
   5 -11   3 16852.4 1137.45   6
   5 -11   3 18600.6 930.183   1
   6 -12   3 16852.8 903.846   1
 -13   9   3 9887.03 935.060   4
 -12   8   3 3629.31 550.854   4
 -11   7   3 1787.88 261.424   5
 -11   7   3 2182.22 386.738   4
 -10   6   3 13376.2 650.496   5
 -10   6   3 12873.4 867.204   4
  -9   5   3 41729.0 1529.82   4
  -9   5   3 43089.8 1169.74   5
  -8   4   3 59730.6 1328.46   5
  -8   4   3 55668.1 1689.34   4
  -8   4   3 57925.6 1104.14   2
  -8   4   3 57069.8 1651.91   6
  -8   4   3 57291.8 1587.86   7
  -7   3   3 66664.1 1278.83   2
  -7   3   3 67839.9 1375.68   5
  -7   3   3 66559.1 1090.55   1
  -7   3   3 66134.2 1649.25   7
  -6   2   3 44763.6 837.812   1
  -6   2   3 45122.3 1258.21   4
  -6   2   3 45558.3 1007.26   5
  -6   2   3 44818.5 992.460   2
  -5   1   3 69430.4 1551.04   4
  -5   1   3 72150.7 1300.43   1
  -5   1   3 70080.4 1404.07   2
  -4   0   3-16.3175 52.5805   1
  -4   0   3 8.61477 37.0227   2
  -4   0   3 60.5140 50.2343   4
  -3  -1   3 14922.4 508.222   7
  -3  -1   3 14257.7 478.352   4
  -3  -1   3 14633.0 539.363   2
  -3  -1   3 15657.1 540.109   1
  -2  -2   3 113214. 1928.19   7
  -2  -2   3 107755. 2081.46   1
  -1  -3   3 62135.8 1436.15   1
   0  -4   3 111693. 2204.77   2
   0  -4   3 114516. 2469.81   5
   0  -4   3 115088. 2279.96   1
   1  -5   3 45162.1 1202.86   2
   1  -5   3 43863.0 1429.12   5
   1  -5   3 46599.2 1281.18   1
   2  -6   3 32699.8 1295.28   5
   2  -6   3 33949.6 1107.12   1
   3  -7   3 3059.32 414.818   5
   3  -7   3 3487.95 343.969   1
   3  -7   3 2874.26 361.855   6
   4  -8   3 4384.65 412.154   1
   4  -8   3 4735.48 497.285   6
   5  -9   3 12241.1 865.312   6
   5  -9   3 14387.2 766.041   1
   5  -9   3 12655.9 641.413   2
   6 -10   3 19271.9 934.182   1
   6 -10   3 20568.0 1196.64   6
   7 -11   3 26907.2 1135.52   1
   7 -11   3 23900.5 1372.89   6
 -11   9   3 9546.73 879.879   4
 -10   8   3 5404.15 504.551   5
 -10   8   3 5818.62 641.517   4
  -9   7   3 262.868 136.603   5
  -9   7   3 197.765 128.564   4
  -8   6   3 24344.3 944.786   5
  -8   6   3 25061.3 1168.62   4
  -7   5   3 61257.7 1686.78   7
  -7   5   3 63842.5 1543.11   5
  -7   5   3 65520.3 1858.32   4
  -7   5   3 63699.5 1791.20   6
  -6   4   3 102486. 1994.78   5
  -6   4   3 96465.8 2183.94   7
  -6   4   3 100075. 1647.31   2
  -5   3   3 99588.0 1729.30   2
  -5   3   3 101411. 1902.94   5
  -4   2   3 49140.2 1077.45   5
  -4   2   3 47779.3 1220.63   4
  -4   2   3 48684.3 1026.28   2
  -4   2   3 49260.6 874.024   1
  -3   1   3 14810.1 498.854   2
  -3   1   3 15481.9 447.420   1
  -3   1   3 15096.0 536.739   4
  -2   0   3-7.47445 47.9980   2
  -2   0   3 16.6876 31.6396   4
  -2   0   3-17.1946 41.7631   1
  -2   0   3 72.4129 49.5886   7
  -1  -1   3 460.033 73.0074   7
  -1  -1   3 444.790 93.8462   1
   0  -2   3 83091.8 1692.45   2
   0  -2   3 83745.5 1716.77   1
   0  -2   3 86102.2 1412.01   7
   1  -3   3 128479. 2399.97   2
   1  -3   3 131469. 2456.89   1
   2  -4   3 65015.4 1557.54   1
   2  -4   3 67062.6 1694.11   5
   2  -4   3 66333.4 1504.86   2
   3  -5   3 49317.6 1480.15   5
   3  -5   3 47104.7 1249.36   2
   3  -5   3 49438.2 1342.79   1
   4  -6   3 17773.2 905.647   5
   4  -6   3 17329.6 854.983   6
   4  -6   3 18043.0 779.121   1
   5  -7   3 1910.05 303.790   6
   5  -7   3 1538.62 294.449   5
   5  -7   3 1689.78 247.218   1
   6  -8   3 10744.2 772.965   5
   6  -8   3 11789.1 796.576   6
   6  -8   3 12504.4 696.453   1
   7  -9   3 11673.2 700.574   1
   7  -9   3 8962.04 749.483   6
   8 -10   3 20743.4 983.390   1
   8 -10   3 22980.8 1278.72   6
   9 -11   3 23429.7 1070.67   1
   9 -11   3 22973.6 1361.01   6
 -10  10   3 15697.5 1155.61   4
  -9   9   3 8694.80 799.072   4
  -9   9   3 7398.61 653.672   5
  -8   8   3 6574.78 582.058   5
  -8   8   3 6415.62 635.060   4
  -8   8   3 5882.40 453.710   3
  -7   7   3 1546.89 262.230   5
  -7   7   3 1387.85 218.197   3
  -6   6   3 19635.2 853.106   5
  -6   6   3 18649.0 858.788   7
  -6   6   3 19583.1 787.537   3
  -5   5   3 83026.7 2002.06   7
  -5   5   3 83229.9 1865.52   3
  -5   5   3 84851.1 2059.92   6
  -5   5   3 87420.1 1922.00   5
  -4   4   3 121999. 2358.22   3
  -4   4   3 120685. 2343.24   5
  -4   4   3 123007. 1982.52   2
  -3   3   3 129218. 2333.27   5
  -3   3   3 133963. 2141.24   2
  -3   3   3 126456. 1874.40   1
  -3   3   3 129273. 1906.49   1
  -3   3   3 123626. 2369.84   3
  -3   3   3 129346. 2411.61   6
  -2   2   3 108644. 1956.82   5
  -2   2   3 103017. 1952.15   6
  -2   2   3 107824. 1880.86   2
  -1   1   3 513.306 93.1536   2
  -1   1   3 415.484 86.8887   7
   0   0   3 33.9284 48.5890   2
   0   0   3 10.9089 29.6777   7
   1  -1   3 795.100 88.3299   7
   2  -2   3 42827.1 738.024   7
   2  -2   3 42498.0 1073.87   2
   3  -3   3 123364. 2328.38   2
   4  -4   3 45680.2 1184.95   2
   4  -4   3 45223.9 1291.24   5
   4  -4   3 44535.5 1263.65   6
   5  -5   3 17902.5 819.507   5
   5  -5   3 18630.1 719.512   2
   5  -5   3 17717.9 804.160   6
   6  -6   3 7570.95 509.605   1
   6  -6   3 7344.83 550.271   6
   6  -6   3 7420.35 559.513   5
   7  -7   3 184.102 98.5911   1
   7  -7   3 405.482 169.176   5
   7  -7   3 393.986 176.707   6
   8  -8   3 7560.57 621.802   5
   8  -8   3 7538.92 548.641   1
   8  -8   3 6888.65 621.318   6
   9  -9   3 9118.87 632.657   1
   9  -9   3 11082.1 834.945   6
  10 -10   3 17436.7 924.929   1
  10 -10   3 17498.8 1129.95   6
  -8  10   3 35077.8 1610.03   5
  -7   9   3 22275.7 1186.92   5
  -6   8   3 1693.34 300.482   5
  -6   8   3 1445.71 250.258   3
  -5   7   3 186.641 119.139   5
  -5   7   3-34.1551 93.7885   7
  -5   7   3-6.18017 111.890   3
  -4   6   3 24929.8 1026.30   6
  -4   6   3 25631.1 998.978   5
  -4   6   3 23068.8 952.769   7
  -4   6   3 24465.6 969.072   3
  -3   5   3 57769.2 1520.67   5
  -3   5   3 60415.8 1559.57   3
  -3   5   3 58169.8 1563.38   7
  -3   5   3 60628.2 1569.01   6
  -2   4   3 162233. 2932.76   5
  -2   4   3 157461. 2337.84   1
  -2   4   3 156346. 2889.01   6
  -2   4   3 158249. 2966.34   3
  -1   3   3 63040.2 1415.36   5
  -1   3   3 65175.8 1085.16   1
  -1   3   3 63003.9 1281.21   2
  -1   3   3 61864.8 1349.04   6
  -1   3   3 61884.9 1470.98   3
   0   2   3 82523.4 1621.39   2
   0   2   3 84208.1 1438.03   1
   0   2   3 86510.6 1740.28   3
   0   2   3 84947.8 1533.52   6
   1   1   3 808.835 122.018   2
   3  -1   3 17962.1 637.249   2
   3  -1   3 17930.4 411.200   4
   4  -2   3 68954.3 1535.96   2
   5  -3   3 91419.2 1417.70   7
   5  -3   3 91964.6 1918.60   2
   5  -3   3 90795.9 1896.05   6
   6  -4   3 101020. 2080.19   2
   6  -4   3 95887.6 2122.79   6
   6  -4   3 97352.0 2115.81   5
   7  -5   3 52299.8 1487.83   5
   7  -5   3 53910.9 1536.51   6
   8  -6   3 22539.7 963.214   5
   8  -6   3 21890.0 991.940   6
   9  -7   3 975.051 228.625   6
   9  -7   3 950.103 234.060   5
  10  -8   3 3548.67 385.201   1
  10  -8   3 2766.61 397.557   6
  11  -9   3 14719.7 986.431   6
  11  -9   3 15104.7 848.288   1
  12 -10   3 14519.8 1050.74   6
  -7  11   3 21700.5 1338.44   5
  -6  10   3 19733.7 1223.69   5
  -5   9   3 12351.1 898.999   5
  -4   8   3 550.995 206.703   5
  -4   8   3 332.463 122.324   3
  -3   7   3 4296.22 445.189   5
  -3   7   3 4326.13 436.989   6
  -2   6   3 13657.3 733.070   5
  -2   6   3 13534.1 391.046   1
  -2   6   3 14402.4 723.813   6
  -1   5   3 82230.2 1929.64   5
  -1   5   3 79836.4 1389.85   1
  -1   5   3 79949.7 1974.27   3
   0   4   3 115814. 2429.87   3
   0   4   3 114814. 1882.09   1
   0   4   3 118037. 2204.50   6
   1   3   3 133194. 2614.64   3
   1   3   3 137482. 2310.17   6
   1   3   3 135710. 2207.71   1
   2   2   3 44071.9 1096.68   2
   2   2   3 43793.8 828.330   6
   2   2   3 42301.0 1131.40   3
   2   2   3 41634.7 916.208   1
   3   1   3 17584.1 582.765   5
   3   1   3 18309.5 633.582   3
   3   1   3 18292.8 556.269   1
   3   1   3 17849.0 362.364   6
   5  -1   3 18787.6 713.093   2
   5  -1   3 18841.1 562.024   4
   5  -1   3 18359.3 529.489   6
   6  -2   3 45858.7 1247.83   2
   6  -2   3 45241.3 1070.63   4
   6  -2   3 46125.8 1091.40   6
   7  -3   3 48319.8 1255.85   6
   7  -3   3 50663.5 992.181   7
   8  -4   3 42939.6 1191.09   5
   8  -4   3 42734.6 1264.11   6
   8  -4   3 42851.1 899.976   7
   9  -5   3 31590.3 1145.78   6
   9  -5   3 32797.9 766.363   7
   9  -5   3 31841.1 1063.37   5
  10  -6   3 23061.8 931.531   5
  10  -6   3 21131.3 992.020   6
  11  -7   3 474.118 155.441   5
  11  -7   3 388.410 139.930   6
  12  -8   3 1000.03 215.008   1
  12  -8   3 1589.60 338.875   6
  13  -9   3 4910.10 593.675   6
  13  -9   3 4704.57 485.954   1
  -6  12   3 24484.5 1523.65   5
  -5  11   3 20677.8 1350.07   5
  -4  10   3 21884.9 1299.52   5
  -3   9   3 13661.1 962.490   5
  -2   8   3 5250.00 281.968   1
  -2   8   3 5476.80 562.378   5
  -1   7   3 3887.29 245.892   1
  -1   7   3 4204.40 449.352   5
   0   6   3 9275.95 621.654   5
   0   6   3 9134.34 375.238   1
   1   5   3 47117.4 1017.28   1
   1   5   3 48020.7 1244.58   6
   2   4   3 65145.0 1288.90   1
   2   4   3 66535.3 1386.81   6
   3   3   3 124796. 2158.91   1
   3   3   3 124030. 2524.22   3
   4   2   3 68680.4 1607.45   3
   4   2   3 72619.8 1550.92   5
   4   2   3 69809.2 1414.37   1
   5   1   3 19523.4 642.313   5
   5   1   3 19011.5 680.569   3
   6   0   3 16.5782 45.7375   4
   6   0   3 15.5107 44.0360   5
   6   0   3-18.7320 19.9495   6
   7  -1   3 6680.84 380.147   4
   7  -1   3 6963.76 302.994   6
   8  -2   3 38042.7 1089.33   4
   8  -2   3 39445.8 1092.72   1
   8  -2   3 37706.0 941.598   7
   8  -2   3 39250.5 1002.91   6
   9  -3   3 51067.5 1324.47   6
   9  -3   3 52901.7 1158.25   7
   9  -3   3 53171.8 1370.21   1
  10  -4   3 24830.1 833.140   5
  10  -4   3 24826.0 939.688   6
  10  -4   3 25698.3 911.516   1
  10  -4   3 24806.3 726.994   7
  11  -5   3 40983.8 1152.04   5
  11  -5   3 39543.3 1334.77   6
  11  -5   3 39232.4 1006.88   7
  12  -6   3 4320.75 448.670   6
  13  -7   3 599.298 169.864   6
  14  -8   3 594.399 239.233   6
  15  -9   3 8826.48 806.480   6
  -5  13   3 8781.53 971.288   5
  -4  12   3 19442.8 1386.11   5
  -3  11   3 20571.4 1365.54   5
  -2  10   3 31503.6 1608.27   5
  -1   9   3 18384.9 1138.65   5
  -1   9   3 20535.1 702.692   1
   0   8   3 3355.99 448.223   5
   0   8   3 3133.44 256.394   1
   1   7   3 615.350 201.501   5
   1   7   3 1095.44 147.637   1
   2   6   3 33771.5 1291.72   5
   2   6   3 34342.4 909.456   1
   3   5   3 49856.5 1148.90   1
   4   4   3 44965.9 1072.51   1
   5   3   3 89110.9 1755.61   1
   6   2   3 46208.4 1212.52   5
   6   2   3 45690.1 1260.63   3
   7   1   3 6953.33 386.819   5
   7   1   3 6673.85 397.997   3
   8   0   3 31.7509 53.1224   5
   8   0   3 55.3188 48.6714   4
   9  -1   3 15700.2 542.796   5
   9  -1   3 15094.5 681.573   4
   9  -1   3 15594.3 513.965   6
   9  -1   3 15697.3 660.102   1
  10  -2   3 30508.9 783.716   5
  10  -2   3 30641.9 911.040   7
  10  -2   3 30024.1 992.967   1
  10  -2   3 30591.6 1068.87   4
  10  -2   3 31554.2 899.887   6
  11  -3   3 34698.8 812.733   5
  11  -3   3 33195.9 964.910   7
  11  -3   3 33829.9 1099.79   1
  11  -3   3 31741.3 1026.28   6
  11  -3   3 33034.1 1177.10   4
  12  -4   3 63261.3 1230.94   5
  12  -4   3 63339.5 1496.99   7
  12  -4   3 65280.0 1401.73   5
  12  -4   3 62464.6 1695.65   6
  13  -5   3 19741.1 522.636   5
  13  -5   3 19236.2 923.585   6
  13  -5   3 20780.6 758.221   7
  14  -6   3 5100.67 505.894   6
  15  -7   3 1563.07 315.344   6
  16  -8   3 1026.33 284.493   6
  -3  13   3 6009.79 807.083   5
  -2  12   3 13482.3 1179.85   5
  -1  11   3 38312.3 1919.72   5
   0  10   3 40170.2 1855.33   5
   1   9   3 22606.6 1278.45   5
   1   9   3 20425.2 783.193   1
   2   8   3 4517.63 346.391   1
   2   8   3 4198.83 525.307   5
   3   7   3 2602.42 388.183   5
   3   7   3 3312.79 285.413   1
   4   6   3 18984.3 968.476   5
   4   6   3 17953.4 677.572   1
   5   5   3 17103.6 861.011   5
   5   5   3 18430.4 673.677   1
   6   4   3 99199.2 2285.35   5
   6   4   3 96013.2 1961.11   1
   7   3   3 47588.3 1220.71   1
   8   2   3 38140.6 1169.97   3
   9   1   3 16410.7 654.041   5
   9   1   3 15828.2 651.428   3
   9   1   3 15214.6 735.807   4
  10   0   3 31.1596 47.2634   5
  10   0   3 119.637 90.2596   4
  10   0   3 63.4485 53.4082   1
  11  -1   3 18156.6 614.583   5
  11  -1   3 19142.3 757.138   7
  11  -1   3 17507.6 748.798   1
  11  -1   3 16440.1 809.617   4
  12  -2   3 25696.0 910.867   7
  12  -2   3 25144.3 695.626   5
  12  -2   3 27039.1 1088.66   4
  12  -2   3 25547.1 846.872   6
  13  -3   3 52370.9 1107.09   5
  13  -3   3 55187.8 1055.90   5
  13  -3   3 49490.8 1378.56   7
  13  -3   3 52623.8 1439.22   6
  14  -4   3 51942.9 1431.95   7
  14  -4   3 51542.4 1537.40   6
  15  -5   3 25511.6 953.322   7
  15  -5   3 23602.8 1072.46   6
  16  -6   3 9992.74 745.102   6
  17  -7   3 377.348 174.147   6
   0  12   3 23584.6 1597.97   5
   1  11   3 24898.2 1560.40   5
   2  10   3 20733.1 1340.81   5
   3   9   3 17482.4 1154.51   5
   3   9   3 16151.0 751.819   1
   4   8   3 4653.09 556.800   5
   4   8   3 4060.88 351.731   1
   5   7   3 1810.12 224.214   1
   5   7   3 1528.18 318.108   5
   6   6   3 7455.68 629.438   5
   6   6   3 7996.40 474.328   1
   7   5   3 52940.5 1693.82   5
   7   5   3 51556.4 1358.97   1
   8   4   3 42433.2 1416.98   5
   8   4   3 42306.2 1205.70   1
   9   3   3 52849.5 1531.40   5
   9   3   3 50474.4 1355.36   1
  10   2   3 29534.2 998.333   1
  10   2   3 29666.3 1040.97   3
  11   1   3 17898.4 729.725   3
  11   1   3 18276.0 740.182   5
  11   1   3 18872.1 909.040   4
  12   0   3 33.2507 60.0096   5
  12   0   3 0.53828 55.6782   4
  13  -1   3 10869.5 619.040   7
  13  -1   3 11254.9 480.063   5
  14  -2   3 22183.8 609.101   5
  14  -2   3 25704.9 987.493   7
  15  -3   3 34481.3 1190.58   7
  16  -4   3 27891.8 1080.69   7
  16  -4   3 26340.9 1091.15   6
  17  -5   3 16528.0 918.795   6
  18  -6   3 7014.48 633.827   6
   2  12   3 19963.8 1500.99   5
   3  11   3 24407.2 1579.04   5
   4  10   3 16282.3 1210.94   5
   5   9   3 13498.9 1047.14   5
   6   8   3 11198.4 910.722   5
   7   7   3 696.185 258.274   5
   8   6   3 24177.9 1213.51   5
   9   5   3 32839.6 1353.13   5
  10   4   3 25034.7 1115.15   5
  11   3   3 30829.4 1198.58   5
  11   3   3 30960.5 1166.78   3
  12   2   3 23466.9 935.923   3
  13   1   3 11203.3 585.457   3
  14   0   3 56.7741 85.0939   5
  14   0   3-231.723 107.855   7
  15  -1   3 4494.25 287.049   5
  15  -1   3 4308.31 421.345   7
  16  -2   3 20695.3 954.364   7
  17  -3   3 28351.3 1154.36   7
   4  12   3 14004.6 1267.14   5
   5  11   3 19378.4 1438.38   5
   6  10   3 20008.3 1400.68   5
   7   9   3 11225.9 989.135   5
   8   8   3 8473.41 834.417   5
   9   7   3 1474.75 339.805   5
  10   6   3 23139.2 1234.48   5
  11   5   3 42019.3 1632.93   5
  12   4   3 67342.5 2050.23   5
  13   3   3 52684.4 1680.17   5
  13   3   3 44765.8 1510.42   3
  14   2   3 26888.7 1084.30   5
  14   2   3 24910.0 998.780   3
  15   1   3 5151.16 406.384   3
  15   1   3 4493.02 465.057   7
  16   0   3 42.6794 78.8361   7
  17  -1   3 7418.88 609.592   7
  18  -2   3 14548.8 863.296   7
   7  11   3 25449.4 1703.41   5
   8  10   3 23879.9 1579.10   5
   9   9   3 10004.6 986.070   5
  10   8   3 3209.68 539.884   5
  11   7   3 426.941 161.581   5
  12   6   3 3530.45 492.789   5
  13   5   3 18410.6 1096.57   5
  14   4   3 51877.8 1849.47   5
  15   3   3 33523.0 1384.21   5
  16   2   3 22549.9 1029.66   5
  16   2   3 21460.3 1117.92   7
  17   1   3 7974.43 671.621   7
  18   0   3-52.0680 127.091   7
  19  -1   3 1997.82 348.675   7
  20  -2   3 12691.2 866.456   7
   9  11   3 21892.9 1622.16   5
  10  10   3 17748.8 1400.22   5
  11   9   3 15668.5 1247.75   5
  12   8   3 1490.01 401.319   5
  13   7   3 1048.89 303.564   5
  14   6   3 5989.36 699.461   5
  15   5   3 25777.9 1367.63   5
  16   4   3 25993.4 1312.64   5
  17   3   3 29314.4 1298.40   5
  17   3   3 26710.7 1344.70   7
  18   2   3 15309.7 999.680   7
  19   1   3 1234.77 291.239   7
  20   0   3 58.8314 113.109   7
  21  -1   3 2838.72 445.160   7
  12  10   3 12407.2 1182.45   5
  13   9   3 4229.09 688.499   5
  14   8   3 240.786 235.150   5
  15   7   3 999.567 317.612   5
  16   6   3 9198.67 877.684   5
  17   5   3 16597.3 1108.68   5
  18   4   3 21250.0 1271.39   7
  19   3   3 20874.2 1243.20   7
  20   2   3 12554.7 958.575   7
  15   9   3 7695.10 940.699   5
  16   8   3 1137.71 379.880   5
  17   7   3-22.0495 281.425   5
 -21  -1   2 13972.1 877.708   1
 -20  -2   2 4889.18 516.697   1
 -19  -3   2 1444.42 280.725   1
 -18  -4   2 406.568 165.436   1
 -17  -5   2 5348.20 543.312   1
 -16  -6   2 15328.8 922.035   1
 -15  -7   2 26946.1 1250.42   1
 -14  -8   2 29611.1 1326.94   1
 -13  -9   2 14345.6 910.507   1
 -12 -10   2 1710.65 327.194   1
 -20   0   2 22146.8 1059.99   1
 -19  -1   2 17425.3 928.475   1
 -18  -2   2 9421.67 674.531   1
 -17  -3   2 2552.89 342.813   1
 -16  -4   2 3537.53 407.271   1
 -15  -5   2 7232.95 593.435   1
 -14  -6   2 22508.4 1063.47   1
 -13  -7   2 35509.5 1388.96   1
 -12  -8   2 31236.6 1294.77   1
 -11  -9   2 17666.0 964.558   1
 -10 -10   2 7185.14 622.493   1
  -9 -11   2 494.961 177.622   1
  -8 -12   2 1207.77 281.817   1
 -19   1   2 18510.8 896.087   1
 -18   0   2 21813.9 979.839   1
 -17  -1   2 23389.0 1012.68   1
 -16  -2   2 19580.5 918.892   1
 -15  -3   2 1867.32 278.380   1
 -14  -4   2 1722.95 305.464   5
 -14  -4   2 2402.42 308.970   1
 -13  -5   2 13794.0 772.293   1
 -12  -6   2 29136.7 1162.91   1
 -11  -7   2 30047.7 1197.50   1
 -10  -8   2 37018.9 1366.21   1
  -9  -9   2 25214.3 1119.42   1
  -8 -10   2 8559.55 651.150   1
  -7 -11   2-53.9234 129.675   1
  -6 -12   2 2574.37 375.269   1
  -6 -12   2 2695.65 464.969   6
  -5 -13   2 8289.96 681.832   1
 -18   2   2 9211.39 577.767   1
 -17   1   2 23728.0 953.141   1
 -16   0   2 31443.3 1118.53   1
 -15  -1   2 56488.9 1576.65   1
 -14  -2   2 19641.0 859.598   1
 -14  -2   2 20961.5 852.198   5
 -13  -3   2 3411.05 344.324   1
 -13  -3   2 3305.57 377.418   5
 -12  -4   2 7065.99 499.679   1
 -12  -4   2 6198.43 548.488   5
 -11  -5   2 9467.42 590.809   1
 -11  -5   2 9986.87 740.707   5
 -10  -6   2 22745.9 957.592   1
  -9  -7   2 58059.1 1680.46   1
  -8  -8   2 40131.0 1377.06   1
  -7  -9   2 19985.4 953.475   1
  -6 -10   2 8827.42 635.767   1
  -5 -11   2 215.545 131.790   1
  -4 -12   2 6900.88 586.664   1
  -4 -12   2 6623.69 729.909   6
  -3 -13   2 11305.8 766.378   1
 -18   4   2 403.323 199.368   4
 -17   3   2 2936.33 463.546   4
 -16   2   2 20190.9 1207.09   4
 -16   2   2 20029.5 806.333   1
 -15   1   2 57450.5 1507.53   1
 -14   0   2 48381.8 1012.78   5
 -14   0   2 46590.2 1319.50   1
 -13  -1   2 36590.2 1129.68   1
 -13  -1   2 36217.3 1058.43   5
 -12  -2   2 29958.8 1007.21   1
 -12  -2   2 28819.4 1054.88   5
 -11  -3   2 9182.09 620.753   5
 -11  -3   2 9407.47 544.181   1
 -10  -4   2 1201.85 255.259   5
 -10  -4   2 1403.99 220.190   1
  -9  -5   2 8847.73 541.784   1
  -9  -5   2 8893.61 693.107   5
  -8  -6   2 26092.2 1000.53   1
  -7  -7   2 59535.3 1656.88   1
  -6  -8   2 36853.5 1262.31   1
  -5  -9   2 16190.2 815.867   1
  -4 -10   2 644.540 176.971   1
  -3 -11   2 798.338 214.550   1
  -3 -11   2 1760.95 379.429   6
  -2 -12   2 10392.7 700.383   1
  -2 -12   2 10360.0 885.035   6
  -1 -13   2 13269.6 805.105   1
 -17   5   2 5236.31 669.602   4
 -16   4   2 4116.89 562.052   4
 -15   3   2 1123.38 287.090   4
 -14   2   2 20892.1 1135.25   4
 -14   2   2 21051.5 762.442   1
 -13   1   2 37365.0 1469.73   4
 -13   1   2 35431.2 1036.56   1
 -12   0   2 58710.8 1429.66   1
 -12   0   2 60283.8 1308.39   5
 -12   0   2 60707.7 1637.86   6
 -11  -1   2 48427.1 1257.84   1
 -11  -1   2 48539.8 1297.85   5
 -10  -2   2 39097.4 1243.80   5
 -10  -2   2 40442.3 1125.83   1
  -9  -3   2 7639.90 449.829   1
  -9  -3   2 7958.35 561.812   5
  -8  -4   2 9415.73 516.711   1
  -8  -4   2 8742.31 629.127   5
  -7  -5   2 26620.7 936.802   1
  -7  -5   2 23073.5 1105.15   5
  -6  -6   2 44163.4 1633.09   5
  -6  -6   2 43760.3 1296.08   1
  -5  -7   2 40977.3 1271.97   2
  -5  -7   2 43337.3 1313.08   1
  -4  -8   2 47064.3 1401.74   1
  -4  -8   2 43941.3 1358.34   2
  -3  -9   2 26689.3 1044.40   1
  -2 -10   2 6332.29 504.547   1
  -2 -10   2 6484.98 623.261   6
  -1 -11   2 1310.70 234.040   1
  -1 -11   2 714.775 236.910   6
   0 -12   2 978.520 281.917   6
   0 -12   2 650.878 196.698   1
   1 -13   2 8121.58 614.492   1
 -16   6   2 15691.9 1146.77   4
 -15   5   2 9047.65 816.787   4
 -14   4   2 2607.12 418.714   4
 -13   3   2 2786.56 398.859   4
 -12   2   2 29589.8 1258.98   4
 -12   2   2 30540.6 863.624   1
 -11   1   2 48531.6 999.425   5
 -11   1   2 50841.6 1441.49   6
 -11   1   2 49138.6 1171.39   1
 -11   1   2 47601.0 1585.26   4
 -11   1   2 49300.4 1481.26   7
 -10   0   2 100105. 1933.72   1
 -10   0   2 98389.7 1932.70   5
 -10   0   2 101847. 2383.00   4
 -10   0   2 98697.0 2157.84   6
  -9  -1   2 103412. 2156.50   5
  -9  -1   2 105255. 2032.14   1
  -8  -2   2 39320.0 1218.48   5
  -8  -2   2 41791.7 1086.95   1
  -7  -3   2 1808.88 256.914   5
  -7  -3   2 1810.94 209.947   1
  -6  -4   2 2341.09 239.422   1
  -6  -4   2 2142.09 290.523   5
  -5  -5   2 26228.5 1139.75   5
  -5  -5   2 24763.2 877.145   1
  -4  -6   2 59141.8 1890.63   5
  -4  -6   2 60266.8 1531.81   1
  -4  -6   2 58031.0 1482.31   2
  -3  -7   2 45597.9 1302.91   2
  -3  -7   2 47678.2 1355.48   1
  -2  -8   2 44444.8 1309.48   2
  -2  -8   2 47426.3 1387.35   1
  -1  -9   2 35255.8 1197.23   1
  -1  -9   2 33566.8 1136.86   2
   0 -10   2 3317.25 342.018   2
   0 -10   2 3264.24 356.214   1
   0 -10   2 4036.93 496.255   6
   1 -11   2 2199.75 292.752   1
   1 -11   2 1615.88 331.098   6
   2 -12   2 5782.76 672.058   6
   2 -12   2 7418.31 568.647   1
 -15   7   2 27360.6 1535.05   4
 -14   6   2 24182.7 1342.33   4
 -13   5   2 14569.7 512.539   2
 -13   5   2 13985.0 938.763   4
 -12   4   2 7533.49 637.026   4
 -12   4   2 7912.97 365.639   2
 -11   3   2 8501.66 563.462   7
 -11   3   2 9874.58 685.382   4
 -11   3   2 9840.11 398.796   1
 -10   2   2 37173.4 767.847   5
 -10   2   2 40021.5 1360.78   4
 -10   2   2 41791.6 1267.85   7
 -10   2   2 41692.4 942.236   1
 -10   2   2 40318.7 1250.13   6
  -9   1   2 108952. 1949.31   1
  -9   1   2 106861. 2302.29   7
  -9   1   2 109054. 1896.30   5
  -9   1   2 110307. 2282.17   6
  -8   0   2 113919. 2028.96   1
  -8   0   2 112341. 2074.71   5
  -7  -1   2 107264. 2095.46   5
  -7  -1   2 106426. 1975.66   1
  -6  -2   2 2719.95 233.668   1
  -6  -2   2 2421.27 258.018   5
  -5  -3   2 7954.86 413.728   1
  -5  -3   2 6602.63 466.507   5
  -4  -4   2 30329.6 918.611   1
  -4  -4   2 30106.4 1123.74   5
  -3  -5   2 17327.2 878.028   5
  -3  -5   2 16157.3 659.805   1
  -2  -6   2 40863.5 1486.23   5
  -2  -6   2 43400.8 1210.43   1
  -1  -7   2 34900.0 1438.29   5
  -1  -7   2 35189.6 1109.53   1
   0  -8   2 46786.5 1289.63   2
   0  -8   2 45698.3 1340.19   1
   1  -9   2 23169.1 876.797   2
   1  -9   2 23231.7 1161.95   6
   1  -9   2 24548.1 956.319   1
   2 -10   2 2852.31 418.378   6
   2 -10   2 3058.51 315.677   2
   2 -10   2 2247.38 288.086   1
   3 -11   2 842.753 271.343   6
   3 -11   2 419.669 147.594   1
   4 -12   2 7936.03 568.358   1
   4 -12   2 7431.56 766.000   6
 -14   8   2 30436.8 1613.22   4
 -13   7   2 37897.0 1694.72   4
 -12   6   2 29497.8 1396.51   4
 -11   5   2 10331.5 377.377   5
 -11   5   2 9992.23 330.561   2
 -11   5   2 10044.5 733.542   4
 -11   5   2 9933.68 311.003   2
 -10   4   2 1199.65 120.979   5
 -10   4   2 1330.92 207.431   7
 -10   4   2 1153.19 116.710   2
 -10   4   2 1143.08 227.579   4
  -9   3   2 8706.35 312.608   5
  -9   3   2 8822.54 350.816   2
  -9   3   2 8969.79 552.477   6
  -9   3   2 8488.54 512.867   7
  -9   3   2 8722.77 324.441   1
  -8   2   2 42576.5 889.702   1
  -8   2   2 43583.2 832.721   5
  -7   1   2 102609. 1755.54   1
  -6   0   2 177398. 2862.59   1
  -6   0   2 181581. 3187.87   4
  -5  -1   2 93057.6 1811.37   5
  -5  -1   2 91916.4 1700.19   1
  -4  -2   2 23837.9 802.559   5
  -4  -2   2 25162.1 717.180   1
  -3  -3   2 19800.8 779.772   5
  -3  -3   2 19929.2 658.125   1
  -2  -4   2 875.359 151.331   1
  -2  -4   2 824.826 181.291   5
  -2  -4   2 909.156 139.410   2
  -1  -5   2 24996.4 825.720   1
  -1  -5   2 24937.7 1032.97   5
  -1  -5   2 26266.5 797.008   2
   0  -6   2 30300.3 957.898   1
   0  -6   2 30702.3 1234.92   5
   0  -6   2 28966.1 883.312   2
   1  -7   2 60372.5 1515.16   1
   1  -7   2 56150.5 1850.87   5
   2  -8   2 40951.1 1236.93   1
   2  -8   2 41891.5 1509.85   6
   3  -9   2 20859.8 1111.96   6
   3  -9   2 23689.8 921.958   1
   4 -10   2 2764.57 431.276   6
   4 -10   2 2299.45 282.943   1
   5 -11   2 549.924 165.412   1
   5 -11   2 274.298 162.104   6
 -13   9   2 14310.8 1100.39   4
 -12   8   2 36464.5 1688.90   4
 -11   7   2 31797.4 1012.73   5
 -11   7   2 30718.4 1441.62   4
 -10   6   2 23337.0 1154.86   4
 -10   6   2 24462.9 848.585   5
  -9   5   2 9559.21 475.034   5
  -9   5   2 9157.12 656.981   4
  -9   5   2 9054.40 559.597   7
  -8   4   2 10250.3 609.621   6
  -8   4   2 10705.9 446.209   5
  -8   4   2 10468.2 562.496   7
  -8   4   2 10469.3 303.567   2
  -7   3   2 1941.54 155.389   5
  -7   3   2 1967.55 131.140   2
  -6   2   2 2740.96 164.146   5
  -6   2   2 2857.60 169.648   2
  -6   2   2 2557.82 132.534   1
  -5   1   2 91447.4 1517.38   1
  -5   1   2 93098.6 1856.26   4
  -5   1   2 92740.1 1611.08   2
  -4   0   2 240507. 3789.79   4
  -4   0   2 237105. 3653.69   2
  -4   0   2 233090. 3593.06   1
  -3  -1   2 109257. 1931.05   2
  -3  -1   2 112556. 1931.40   7
  -3  -1   2 112401. 1935.34   1
  -2  -2   2 28909.1 752.604   1
  -2  -2   2 27907.2 833.200   5
  -1  -3   2 33542.4 1023.39   5
  -1  -3   2 36679.8 927.407   1
  -1  -3   2 34986.6 868.175   2
   0  -4   2 1204.50 147.147   2
   0  -4   2 1244.32 205.299   5
   0  -4   2 1025.58 153.291   1
   1  -5   2 22429.2 706.774   2
   1  -5   2 23254.9 780.599   1
   1  -5   2 22070.9 939.377   5
   2  -6   2 41789.3 1077.99   2
   2  -6   2 43320.7 1186.07   1
   2  -6   2 40414.3 1409.32   5
   2  -6   2 42516.0 1354.50   6
   3  -7   2 45599.0 1165.43   2
   3  -7   2 43616.5 1556.45   5
   3  -7   2 47614.5 1299.56   1
   3  -7   2 44137.6 1491.56   6
   4  -8   2 50503.0 1270.51   2
   4  -8   2 51687.6 1749.98   5
   4  -8   2 52068.5 1433.91   1
   4  -8   2 50113.4 1707.66   6
   5  -9   2 20327.4 859.458   1
   5  -9   2 19877.9 732.557   2
   5  -9   2 22585.6 1153.97   6
   6 -10   2 5430.85 450.556   1
   6 -10   2 6149.44 635.371   6
   7 -11   2 198.497 159.672   6
   7 -11   2 144.486 75.1005   1
 -12  10   2 1432.00 356.578   4
 -11   9   2 19963.4 1258.03   4
 -10   8   2 39627.6 1366.25   5
 -10   8   2 43849.8 1770.70   4
  -9   7   2 63680.0 2065.80   4
  -9   7   2 63617.1 1742.37   5
  -9   7   2 62908.2 1441.93   3
  -8   6   2 28271.7 1033.04   7
  -8   6   2 25952.6 965.695   5
  -8   6   2 26658.0 1178.06   4
  -8   6   2 26124.7 797.890   3
  -7   5   2 25499.6 872.340   5
  -7   5   2 27977.2 968.831   7
  -7   5   2 26534.8 1070.24   4
  -7   5   2 25787.1 754.624   3
  -7   5   2 25240.3 1033.32   6
  -6   4   2 2263.93 211.742   5
  -6   4   2 2696.37 204.530   3
  -5   3   2 7795.69 240.337   2
  -5   3   2 8046.49 425.990   7
  -5   3   2 7782.54 343.722   5
  -4   2   2 24631.1 543.488   2
  -4   2   2 24110.5 763.494   4
  -4   2   2 24573.6 601.684   5
  -4   2   2 25032.9 741.133   7
  -4   2   2 24206.4 428.870   1
  -3   1   2 113193. 1846.03   2
  -3   1   2 111227. 2000.54   4
  -3   1   2 114237. 1758.34   1
  -2   0   2 286491. 4404.07   1
  -2   0   2 299304. 4414.27   4
  -2   0   2 304096. 4473.60   7
  -2   0   2 301966. 4448.51   2
  -1  -1   2 143966. 2234.85   7
  -1  -1   2 144078. 2365.24   1
   0  -2   2 38314.0 879.920   2
   0  -2   2 39658.2 922.677   1
   1  -3   2 3971.67 243.166   2
   1  -3   2 3108.68 265.337   5
   1  -3   2 3230.79 245.830   1
   2  -4   2 19108.6 609.483   2
   2  -4   2 17098.7 727.313   5
   2  -4   2 18351.1 652.540   1
   3  -5   2 22640.6 705.514   2
   3  -5   2 22866.8 921.758   5
   3  -5   2 23062.8 783.407   1
   3  -5   2 22452.9 883.811   6
   4  -6   2 45772.7 1130.14   2
   4  -6   2 46019.4 1467.50   5
   4  -6   2 47765.3 1456.68   6
   4  -6   2 45443.6 1246.64   1
   5  -7   2 44444.4 1499.32   5
   5  -7   2 44447.4 1273.92   1
   5  -7   2 43563.0 1120.85   2
   5  -7   2 44373.2 1500.22   6
   6  -8   2 49088.2 1675.99   5
   6  -8   2 50543.0 1247.12   2
   6  -8   2 52698.4 1456.62   1
   6  -8   2 51887.7 1754.07   6
   7  -9   2 15260.3 741.389   1
   7  -9   2 14571.0 938.714   6
   8 -10   2 7550.32 528.747   1
   8 -10   2 8028.37 741.358   6
   9 -11   2 906.018 275.822   6
 -10  10   2 9199.46 867.615   4
  -9   9   2 25993.5 1374.82   4
  -9   9   2 26783.8 1228.58   5
  -8   8   2 41087.7 1489.12   5
  -8   8   2 42454.0 1676.56   4
  -8   8   2 41120.7 1265.49   3
  -7   7   2 63304.1 1614.61   3
  -7   7   2 63633.1 1823.58   5
  -7   7   2 62360.7 1719.67   7
  -6   6   2 48449.3 1423.36   5
  -6   6   2 47090.0 1284.67   3
  -6   6   2 48530.0 1394.37   7
  -6   6   2 49376.4 1547.25   6
  -5   5   2 26460.0 906.806   5
  -5   5   2 27402.7 866.364   3
  -4   4   2 32574.2 913.473   5
  -4   4   2 32424.2 912.428   3
  -4   4   2 31536.9 956.126   7
  -3   3   2 21449.6 640.520   5
  -3   3   2 21326.9 451.949   2
  -3   3   2 21831.3 660.554   3
  -3   3   2 20681.1 693.764   7
  -2   2   2 28174.1 690.101   5
  -2   2   2 28686.0 724.330   3
  -2   2   2 28070.0 600.191   2
  -2   2   2 27504.0 719.602   6
  -1   1   2 147948. 2343.36   2
  -1   1   2 148693. 2354.68   6
   2  -2   2 14482.5 486.341   2
   3  -3   2 11930.6 457.678   2
   3  -3   2 13022.3 532.712   5
   4  -4   2 27140.0 767.015   2
   4  -4   2 26677.4 894.833   5
   4  -4   2 28354.5 923.372   6
   5  -5   2 34395.6 1116.67   5
   5  -5   2 33021.4 906.980   2
   5  -5   2 34653.3 1136.24   6
   6  -6   2 30912.4 1126.14   5
   6  -6   2 31882.8 901.340   2
   6  -6   2 31280.2 1012.83   1
   6  -6   2 31187.7 1162.83   6
   7  -7   2 41176.6 1239.06   1
   7  -7   2 39827.6 1062.48   2
   7  -7   2 39920.6 1446.17   6
   7  -7   2 40429.9 1364.92   5
   8  -8   2 41157.6 1428.56   5
   8  -8   2 44046.3 1114.88   2
   8  -8   2 41237.6 1571.13   6
   8  -8   2 40066.9 1276.93   1
   9  -9   2 15213.3 757.776   1
   9  -9   2 15074.3 972.267   6
  10 -10   2 4966.46 436.293   1
  10 -10   2 5866.85 642.324   6
  -9  11   2 455.831 269.878   4
  -8  10   2 9409.26 790.583   5
  -7   9   2 19879.0 1104.56   5
  -7   9   2 21624.8 1004.45   3
  -6   8   2 38928.0 1502.85   5
  -6   8   2 38056.5 1303.06   7
  -5   7   2 44448.3 1510.25   5
  -5   7   2 45816.0 1390.03   7
  -4   6   2 62217.3 1686.32   5
  -4   6   2 62127.0 1602.72   7
  -4   6   2 60971.8 1710.75   6
  -3   5   2 16974.1 722.019   5
  -2   4   2 895.100 68.6513   1
  -2   4   2 808.207 142.723   5
  -2   4   2 878.295 142.634   6
  -1   3   2 35385.5 912.336   5
  -1   3   2 35086.8 620.250   1
  -1   3   2 34847.2 879.391   6
   0   2   2 41024.5 911.802   5
   0   2   2 39354.3 962.462   3
   0   2   2 39965.8 847.738   2
   0   2   2 39174.7 720.580   1
   0   2   2 39865.3 828.954   6
   1   1   2 59203.4 1174.06   3
   1   1   2 55973.3 1016.75   1
   1   1   2 60482.5 1153.46   2
   1   1   2 56680.8 959.288   6
   3  -1   2 98158.0 1806.74   2
   3  -1   2 98587.8 1601.94   4
   4  -2   2 125585. 1892.82   7
   4  -2   2 121601. 2192.62   2
   4  -2   2 118663. 2155.47   6
   5  -3   2 24131.4 516.892   7
   5  -3   2 24728.1 742.922   5
   5  -3   2 24176.2 731.530   2
   5  -3   2 23311.1 766.471   6
   6  -4   2 5487.19 232.838   7
   6  -4   2 4743.88 314.472   2
   6  -4   2 4893.67 344.084   5
   6  -4   2 6135.55 413.044   6
   7  -5   2 31667.7 1021.99   5
   7  -5   2 30322.3 904.724   2
   7  -5   2 30676.7 1085.89   6
   8  -6   2 15425.0 730.553   5
   8  -6   2 17206.9 656.272   2
   8  -6   2 15850.4 819.433   6
   9  -7   2 75138.6 1896.90   5
   9  -7   2 78993.4 1924.04   1
   9  -7   2 80679.5 2207.15   6
  10  -8   2 27828.9 1042.51   5
  10  -8   2 26540.8 1254.47   6
  10  -8   2 26729.7 1035.26   1
  11  -9   2 19426.7 897.988   1
  11  -9   2 19201.3 1129.83   6
  12 -10   2 4936.49 604.282   6
  -7  11   2 476.120 245.130   5
  -6  10   2 7932.50 750.883   5
  -5   9   2 19195.7 1116.49   5
  -4   8   2 49124.1 1735.52   5
  -4   8   2 47243.0 1481.58   7
  -3   7   2 50670.0 1638.41   5
  -3   7   2 47541.6 1547.66   6
  -2   6   2 44531.6 1418.18   5
  -2   6   2 44299.0 924.295   1
  -2   6   2 45163.5 1364.37   6
  -1   5   2 26436.3 959.171   5
  -1   5   2 26230.9 625.034   1
  -1   5   2 25585.0 892.424   6
   0   4   2 1473.63 168.717   6
   0   4   2 922.081 94.5738   1
   1   3   2 3245.26 169.973   1
   1   3   2 3336.62 213.217   6
   2   2   2 14361.8 363.493   6
   2   2   2 14177.9 408.934   1
   3   1   2 104064. 1786.44   5
   3   1   2 100413. 1856.72   3
   3   1   2 99854.9 1733.21   1
   4   0   2 179046. 2815.81   5
   4   0   2 183087. 2879.50   3
   4   0   2 182254. 3048.67   2
   4   0   2 175600. 2879.69   4
   4   0   2 179618. 2635.10   6
   5  -1   2 147485. 2623.08   2
   5  -1   2 148807. 2493.40   4
   5  -1   2 149125. 2491.11   1
   5  -1   2 144709. 2373.75   6
   6  -2   2 69341.0 1471.90   4
   6  -2   2 72118.2 1542.30   2
   6  -2   2 67726.2 1291.49   7
   6  -2   2 71074.0 1434.45   6
   7  -3   2 8405.22 336.876   7
   7  -3   2 8904.75 401.728   5
   7  -3   2 8989.04 461.927   6
   8  -4   2 1253.47 161.152   5
   8  -4   2 999.117 120.792   7
   8  -4   2 1086.89 183.513   6
   9  -5   2 10132.6 430.224   7
   9  -5   2 9093.47 482.167   5
   9  -5   2 9424.25 582.817   6
   9  -5   2 9112.92 476.730   1
  10  -6   2 47216.7 1280.42   1
  10  -6   2 46904.0 1539.22   6
  10  -6   2 46485.1 1245.38   5
  11  -7   2 40239.5 1121.51   5
  11  -7   2 35628.6 1122.36   1
  11  -7   2 35395.9 1418.26   6
  12  -8   2 24913.5 1037.16   1
  12  -8   2 24906.8 1245.86   6
  13  -9   2 14295.3 1005.48   6
  -6  12   2 3497.67 586.649   5
  -5  11   2 138.855 205.108   5
  -4  10   2 1019.19 324.014   5
  -3   9   2 27053.5 1357.65   5
  -2   8   2 51189.9 1792.16   5
  -2   8   2 46867.3 1120.06   1
  -1   7   2 35379.6 910.548   1
  -1   7   2 35835.6 1375.52   5
   0   6   2 31360.5 1185.15   5
   0   6   2 30214.4 794.869   1
   1   5   2 22615.6 638.123   1
   2   4   2 18892.6 545.798   1
   3   3   2 12099.8 416.483   1
   4   2   2 120045. 2071.14   1
   4   2   2 121134. 2220.01   5
   5   1   2 147368. 2488.72   5
   5   1   2 145771. 2564.42   3
   6   0   2 117663. 2006.01   5
   6   0   2 116967. 2220.71   4
   6   0   2 119827. 1874.29   6
   6   0   2 119308. 2065.80   3
   7  -1   2 115206. 1998.60   6
   7  -1   2 115511. 1920.32   5
   7  -1   2 114420. 2221.39   4
   7  -1   2 118083. 2144.65   1
   8  -2   2 16281.3 674.373   4
   8  -2   2 16612.3 597.140   6
   8  -2   2 17676.8 583.921   7
   9  -3   2 239.488 68.6464   5
   9  -3   2 173.857 62.1631   7
   9  -3   2 346.647 102.416   6
  10  -4   2 1925.46 172.924   5
  10  -4   2 2195.01 209.546   7
  10  -4   2 2131.55 231.679   1
  10  -4   2 1738.26 237.596   6
  11  -5   2 15961.3 535.478   5
  11  -5   2 16947.7 650.798   7
  11  -5   2 16977.1 834.923   6
  11  -5   2 14476.3 655.333   1
  12  -6   2 33188.5 805.468   5
  12  -6   2 32326.0 1054.94   1
  12  -6   2 33301.4 1302.31   6
  12  -6   2 33229.8 1011.46   7
  13  -7   2 28633.8 1285.22   6
  14  -8   2 24824.4 1273.37   6
  15  -9   2 11113.0 905.394   6
  -5  13   2 10014.5 1015.46   5
  -4  12   2 7343.16 841.149   5
  -3  11   2 1729.24 404.416   5
  -2  10   2 6420.72 731.395   5
  -1   9   2 38333.5 1661.40   5
  -1   9   2 36010.1 1049.63   1
   0   8   2 46100.4 1736.61   5
   0   8   2 46846.4 1211.68   1
   1   7   2 59393.6 1890.44   5
   1   7   2 58839.8 1371.32   1
   2   6   2 44221.7 1100.98   1
   3   5   2 23866.5 713.894   1
   4   4   2 27622.4 766.036   1
   5   3   2 24605.0 849.747   5
   5   3   2 23671.1 700.086   1
   6   2   2 68468.1 1523.81   5
   7   1   2 116289. 2116.08   5
   7   1   2 111038. 2147.48   3
   8   0   2 72072.9 1391.24   5
   8   0   2 64270.3 1632.05   4
   8   0   2 71602.3 1409.63   3
   9  -1   2 48858.3 986.744   5
   9  -1   2 55251.5 1276.53   7
   9  -1   2 50611.9 1364.88   4
   9  -1   2 50989.8 1231.55   1
  10  -2   2 19794.4 496.185   5
  10  -2   2 19377.8 726.807   1
  10  -2   2 19449.4 833.364   4
  10  -2   2 19650.5 706.475   7
  10  -2   2 18657.2 681.506   6
  11  -3   2 1871.05 131.695   5
  11  -3   2 1514.99 205.775   1
  11  -3   2 1816.00 258.497   4
  11  -3   2 1956.09 218.945   7
  11  -3   2 2045.97 240.276   6
  12  -4   2 5522.98 442.426   6
  12  -4   2 5675.96 387.595   7
  12  -4   2 5062.06 383.849   1
  13  -5   2 12593.9 622.872   7
  13  -5   2 12331.5 730.165   6
  14  -6   2 20093.3 1032.57   6
  14  -6   2 21112.7 859.074   7
  15  -7   2 20003.3 1098.94   6
  16  -8   2 20306.2 1190.68   6
  -3  13   2 12503.0 1134.13   5
  -2  12   2 14726.4 1193.06   5
  -1  11   2 1321.85 386.168   5
   0  10   2 3337.20 328.896   1
   0  10   2 2662.84 477.874   5
   1   9   2 25584.4 1367.81   5
   1   9   2 24924.3 917.621   1
   2   8   2 42014.2 1216.18   1
   2   8   2 44830.2 1745.47   5
   3   7   2 46749.6 1254.97   1
   3   7   2 45734.1 1674.81   5
   4   6   2 45012.0 1184.74   1
   5   5   2 33677.0 962.417   1
   6   4   2 4852.20 320.606   1
   8   2   2 16757.0 680.489   5
   9   1   2 52897.4 1256.34   5
   9   1   2 47849.6 1221.01   3
   9   1   2 49864.8 1450.19   4
  10   0   2 78777.1 1768.60   1
  10   0   2 81728.9 1608.47   5
  10   0   2 82673.9 2016.43   4
  10   0   2 81185.5 1610.47   3
  11  -1   2 61015.8 1510.89   1
  11  -1   2 61645.7 1538.97   7
  11  -1   2 61699.0 1220.38   5
  11  -1   2 62405.1 1726.18   4
  12  -2   2 34131.9 1062.60   1
  12  -2   2 31450.9 633.023   5
  12  -2   2 32556.8 633.430   5
  12  -2   2 34881.9 1279.55   4
  12  -2   2 34289.3 1072.82   7
  12  -2   2 33866.4 1020.36   6
  13  -3   2 16758.7 736.827   7
  13  -3   2 15874.0 737.751   6
  14  -4   2 264.727 109.399   7
  14  -4   2 258.952 123.016   6
  15  -5   2 10209.7 608.562   7
  15  -5   2 8369.98 628.920   6
  16  -6   2 15192.1 925.757   6
  17  -7   2 21324.9 1187.84   6
  -1  13   2 14571.9 1269.05   5
   0  12   2 1210.84 396.013   5
   1  11   2 2148.72 498.723   5
   2  10   2 2821.39 484.120   5
   2  10   2 2531.61 314.788   1
   3   9   2 24232.8 959.240   1
   3   9   2 24317.0 1367.19   5
   4   8   2 52108.2 1470.53   1
   4   8   2 55715.2 2018.58   5
   5   7   2 46923.2 1744.10   5
   5   7   2 42839.6 1273.63   1
   6   6   2 30893.5 1314.14   5
   6   6   2 30737.9 1000.86   1
   7   5   2 32246.6 1268.52   5
   7   5   2 30308.8 982.924   1
   8   4   2 1089.03 174.701   1
   8   4   2 1122.98 239.610   5
   9   3   2 293.101 92.6557   1
  10   2   2 19753.4 802.870   5
  10   2   2 19123.3 757.243   1
  10   2   2 19460.8 904.126   4
  11   1   2 57473.1 1499.30   1
  11   1   2 63997.9 1497.86   5
  11   1   2 59723.9 1441.46   3
  11   1   2 61211.2 1787.43   4
  12   0   2 119504. 2254.90   5
  12   0   2 118491. 2576.88   7
  12   0   2 117869. 2781.31   4
  12   0   2 123617. 2217.85   3
  13  -1   2 47741.6 987.631   5
  13  -1   2 45359.8 1397.89   7
  14  -2   2 18495.3 836.391   7
  15  -3   2 1526.18 244.388   7
  16  -4   2 307.772 123.337   7
  17  -5   2 9698.18 657.049   7
   2  12   2 7853.16 922.934   5
   3  11   2 595.011 288.540   5
   4  10   2 2813.42 531.089   5
   5   9   2 19621.1 1254.08   5
   6   8   2 52211.1 2035.65   5
   7   7   2 43286.0 1747.60   5
   8   6   2 17830.8 1029.39   5
   9   5   2 10111.3 730.468   5
  10   4   2 2519.64 348.249   5
  13   1   2 47085.1 1300.63   5
  13   1   2 47700.2 1499.52   7
  13   1   2 43043.6 1226.82   3
  14   0   2 60736.8 1759.17   7
  14   0   2 62890.1 1400.24   5
  15  -1   2 34915.2 1281.78   7
  16  -2   2 7569.52 572.047   7
  17  -3   2 1958.64 297.522   7
  18  -4   2 564.895 180.875   7
   4  12   2 8726.48 983.802   5
   5  11   2-293.031 316.694   5
   6  10   2 6433.88 794.062   5
   7   9   2 15429.5 1158.17   5
   8   8   2 41049.6 1852.80   5
   9   7   2 76839.2 2515.08   5
  10   6   2 48070.5 1837.12   5
  11   5   2 16750.2 997.130   5
  12   4   2 5020.38 514.418   5
  13   3   2 18154.5 920.625   5
  14   2   2 15815.5 763.661   3
  15   1   2 36930.0 1396.05   7
  15   1   2 38662.8 1159.71   5
  15   1   2 37881.7 1129.81   3
  16   0   2 27035.2 1177.57   7
  17  -1   2 20171.3 1020.59   7
  18  -2   2 9774.34 707.867   7
  19  -3   2 1759.80 323.316   7
   7  11   2 529.968 224.039   5
   8  10   2 7022.90 830.565   5
   9   9   2 15723.7 1201.84   5
  10   8   2 30189.4 1617.32   5
  11   7   2 39534.7 1800.88   5
  12   6   2 33664.0 1582.35   5
  13   5   2 11534.2 858.866   5
  14   4   2-44.3790 139.620   5
  15   3   2 1664.10 318.025   5
  16   2   2 6476.97 601.165   7
  17   1   2 16309.6 970.458   7
  18   0   2 23535.4 1179.55   7
  19  -1   2 16648.9 992.345   7
  20  -2   2 8858.81 736.023   7
   9  11   2 1090.94 377.690   5
  10  10   2 5559.12 796.453   5
  11   9   2 18918.2 1355.35   5
  12   8   2 28171.1 1602.59   5
  13   7   2 26979.2 1507.54   5
  14   6   2 20095.7 1235.92   5
  15   5   2 11159.1 862.073   5
  16   4   2 649.595 222.291   5
  17   3   2 2776.41 370.423   5
  17   3   2 2167.74 372.292   7
  18   2   2 9416.73 775.614   7
  19   1   2 19911.2 1148.77   7
  20   0   2 18951.0 1128.79   7
  21  -1   2 15659.5 1039.87   7
  12  10   2 6463.72 855.180   5
  13   9   2 14269.0 1229.82   5
  14   8   2 23559.9 1504.14   5
  15   7   2 18729.1 1278.22   5
  16   6   2 14755.3 1083.79   5
  17   5   2 8854.58 784.296   5
  18   4   2 358.417 169.983   7
  19   3   2 1634.72 349.994   7
  20   2   2 10536.0 877.685   7
  15   9   2 13144.3 1189.31   5
  16   8   2 22769.4 1513.84   5
  17   7   2 23633.2 1472.99   5
 -21  -1   1 3491.69 440.276   1
 -20  -2   1 8567.24 694.907   1
 -19  -3   1 17657.1 1005.96   1
 -18  -4   1 37098.8 1494.70   1
 -17  -5   1 25288.1 1207.40   1
 -16  -6   1 11665.7 798.428   1
 -15  -7   1-38.4281 132.373   1
 -14  -8   1 5470.48 549.779   1
 -13  -9   1 13715.7 885.913   1
 -12 -10   1 22287.0 1143.96   1
 -10 -12   1 17326.0 1153.01   6
 -20   0   1-94.3654 155.967   1
 -19  -1   1 3961.86 439.029   1
 -18  -2   1 14077.4 840.689   1
 -17  -3   1 37035.1 1399.99   1
 -16  -4   1 31591.6 1281.95   1
 -15  -5   1 25651.3 1142.34   1
 -14  -6   1 8355.25 635.385   1
 -13  -7   1 336.864 159.928   1
 -12  -8   1 1884.72 294.337   1
 -11  -9   1 13298.5 821.005   1
 -10 -10   1 12105.7 797.969   1
  -9 -11   1 15347.4 910.156   1
  -8 -12   1 15298.1 916.813   1
  -8 -12   1 15641.9 1086.69   6
 -19   1   1 3996.38 413.713   1
 -18   0   1-49.9444 130.097   1
 -17  -1   1 11984.3 719.384   1
 -16  -2   1 28943.3 1141.27   1
 -15  -3   1 37673.5 1224.47   5
 -15  -3   1 39074.6 1351.59   1
 -14  -4   1 40592.9 1373.32   1
 -14  -4   1 38316.1 1380.48   5
 -13  -5   1 26805.3 1099.43   1
 -12  -6   1 7037.15 543.474   1
 -11  -7   1 4389.68 432.956   1
 -10  -8   1 1004.78 219.900   1
  -9  -9   1 12645.3 760.764   1
  -8 -10   1 13378.7 791.554   1
  -7 -11   1 18748.7 966.883   1
  -6 -12   1 15449.1 1063.84   6
  -6 -12   1 14983.2 866.747   1
  -5 -13   1 11128.1 754.545   1
  -5 -13   1 10570.9 919.295   6
 -17   1   1 12035.2 671.603   1
 -16   0   1-34.9433 85.9387   1
 -15  -1   1 5105.43 281.570   5
 -15  -1   1 4572.41 405.256   1
 -14  -2   1 29461.5 946.019   5
 -14  -2   1 27999.9 1039.60   6
 -14  -2   1 27858.1 1046.50   1
 -13  -3   1 45094.0 1374.07   1
 -13  -3   1 43901.2 1362.98   5
 -12  -4   1 58523.3 1605.32   1
 -12  -4   1 52959.1 1669.22   5
 -11  -5   1 37760.9 1253.59   1
 -11  -5   1 36881.0 1425.93   5
 -10  -6   1 14266.0 739.674   1
  -9  -7   1 3947.22 388.031   1
  -8  -8   1 4894.57 439.394   1
  -7  -9   1 11873.9 700.235   1
  -6 -10   1 28739.0 1150.05   1
  -5 -11   1 25598.9 1090.09   1
  -5 -11   1 23510.3 1267.03   6
  -4 -12   1 18790.5 945.904   1
  -4 -12   1 19106.6 1192.58   6
  -3 -13   1 7095.51 583.118   1
  -3 -13   1 6549.92 728.886   6
 -18   4   1 39537.1 1875.75   4
 -17   3   1 38083.8 1371.93   2
 -17   3   1 38478.7 1751.25   4
 -16   2   1 27429.7 1384.86   4
 -15   1   1 4731.59 378.877   1
 -14   0   1-3.39730 18.1253   5
 -14   0   1 62.4544 77.2914   1
 -13  -1   1 1058.75 138.034   5
 -13  -1   1 1244.14 202.076   1
 -13  -1   1 1009.82 185.905   6
 -12  -2   1 31745.6 1035.78   1
 -12  -2   1 29661.3 971.726   5
 -11  -3   1 61467.2 1566.48   1
 -11  -3   1 60068.2 1654.03   5
 -10  -4   1 62554.9 1600.14   1
 -10  -4   1 59898.1 1773.49   5
  -9  -5   1 35123.9 1368.50   5
  -9  -5   1 33854.2 1108.30   1
  -8  -6   1 9890.58 738.563   5
  -8  -6   1 10237.9 582.007   1
  -7  -7   1 1885.45 260.277   1
  -6  -8   1 16800.5 788.673   1
  -5  -9   1 23737.7 971.913   1
  -4 -10   1 37130.9 1283.60   1
  -4 -10   1 38743.2 1562.22   6
  -3 -11   1 41331.4 1385.49   1
  -3 -11   1 41110.7 1704.23   6
  -2 -12   1 22900.2 1013.25   1
  -2 -12   1 25223.9 1369.03   6
  -1 -13   1 10379.3 679.108   1
  -1 -13   1 9016.81 862.510   6
 -17   5   1 27583.2 1530.24   4
 -16   4   1 31601.4 1105.50   2
 -16   4   1 31993.1 1562.61   4
 -15   3   1 39590.3 1297.04   2
 -15   3   1 37779.1 1630.52   4
 -14   2   1 28823.2 1325.68   4
 -14   2   1 29164.5 946.414   1
 -13   1   1 818.009 199.056   4
 -13   1   1 1227.70 180.069   1
 -13   1   1 978.039 193.050   6
 -12   0   1-58.8798 28.3146   5
 -12   0   1-58.6106 75.8877   1
 -12   0   1 70.1184 72.9242   6
 -11  -1   1 3423.52 287.578   1
 -11  -1   1 3209.88 254.780   5
 -11  -1   1 3207.76 293.819   6
 -10  -2   1 26409.1 861.632   1
 -10  -2   1 25776.7 912.224   5
  -9  -3   1 89370.0 2137.15   5
  -9  -3   1 94787.7 1978.32   1
  -8  -4   1 50112.1 1569.82   5
  -8  -4   1 53698.6 1358.76   1
  -7  -5   1 32163.5 1272.06   5
  -7  -5   1 32178.1 1017.45   1
  -6  -6   1 9513.38 700.587   5
  -6  -6   1 10582.0 560.769   1
  -5  -7   1 502.105 153.139   1
  -4  -8   1 6736.65 463.350   2
  -4  -8   1 7229.87 484.062   1
  -3  -9   1 9541.20 558.285   2
  -3  -9   1 9498.26 573.744   1
  -2 -10   1 12356.3 674.546   1
  -2 -10   1 11605.6 832.977   6
  -2 -10   1 13153.7 683.429   2
  -1 -11   1 17075.3 814.873   1
  -1 -11   1 14816.6 994.609   6
   0 -12   1 16561.4 1110.72   6
   0 -12   1 16263.2 815.206   1
   1 -13   1 11541.8 689.438   1
 -17   7   1 403.466 235.726   4
 -16   6   1 10514.1 915.905   4
 -15   5   1 28699.9 1449.94   4
 -14   4   1 42672.9 1215.46   2
 -14   4   1 43368.3 1717.95   4
 -13   3   1 44507.6 1646.22   4
 -12   2   1 31319.1 1284.17   4
 -12   2   1 31165.5 907.012   1
 -12   2   1 33281.2 1150.66   6
 -11   1   1 3457.37 267.827   1
 -11   1   1 3295.93 374.800   4
 -11   1   1 3423.88 321.644   6
 -10   0   1-10.9195 33.3936   5
 -10   0   1 48.3135 60.9978   1
 -10   0   1-16.8448 59.7869   6
  -9  -1   1 1050.79 155.877   5
  -9  -1   1 996.065 142.008   1
  -8  -2   1 26080.8 903.943   5
  -8  -2   1 27716.9 825.273   1
  -7  -3   1 52938.8 1466.88   5
  -7  -3   1 51846.1 1248.41   1
  -6  -4   1 94595.7 2274.13   5
  -6  -4   1 94310.0 1936.28   1
  -5  -5   1 50531.9 1592.83   5
  -5  -5   1 50343.8 1289.05   1
  -4  -6   1 25816.6 1148.68   5
  -4  -6   1 26412.5 885.413   1
  -3  -7   1 599.015 139.784   1
  -3  -7   1 279.422 149.909   5
  -3  -7   1 326.844 100.722   2
  -2  -8   1 366.503 121.590   1
  -2  -8   1 284.519 114.987   2
  -1  -9   1 19436.8 783.641   2
  -1  -9   1 20306.2 827.525   1
  -1  -9   1 20325.8 1042.49   6
   0 -10   1 22909.5 877.347   2
   0 -10   1 24001.7 928.065   1
   0 -10   1 22355.1 1169.14   6
   1 -11   1 26047.4 995.859   1
   1 -11   1 24694.8 1303.12   6
   2 -12   1 18867.8 850.122   1
   2 -12   1 17620.2 1158.88   6
 -16   8   1 1315.06 347.428   4
 -15   7   1 111.808 165.871   4
 -14   6   1 10129.6 835.189   4
 -13   5   1 28180.1 794.763   2
 -13   5   1 26309.3 1291.33   4
 -12   4   1 62531.5 1709.72   7
 -12   4   1 58739.6 1379.98   2
 -12   4   1 60605.2 1929.78   4
 -11   3   1 65910.4 1915.16   4
 -11   3   1 63985.8 1685.83   7
 -11   3   1 65143.9 1757.00   6
 -10   2   1 27267.9 966.283   7
 -10   2   1 26418.7 1067.31   4
 -10   2   1 26832.2 749.089   1
 -10   2   1 27589.4 969.735   6
  -9   1   1 989.683 125.944   1
  -9   1   1 1035.09 162.165   6
  -8   0   1-17.0292 46.9045   1
  -8   0   1-35.4306 51.1538   5
  -8   0   1-30.6020 71.0943   6
  -7  -1   1 20717.7 628.296   1
  -7  -1   1 21000.8 689.423   5
  -6  -2   1 82715.9 1807.39   5
  -6  -2   1 82749.3 1615.97   1
  -5  -3   1 93309.0 2058.63   5
  -5  -3   1 89765.5 1779.33   1
  -4  -4   1 109691. 2459.95   5
  -4  -4   1 112997. 2123.75   1
  -3  -5   1 87534.7 2192.83   5
  -3  -5   1 87730.3 1816.72   1
  -2  -6   1 11804.2 732.533   5
  -2  -6   1 11090.6 498.009   2
  -2  -6   1 10673.5 517.225   1
  -1  -7   1 2077.81 320.440   5
  -1  -7   1 2621.83 263.512   1
   0  -8   1 7369.85 458.022   1
   0  -8   1 8008.20 603.204   6
   1  -9   1 17907.0 755.007   1
   1  -9   1 17450.8 969.745   6
   2 -10   1 37328.4 1179.12   1
   2 -10   1 35048.0 1513.74   6
   3 -11   1 31880.9 1090.31   1
   3 -11   1 29548.3 1465.22   6
   4 -12   1 20155.3 848.520   1
   4 -12   1 17890.6 1177.87   6
 -14   8   1 7004.54 751.951   4
 -13   7   1 261.830 123.753   4
 -12   6   1 8175.28 691.691   4
 -11   5   1 40805.3 878.976   2
 -11   5   1 40192.2 1517.37   4
 -11   5   1 40533.8 1287.76   7
 -10   4   1 66465.9 1337.56   2
 -10   4   1 66759.4 1892.72   4
 -10   4   1 64327.0 1789.09   6
 -10   4   1 64630.9 1658.94   7
  -9   3   1 101853. 2256.83   6
  -8   2   1 27884.2 683.060   1
  -8   2   1 27612.8 900.458   6
  -7   1   1 20521.7 454.949   5
  -7   1   1 22367.0 716.306   6
  -7   1   1 21970.5 724.820   7
  -7   1   1 21092.8 563.574   1
  -6   0   1 10.7057 42.8619   5
  -6   0   1 104.803 43.8697   1
  -5  -1   1 20491.2 637.443   5
  -5  -1   1 19817.8 555.904   1
  -4  -2   1 31868.0 935.964   5
  -4  -2   1 32424.8 791.810   1
  -3  -3   1 51993.5 1201.52   1
  -3  -3   1 71201.4 1573.69   5
  -2  -4   1 104713. 2309.71   5
  -2  -4   1 103659. 1955.08   1
  -1  -5   1 67292.5 1389.61   2
  -1  -5   1 69043.6 1819.63   5
  -1  -5   1 67752.4 1460.84   1
   0  -6   1 18697.0 904.758   5
   0  -6   1 18934.0 677.257   1
   0  -6   1 18212.0 615.714   2
   1  -7   1 1441.01 242.659   6
   1  -7   1 1206.05 247.535   5
   1  -7   1 1361.40 163.642   2
   1  -7   1 1246.86 174.687   1
   2  -8   1 14479.4 569.482   2
   2  -8   1 14487.4 869.318   5
   2  -8   1 14964.9 645.729   1
   2  -8   1 14411.0 823.603   6
   3  -9   1 16152.3 611.971   2
   3  -9   1 15999.2 693.588   1
   3  -9   1 15314.4 917.993   6
   4 -10   1 33198.7 1477.25   6
   4 -10   1 33927.1 1090.60   1
   5 -11   1 26661.4 974.993   1
   5 -11   1 25528.2 1359.02   6
   6 -12   1 23584.2 1384.12   6
 -13   9   1 11707.2 968.545   4
 -12   8   1 1871.21 370.785   4
 -11   7   1 5342.47 564.010   4
 -11   7   1 4973.11 433.707   7
 -10   6   1 15463.8 739.673   7
 -10   6   1 16361.9 596.255   5
 -10   6   1 14752.9 887.384   4
  -9   5   1 32874.4 618.322   2
  -9   5   1 35137.9 893.274   5
  -9   5   1 37239.6 1334.94   4
  -9   5   1 38005.8 1121.40   7
  -8   4   1 55253.7 1162.07   5
  -8   4   1 56595.3 1033.12   2
  -8   4   1 54574.1 1530.82   6
  -7   3   1 55691.5 1306.64   7
  -7   3   1 55255.0 1063.37   5
  -6   2   1 88323.0 1394.62   5
  -6   2   1 86490.2 1723.04   7
  -6   2   1 87119.4 1452.26   1
  -5   1   1 20308.9 472.810   1
  -5   1   1 22770.0 640.389   7
  -5   1   1 20789.1 622.407   6
  -4   0   1 52.0193 38.7494   1
  -3  -1   1 42011.0 911.285   5
  -3  -1   1 41569.7 843.577   1
  -2  -2   1 1575.91 174.028   5
  -2  -2   1 1395.95 132.650   1
  -1  -3   1 46787.3 1013.39   1
  -1  -3   1 46843.2 1214.86   5
  -1  -3   1 46164.2 963.447   2
   0  -4   1 157006. 2635.27   1
   0  -4   1 154845. 2981.94   5
   0  -4   1 153542. 2534.19   2
   1  -5   1 93232.0 1793.48   1
   1  -5   1 87801.2 2114.31   5
   1  -5   1 92215.1 1689.92   2
   2  -6   1 11442.8 444.170   2
   2  -6   1 12167.6 519.570   1
   2  -6   1 12800.0 705.652   5
   2  -6   1 11556.6 638.705   6
   3  -7   1 2939.88 224.125   2
   3  -7   1 3035.48 267.585   1
   3  -7   1 3271.90 375.385   5
   3  -7   1 3788.63 398.571   6
   4  -8   1 3402.65 297.106   1
   4  -8   1 3596.11 248.152   2
   4  -8   1 3233.21 390.117   6
   4  -8   1 3468.83 408.229   5
   5  -9   1 11016.4 435.963   2
   5  -9   1 11439.8 794.841   6
   5  -9   1 10979.4 556.490   1
   6 -10   1 17368.9 731.672   1
   6 -10   1 18276.5 1086.22   6
   7 -11   1 17496.1 1131.75   6
 -12  10   1 24673.6 1466.23   4
 -11   9   1 13289.7 996.750   4
 -10   8   1 1306.30 229.464   5
 -10   8   1 1279.92 232.982   7
 -10   8   1 1287.96 290.189   4
  -9   7   1 3684.06 350.458   5
  -9   7   1 3859.88 455.456   4
  -9   7   1 4259.15 292.785   3
  -9   7   1 3467.54 341.865   7
  -8   6   1 10857.1 458.205   3
  -8   6   1 10868.5 576.915   5
  -8   6   1 10088.9 685.121   4
  -8   6   1 9785.70 543.658   7
  -7   5   1 33847.8 1010.34   5
  -7   5   1 32741.5 1187.24   4
  -7   5   1 33586.6 840.181   3
  -7   5   1 33147.4 1184.12   6
  -6   4   1 102115. 1786.95   3
  -6   4   1 101981. 1960.44   5
  -6   4   1 101966. 2009.62   7
  -5   3   1 96655.2 1427.45   2
  -5   3   1 100734. 1846.56   7
  -5   3   1 96943.7 1710.95   5
  -5   3   1 91685.2 1455.46   2
  -5   3   1 96574.2 1615.64   3
  -4   2   1 34347.7 678.465   5
  -4   2   1 34314.8 820.447   7
  -4   2   1 32792.3 651.173   3
  -3   1   1 43120.8 870.673   7
  -3   1   1 40934.4 678.120   1
  -2   0   1 16.1389 21.3110   2
  -2   0   1 25.9211 29.9847   4
   0  -2   1 44372.6 991.813   5
   0  -2   1 42784.4 884.582   1
   0  -2   1 43338.6 838.581   2
   1  -3   1 68897.5 1229.84   2
   1  -3   1 67163.9 1481.78   5
   1  -3   1 67070.0 1304.69   1
   2  -4   1 197939. 3081.43   2
   2  -4   1 195026. 3214.24   1
   2  -4   1 198010. 3508.02   5
   2  -4   1 198753. 3444.06   6
   3  -5   1 86671.1 1567.83   2
   3  -5   1 86238.5 1984.05   5
   3  -5   1 85621.3 1709.19   1
   3  -5   1 86365.6 1961.18   6
   4  -6   1 31955.6 1121.82   5
   4  -6   1 30349.8 764.717   2
   4  -6   1 31897.2 906.245   1
   4  -6   1 30692.5 1122.76   6
   5  -7   1 324.063 143.075   5
   5  -7   1 206.576 86.4063   1
   5  -7   1 234.478 56.8340   2
   5  -7   1 259.727 128.817   6
   6  -8   1 643.150 189.673   6
   6  -8   1 638.347 176.153   5
   6  -8   1 942.040 166.498   1
   6  -8   1 819.040 108.760   2
   7  -9   1 26026.7 899.735   1
   7  -9   1 24814.4 1100.01   5
   7  -9   1 25317.3 1227.98   6
   8 -10   1 17947.8 743.114   1
   8 -10   1 16827.5 1067.69   6
   9 -11   1 23561.1 1355.34   6
 -11  11   1 31875.8 1711.32   4
 -10  10   1 15300.9 1099.38   4
  -9   9   1 12652.1 788.100   5
  -9   9   1 12901.8 931.507   4
  -8   8   1 5202.57 487.018   5
  -8   8   1 5273.21 546.422   4
  -8   8   1 5540.32 444.805   7
  -7   7   1 1620.46 263.266   5
  -7   7   1 1485.37 216.820   7
  -6   6   1 11208.7 634.422   5
  -6   6   1 11486.6 693.211   6
  -5   5   1 53666.0 1409.31   5
  -5   5   1 53259.9 1300.72   7
  -4   4   1 117842. 2254.11   5
  -4   4   1 118996. 2200.35   7
  -3   3   1 74846.3 1459.17   5
  -3   3   1 74931.2 1469.89   7
  -2   2   1 1379.39 118.294   5
  -2   2   1 1496.43 132.036   7
  -1   1   1 36185.0 669.186   5
  -1   1   1 36173.1 618.997   2
   1  -1   1 70899.6 1194.10   2
   2  -2   1 349069. 5070.05   2
   2  -2   1 346464. 5189.29   5
   2  -2   1 344179. 5215.06   6
   3  -3   1 276283. 4183.23   2
   3  -3   1 273381. 4417.90   5
   3  -3   1 289761. 4475.54   6
   4  -4   1 162356. 2893.21   5
   4  -4   1 159354. 2567.04   2
   4  -4   1 157270. 2927.03   6
   5  -5   1 55693.6 1424.37   5
   5  -5   1 55884.0 1274.70   1
   5  -5   1 55678.1 1130.12   2
   5  -5   1 57026.7 1514.73   6
   6  -6   1 15676.6 712.471   5
   6  -6   1 15826.5 499.696   2
   6  -6   1 14737.0 764.458   6
   6  -6   1 15442.9 610.142   1
   7  -7   1 7846.24 518.273   5
   7  -7   1 7160.12 425.598   1
   7  -7   1 7637.89 584.768   6
   8  -8   1 6765.31 498.203   5
   8  -8   1 6548.97 430.909   1
   8  -8   1 8235.03 651.203   6
   9  -9   1 11085.8 673.044   5
   9  -9   1 11988.5 596.279   1
   9  -9   1 11540.4 829.915   6
  10 -10   1 18236.5 1131.74   6
  -9  11   1 17443.6 1200.97   4
  -8  10   1 13835.1 933.771   5
  -7   9   1 11342.8 662.090   7
  -7   9   1 13105.8 855.530   5
  -6   8   1 16174.2 758.433   7
  -6   8   1 18368.1 977.274   5
  -5   7   1 173.641 104.132   5
  -5   7   1 376.347 120.181   7
  -4   6   1 28573.5 1083.34   5
  -3   5   1 90564.0 2044.61   5
  -2   4   1 111110. 2163.44   5
  -2   4   1 106908. 1736.64   1
  -1   3   1 50419.4 854.075   1
  -1   3   1 47469.8 1115.01   5
  -1   3   1 46912.6 1089.53   6
   0   2   1 43474.3 732.373   1
   0   2   1 43697.3 871.521   6
   1   1   1 71422.3 1136.68   1
   3  -1   1 1967.42 145.755   2
   3  -1   1 1758.25 127.674   4
   3  -1   1 2004.66 109.759   7
   3  -1   1 1756.83 124.720   6
   4  -2   1 35633.1 756.447   5
   4  -2   1 34312.0 786.682   2
   4  -2   1 36186.7 698.446   7
   4  -2   1 34815.9 847.043   6
   5  -3   1 177088. 2987.36   5
   5  -3   1 180656. 2925.53   2
   5  -3   1 187902. 2848.94   7
   5  -3   1 179800. 3131.41   6
   6  -4   1 66462.0 1455.44   5
   6  -4   1 68195.0 1341.37   2
   6  -4   1 69114.1 1329.72   7
   6  -4   1 67578.5 1610.53   6
   7  -5   1 49660.3 1235.77   5
   7  -5   1 48259.5 1411.23   6
   8  -6   1 34048.6 1027.45   5
   8  -6   1 33401.3 1227.64   6
   9  -7   1 1988.94 235.353   1
   9  -7   1 1967.17 236.098   5
   9  -7   1 2235.00 331.826   6
  10  -8   1 8800.84 512.329   5
  10  -8   1 8437.32 688.538   6
  10  -8   1 8457.61 501.357   1
  10  -8   1 8500.51 453.509   1
  11  -9   1 13208.2 651.445   1
  11  -9   1 12679.5 894.181   6
  12 -10   1 17249.3 1133.67   6
  -7  11   1 18764.5 1185.67   5
  -6  10   1 30319.7 1469.03   5
  -5   9   1 24032.6 1243.45   5
  -5   9   1 24321.7 987.429   7
  -4   8   1 7273.54 646.538   5
  -4   8   1 7940.63 512.730   7
  -3   7   1 224.798 160.414   5
  -2   6   1 11455.3 438.724   1
  -2   6   1 12594.6 714.755   5
  -1   5   1 70607.9 1789.63   5
  -1   5   1 72402.4 1370.32   1
   0   4   1 161321. 2995.78   5
   0   4   1 162506. 2580.13   1
   1   3   1 69367.8 1224.74   1
   2   2   1 335601. 4898.76   1
   3   1   1 1416.20 125.836   5
   4   0   1 40.7735 27.9444   5
   4   0   1 90.5587 40.4571   1
   4   0   1 25.0035 31.1402   3
   4   0   1 10.2280 21.3500   6
   4   0   1 74.2548 44.6047   4
   5  -1   1 11263.9 376.969   6
   5  -1   1 10892.6 436.495   4
   5  -1   1 11630.2 387.636   1
   5  -1   1 10774.3 373.460   7
   6  -2   1 16505.5 498.153   7
   6  -2   1 15609.1 410.305   5
   6  -2   1 16706.5 566.385   6
   6  -2   1 15253.9 589.047   4
   6  -2   1 16128.0 504.878   1
   7  -3   1 106061. 1799.04   5
   7  -3   1 104472. 1891.67   1
   7  -3   1 103156. 1884.88   7
   7  -3   1 101739. 2069.26   6
   8  -4   1 84834.1 1664.90   7
   8  -4   1 82338.9 1547.97   5
   8  -4   1 81558.3 1619.36   1
   8  -4   1 80224.4 1877.14   6
   9  -5   1 57954.1 1225.65   5
   9  -5   1 55770.2 1338.60   7
   9  -5   1 58576.6 1620.82   6
  10  -6   1 10146.2 434.545   5
  10  -6   1 10336.5 666.970   6
  11  -7   1 1105.65 148.235   5
  11  -7   1 1230.42 172.111   1
  11  -7   1 1177.88 253.510   6
  12  -8   1 6557.20 464.405   1
  12  -8   1 5926.01 597.317   6
  13  -9   1 7891.00 729.857   6
  -6  12   1 16026.6 1180.85   5
  -5  11   1 26522.3 1464.04   5
  -4  10   1 40831.5 1773.25   5
  -3   9   1 8591.63 759.869   5
  -2   8   1 257.492 152.765   5
  -2   8   1 510.654 121.181   1
  -1   7   1 2414.05 357.278   5
  -1   7   1 2600.46 231.890   1
   0   6   1 19500.1 932.864   5
   0   6   1 20033.9 650.432   1
   1   5   1 95342.4 1789.04   1
   2   4   1 203650. 3257.04   1
   3   3   1 269219. 4517.07   5
   3   3   1 277725. 4199.18   1
   4   2   1 36268.3 919.939   5
   4   2   1 34729.0 793.471   1
   5   1   1 11805.7 423.274   5
   6   0   1 6.34539 28.1490   5
   6   0   1 92.7962 53.7300   1
   6   0   1 75.0324 73.1452   4
   7  -1   1 3436.32 242.230   7
   7  -1   1 3414.02 281.119   4
   7  -1   1 3627.20 154.025   5
   7  -1   1 3420.19 226.291   6
   7  -1   1 3992.98 245.673   1
   8  -2   1 53579.3 1179.63   1
   8  -2   1 53073.3 1206.95   7
   8  -2   1 53385.0 1396.96   4
   8  -2   1 52424.2 1241.78   6
   9  -3   1 82964.9 1726.81   7
   9  -3   1 85242.4 1865.47   6
   9  -3   1 84377.6 1691.57   1
  10  -4   1 76912.9 1705.36   7
  10  -4   1 77392.5 1877.09   6
  11  -5   1 33350.2 614.598   5
  11  -5   1 37152.6 1090.23   7
  11  -5   1 37952.1 1024.78   1
  11  -5   1 37542.2 1286.07   6
  12  -6   1 6419.59 188.176   5
  12  -6   1 6573.83 447.554   7
  12  -6   1 7304.82 425.573   1
  12  -6   1 6534.09 551.829   6
  13  -7   1 344.387 147.647   6
  14  -8   1 1991.79 361.353   6
  15  -9   1 6413.71 692.389   6
  -5  13   1 11541.0 1065.33   5
  -4  12   1 18593.9 1308.57   5
  -3  11   1 43817.9 1971.30   5
  -2  10   1 13027.3 999.579   5
  -1   9   1 21309.1 1218.81   5
  -1   9   1 19403.0 776.485   1
   0   8   1 8178.77 707.767   5
   0   8   1 7480.40 451.413   1
   1   7   1 1455.81 188.935   1
   1   7   1 1700.55 303.134   5
   2   6   1 11876.3 525.613   1
   3   5   1 88527.0 1775.47   1
   4   4   1 161911. 2765.87   1
   5   3   1 183818. 3332.87   5
   6   2   1 16104.6 623.417   5
   7   1   1 3623.66 254.984   5
   7   1   1 3403.41 293.552   4
   8   0   1 27.9276 40.8211   5
   8   0   1 20.1898 45.2784   1
   8   0   1 60.2313 68.8773   4
   9  -1   1 13124.6 357.048   5
   9  -1   1 13418.6 650.424   4
   9  -1   1 14067.2 582.382   7
  10  -2   1 86297.8 2096.83   4
  10  -2   1 88915.5 1883.74   7
  10  -2   1 89056.6 1879.45   6
  11  -3   1 54851.8 1656.78   4
  11  -3   1 53460.5 1455.30   6
  11  -3   1 56563.5 1427.17   7
  11  -3   1 57226.1 1345.10   1
  12  -4   1 43699.9 1181.57   1
  12  -4   1 43145.2 1271.48   7
  12  -4   1 45898.9 1401.33   6
  13  -5   1 22946.7 821.874   1
  13  -5   1 23584.0 925.093   7
  13  -5   1 23471.7 1039.59   6
  14  -6   1 10686.2 640.522   7
  14  -6   1 10796.8 745.354   6
  15  -7   1 651.773 202.388   6
  16  -8   1 3035.48 459.702   6
  -3  13   1 7231.03 867.988   5
  -2  12   1 24403.4 1544.45   5
  -1  11   1 15924.3 1188.00   5
   0  10   1 22339.4 1355.24   5
   0  10   1 22097.9 919.356   1
   1   9   1 18334.7 1147.61   5
   1   9   1 18160.8 805.317   1
   2   8   1 14848.1 692.671   1
   2   8   1 15824.9 1019.82   5
   3   7   1 3833.44 465.781   5
   3   7   1 3490.13 319.042   1
   4   6   1 30688.0 967.513   1
   5   5   1 55294.1 1339.90   1
   7   3   1 104669. 2290.36   5
   8   2   1 53834.1 1385.26   5
   9   1   1 12860.9 551.189   1
   9   1   1 14067.7 562.483   5
   9   1   1 14257.4 707.750   4
  10   0   1-28.2116 73.4912   5
  10   0   1-11.4804 80.2281   4
  10   0   1-13.2997 48.1466   7
  10   0   1 27.7767 56.6485   1
  10   0   1-18.7295 43.8301   3
  11  -1   1 1682.90 250.167   4
  11  -1   1 1870.78 209.669   1
  11  -1   1 2385.67 260.818   7
  12  -2   1 20508.7 761.873   1
  12  -2   1 22755.0 866.070   7
  13  -3   1 32490.9 1017.04   1
  13  -3   1 33164.2 1137.56   6
  13  -3   1 32746.7 1121.87   7
  14  -4   1 28221.2 952.300   1
  14  -4   1 28761.2 1090.35   7
  14  -4   1 27543.8 1114.60   6
  15  -5   1 24157.3 1119.47   6
  15  -5   1 26014.8 1067.93   7
  16  -6   1 10299.9 765.791   6
  16  -6   1 9902.34 663.422   7
  17  -7   1 156.794 115.112   6
  -1  13   1 10361.9 1045.49   5
   0  12   1 18869.5 1378.28   5
   1  11   1 25970.7 1569.39   5
   2  10   1 38215.3 1830.60   5
   3   9   1 16371.4 810.843   1
   3   9   1 19235.4 1209.08   5
   4   8   1 3714.67 355.575   1
   4   8   1 3602.05 513.138   5
   5   7   1 414.158 176.651   5
   5   7   1 163.590 93.0745   1
   6   6   1 15092.9 916.509   5
   6   6   1 14706.1 681.413   1
   7   5   1 54785.3 1735.11   5
   7   5   1 50304.8 1353.31   1
  10   2   1 88419.3 2004.09   5
  10   2   1 85666.9 1879.23   1
  10   2   1 86113.9 2189.79   4
  11   1   1 2190.99 235.074   5
  11   1   1 2173.36 299.539   4
  11   1   1 2127.50 271.288   7
  11   1   1 1805.01 221.261   1
  12   0   1 83.4279 50.1681   3
  12   0   1 89.0117 90.9004   4
  12   0   1 124.539 56.7863   5
  12   0   1-6.66263 56.3183   1
  12   0   1 20.2515 51.8692   7
  13  -1   1 10776.4 566.417   1
  13  -1   1 12480.7 670.865   7
  14  -2   1 14800.9 758.718   7
  15  -3   1 27502.9 1105.70   7
  16  -4   1 35931.6 1330.15   7
  17  -5   1 20650.1 1018.87   7
   1  13   1 11329.7 1127.58   5
   2  12   1 20274.3 1450.21   5
   3  11   1 34690.6 1840.76   5
   4  10   1 37537.2 1841.76   5
   5   9   1 11375.1 957.852   5
   6   8   1 407.730 225.682   5
   7   7   1 8352.82 746.716   5
   8   6   1 37754.6 1552.90   5
   9   5   1 60079.3 1929.07   5
  10   4   1 77143.3 2132.98   5
  12   2   1 22563.4 909.984   5
  13   1   1 12474.8 565.006   5
  13   1   1 13491.5 740.522   7
  14   0   1-10.7072 73.6467   7
  14   0   1 24.9577 49.7195   3
  15  -1   1 9968.08 650.018   7
  16  -2   1 14810.4 828.452   7
  17  -3   1 22924.9 1085.76   7
  18  -4   1 26648.3 1220.00   7
   4  12   1 18572.7 1422.56   5
   5  11   1 26531.5 1647.29   5
   6  10   1 18063.6 1302.62   5
   7   9   1 27669.3 1548.93   5
   8   8   1 7841.09 781.885   5
   9   7   1 3017.75 468.458   5
  10   6   1 11941.3 877.406   5
  11   5   1 38422.0 1535.87   5
  12   4   1 44791.6 1597.31   5
  14   2   1 15179.6 852.229   7
  14   2   1 14707.9 719.633   5
  15   1   1 9627.97 465.154   5
  15   1   1 9672.35 679.529   7
  15   1   1 8967.00 493.346   3
  16   0   1 59.4503 100.034   7
  17  -1   1 6846.91 586.283   7
  18  -2   1 10360.3 748.117   7
  19  -3   1 21202.8 1132.47   7
  20  -4   1 17863.5 1064.77   7
   6  12   1 28187.9 1813.48   5
   7  11   1 18572.6 1400.37   5
   8  10   1 17565.2 1321.33   5
   9   9   1 14572.6 1158.24   5
  10   8   1 8365.16 824.143   5
  11   7   1 495.450 247.898   5
  12   6   1 8237.55 741.676   5
  13   5   1 24169.0 1225.58   5
  14   4   1 28356.3 1263.01   5
  15   3   1 27426.2 1126.51   5
  15   3   1 26227.7 1229.30   7
  16   2   1 15088.8 708.953   5
  16   2   1 13493.9 860.892   7
  17   1   1 5468.96 552.914   7
  18   0   1-48.4131 121.424   7
  19  -1   1 5228.26 563.796   7
  20  -2   1 12282.4 893.811   7
  21  -3   1 22838.9 1264.46   7
   9  11   1 24004.0 1647.34   5
  10  10   1 19126.9 1400.36   5
  11   9   1 12580.3 1100.11   5
  12   8   1 5323.96 693.062   5
  13   7   1 598.579 197.218   5
  14   6   1 13159.2 961.733   5
  15   5   1 24803.2 1277.48   5
  16   4   1 37150.0 1459.53   5
  16   4   1 32877.3 1484.57   7
  17   3   1 23955.1 1032.38   5
  17   3   1 22597.1 1216.55   7
  18   2   1 10720.4 827.975   7
  19   1   1 5411.62 591.918   7
  20   0   1-45.6903 87.8481   7
  21  -1   1 1096.83 276.728   7
  12  10   1 17620.7 1386.49   5
  13   9   1 8091.08 889.531   5
  14   8   1 2277.76 492.095   5
  15   7   1 1111.97 337.086   5
  16   6   1 10337.7 875.958   5
  17   5   1 18670.5 1107.09   5
  17   5   1 19432.7 1188.66   7
  18   4   1 24639.5 1335.34   7
  19   3   1 19844.0 1202.71   7
  20   2   1 12688.8 960.910   7
  14  10   1 15558.5 1328.39   5
  15   9   1 7442.03 875.128   5
  16   8   1 3000.88 563.544   5
  17   7   1 284.815 273.727   5
  17   9   1 7079.49 891.931   5
 -21  -1   0 15972.5 973.849   1
 -20  -2   0 9255.45 726.936   1
 -19  -3   0 2458.86 379.215   1
 -18  -4   0 728.331 234.350   1
 -17  -5   0 8575.21 691.507   1
 -16  -6   0 18755.4 1041.37   1
 -15  -7   0 28080.5 1281.31   1
 -14  -8   0 27325.6 1266.09   1
 -13  -9   0 22081.4 1135.43   1
 -12 -10   0 4574.31 509.207   1
 -11 -11   0 560.702 200.409   1
 -10 -12   0 5009.48 601.216   6
 -21   1   0 16593.1 1128.60   2
 -20   0   0 21427.6 1290.11   2
 -20   0   0 21934.7 1085.38   1
 -19  -1   0 21900.0 1077.16   1
 -18  -2   0 6901.40 588.146   1
 -17  -3   0 1730.63 301.629   1
 -16  -4   0 409.868 170.432   1
 -15  -5   0 5323.61 504.879   1
 -14  -6   0 20777.0 1028.94   1
 -13  -7   0 27171.4 1189.83   1
 -12  -8   0 28236.9 1214.29   1
 -11  -9   0 11977.9 783.200   1
 -10 -10   0 2276.22 341.781   1
  -9 -11   0 805.778 241.417   6
  -9 -11   0 549.967 176.053   1
  -8 -12   0 5550.18 619.489   6
  -8 -12   0 5475.11 533.094   1
  -7 -13   0 7522.41 639.588   1
  -7 -13   0 7716.20 758.675   6
 -20   2   0 11066.7 844.513   2
 -19   1   0 19337.3 1131.37   2
 -18   0   0 46852.7 1551.05   1
 -17  -1   0 28531.8 1160.96   1
 -16  -2   0 11882.8 720.943   1
 -15  -3   0 2946.30 306.294   5
 -15  -3   0 3199.61 370.083   1
 -15  -3   0 2526.75 289.688   6
 -14  -4   0 247.489 114.986   5
 -14  -4   0 315.300 133.612   1
 -13  -5   0 6418.07 519.138   1
 -12  -6   0 20860.5 956.518   1
 -11  -7   0 30891.3 1195.41   1
 -10  -8   0 24009.7 1054.90   1
  -9  -9   0 11242.5 711.696   1
  -8 -10   0 953.464 229.371   1
  -7 -11   0 735.687 239.648   6
  -7 -11   0 1208.96 254.923   1
  -6 -12   0 3450.07 500.494   6
  -6 -12   0 3630.49 421.208   1
  -5 -13   0 9208.71 673.426   1
  -5 -13   0 7767.20 774.289   6
 -18   2   0 6086.52 580.659   2
 -17   1   0 28371.6 1098.93   1
 -16   0   0 49386.7 1506.48   1
 -15  -1   0 38874.4 873.116   5
 -15  -1   0 36553.7 1220.00   6
 -15  -1   0 38066.7 1280.32   1
 -14  -2   0 18329.1 688.248   5
 -14  -2   0 18298.5 774.737   6
 -14  -2   0 19109.4 852.420   1
 -13  -3   0 3740.51 344.544   5
 -13  -3   0 3017.87 329.024   1
 -12  -4   0 1527.75 248.629   5
 -12  -4   0 2028.84 269.161   1
 -11  -5   0 16155.8 785.572   1
 -11  -5   0 16553.2 884.791   5
 -10  -6   0 19759.9 874.122   1
  -9  -7   0 33553.7 1184.17   1
  -8  -8   0 39093.9 1311.20   1
  -7  -9   0 17731.4 849.877   1
  -6 -10   0 2457.90 370.816   6
  -6 -10   0 3058.72 359.045   1
  -5 -11   0 627.011 228.625   6
  -5 -11   0 619.121 191.962   1
  -4 -12   0 6080.94 511.726   1
  -4 -12   0 5436.69 612.706   6
  -3 -13   0 9646.30 652.277   1
  -3 -13   0 8597.47 819.492   6
 -18   4   0 1138.11 309.242   4
 -17   3   0 1303.81 317.341   4
 -17   3   0 1766.75 275.751   2
 -16   2   0 10223.2 698.016   2
 -15   1   0 36712.6 1188.83   1
 -14   0   0 54077.6 1511.86   6
 -14   0   0 54378.6 1491.55   1
 -13  -1   0 40369.2 931.296   5
 -13  -1   0 40189.2 1184.87   6
 -13  -1   0 39822.9 1222.89   1
 -12  -2   0 11770.5 542.469   5
 -12  -2   0 11935.3 565.145   6
 -12  -2   0 12068.6 616.187   1
 -11  -3   0 286.162 113.205   1
 -11  -3   0 274.554 118.457   5
 -10  -4   0 8943.32 525.803   1
 -10  -4   0 8773.29 583.257   5
  -9  -5   0 11586.7 724.297   5
  -9  -5   0 12072.4 616.012   1
  -8  -6   0 32929.9 1353.49   5
  -8  -6   0 35742.8 1142.68   1
  -7  -7   0 46999.7 1375.66   1
  -6  -8   0 76243.9 1885.30   1
  -5  -9   0 34353.4 1166.88   1
  -5  -9   0 33727.7 1339.62   6
  -4 -10   0 20120.4 884.628   1
  -4 -10   0 21382.2 1101.53   6
  -3 -11   0 2777.46 413.507   6
  -3 -11   0 2238.65 287.605   1
  -2 -12   0 3322.02 490.529   6
  -2 -12   0 3544.18 369.199   1
  -1 -13   0 11412.2 681.840   1
  -1 -13   0 11135.2 930.798   6
 -18   6   0 13757.0 1113.30   4
 -17   5   0 8967.63 853.498   4
 -16   4   0 214.624 79.0919   2
 -16   4   0 359.767 205.885   4
 -15   3   0 3078.15 339.577   2
 -15   3   0 2864.87 427.066   4
 -14   2   0 18599.4 1032.51   4
 -13   1   0 40112.2 1259.00   6
 -13   1   0 40961.2 1173.47   1
 -12   0   0 31111.1 1007.53   6
 -12   0   0 31549.2 991.040   1
 -11  -1   0 31344.2 806.312   5
 -11  -1   0 32842.1 962.498   6
 -11  -1   0 31044.8 972.127   1
 -10  -2   0 28964.3 913.703   1
 -10  -2   0 27118.3 867.065   5
  -9  -3   0 1250.61 176.268   1
  -9  -3   0 1393.86 209.772   5
  -8  -4   0 8477.78 565.484   5
  -8  -4   0 9554.55 499.767   1
  -7  -5   0 10255.1 665.932   5
  -7  -5   0 11787.8 562.585   1
  -6  -6   0 29151.8 1224.36   5
  -6  -6   0 30100.5 976.943   1
  -5  -7   0 54374.5 1425.71   1
  -4  -8   0 30548.0 1019.70   1
  -3  -9   0 27431.5 976.757   1
  -3  -9   0 25799.7 1160.20   6
  -2 -10   0 3501.56 435.162   6
  -2 -10   0 3941.00 361.146   1
  -2 -10   0 3892.46 346.700   2
  -1 -11   0 155.266 116.693   6
  -1 -11   0 181.735 84.3193   1
   0 -12   0 3616.64 512.379   6
   0 -12   0 3590.00 353.463   1
   1 -13   0 10333.6 911.911   6
 -17   7   0 17458.3 1251.97   4
 -16   6   0 20439.1 1270.32   4
 -15   5   0 4658.01 357.921   2
 -15   5   0 4607.77 553.848   4
 -14   4   0 190.097 110.566   2
 -14   4   0 322.931 192.997   4
 -13   3   0 3510.40 327.529   2
 -13   3   0 2953.31 395.294   4
 -12   2   0 12369.7 770.606   4
 -12   2   0 13478.9 676.989   6
 -11   1   0 33821.7 1044.84   6
 -11   1   0 33342.6 955.304   1
 -11   1   0 33156.3 1238.47   4
 -10   0   0 24601.6 543.195   5
 -10   0   0 25580.1 812.342   6
 -10   0   0 25006.4 788.340   1
  -9  -1   0 55958.7 1185.79   5
  -9  -1   0 59135.5 1287.41   6
  -9  -1   0 55822.3 1309.03   1
  -8  -2   0 60289.9 1353.49   1
  -8  -2   0 59418.4 1383.14   5
  -7  -3   0 5062.25 379.257   5
  -7  -3   0 4612.68 305.650   1
  -6  -4   0 2473.67 233.459   1
  -6  -4   0 2692.62 306.301   5
  -5  -5   0 20923.5 934.029   5
  -5  -5   0 20404.6 717.605   1
  -4  -6   0 29776.9 1204.23   5
  -4  -6   0 29137.6 907.667   1
  -3  -7   0 58206.4 1852.46   5
  -3  -7   0 59286.2 1446.70   1
  -2  -8   0 62281.5 1516.57   1
  -2  -8   0 61112.4 1797.29   6
  -1  -9   0 35742.8 1045.43   2
  -1  -9   0 35455.6 1088.23   1
  -1  -9   0 34760.2 1370.90   6
   0 -10   0 2421.35 374.056   6
   0 -10   0 2720.10 281.610   1
   1 -11   0 136.239 113.848   6
   1 -11   0 123.169 101.034   1
   2 -12   0 4489.23 574.317   6
   2 -12   0 4584.80 378.191   1
 -16   8   0 15676.5 1173.64   4
 -15   7   0 28132.1 1500.73   4
 -14   6   0 23323.3 1264.51   4
 -13   5   0 6738.60 389.093   2
 -13   5   0 6836.91 626.985   4
 -12   4   0 1733.09 209.620   2
 -12   4   0 2088.85 321.988   4
 -11   3   0 318.449 115.331   6
 -11   3   0 310.665 132.013   4
 -11   3   0 365.742 107.115   2
 -10   2   0 28448.5 1092.83   4
 -10   2   0 29158.3 971.406   6
  -9   1   0 40082.3 1043.40   1
  -9   1   0 56102.5 1263.57   6
  -8   0   0 212764. 3198.29   5
  -8   0   0 217911. 3514.72   6
  -8   0   0 215789. 3481.05   1
  -7  -1   0 155891. 2644.24   1
  -7  -1   0 156028. 2595.40   5
  -6  -2   0 74566.2 1467.74   1
  -6  -2   0 72424.6 1570.49   5
  -5  -3   0 2791.36 216.502   1
  -5  -3   0 2455.74 263.589   5
  -4  -4   0 901.893 136.800   1
  -4  -4   0 792.164 177.386   5
  -3  -5   0 27732.8 1067.31   5
  -3  -5   0 28912.7 831.808   1
  -2  -6   0 55200.0 1684.90   5
  -2  -6   0 57476.6 1320.73   1
  -1  -7   0 74786.6 2098.53   5
  -1  -7   0 76183.0 1651.74   1
  -1  -7   0 77595.5 1970.00   6
   0  -8   0 59891.9 1419.07   1
   0  -8   0 57648.6 1334.21   2
   0  -8   0 59495.6 1767.59   6
   1  -9   0 34545.1 1370.21   6
   1  -9   0 33653.8 1008.37   1
   1  -9   0 33690.6 944.547   2
   2 -10   0 4690.35 311.564   2
   2 -10   0 4988.02 365.433   1
   2 -10   0 4395.54 504.807   6
   3 -11   0 2462.37 411.916   6
   3 -11   0 2803.40 279.909   1
   4 -12   0 5383.15 631.815   6
 -15   9   0 5455.49 695.510   4
 -14   8   0 28653.9 1511.11   4
 -13   7   0 30793.7 1462.84   4
 -12   6   0 23057.6 621.050   2
 -12   6   0 22229.5 1145.96   4
 -12   6   0 22777.3 932.653   7
 -11   5   0 17908.7 585.745   2
 -11   5   0 18687.5 968.017   4
 -11   5   0 18548.9 790.535   7
 -10   4   0 9227.87 415.713   2
 -10   4   0 10111.5 647.211   4
 -10   4   0 9766.67 609.227   6
  -9   3   0 1611.95 226.109   6
  -9   3   0 1613.77 244.169   4
  -9   3   0 1476.65 165.435   2
  -8   2   0 61928.9 1446.55   6
  -8   2   0 61271.8 1400.16   7
  -7   1   0 162492. 2754.29   6
  -7   1   0 160089. 2632.04   1
  -6   0   0 97824.2 1549.73   5
  -6   0   0 99814.6 1749.53   6
  -6   0   0 96619.6 1711.17   1
  -5  -1   0 116414. 1980.49   1
  -5  -1   0 117968. 2014.64   5
  -4  -2   0 9847.72 451.026   5
  -4  -2   0 10806.2 382.479   1
  -3  -3   0 841.003 114.911   1
  -3  -3   0 651.827 143.254   5
  -2  -4   0-53.9773 65.9654   1
  -2  -4   0-20.3202 81.4577   5
  -1  -5   0 14538.0 714.526   5
  -1  -5   0 14377.6 519.113   1
   0  -6   0 79638.5 2025.42   5
   0  -6   0 78657.1 1604.23   1
   0  -6   0 80873.8 1527.36   2
   0  -6   0 78990.5 1899.38   6
   1  -7   0 71770.9 1545.74   1
   1  -7   0 74459.9 2015.80   5
   1  -7   0 73793.5 1453.83   2
   1  -7   0 71532.3 1894.23   6
   2  -8   0 57647.9 1808.73   5
   2  -8   0 57659.4 1353.62   1
   2  -8   0 59377.2 1794.04   6
   2  -8   0 56788.3 1222.11   2
   3  -9   0 26639.8 726.693   2
   3  -9   0 26353.9 842.210   1
   3  -9   0 24891.0 1173.14   6
   4 -10   0 20963.6 747.174   1
   4 -10   0 20002.0 1102.25   6
   5 -11   0 681.987 140.726   1
   5 -11   0 912.428 260.826   6
   6 -12   0 3782.45 529.029   6
 -13   9   0 24865.9 1410.23   4
 -12   8   0 33610.9 1540.35   4
 -11   7   0 34884.8 1481.63   4
 -11   7   0 34332.9 1154.35   7
 -10   6   0 23055.6 508.480   2
 -10   6   0 23501.1 1100.89   4
 -10   6   0 21208.9 833.093   7
  -9   5   0 13555.2 410.119   2
  -9   5   0 13025.4 733.952   6
  -9   5   0 13302.1 747.556   4
  -8   4   0 9645.45 356.943   2
  -8   4   0 10108.7 595.656   4
  -8   4   0 9055.29 452.273   7
  -8   4   0 9242.08 560.453   6
  -7   3   0 5122.32 255.275   2
  -7   3   0 4958.79 304.248   7
  -7   3   0 4945.76 358.779   6
  -6   2   0 69754.6 1422.84   7
  -6   2   0 75608.1 1531.73   6
  -5   1   0 118534. 2183.72   4
  -5   1   0 118234. 2051.18   7
  -5   1   0 121657. 1945.93   1
  -5   1   0 120546. 2057.15   6
  -4   0   0 13602.5 307.568   5
  -4   0   0 13055.2 372.279   6
  -4   0   0 13264.8 366.083   1
  -3  -1   0 112534. 1887.58   5
  -3  -1   0 112225. 1797.39   1
  -2  -2   0 68972.8 1390.82   5
  -2  -2   0 66702.6 1197.64   1
  -1  -3   0 24408.4 781.275   5
  -1  -3   0 24494.9 603.569   1
   0  -4   0 5335.80 377.262   5
   0  -4   0 5283.59 265.141   1
   0  -4   0 6257.62 362.606   6
   1  -5   0 16385.7 732.885   5
   1  -5   0 16474.5 525.641   1
   1  -5   0 16919.5 469.068   2
   1  -5   0 16707.5 694.060   6
   2  -6   0 52842.4 1538.31   5
   2  -6   0 55626.5 1531.06   6
   2  -6   0 54367.3 1082.76   2
   3  -7   0 58300.8 1691.88   6
   3  -7   0 58247.1 1289.67   1
   3  -7   0 57904.8 1671.92   5
   3  -7   0 58438.6 1132.59   2
   4  -8   0 29838.0 1184.52   5
   4  -8   0 31003.5 703.163   2
   4  -8   0 31425.0 881.210   1
   4  -8   0 33182.1 1282.09   6
   5  -9   0 37204.9 1002.68   1
   5  -9   0 35130.4 1441.86   6
   6 -10   0 2291.81 372.438   6
   6 -10   0 2471.92 234.417   1
   7 -11   0 962.120 286.044   6
 -12  10   0 5074.01 633.030   4
 -11   9   0 14929.6 1038.43   4
 -10   8   0 30143.5 1391.68   4
 -10   8   0 30194.6 1049.24   7
  -9   7   0 37047.3 1463.48   4
  -9   7   0 38817.9 1141.25   7
  -8   6   0 38611.7 1114.76   5
  -8   6   0 39730.3 1402.54   4
  -7   5   0 12395.1 688.972   6
  -7   5   0 12394.3 316.930   2
  -7   5   0 12107.0 530.716   5
  -7   5   0 13558.8 698.567   4
  -7   5   0 13343.9 538.981   7
  -6   4   0 2878.17 145.158   2
  -6   4   0 2839.70 223.617   5
  -6   4   0 2621.79 210.584   7
  -5   3   0 3382.18 157.612   2
  -5   3   0 3422.32 206.266   5
  -5   3   0 2588.93 244.365   4
  -5   3   0 2779.43 195.333   7
  -4   2   0 12610.4 336.240   5
  -4   2   0 11306.2 311.387   2
  -4   2   0 11249.0 449.520   4
  -4   2   0 11040.2 363.720   7
  -4   2   0 10777.8 427.639   6
  -3   1   0 116014. 1730.42   1
  -3   1   0 117672. 1854.43   6
   0  -2   0 41816.6 921.548   5
   0  -2   0 40415.4 748.897   1
   1  -3   0 24679.9 556.717   1
   1  -3   0 24408.1 731.037   5
   1  -3   0 23779.7 483.238   2
   1  -3   0 23802.0 692.758   6
   2  -4   0 94.5723 52.1558   6
   2  -4   0 54.1097 76.7703   5
   2  -4   0 115.672 51.8022   1
   2  -4   0 164.988 39.5584   2
   3  -5   0 32817.4 656.105   2
   3  -5   0 31691.8 1006.68   5
   3  -5   0 32119.4 782.331   1
   3  -5   0 33468.5 1046.75   6
   4  -6   0 29851.5 1014.67   5
   4  -6   0 29347.6 761.437   1
   4  -6   0 27546.3 590.870   2
   4  -6   0 27972.2 1038.84   6
   5  -7   0 54616.1 1195.10   1
   5  -7   0 51295.6 1498.12   5
   5  -7   0 52670.9 1620.76   6
   6  -8   0 82768.2 1650.51   1
   6  -8   0 77658.2 2023.18   5
   6  -8   0 80014.2 2240.00   6
   7  -9   0 18435.9 898.370   5
   7  -9   0 20141.0 680.138   1
   7  -9   0 18434.4 1036.88   6
   8 -10   0 1860.74 347.661   6
   9 -11   0 550.836 213.013   6
 -11  11   0 578.719 269.661   4
 -10  10   0 1777.09 371.605   4
  -9   9   0 11983.5 881.833   4
  -8   8   0 41457.0 1409.57   5
  -8   8   0 43477.9 1610.20   4
  -8   8   0 40327.6 1205.20   7
  -7   7   0 48576.5 1490.76   5
  -6   6   0 31240.6 1084.31   5
  -6   6   0 32419.3 928.343   7
  -6   6   0 33286.3 1223.89   6
  -5   5   0 21311.1 813.811   5
  -5   5   0 22768.9 692.821   7
  -4   4   0 889.087 153.688   5
  -4   4   0 1180.02 71.5890   2
  -4   4   0 1242.21 133.006   7
  -3   3   0 808.631 126.947   5
  -3   3   0 1341.45 121.518   7
  -3   3   0 964.967 60.9137   2
  -2   2   0 71566.2 1334.10   5
  -2   2   0 73368.4 1228.02   7
   2  -2   0 79544.6 1383.29   5
   2  -2   0 75519.0 1418.00   6
   3  -3   0 1590.42 86.1993   2
   3  -3   0 1359.65 147.165   5
   3  -3   0 1987.50 196.580   6
   4  -4   0 1106.95 175.075   6
   4  -4   0 961.417 144.127   5
   4  -4   0 986.846 75.4594   2
   4  -4   0 1101.77 116.755   1
   5  -5   0 21992.1 753.766   5
   5  -5   0 22345.3 854.848   6
   5  -5   0 22418.0 625.723   1
   6  -6   0 29841.5 962.886   5
   6  -6   0 29796.3 804.047   1
   6  -6   0 30799.8 1117.57   6
   7  -7   0 48630.0 1382.77   5
   7  -7   0 52115.4 1184.84   1
   7  -7   0 51969.3 1631.52   6
   8  -8   0 37160.7 1203.04   5
   8  -8   0 39546.9 1011.70   1
   8  -8   0 38623.3 1478.62   6
   9  -9   0 12830.8 518.120   1
   9  -9   0 10503.0 628.514   5
   9  -9   0 12146.3 853.883   6
  10 -10   0 1477.89 338.918   6
  -9  11   0 264.497 137.171   4
  -8  10   0 1687.57 336.663   5
  -7   9   0 19775.2 1047.70   5
  -7   9   0 20781.9 836.403   7
  -6   8   0 81989.8 2256.03   5
  -5   7   0 58882.2 1412.02   7
  -5   7   0 57520.3 1741.12   5
  -4   6   0 32168.9 1163.78   5
  -4   6   0 32526.8 919.824   7
  -3   5   0 33317.3 1108.83   5
  -2   4   0 152.618 106.626   5
  -1   3   0 25819.2 802.403   5
  -1   3   0 26422.9 603.125   1
   0   2   0 40401.4 755.761   1
   3  -1   0 111691. 1787.37   7
   3  -1   0 113555. 1835.08   6
   3  -1   0 110341. 1885.59   4
   3  -1   0 113903. 1719.12   1
   4  -2   0 7730.44 240.366   5
   4  -2   0 7959.11 249.914   1
   4  -2   0 7784.25 347.181   6
   4  -2   0 8126.92 306.202   7
   5  -3   0 2578.12 162.087   5
   5  -3   0 2413.84 187.463   7
   5  -3   0 2616.36 152.554   1
   5  -3   0 2599.53 232.696   6
   6  -4   0 3257.67 219.975   5
   6  -4   0 3254.00 291.454   6
   6  -4   0 3615.07 255.822   7
   7  -5   0 12099.0 488.734   5
   7  -5   0 12800.2 659.593   6
   7  -5   0 12707.2 424.400   1
   8  -6   0 37511.3 1007.95   5
   8  -6   0 37567.1 964.073   1
   8  -6   0 38589.9 892.152   1
   8  -6   0 37908.0 1313.98   6
   9  -7   0 34412.3 1007.76   5
   9  -7   0 36857.8 892.030   1
   9  -7   0 36474.1 970.935   1
   9  -7   0 35501.9 1358.58   6
  10  -8   0 25862.1 874.343   5
  10  -8   0 27418.8 831.355   1
  10  -8   0 25523.1 1218.08   6
  11  -9   0 14463.7 969.625   6
  12 -10   0 3782.54 522.962   6
  -7  11   0 1032.42 267.808   5
  -6  10   0 3214.55 465.860   5
  -5   9   0 35980.9 1161.99   7
  -5   9   0 37942.2 1548.56   5
  -4   8   0 32761.8 1372.38   5
  -3   7   0 64057.6 1918.79   5
  -2   6   0 59086.9 1727.51   5
  -1   5   0 14486.4 738.691   5
  -1   5   0 15025.6 527.847   1
   0   4   0 6024.84 430.312   5
   0   4   0 6421.39 304.230   1
   1   3   0 24489.9 618.715   1
   2   2   0 77251.7 1349.60   1
   3   1   0 118146. 1984.15   5
   4   0   0 15070.7 394.719   1
   4   0   0 15960.3 369.673   5
   4   0   0 15352.6 451.435   7
   4   0   0 14875.2 495.089   4
   5  -1   0 117854. 1895.37   1
   5  -1   0 112830. 2120.77   4
   5  -1   0 114060. 1998.64   7
   5  -1   0 123364. 2021.18   6
   6  -2   0 69705.8 1547.50   4
   6  -2   0 70830.0 1401.65   7
   6  -2   0 70019.6 1457.97   6
   6  -2   0 70438.6 1267.47   1
   7  -3   0 5232.79 175.661   5
   7  -3   0 5545.02 323.541   7
   7  -3   0 4909.16 340.396   6
   7  -3   0 5770.24 262.885   1
   8  -4   0 9176.04 299.385   5
   8  -4   0 11062.8 504.681   7
   8  -4   0 10099.8 553.537   6
   8  -4   0 9198.08 366.874   1
   9  -5   0 12699.1 403.563   5
   9  -5   0 12696.6 588.921   7
   9  -5   0 13375.1 705.338   6
   9  -5   0 12523.9 460.973   1
  10  -6   0 20011.9 571.460   5
  10  -6   0 21296.6 980.464   6
  10  -6   0 18770.8 610.771   1
  11  -7   0 32792.8 822.052   5
  11  -7   0 33010.1 967.835   1
  11  -7   0 32592.4 1347.23   6
  11  -7   0 33026.0 866.994   1
  12  -8   0 28939.6 1350.44   6
  12  -8   0 30706.6 929.020   1
  13  -9   0 23426.3 1294.35   6
  -6  12   0 4561.96 639.160   5
  -5  11   0 937.257 286.243   5
  -4  10   0 20993.8 1235.79   5
  -4  10   0 21067.5 897.915   7
  -3   9   0 26982.3 1341.54   5
  -2   8   0 64613.4 2102.39   5
  -1   7   0 82039.9 2282.72   5
  -1   7   0 78743.1 1749.70   1
   0   6   0 87368.0 2282.24   5
   0   6   0 88810.7 1823.08   1
   1   5   0 17452.8 612.972   1
   2   4   0 136.384 66.4551   1
   3   3   0 1192.44 192.773   5
   3   3   0 1252.74 141.885   1
   4   2   0 8189.12 415.820   5
   5   1   0 115063. 1833.73   1
   5   1   0 117289. 2043.55   4
   6   0   0 102982. 1797.52   1
   6   0   0 104469. 1700.44   5
   6   0   0 101839. 2038.61   4
   6   0   0 108143. 1944.05   7
   7  -1   0 154118. 2564.57   1
   7  -1   0 159260. 2899.30   4
   7  -1   0 159355. 2742.28   7
   7  -1   0 160732. 2706.15   6
   8  -2   0 61658.4 1239.25   1
   8  -2   0 58361.6 1534.36   4
   8  -2   0 62861.2 1428.88   6
   8  -2   0 63661.1 1406.37   7
   9  -3   0 1074.39 128.647   1
   9  -3   0 892.250 153.971   7
   9  -3   0 1192.57 190.492   6
  10  -4   0 9341.50 409.795   1
  10  -4   0 10184.7 531.737   7
  10  -4   0 9396.67 564.997   6
  11  -5   0 16053.7 576.392   1
  11  -5   0 17562.4 765.096   7
  11  -5   0 16536.4 832.074   6
  12  -6   0 23514.4 952.861   7
  12  -6   0 22617.1 1065.71   6
  13  -7   0 29396.0 1314.89   6
  14  -8   0 29168.5 1418.16   6
  -5  13   0 9131.60 934.574   5
  -4  12   0 5690.53 711.953   5
  -3  11   0 3254.84 508.573   5
  -2  10   0 4608.88 577.953   5
  -1   9   0 35218.5 1160.65   1
  -1   9   0 34975.1 1586.24   5
   0   8   0 64824.5 2128.24   5
   0   8   0 61270.2 1588.39   1
   1   7   0 80364.4 2317.15   5
   1   7   0 78775.2 1821.96   1
   2   6   0 57194.0 1400.90   1
   3   5   0 34449.1 974.989   1
   4   4   0 945.809 150.111   1
   5   3   0 2280.80 277.062   5
   6   2   0 74793.5 1661.38   5
   7   1   0 151708. 2881.56   4
   7   1   0 156034. 2664.50   5
   7   1   0 151150. 2600.55   1
   8   0   0 211935. 3428.10   1
   8   0   0 213043. 3227.20   5
   8   0   0 207931. 3765.35   4
   8   0   0 206689. 3585.02   7
   9  -1   0 59214.5 1250.80   1
   9  -1   0 58110.3 1539.05   4
   9  -1   0 63047.7 1434.49   7
   9  -1   0 54963.8 948.455   3
  10  -2   0 30616.9 837.022   1
  10  -2   0 29968.6 1111.61   4
  10  -2   0 31999.8 994.274   7
  10  -2   0 31221.9 979.111   6
  11  -3   0 252.792 131.610   4
  11  -3   0 288.475 109.903   7
  11  -3   0 162.460 73.2279   6
  12  -4   0 1453.34 224.003   7
  12  -4   0 1657.36 252.180   6
  13  -5   0 5549.60 347.817   1
  13  -5   0 5856.78 467.808   7
  13  -5   0 5040.77 477.841   6
  14  -6   0 22761.2 1013.84   7
  14  -6   0 23259.4 1139.84   6
  15  -7   0 29598.6 1382.32   6
  16  -8   0 14663.5 1023.97   6
  -3  13   0 9362.51 954.676   5
  -2  12   0 4892.56 684.687   5
  -1  11   0 343.316 224.644   5
   0  10   0 2133.18 407.650   5
   0  10   0 2434.04 314.334   1
   1   9   0 36784.0 1656.24   5
   1   9   0 34408.4 1206.26   1
   2   8   0 62076.5 2123.85   5
   2   8   0 60110.2 1640.92   1
   3   7   0 59202.9 1556.67   1
   3   7   0 60731.3 2010.74   5
   4   6   0 28982.1 972.785   1
   5   5   0 23195.0 823.315   1
   7   3   0 5680.55 433.420   5
   8   2   0 62713.8 1511.33   5
   8   2   0 58259.5 1571.19   4
   9   1   0 59777.0 1345.86   5
   9   1   0 61609.1 1637.17   4
   9   1   0 59802.0 1501.47   7
  10   0   0 27514.3 1046.81   4
  10   0   0 27164.5 941.811   7
  11  -1   0 31280.9 926.741   1
  11  -1   0 32543.2 618.123   3
  11  -1   0 34352.5 1233.83   4
  11  -1   0 33651.1 1083.47   7
  12  -2   0 11455.2 528.117   1
  12  -2   0 11457.6 625.571   7
  13  -3   0 2680.05 251.925   1
  13  -3   0 2509.07 297.589   7
  14  -4   0 251.369 89.1081   7
  14  -4   0 194.432 99.0556   1
  15  -5   0 5167.79 477.270   7
  15  -5   0 5302.77 519.105   6
  16  -6   0 20455.9 1019.57   7
  16  -6   0 18586.0 1071.05   6
  17  -7   0 17247.3 1093.48   6
  -1  13   0 11243.7 1090.18   5
   0  12   0 3303.75 585.147   5
   1  11   0-226.478 243.017   5
   2  10   0 5031.01 650.494   5
   3   9   0 27022.6 1446.15   5
   4   8   0 30935.7 1145.72   1
   4   8   0 34523.4 1568.00   5
   5   7   0 54180.3 1543.99   1
   5   7   0 57700.2 1987.88   5
   6   6   0 33170.2 1392.36   5
   6   6   0 30443.1 1055.80   1
   7   5   0 13132.1 812.563   5
   7   5   0 13268.9 640.293   1
   9   3   0 1042.06 196.226   5
  10   2   0 29525.2 991.499   5
  10   2   0 29625.5 955.150   1
  10   2   0 29860.4 1155.65   4
  10   2   0 30215.9 1060.24   7
  11   1   0 33515.9 922.971   5
  11   1   0 34189.6 1031.70   1
  11   1   0 32765.2 1243.60   4
  11   1   0 32613.2 1125.07   7
  12   0   0 34965.7 1060.02   1
  12   0   0 35984.9 1210.72   7
  13  -1   0 42551.2 1210.97   1
  13  -1   0 44132.8 1379.23   7
  14  -2   0 18499.6 754.350   1
  14  -2   0 18449.3 880.012   7
  15  -3   0 2931.40 295.582   1
  15  -3   0 2793.71 352.644   7
  16  -4   0 300.324 140.379   7
  17  -5   0 9088.01 695.130   7
  18  -6   0 14291.0 920.804   7
   1  13   0 12305.6 1165.03   5
   2  12   0 3514.90 597.719   5
   3  11   0 2495.81 490.459   5
   4  10   0 22080.5 1389.66   5
   5   9   0 37500.6 1771.43   5
   6   8   0 85337.9 2699.21   5
   7   7   0 52708.3 1953.78   5
   8   6   0 40069.5 1607.59   5
   9   5   0 13058.5 830.448   5
  10   4   0 10119.5 679.906   5
  12   2   0 11479.7 589.905   5
  12   2   0 12136.7 697.223   7
  13   1   0 38648.7 1337.71   7
  14   0   0 53790.5 1653.71   7
  15  -1   0 38662.0 1391.13   7
  16  -2   0 10345.2 702.537   7
  17  -3   0 1504.14 285.709   7
  18  -4   0 480.566 183.806   7
  19  -5   0 12304.7 876.525   7
   4  12   0 5310.44 759.487   5
   5  11   0 320.936 227.847   5
   6  10   0 2546.83 505.553   5
   7   9   0 21106.0 1336.41   5
   8   8   0 39071.7 1786.56   5
   9   7   0 38528.9 1682.56   5
  10   6   0 21375.8 1167.10   5
  11   5   0 16648.6 970.221   5
  12   4   0 1721.54 302.495   5
  13   3   0 2672.70 347.996   7
  14   2   0 19938.3 986.173   7
  14   2   0 19856.7 796.775   5
  15   1   0 38591.1 1439.61   7
  16   0   0 51232.3 1713.62   7
  17  -1   0 31084.5 1330.77   7
  18  -2   0 8031.26 681.047   7
  19  -3   0 2074.41 370.259   7
  20  -4   0 161.352 177.311   7
   6  12   0 3944.31 663.940   5
   7  11   0 1035.34 356.024   5
   8  10   0 1674.13 431.529   5
   9   9   0 12041.9 1029.61   5
  10   8   0 28553.6 1533.54   5
  11   7   0 32054.8 1555.01   5
  12   6   0 24689.3 1294.57   5
  13   5   0 5950.25 584.528   5
  14   4   0 340.447 154.323   5
  14   4   0 194.239 123.766   7
  15   3   0 2497.08 315.225   5
  15   3   0 2660.60 380.957   7
  16   2   0 12193.0 824.678   7
  17   1   0 29873.1 1333.02   7
  18   0   0 50229.1 1816.82   7
  19  -1   0 22785.2 1217.23   7
  20  -2   0 10965.3 852.039   7
  21  -3   0 2342.20 432.052   7
   9  11   0 1366.49 411.714   5
  10  10   0 1460.48 413.990   5
  11   9   0 13584.3 1114.12   5
  12   8   0 31320.5 1653.12   5
  13   7   0 30999.9 1563.66   5
  14   6   0 24704.6 1321.25   5
  15   5   0 6080.37 605.308   5
  15   5   0 5361.18 577.794   7
  16   4   0 375.563 176.682   5
  16   4   0 332.581 165.654   7
  17   3   0 2307.42 383.569   7
  18   2   0 7330.52 687.919   7
  19   1   0 21648.4 1205.16   7
  20   0   0 22917.8 1281.10   7
  21  -1   0 14307.4 1027.61   7
  12  10   0 4136.16 660.844   5
  13   9   0 24647.8 1545.34   5
  14   8   0 31473.9 1690.81   5
  15   7   0 32109.9 1625.61   5
  15   7   0 32927.2 1568.73   7
  16   6   0 21010.9 1218.05   5
  16   6   0 18760.1 1162.73   7
  17   5   0 8822.00 792.365   7
  17   5   0 8807.37 730.659   5
  18   4   0 1129.23 303.612   7
  19   3   0 2075.38 371.395   7
  20   2   0 11532.9 917.176   7
  14  10   0 2900.24 566.208   5
  15   9   0 5910.07 782.304   5
  16   8   0 15532.9 1179.25   5
  17   7   0 19204.7 1278.98   5
  17   9   0 7754.54 879.854   5
 -21  -1  -1 1593.14 410.823   2
 -20  -2  -1 10949.7 990.239   2
 -20  -2  -1 12413.3 860.654   1
 -19  -3  -1 16254.6 982.305   1
 -18  -4  -1 23549.6 1186.75   1
 -17  -5  -1 15860.1 968.693   1
 -16  -6  -1 9303.94 726.141   1
 -15  -7  -1 651.099 192.663   1
 -14  -8  -1 2089.64 351.903   1
 -13  -9  -1 5785.97 574.207   1
 -12 -10  -1 15778.5 965.445   1
 -11 -11  -1 23250.8 1189.15   1
 -21   1  -1 749.945 258.704   2
 -20   0  -1 294.415 221.451   2
 -19  -1  -1 6228.12 697.492   2
 -19  -1  -1 4791.50 495.255   1
 -18  -2  -1 10149.9 731.693   1
 -17  -3  -1 21294.0 1059.12   1
 -16  -4  -1 32244.3 1328.64   1
 -15  -5  -1 23044.3 1096.21   1
 -14  -6  -1 11655.7 767.265   1
 -13  -7  -1 669.768 216.028   1
 -12  -8  -1 4170.15 460.363   1
 -11  -9  -1 11809.9 773.634   1
 -10 -10  -1 18216.9 979.224   1
 -10 -10  -1 18106.7 980.770   6
  -9 -11  -1 23382.0 1130.62   1
  -9 -11  -1 24056.0 1203.46   6
  -8 -12  -1 15049.6 902.056   1
  -8 -12  -1 15747.8 1015.74   6
  -7 -13  -1 4523.38 576.072   6
  -7 -13  -1 5602.52 546.181   1
 -20   2  -1 12577.2 915.721   2
 -19   1  -1 4590.45 550.126   2
 -18   0  -1 357.728 170.894   2
 -17  -1  -1 6185.90 533.840   1
 -16  -2  -1 14499.7 814.820   1
 -15  -3  -1 24464.8 898.155   5
 -15  -3  -1 24893.7 880.240   6
 -15  -3  -1 22410.3 1026.17   1
 -14  -4  -1 28123.9 1075.75   5
 -14  -4  -1 30071.3 945.893   6
 -14  -4  -1 27013.4 1132.05   1
 -13  -5  -1 23683.1 1032.59   1
 -12  -6  -1 6849.40 542.310   1
 -11  -7  -1 1373.26 246.642   1
 -10  -8  -1 7405.94 571.462   1
  -9  -9  -1 11667.2 725.046   1
  -8 -10  -1 17103.7 894.847   1
  -8 -10  -1 15839.6 917.951   6
  -7 -11  -1 17138.8 901.139   1
  -7 -11  -1 15425.7 955.713   6
  -6 -12  -1 24097.1 1080.61   1
  -6 -12  -1 21123.9 1192.37   6
  -5 -13  -1 6853.43 570.339   1
  -5 -13  -1 6803.52 703.088   6
 -19   3  -1 19078.3 1045.05   2
 -18   2  -1 11247.6 795.521   2
 -17   1  -1 6761.63 614.055   2
 -16   0  -1-97.2789 79.2810   1
 -16   0  -1-44.3876 81.2567   6
 -15  -1  -1 10387.0 568.630   6
 -15  -1  -1 9795.59 620.057   1
 -14  -2  -1 15326.0 603.091   5
 -14  -2  -1 14838.2 644.845   6
 -14  -2  -1 15573.4 781.775   1
 -13  -3  -1 35039.5 1105.27   5
 -13  -3  -1 36238.4 1027.89   6
 -13  -3  -1 35339.9 1224.55   1
 -12  -4  -1 46284.8 1425.23   1
 -12  -4  -1 44956.3 1405.65   5
 -11  -5  -1 36459.4 1241.74   1
 -11  -5  -1 37442.1 1349.49   5
 -10  -6  -1 9924.36 604.649   1
  -9  -7  -1 2441.16 302.408   1
  -8  -8  -1 6045.59 480.305   1
  -7  -9  -1 26159.1 1049.59   1
  -7  -9  -1 24968.9 1095.63   6
  -6 -10  -1 19055.7 879.574   1
  -6 -10  -1 17224.1 960.071   6
  -5 -11  -1 26203.3 1068.60   1
  -5 -11  -1 26759.7 1273.16   6
  -4 -12  -1 19967.2 928.409   1
  -4 -12  -1 19781.4 1154.06   6
  -3 -13  -1 11605.5 698.059   1
  -3 -13  -1 9887.90 849.125   6
 -19   5  -1 9013.16 890.115   4
 -17   3  -1 23045.1 1071.57   2
 -16   2  -1 14727.2 850.858   2
 -15   1  -1 9902.67 698.297   2
 -15   1  -1 10902.5 631.171   6
 -14   0  -1 11.5830 64.8427   1
 -14   0  -1 13.7652 80.3011   6
 -13  -1  -1 11398.8 617.005   1
 -13  -1  -1 12482.9 565.574   6
 -12  -2  -1 21913.9 739.710   5
 -12  -2  -1 23240.3 743.231   6
 -12  -2  -1 22017.8 872.010   1
 -11  -3  -1 52440.5 1391.23   5
 -11  -3  -1 51390.7 1434.54   1
 -10  -4  -1 71547.8 1748.97   1
 -10  -4  -1 70132.0 1833.39   5
  -9  -5  -1 50898.4 1406.19   1
  -9  -5  -1 49843.3 1576.58   5
  -8  -6  -1 30282.4 1037.09   1
  -8  -6  -1 29494.9 1233.88   5
  -7  -7  -1 6820.70 466.712   1
  -6  -8  -1 156.545 99.8121   6
  -6  -8  -1 416.366 136.758   1
  -5  -9  -1 9626.97 573.967   1
  -5  -9  -1 8455.71 617.363   6
  -4 -10  -1 32575.4 1122.65   1
  -4 -10  -1 30150.8 1303.28   6
  -3 -11  -1 30218.8 1094.04   1
  -3 -11  -1 30917.0 1398.41   6
  -2 -12  -1 18600.6 834.910   1
  -2 -12  -1 16886.5 1070.16   6
  -1 -13  -1 11629.8 935.578   6
 -18   6  -1 2183.45 440.808   4
 -17   5  -1 17114.1 1154.97   4
 -16   4  -1 32272.8 1184.48   2
 -16   4  -1 34197.6 1568.77   4
 -15   3  -1 22783.3 996.898   2
 -15   3  -1 25767.9 1263.40   4
 -14   2  -1 15207.7 800.468   2
 -14   2  -1 13077.6 715.221   6
 -13   1  -1 12231.4 713.716   2
 -13   1  -1 12801.3 632.272   6
 -12   0  -1 112.620 86.6305   1
 -12   0  -1 22.7321 59.5402   6
 -11  -1  -1 2323.67 182.713   5
 -11  -1  -1 1969.92 230.932   1
 -11  -1  -1 2349.26 213.267   6
 -10  -2  -1 85682.6 1773.03   5
 -10  -2  -1 87824.8 1679.22   6
 -10  -2  -1 87575.8 1899.18   1
  -9  -3  -1 80093.4 1832.02   5
  -9  -3  -1 82412.3 1816.17   1
  -8  -4  -1 78295.3 1759.71   1
  -8  -4  -1 77803.3 1922.19   5
  -7  -5  -1 46412.4 1248.34   1
  -7  -5  -1 46213.3 1467.51   5
  -6  -6  -1 15219.9 843.381   5
  -6  -6  -1 14800.0 646.304   1
  -5  -7  -1 268.842 104.152   1
  -4  -8  -1 3362.63 309.143   1
  -4  -8  -1 3480.22 369.582   6
  -3  -9  -1 15521.1 699.715   1
  -3  -9  -1 17484.6 911.678   6
  -2 -10  -1 35879.5 1125.76   1
  -2 -10  -1 34014.8 1412.03   6
  -1 -11  -1 25298.7 933.950   1
  -1 -11  -1 25168.0 1262.01   6
   0 -12  -1 19774.0 816.118   1
   0 -12  -1 18747.7 1144.88   6
   1 -13  -1 8342.84 803.668   6
 -17   7  -1 99.2932 182.293   4
 -16   6  -1 9697.71 850.319   4
 -15   5  -1 24596.9 927.423   2
 -15   5  -1 24345.0 1286.43   4
 -14   4  -1 29037.0 1034.47   2
 -14   4  -1 27883.3 1312.80   4
 -13   3  -1 35103.0 1164.89   2
 -13   3  -1 31913.9 1191.44   6
 -13   3  -1 35369.0 1403.71   4
 -12   2  -1 21771.2 896.873   2
 -12   2  -1 23116.8 1047.20   4
 -12   2  -1 22011.8 875.119   6
 -11   1  -1 1992.98 219.959   1
 -11   1  -1 1898.73 252.151   2
 -11   1  -1 2038.90 227.159   6
 -10   0  -1-35.6517 57.4083   1
 -10   0  -1 12.1105 44.8201   6
  -9  -1  -1 14996.1 498.569   5
  -9  -1  -1 15815.6 515.544   6
  -9  -1  -1 15569.1 609.781   1
  -8  -2  -1 51399.8 1214.60   5
  -8  -2  -1 52833.8 1255.43   1
  -7  -3  -1 103353. 2026.13   1
  -7  -3  -1 103984. 2139.41   5
  -6  -4  -1 68468.1 1511.71   1
  -6  -4  -1 69831.6 1731.76   5
  -5  -5  -1 51566.0 1533.26   5
  -5  -5  -1 53202.1 1270.30   1
  -4  -6  -1 30888.9 1194.28   5
  -4  -6  -1 31776.4 930.009   1
  -3  -7  -1 3396.09 401.583   5
  -3  -7  -1 3757.98 295.687   1
  -3  -7  -1 3387.66 334.263   6
  -2  -8  -1 14682.7 618.801   1
  -2  -8  -1 15265.1 798.113   6
  -1  -9  -1 20206.6 746.499   1
  -1  -9  -1 18521.6 956.673   6
   0 -10  -1 21253.8 782.131   1
   0 -10  -1 20902.0 1087.14   6
   1 -11  -1 17421.3 708.702   1
   1 -11  -1 18553.5 1087.60   6
   2 -12  -1 22143.1 1260.42   6
 -16   8  -1 3226.37 536.290   4
 -15   7  -1 1173.21 300.466   4
 -14   6  -1 11426.9 858.424   4
 -13   5  -1 24401.6 854.512   2
 -13   5  -1 24948.9 1210.81   4
 -12   4  -1 48988.4 1303.74   2
 -12   4  -1 49363.8 1659.37   4
 -12   4  -1 48173.1 1540.63   6
 -11   3  -1 52952.5 1389.16   2
 -11   3  -1 55253.4 1659.78   4
 -11   3  -1 54326.6 1529.26   6
 -10   2  -1 86834.8 1941.01   2
 -10   2  -1 89531.3 2146.51   4
 -10   2  -1 88104.5 1928.38   6
  -9   1  -1 16110.8 594.614   1
  -9   1  -1 16079.5 602.041   6
  -8   0  -1 101.318 69.6892   1
  -8   0  -1 74.4991 41.6237   6
  -7  -1  -1 4497.94 244.495   5
  -7  -1  -1 3546.33 253.417   1
  -7  -1  -1 4460.17 218.166   6
  -6  -2  -1 15086.6 555.761   5
  -6  -2  -1 15748.0 542.410   1
  -5  -3  -1 181197. 3015.78   1
  -5  -3  -1 181090. 3208.31   5
  -4  -4  -1 136768. 2749.33   5
  -4  -4  -1 142882. 2454.47   1
  -3  -5  -1 80192.0 1963.56   5
  -3  -5  -1 81095.1 1611.45   1
  -2  -6  -1 13231.2 721.763   5
  -2  -6  -1 10665.8 460.880   1
  -2  -6  -1 11801.6 591.350   6
  -1  -7  -1 1038.78 190.196   6
  -1  -7  -1 840.370 136.483   1
  -1  -7  -1 901.108 205.723   5
   0  -8  -1 8438.96 422.548   1
   0  -8  -1 7872.73 574.037   6
   1  -9  -1 19508.1 691.287   1
   1  -9  -1 20904.5 658.442   2
   1  -9  -1 19424.6 992.939   6
   2 -10  -1 13387.0 560.939   1
   2 -10  -1 13294.1 869.544   6
   2 -10  -1 13554.4 494.770   2
   3 -11  -1 39343.5 1057.41   1
   3 -11  -1 38093.4 1627.72   6
   4 -12  -1 18450.3 1164.02   6
 -15   9  -1 6920.16 771.373   4
 -14   8  -1 1562.76 354.739   4
 -13   7  -1 776.655 247.168   4
 -12   6  -1 8817.04 425.953   2
 -12   6  -1 7950.55 655.088   4
 -11   5  -1 40233.6 1063.00   2
 -11   5  -1 42729.5 1503.71   4
 -10   4  -1 77245.1 1632.82   2
 -10   4  -1 74792.9 1982.54   4
 -10   4  -1 74602.1 1935.61   6
  -9   3  -1 87198.0 1777.48   2
  -9   3  -1 88974.4 2069.12   4
  -9   3  -1 82208.3 1928.21   6
  -8   2  -1 53757.8 1257.04   2
  -8   2  -1 50066.1 1255.02   6
  -7   1  -1 4136.57 292.851   2
  -7   1  -1 4073.32 315.313   4
  -7   1  -1 4159.22 257.041   6
  -6   0  -1 21.2498 34.7369   1
  -6   0  -1 28.7310 31.3336   6
  -5  -1  -1 8248.32 318.491   5
  -5  -1  -1 8223.14 338.977   1
  -4  -2  -1 45689.7 948.113   1
  -4  -2  -1 41979.3 1007.39   5
  -3  -3  -1 239943. 4013.28   5
  -3  -3  -1 246006. 3768.43   1
  -2  -4  -1 180803. 3264.36   5
  -2  -4  -1 177411. 2883.90   1
  -2  -4  -1 182065. 3041.63   6
  -1  -5  -1 84818.5 1999.98   5
  -1  -5  -1 89184.1 1627.50   1
  -1  -5  -1 87541.5 1859.11   6
   0  -6  -1 14778.1 737.256   5
   0  -6  -1 14613.5 500.094   1
   0  -6  -1 14690.1 681.513   6
   1  -7  -1 1972.49 261.086   6
   1  -7  -1 1846.36 277.997   5
   1  -7  -1 1951.89 180.514   1
   2  -8  -1 368.240 138.436   6
   2  -8  -1 516.157 99.0308   1
   2  -8  -1 212.409 93.2928   5
   2  -8  -1 517.791 84.9642   2
   3  -9  -1 8124.72 302.919   2
   3  -9  -1 7876.08 387.239   1
   3  -9  -1 8403.71 658.794   6
   4 -10  -1 41434.9 1019.97   1
   4 -10  -1 40858.8 1612.91   6
   5 -11  -1 22714.1 1249.18   6
   6 -12  -1 14980.8 1067.10   6
 -14  10  -1 17177.0 1215.91   4
 -13   9  -1 8249.64 799.871   4
 -12   8  -1 5146.67 572.095   4
 -11   7  -1 1471.64 295.386   4
 -11   7  -1 1711.41 142.917   2
 -10   6  -1 12446.1 458.684   2
 -10   6  -1 10434.1 707.922   4
  -9   5  -1 57374.2 1324.19   7
  -9   5  -1 51998.4 1181.11   2
  -9   5  -1 53715.8 1601.35   4
  -9   5  -1 52947.1 1616.34   6
  -8   4  -1 83563.7 1619.09   2
  -8   4  -1 83291.9 1968.38   4
  -8   4  -1 80679.0 1666.02   7
  -8   4  -1 84106.2 1981.01   6
  -7   3  -1 106663. 1954.61   2
  -7   3  -1 110343. 2212.77   4
  -7   3  -1 104275. 1945.67   7
  -7   3  -1 108077. 2180.20   6
  -6   2  -1 15132.6 529.731   2
  -6   2  -1 15971.1 610.223   4
  -6   2  -1 17009.9 358.678   3
  -6   2  -1 16061.1 581.137   6
  -5   1  -1 8700.47 375.400   2
  -5   1  -1 9053.92 399.060   4
  -5   1  -1 8606.41 338.625   6
  -4   0  -1 17.6740 31.7875   1
  -4   0  -1 88.0273 29.8303   6
  -3  -1  -1 1229.69 111.179   5
  -3  -1  -1 1347.68 112.130   1
  -2  -2  -1 328934. 4733.42   1
  -2  -2  -1 313198. 4897.07   5
  -1  -3  -1 61663.6 1326.70   5
  -1  -3  -1 58218.0 1068.95   1
  -1  -3  -1 59996.4 1195.51   6
   0  -4  -1 151749. 2722.87   5
   0  -4  -1 143793. 2315.58   1
   0  -4  -1 147506. 2606.47   6
   1  -5  -1 67653.2 1629.16   5
   1  -5  -1 67590.4 1253.22   1
   1  -5  -1 70058.5 1602.12   6
   2  -6  -1 12554.9 642.021   5
   2  -6  -1 12510.0 354.808   2
   2  -6  -1 12390.6 417.904   1
   2  -6  -1 12297.4 630.801   6
   3  -7  -1 482.391 144.361   6
   3  -7  -1 535.058 92.1767   1
   3  -7  -1 537.597 142.687   5
   3  -7  -1 342.465 51.7951   2
   4  -8  -1 6203.47 496.836   5
   4  -8  -1 4717.52 266.431   1
   4  -8  -1 6985.70 560.158   6
   5  -9  -1 25565.3 689.146   1
   5  -9  -1 25228.6 1179.92   6
   6 -10  -1 31820.3 780.808   1
   6 -10  -1 29432.2 1386.89   6
   7 -11  -1 17545.1 1121.14   6
 -12  10  -1 18216.7 1209.83   4
 -11   9  -1 12919.0 942.143   4
 -10   8  -1 8399.33 695.893   4
  -9   7  -1 2471.70 335.735   4
  -9   7  -1 2652.35 249.188   7
  -9   7  -1 2412.30 154.058   2
  -8   6  -1 32507.8 1209.13   4
  -8   6  -1 31997.2 898.964   7
  -8   6  -1 33574.8 764.646   2
  -7   5  -1 51016.2 1050.35   2
  -7   5  -1 49731.8 1442.89   4
  -7   5  -1 51611.8 1137.02   7
  -7   5  -1 49551.1 1496.02   6
  -6   4  -1 71515.1 1357.16   2
  -6   4  -1 71758.6 1366.08   7
  -6   4  -1 72656.6 1732.15   6
  -5   3  -1 188033. 2994.29   2
  -5   3  -1 191288. 3235.60   4
  -5   3  -1 189913. 2939.06   7
  -5   3  -1 185199. 3263.05   6
  -4   2  -1 43712.2 913.038   2
  -4   2  -1 44098.7 987.404   4
  -4   2  -1 45034.6 835.223   7
  -4   2  -1 43993.2 1011.64   6
  -3   1  -1 1360.18 118.674   2
  -3   1  -1 1247.70 109.834   4
  -3   1  -1 1190.82 104.899   6
  -2   0  -1 15.0439 22.5194   3
   0  -2  -1 46569.0 780.668   1
   0  -2  -1 47640.3 963.984   5
   0  -2  -1 48176.9 917.335   6
   1  -3  -1 48309.4 1083.72   5
   1  -3  -1 48802.1 824.880   1
   1  -3  -1 49504.1 1082.38   6
   2  -4  -1 102068. 2000.38   5
   2  -4  -1 104848. 1645.49   1
   2  -4  -1 103501. 2041.84   6
   3  -5  -1 88222.1 1860.72   5
   3  -5  -1 88087.3 1468.56   1
   3  -5  -1 85122.9 1919.98   6
   4  -6  -1 26776.3 927.979   5
   4  -6  -1 26910.7 623.652   1
   4  -6  -1 24696.1 966.016   6
   5  -7  -1 219.194 103.314   5
   5  -7  -1 337.177 60.9337   1
   5  -7  -1 293.897 121.996   6
   6  -8  -1 17159.0 802.064   5
   6  -8  -1 15988.9 890.332   6
   6  -8  -1 16874.9 494.210   1
   7  -9  -1 10947.1 667.169   5
   7  -9  -1 12645.9 407.054   1
   7  -9  -1 10470.3 780.106   6
   8 -10  -1 11349.1 856.537   6
   9 -11  -1 14550.4 1042.73   6
 -11  11  -1 24017.3 1421.63   4
 -10  10  -1 21256.0 1251.83   4
  -9   9  -1 13511.8 919.249   4
  -8   8  -1 7602.32 628.487   4
  -8   8  -1 6833.16 399.482   7
  -7   7  -1 7996.24 585.461   4
  -7   7  -1 7571.60 393.287   7
  -6   6  -1 17058.0 561.365   7
  -6   6  -1 17526.7 478.208   2
  -5   5  -1 56772.7 1144.53   7
  -5   5  -1 56587.2 1087.14   2
  -4   4  -1 153197. 2454.07   2
  -4   4  -1 156042. 2432.99   7
  -3   3  -1 280117. 4061.17   2
  -3   3  -1 266781. 3952.87   7
  -2   2  -1 354943. 5170.33   2
   2  -2  -1 2046.87 136.990   5
   2  -2  -1 2085.88 159.610   6
   3  -3  -1 73891.9 1377.14   5
   3  -3  -1 73149.0 1510.74   6
   4  -4  -1 110285. 1994.60   5
   4  -4  -1 108763. 1692.32   1
   4  -4  -1 112408. 2189.25   6
   5  -5  -1 53299.4 1242.54   5
   5  -5  -1 52784.2 954.594   1
   5  -5  -1 51579.8 1404.87   6
   6  -6  -1 9939.23 323.721   1
   6  -6  -1 9337.52 487.508   5
   6  -6  -1 9390.59 588.037   6
   7  -7  -1 1125.85 182.527   5
   7  -7  -1 1413.97 112.863   1
   7  -7  -1 1218.62 113.757   1
   7  -7  -1 1335.49 241.043   6
   8  -8  -1 4620.81 380.362   5
   8  -8  -1 4782.27 214.336   1
   8  -8  -1 4846.12 230.497   1
   8  -8  -1 4356.30 472.966   6
   9  -9  -1 12602.2 654.586   5
   9  -9  -1 10523.9 798.485   6
  10 -10  -1 13275.0 963.192   6
 -10  12  -1 21283.7 1369.03   4
  -9  11  -1 25757.9 1412.19   4
  -8  10  -1 18490.6 1106.09   4
  -6   8  -1 495.402 109.363   7
  -5   7  -1 220.416 132.387   5
  -5   7  -1 293.034 83.4666   7
  -4   6  -1 33327.7 1180.35   5
  -4   6  -1 33684.3 840.659   7
  -3   5  -1 88428.6 2043.97   5
  -3   5  -1 92388.0 1581.61   2
  -3   5  -1 90492.0 1615.05   7
  -2   4  -1 195431. 3448.73   5
  -2   4  -1 193665. 2993.58   2
  -1   3  -1 60723.7 1371.22   5
  -1   3  -1 61357.9 1110.32   2
   0   2  -1 49124.3 903.983   2
   0   2  -1 48137.4 973.562   1
   2   0  -1 7.57760 24.2519   4
   3  -1  -1 45847.0 966.812   4
   3  -1  -1 44664.0 742.889   1
   3  -1  -1 45516.8 927.323   7
   3  -1  -1 44291.4 786.468   3
   3  -1  -1 46227.9 924.977   6
   4  -2  -1 34624.9 643.490   5
   4  -2  -1 33188.6 571.452   1
   4  -2  -1 31236.5 803.570   7
   4  -2  -1 32779.3 832.644   6
   5  -3  -1 90988.8 1395.49   1
   5  -3  -1 90622.8 1523.34   5
   5  -3  -1 87396.7 1825.20   6
   5  -3  -1 87845.5 1749.55   7
   6  -4  -1 100378. 1755.95   5
   6  -4  -1 99369.1 2110.89   6
   6  -4  -1 100178. 1577.72   1
   7  -5  -1 32240.4 821.220   5
   7  -5  -1 31756.6 706.832   1
   7  -5  -1 32696.0 1114.38   6
   7  -5  -1 32606.7 656.140   1
   8  -6  -1 9249.65 428.470   5
   8  -6  -1 9850.86 350.605   1
   8  -6  -1 10043.2 641.875   6
   8  -6  -1 9810.21 312.469   1
   9  -7  -1 4673.44 321.457   5
   9  -7  -1 4095.60 220.892   1
   9  -7  -1 4712.61 470.972   6
   9  -7  -1 4086.58 199.570   1
  10  -8  -1 1056.73 109.036   1
  10  -8  -1 1389.23 189.171   5
  10  -8  -1 1048.99 265.348   6
  11  -9  -1 12118.4 883.117   6
  12 -10  -1 24604.4 1363.06   6
  -8  12  -1 15900.1 1127.22   4
  -5   9  -1 9196.45 734.199   5
  -5   9  -1 9630.53 494.404   7
  -4   8  -1 3402.47 426.243   5
  -4   8  -1 3890.96 303.050   7
  -3   7  -1 3389.75 394.438   5
  -2   6  -1 11808.2 700.493   5
  -1   5  -1 93512.2 1878.86   1
  -1   5  -1 94439.0 2201.01   5
   0   4  -1 155191. 3007.68   5
   0   4  -1 156174. 2693.53   1
   1   3  -1 51982.0 1127.25   1
   3   1  -1 44333.5 903.160   7
   3   1  -1 43343.6 891.606   1
   4   0  -1 330.556 56.4201   1
   4   0  -1 139.801 53.2678   4
   4   0  -1 140.380 50.1076   7
   5  -1  -1 21155.5 499.928   1
   5  -1  -1 22256.2 706.951   4
   5  -1  -1 22831.4 648.714   7
   6  -2  -1 79270.1 1345.80   1
   6  -2  -1 78174.1 1729.94   4
   6  -2  -1 82650.7 1637.82   7
   6  -2  -1 80378.7 1650.98   6
   7  -3  -1 55849.4 1005.50   1
   7  -3  -1 57604.4 1394.27   6
   8  -4  -1 58171.5 1080.95   1
   8  -4  -1 60573.8 1478.44   7
   8  -4  -1 58204.5 1538.36   6
   9  -5  -1 36062.9 773.164   1
   9  -5  -1 36875.0 1251.63   6
   9  -5  -1 35633.8 1139.42   7
  10  -6  -1 15030.6 446.012   1
  10  -6  -1 15196.9 830.823   6
  11  -7  -1 4898.79 234.952   1
  11  -7  -1 4860.93 270.382   1
  11  -7  -1 4138.08 462.917   6
  12  -8  -1 2159.45 366.705   6
  13  -9  -1 13602.3 983.874   6
  -5  11  -1 30528.8 1571.17   5
  -4  10  -1 32703.7 1544.93   5
  -3   9  -1 16742.5 1041.48   5
  -2   8  -1 18079.2 1028.05   5
  -1   7  -1 1094.67 257.468   5
  -1   7  -1 915.760 168.948   1
   0   6  -1 15258.8 844.035   5
   0   6  -1 15634.2 660.180   1
   1   5  -1 70849.6 1583.78   1
   2   4  -1 107328. 2058.84   1
   3   3  -1 79473.0 1792.39   5
   4   2  -1 35131.0 946.720   5
   5   1  -1 21551.0 704.017   4
   5   1  -1 21986.8 614.355   1
   5   1  -1 21985.7 655.883   7
   6   0  -1-18.6581 40.3677   1
   6   0  -1 59.2331 50.7137   4
   6   0  -1 79.6785 47.1203   7
   7  -1  -1 23075.8 599.689   1
   7  -1  -1 22027.8 799.672   4
   7  -1  -1 22260.7 729.043   7
   8  -2  -1 29184.6 709.326   1
   8  -2  -1 30530.7 1026.75   4
   8  -2  -1 28451.3 900.679   7
   8  -2  -1 28814.0 902.629   6
   9  -3  -1 101544. 1776.35   1
   9  -3  -1 99563.0 2130.09   7
   9  -3  -1 100296. 2180.88   6
  10  -4  -1 71552.3 1366.93   1
  10  -4  -1 71498.7 1767.41   7
  10  -4  -1 70110.3 1834.82   6
  11  -5  -1 41110.4 1325.25   7
  11  -5  -1 41020.8 934.929   1
  11  -5  -1 40865.0 1404.86   6
  12  -6  -1 10217.8 399.761   1
  12  -6  -1 10237.0 713.227   6
  13  -7  -1 426.852 190.407   6
  14  -8  -1 6618.99 669.088   6
  -4  12  -1 19376.7 1318.08   5
  -3  11  -1 34230.6 1689.97   5
  -2  10  -1 41849.8 1819.76   5
  -1   9  -1 21227.1 1204.24   5
   0   8  -1 8375.35 548.217   1
   0   8  -1 7758.30 687.038   5
   1   7  -1 1912.01 250.184   1
   1   7  -1 2402.62 369.636   5
   2   6  -1 13276.6 634.163   1
   3   5  -1 87433.9 1894.97   1
   5   3  -1 95027.9 2079.60   5
   6   2  -1 83012.9 1740.32   5
   6   2  -1 79465.6 1688.65   7
   7   1  -1 22708.5 694.034   1
   7   1  -1 23654.6 840.822   4
   7   1  -1 23163.2 774.764   7
   8   0  -1 76.9993 55.9332   1
   8   0  -1 21.3179 59.6445   4
   8   0  -1 89.9697 65.8061   7
   9  -1  -1 524.434 98.1022   1
   9  -1  -1 480.401 135.941   4
   9  -1  -1 586.828 131.731   7
  10  -2  -1 32513.2 1049.82   7
  10  -2  -1 30604.4 824.881   1
  10  -2  -1 30716.7 1151.70   4
  11  -3  -1 63517.2 1336.83   1
  11  -3  -1 60979.2 1652.14   7
  12  -4  -1 61883.5 1714.81   7
  12  -4  -1 60460.4 1320.86   1
  12  -4  -1 61808.3 1759.53   6
  13  -5  -1 28968.8 806.766   1
  13  -5  -1 26527.0 1106.10   7
  13  -5  -1 27453.6 1179.13   6
  14  -6  -1 9999.99 747.777   6
  14  -6  -1 10190.9 696.789   7
  15  -7  -1-102.596 156.875   6
  16  -8  -1 825.681 247.121   6
  -2  12  -1 21513.8 1435.41   5
  -1  11  -1 25962.5 1506.27   5
   0  10  -1 21164.4 1292.06   5
   1   9  -1 22356.3 1271.68   5
   1   9  -1 20253.9 947.614   1
   2   8  -1 587.728 151.333   1
   2   8  -1 742.232 244.362   5
   3   7  -1 699.782 204.028   5
   3   7  -1 438.474 137.434   1
   4   6  -1 28148.2 1005.62   1
   7   3  -1 59510.5 1573.17   5
   8   2  -1 30067.6 1051.54   4
   8   2  -1 30395.0 941.781   5
   8   2  -1 28619.4 950.803   7
   9   1  -1 525.676 108.540   7
   9   1  -1 722.634 163.896   4
  10   0  -1 62.8551 63.4306   4
  10   0  -1 28.1659 48.4560   7
  11  -1  -1 3767.21 390.037   4
  11  -1  -1 3530.27 336.308   7
  12  -2  -1 33307.5 1162.86   7
  13  -3  -1 49381.5 1543.23   7
  14  -4  -1 42622.2 1138.88   1
  14  -4  -1 41101.1 1444.63   7
  15  -5  -1 29289.2 1248.76   7
  16  -6  -1 12787.3 842.213   7
  -1  13  -1 11365.6 1103.96   5
   0  12  -1 20613.0 1415.74   5
   1  11  -1 18542.3 1292.78   5
   2  10  -1 14847.4 1100.26   5
   3   9  -1 7870.39 768.665   5
   4   8  -1 7375.78 704.451   5
   5   7  -1 382.501 122.175   1
   5   7  -1 171.085 125.284   5
   6   6  -1 9815.16 591.819   1
   6   6  -1 11560.2 798.558   5
   7   5  -1 35068.2 1340.35   5
   7   5  -1 30766.8 1081.96   1
   9   3  -1 101403. 2183.59   1
   9   3  -1 99407.9 2383.73   4
   9   3  -1 101927. 2264.08   7
  10   2  -1 31994.5 1005.25   5
  10   2  -1 30941.1 1005.54   1
  10   2  -1 30869.2 1178.51   4
  10   2  -1 31883.9 1094.42   7
  11   1  -1 4032.52 334.064   1
  11   1  -1 4148.83 419.093   4
  11   1  -1 3327.88 335.990   7
  12   0  -1-52.2157 85.5481   1
  12   0  -1 153.930 109.566   7
  13  -1  -1 1435.21 208.173   1
  13  -1  -1 1370.46 238.497   7
  14  -2  -1 29090.0 974.810   1
  14  -2  -1 30463.0 1198.19   7
  15  -3  -1 40932.0 1184.24   1
  15  -3  -1 38058.2 1437.86   7
  16  -4  -1 33333.6 1378.45   7
  17  -5  -1 24922.4 1223.37   7
  18  -6  -1 7955.44 711.574   7
   1  13  -1 10985.8 1088.22   5
   2  12  -1 24945.1 1595.31   5
   3  11  -1 44190.6 2073.39   5
   4  10  -1 38879.4 1874.96   5
   5   9  -1 28311.0 1524.85   5
   6   8  -1 17973.7 1142.85   5
   7   7  -1 2157.61 375.272   5
   8   6  -1 10042.8 755.093   5
   9   5  -1 36775.3 1423.66   5
  10   4  -1 72622.2 1993.92   5
  10   4  -1 71387.5 1917.51   7
  11   3  -1 64275.9 1713.62   1
  11   3  -1 65948.0 1799.81   7
  12   2  -1 31441.2 1093.03   1
  12   2  -1 31980.7 1193.20   7
  13   1  -1 1309.20 236.484   7
  14   0  -1 87.9725 70.2795   7
  15  -1  -1 5887.84 526.476   7
  16  -2  -1 30211.9 1292.06   7
  17  -3  -1 39547.3 1558.64   7
  18  -4  -1 41678.1 1670.26   7
  19  -5  -1 22338.3 1245.35   7
   4  12  -1 19461.1 1436.49   5
   5  11  -1 26473.6 1612.44   5
   6  10  -1 30734.0 1693.69   5
   7   9  -1 11531.5 970.178   5
   8   8  -1 5395.62 641.300   5
   9   7  -1 5426.83 608.110   5
  10   6  -1 14980.7 958.317   5
  11   5  -1 45198.2 1636.63   5
  12   4  -1 64690.5 1876.19   5
  12   4  -1 60935.5 1851.10   7
  13   3  -1 45999.4 1559.47   7
  14   2  -1 27462.4 1190.02   7
  15   1  -1 5713.28 530.870   7
  16   0  -1-107.185 150.713   7
  17  -1  -1 11689.0 814.435   7
  18  -2  -1 13816.3 918.388   7
  19  -3  -1 16678.8 1054.07   7
  20  -4  -1 19364.3 1183.89   7
   6  12  -1 16228.9 1336.45   5
   7  11  -1 20070.3 1434.50   5
   8  10  -1 16093.1 1229.61   5
   9   9  -1 11936.4 1010.41   5
  10   8  -1 928.751 289.821   5
  11   7  -1 4158.08 541.643   5
  12   6  -1 9781.95 787.230   5
  13   5  -1 29695.8 1311.98   5
  13   5  -1 28629.3 1280.45   7
  14   4  -1 40648.2 1548.96   7
  15   3  -1 37515.9 1494.18   7
  16   2  -1 29681.4 1324.30   7
  17   1  -1 11073.7 795.363   7
  18   0  -1-120.763 130.179   7
  19  -1  -1 3704.28 496.499   7
  20  -2  -1 8263.18 761.999   7
   9  11  -1 16003.8 1308.80   5
  10  10  -1 13191.3 1140.68   5
  11   9  -1 13987.1 1127.78   5
  12   8  -1 1716.07 400.147   5
  13   7  -1 463.184 192.053   5
  13   7  -1 116.390 145.123   7
  14   6  -1 11091.2 855.614   5
  14   6  -1 8638.57 729.145   7
  15   5  -1 29207.1 1375.16   7
  16   4  -1 31905.0 1455.88   7
  17   3  -1 38189.3 1614.53   7
  18   2  -1 11970.3 882.052   7
  19   1  -1 3318.13 469.681   7
  20   0  -1 130.979 124.998   7
  12  10  -1 28359.6 1724.30   5
  13   9  -1 12295.6 1077.32   5
  14   8  -1 5621.55 705.949   5
  14   8  -1 5788.77 646.228   7
  15   7  -1-128.849 183.281   5
  15   7  -1 179.973 129.206   7
  16   6  -1 12836.3 947.641   7
  17   5  -1 23573.1 1310.46   7
  18   4  -1 37106.5 1687.62   7
  19   3  -1 16486.9 1090.48   7
  14  10  -1 14380.5 1245.36   5
  15   9  -1 6983.49 832.510   5
 -20  -2  -2 9798.17 960.554   2
 -19  -3  -2 1362.86 277.572   1
 -19  -3  -2 970.835 337.280   2
 -18  -4  -2 959.961 257.373   1
 -17  -5  -2 8729.17 722.616   1
 -16  -6  -2 15418.6 961.532   1
 -15  -7  -2 19890.9 1102.83   1
 -14  -8  -2 21614.1 1147.51   1
 -13  -9  -2 14632.8 940.265   1
 -12 -10  -2 5579.23 564.832   1
 -11 -11  -2 161.932 116.163   1
 -21   1  -2 16259.6 1126.71   2
 -20   0  -2 17215.0 1166.46   2
 -19  -1  -2 18431.6 1216.74   2
 -18  -2  -2 8347.07 812.933   2
 -18  -2  -2 9558.36 716.344   1
 -17  -3  -2 1491.90 281.034   1
 -16  -4  -2 668.096 214.969   1
 -15  -5  -2 11251.3 763.450   1
 -14  -6  -2 20792.6 1055.11   1
 -13  -7  -2 23886.4 1134.48   1
 -12  -8  -2 20289.1 1035.82   1
 -11  -9  -2 18250.3 883.202   6
 -11  -9  -2 18399.0 993.043   1
 -10 -10  -2 3913.58 448.953   1
 -10 -10  -2 5357.28 497.332   6
  -9 -11  -2 604.355 207.615   1
  -8 -12  -2 2522.06 367.616   1
  -7 -13  -2 11579.2 791.933   1
 -20   2  -2 10967.2 862.923   2
 -19   1  -2 15924.6 1049.34   2
 -18   0  -2 18807.9 1146.36   2
 -17  -1  -2 18062.3 1124.30   2
 -17  -1  -2 18401.6 952.806   1
 -16  -2  -2 6520.52 669.344   2
 -16  -2  -2 6937.28 562.718   1
 -15  -3  -2 1779.37 238.930   5
 -15  -3  -2 1578.64 261.519   1
 -14  -4  -2 83.9273 107.369   5
 -14  -4  -2 69.0053 91.6371   1
 -13  -5  -2 12122.0 737.898   1
 -12  -6  -2 31347.3 1233.54   1
 -11  -7  -2 34295.5 1302.27   1
 -10  -8  -2 24651.5 972.173   6
 -10  -8  -2 24482.5 1080.95   1
  -9  -9  -2 13665.5 797.696   1
  -9  -9  -2 14684.4 795.170   6
  -8 -10  -2 7002.65 568.169   1
  -8 -10  -2 7363.31 591.108   6
  -7 -11  -2 141.585 142.044   6
  -7 -11  -2 215.439 122.515   1
  -6 -12  -2 6461.24 557.257   1
  -6 -12  -2 5401.05 589.873   6
  -5 -13  -2 11565.2 741.761   1
  -5 -13  -2 11028.1 868.228   6
 -19   3  -2 1749.01 332.655   2
 -18   2  -2 9552.67 753.794   2
 -17   1  -2 17690.7 1032.60   2
 -16   0  -2 28145.5 1318.56   2
 -15  -1  -2 36898.1 1536.32   2
 -15  -1  -2 35219.3 1278.05   1
 -15  -1  -2 38884.3 1103.46   6
 -14  -2  -2 18360.6 870.858   1
 -14  -2  -2 19250.4 671.268   6
 -13  -3  -2 15738.6 702.971   5
 -13  -3  -2 18070.0 595.582   6
 -13  -3  -2 16808.3 822.688   1
 -12  -4  -2 5006.11 417.479   5
 -12  -4  -2 4870.74 436.233   1
 -11  -5  -2 13534.5 726.865   1
 -10  -6  -2 45553.8 1425.47   1
  -9  -7  -2 73563.5 1929.19   1
  -8  -8  -2 39324.7 1332.08   1
  -8  -8  -2 43106.5 1348.91   6
  -7  -9  -2 14505.1 761.993   1
  -7  -9  -2 13416.7 760.227   6
  -6 -10  -2 6510.99 510.753   1
  -6 -10  -2 6188.51 542.950   6
  -5 -11  -2 108.287 115.976   6
  -5 -11  -2 116.704 102.907   1
  -4 -12  -2 7774.11 563.419   1
  -4 -12  -2 6623.40 650.405   6
  -3 -13  -2 7246.22 708.811   6
 -17   3  -2 2507.70 363.249   2
 -16   2  -2 6626.93 576.870   2
 -15   1  -2 37170.8 1446.39   2
 -15   1  -2 37264.8 1217.92   6
 -14   0  -2 59800.7 1902.06   2
 -14   0  -2 62545.1 1522.00   6
 -13  -1  -2 40819.2 1513.24   2
 -13  -1  -2 42803.9 1318.43   1
 -13  -1  -2 41857.2 1082.81   6
 -12  -2  -2 32877.6 945.278   5
 -12  -2  -2 32185.9 1112.72   1
 -12  -2  -2 31574.6 822.443   6
 -11  -3  -2 2245.69 246.912   5
 -11  -3  -2 2050.69 258.660   1
 -11  -3  -2 1811.01 158.878   6
 -10  -4  -2 2091.02 264.879   5
 -10  -4  -2 2534.75 286.686   1
  -9  -5  -2 11762.7 697.167   5
  -9  -5  -2 12368.8 639.529   1
  -8  -6  -2 18547.5 799.393   1
  -7  -7  -2 37509.6 1192.42   1
  -7  -7  -2 36299.9 1141.32   6
  -6  -8  -2 47734.9 1397.38   1
  -6  -8  -2 48067.2 1454.68   6
  -5  -9  -2 18364.3 806.922   1
  -5  -9  -2 18588.1 904.730   6
  -4 -10  -2 1540.36 278.951   6
  -4 -10  -2 1928.01 263.532   1
  -3 -11  -2 526.671 185.291   6
  -3 -11  -2 463.456 128.177   1
  -2 -12  -2 6400.44 468.471   1
  -2 -12  -2 5635.57 608.916   6
  -1 -13  -2 9758.25 834.235   6
 -18   6  -2 16745.0 1199.65   4
 -17   5  -2 8805.63 809.929   4
 -16   4  -2 554.649 164.077   4
 -16   4  -2 546.706 172.912   2
 -15   3  -2 1745.04 279.977   2
 -14   2  -2 17986.3 906.508   2
 -14   2  -2 18648.8 837.903   6
 -13   1  -2 41365.8 1427.16   2
 -13   1  -2 42283.0 1227.29   6
 -12   0  -2 113117. 2674.72   2
 -12   0  -2 114765. 2423.87   1
 -12   0  -2 117418. 2217.46   6
 -11  -1  -2 59712.6 1254.77   6
 -11  -1  -2 59296.7 1514.98   1
 -10  -2  -2 17800.5 654.622   5
 -10  -2  -2 18940.1 525.428   6
 -10  -2  -2 17737.4 736.583   1
  -9  -3  -2 426.386 116.503   5
  -9  -3  -2 458.262 119.769   1
  -8  -4  -2 779.494 158.316   5
  -8  -4  -2 886.652 159.064   1
  -7  -5  -2 33332.3 1191.31   5
  -7  -5  -2 34410.1 1050.99   1
  -6  -6  -2 28477.0 944.319   1
  -6  -6  -2 26887.6 1132.62   5
  -6  -6  -2 31106.4 958.309   6
  -5  -7  -2 38825.7 1145.00   1
  -5  -7  -2 41777.0 1236.82   6
  -4  -8  -2 46837.7 1295.05   1
  -4  -8  -2 48036.0 1455.19   6
  -3  -9  -2 20867.0 803.482   1
  -3  -9  -2 20372.4 966.146   6
  -2 -10  -2 2851.30 366.756   6
  -2 -10  -2 3183.78 299.561   1
  -1 -11  -2 1808.60 321.354   6
  -1 -11  -2 1946.04 239.285   1
   0 -12  -2 1072.34 285.123   6
   1 -13  -2 12598.0 957.764   6
 -17   7  -2 23067.3 1407.53   4
 -16   6  -2 16675.9 1118.33   4
 -15   5  -2 10446.9 626.129   2
 -15   5  -2 11012.0 844.451   4
 -14   4  -2 21.8734 58.6964   2
 -14   4  -2-36.3035 67.5214   4
 -13   3  -2 18545.3 849.071   2
 -13   3  -2 17298.6 934.182   4
 -13   3  -2 15831.3 796.412   6
 -12   2  -2 30720.1 1128.30   2
 -12   2  -2 32924.1 1071.92   6
 -11   1  -2 58695.4 1649.00   2
 -11   1  -2 61241.2 1433.03   6
 -10   0  -2 80665.9 1982.91   2
 -10   0  -2 76424.3 1748.02   1
 -10   0  -2 81147.9 1576.73   6
  -9  -1  -2 49773.5 1273.07   1
  -9  -1  -2 51123.2 1012.98   6
  -8  -2  -2 16412.5 600.522   5
  -8  -2  -2 16157.2 414.717   6
  -8  -2  -2 17796.4 671.012   1
  -7  -3  -2 9754.59 496.658   5
  -7  -3  -2 9902.64 478.469   1
  -6  -4  -2 5844.81 422.695   5
  -6  -4  -2 6070.11 366.552   1
  -5  -5  -2 30628.0 900.457   1
  -5  -5  -2 29532.5 1086.45   5
  -5  -5  -2 29994.3 864.661   6
  -4  -6  -2 43643.9 1134.08   1
  -4  -6  -2 42650.2 1432.11   5
  -4  -6  -2 45653.6 1218.25   6
  -3  -7  -2 45312.7 1163.29   1
  -3  -7  -2 44656.0 1323.59   6
  -2  -8  -2 37186.8 1039.47   1
  -2  -8  -2 38556.4 1291.51   6
  -1  -9  -2 23100.8 786.166   1
  -1  -9  -2 23378.3 1056.91   6
   0 -10  -2 3523.29 426.249   6
   0 -10  -2 3767.21 297.379   1
   0 -10  -2 3993.03 339.369   2
   1 -11  -2 1111.38 163.586   1
   1 -11  -2 1050.56 254.129   6
   2 -12  -2 11111.1 866.016   6
 -16   8  -2 23547.4 1410.57   4
 -15   7  -2 23198.3 1305.45   4
 -14   6  -2 22206.3 861.371   2
 -14   6  -2 21095.4 1172.57   4
 -13   5  -2 11980.5 625.835   2
 -13   5  -2 10889.1 771.292   4
 -12   4  -2 4753.18 381.762   2
 -12   4  -2 4495.09 457.531   4
 -12   4  -2 4753.22 446.310   6
 -11   3  -2 1466.28 226.501   6
 -11   3  -2 1735.67 233.968   2
 -11   3  -2 2068.93 288.111   4
 -10   2  -2 17315.6 752.758   2
 -10   2  -2 16895.2 693.161   6
 -10   2  -2 18757.7 831.295   4
  -9   1  -2 51622.4 1392.83   2
  -9   1  -2 51429.8 1199.29   6
  -8   0  -2 64824.3 1612.25   2
  -8   0  -2 63886.0 1434.07   1
  -8   0  -2 65811.4 1255.33   6
  -7  -1  -2 109751. 1962.77   5
  -7  -1  -2 109833. 2303.19   2
  -7  -1  -2 108471. 2077.09   1
  -7  -1  -2 110696. 1734.16   6
  -6  -2  -2 69989.3 1450.58   5
  -6  -2  -2 67599.1 1446.29   1
  -5  -3  -2 23578.0 785.395   5
  -5  -3  -2 23765.7 712.743   1
  -4  -4  -2 26360.2 907.504   5
  -4  -4  -2 25911.8 700.655   6
  -4  -4  -2 26723.5 758.512   1
  -3  -5  -2 20387.3 642.428   1
  -3  -5  -2 18422.8 805.808   5
  -3  -5  -2 19945.5 686.485   6
  -2  -6  -2 40745.9 1006.95   1
  -2  -6  -2 40749.0 1333.00   5
  -2  -6  -2 42534.4 1190.34   6
  -1  -7  -2 60566.7 1774.02   5
  -1  -7  -2 58332.1 1289.38   1
  -1  -7  -2 59934.0 1598.43   6
   0  -8  -2 45462.4 1076.10   1
   0  -8  -2 42688.5 1420.56   6
   1  -9  -2 32026.4 883.988   1
   1  -9  -2 34466.9 951.227   2
   1  -9  -2 32961.4 1305.84   6
   2 -10  -2 7204.93 368.426   1
   2 -10  -2 6575.70 332.351   2
   2 -10  -2 6521.50 598.322   6
   3 -11  -2 1281.45 290.095   6
   4 -12  -2 5707.91 637.327   6
 -15   9  -2 13176.2 1042.60   4
 -14   8  -2 24184.9 1338.33   4
 -13   7  -2 26622.6 1307.55   4
 -12   6  -2 35447.2 1066.19   2
 -12   6  -2 35846.7 1434.37   4
 -11   5  -2 14062.2 629.735   2
 -11   5  -2 15839.7 850.488   4
 -10   4  -2 2213.91 286.944   6
 -10   4  -2 2014.23 226.745   2
 -10   4  -2 2026.85 279.940   4
  -9   3  -2 622.088 146.166   6
  -9   3  -2 437.142 111.885   2
  -8   2  -2 14794.0 629.419   2
  -8   2  -2 15815.1 684.859   4
  -8   2  -2 16244.6 627.474   6
  -7   1  -2 112604. 2219.49   2
  -7   1  -2 111966. 2002.72   6
  -6   0  -2 104101. 2089.63   2
  -6   0  -2 105138. 1712.64   6
  -5  -1  -2 133166. 2293.95   5
  -5  -1  -2 138005. 2554.23   2
  -5  -1  -2 140778. 2356.89   1
  -4  -2  -2 118229. 2112.45   5
  -4  -2  -2 123532. 2075.46   1
  -4  -2  -2 115959. 1753.87   6
  -3  -3  -2 10951.8 494.754   5
  -3  -3  -2 12904.8 389.172   6
  -3  -3  -2 13155.2 444.097   1
  -2  -4  -2 19028.8 549.817   1
  -2  -4  -2 18296.0 714.142   5
  -2  -4  -2 18776.5 600.526   6
  -1  -5  -2 24693.3 649.173   1
  -1  -5  -2 25831.5 918.558   5
  -1  -5  -2 24947.3 803.250   6
   0  -6  -2 34593.2 1174.81   5
   0  -6  -2 35559.9 819.528   1
   0  -6  -2 33868.6 1075.87   6
   1  -7  -2 33345.6 1202.37   5
   1  -7  -2 30678.5 769.311   1
   1  -7  -2 34605.5 875.591   2
   1  -7  -2 33638.6 1155.04   6
   2  -8  -2 49896.8 1043.98   1
   2  -8  -2 47152.8 1030.33   2
   2  -8  -2 47921.4 969.217   2
   2  -8  -2 46530.7 1522.81   6
   3  -9  -2 27404.1 688.032   1
   3  -9  -2 25298.4 550.499   2
   3  -9  -2 25927.8 1167.88   6
   4 -10  -2 1069.57 116.748   1
   4 -10  -2 930.240 234.867   6
   5 -11  -2 566.989 222.982   6
   6 -12  -2 2527.29 449.552   6
 -14  10  -2 3077.61 498.865   4
 -13   9  -2 12961.5 973.028   4
 -12   8  -2 23833.5 1231.45   4
 -11   7  -2 39811.4 1038.45   2
 -11   7  -2 36889.9 1464.19   4
 -10   6  -2 45975.4 1178.90   2
 -10   6  -2 48754.1 1580.27   4
  -9   5  -2 12902.0 557.714   2
  -9   5  -2 13690.8 720.958   4
  -8   4  -2 997.724 149.065   2
  -7   3  -2 10061.4 465.494   2
  -7   3  -2 9571.83 493.646   4
  -6   2  -2 69322.4 1509.66   2
  -6   2  -2 69964.8 1524.04   4
  -6   2  -2 75929.0 1320.81   3
  -5   1  -2 137450. 2447.60   2
  -5   1  -2 138397. 2363.34   4
  -5   1  -2 135155. 2248.02   3
  -4   0  -2 159679. 2772.94   2
  -4   0  -2 164822. 2675.57   3
  -3  -1  -2 96847.9 1817.14   2
  -3  -1  -2 95917.1 1669.65   1
  -2  -2  -2 16484.9 530.505   5
  -2  -2  -2 16131.0 546.281   2
  -2  -2  -2 16838.6 461.392   1
  -2  -2  -2 16963.8 387.133   6
  -1  -3  -2 4778.04 297.090   5
  -1  -3  -2 4411.97 261.130   2
  -1  -3  -2 4767.22 247.132   6
  -1  -3  -2 4592.25 210.108   1
   0  -4  -2 1769.91 200.313   5
   0  -4  -2 1416.12 141.110   2
   0  -4  -2 1500.25 113.289   1
   0  -4  -2 1459.21 164.977   6
   1  -5  -2 26681.0 591.827   1
   1  -5  -2 26000.9 894.031   5
   1  -5  -2 26764.0 673.473   2
   1  -5  -2 27229.7 883.521   6
   2  -6  -2 43410.1 1287.21   5
   2  -6  -2 43738.5 849.938   1
   2  -6  -2 44744.6 898.749   2
   2  -6  -2 44404.9 1288.03   6
   3  -7  -2 46691.5 1416.11   5
   3  -7  -2 49763.9 912.167   1
   3  -7  -2 45539.7 839.650   2
   3  -7  -2 48580.9 1472.56   6
   4  -8  -2 45152.1 1449.25   5
   4  -8  -2 47165.4 889.371   1
   4  -8  -2 44670.4 1521.31   6
   5  -9  -2 17629.1 424.212   1
   5  -9  -2 16835.0 954.156   6
   6 -10  -2 8835.95 735.787   6
   7 -11  -2 135.984 158.370   6
 -13  11  -2 363.592 205.615   4
 -12  10  -2 4415.20 586.844   4
 -11   9  -2 18569.9 1099.30   4
 -10   8  -2 28397.9 1283.26   4
 -10   8  -2 27567.6 746.384   2
  -9   7  -2 81803.3 2224.70   4
  -9   7  -2 83690.5 1659.76   2
  -8   6  -2 19205.6 646.608   2
  -8   6  -2 19749.0 894.907   4
  -7   5  -2 35838.3 944.868   2
  -6   4  -2 5794.28 332.000   2
  -6   4  -2 5901.16 382.912   4
  -5   3  -2 23486.0 701.024   2
  -5   3  -2 23610.9 714.803   4
  -4   2  -2 117319. 2117.60   2
  -4   2  -2 120946. 2037.72   4
  -3   1  -2 98650.6 1775.02   2
  -3   1  -2 96129.6 1597.92   4
  -2   0  -2 80947.3 1505.39   2
  -2   0  -2 81407.5 1460.46   3
  -1  -1  -2 52735.4 1056.79   2
   0  -2  -2 41701.5 931.562   5
   0  -2  -2 43994.3 883.762   2
   0  -2  -2 42501.5 863.935   6
   1  -3  -2 33026.2 839.785   5
   1  -3  -2 34193.9 706.286   2
   1  -3  -2 32887.7 595.060   1
   1  -3  -2 31400.8 815.998   6
   2  -4  -2 512.705 109.959   5
   2  -4  -2 596.639 66.9293   2
   2  -4  -2 547.638 48.2672   1
   2  -4  -2 655.768 117.295   6
   3  -5  -2 13756.0 585.186   5
   3  -5  -2 13576.7 301.622   2
   3  -5  -2 14296.2 638.968   6
   3  -5  -2 13776.9 288.314   1
   4  -6  -2 54413.4 881.665   1
   4  -6  -2 61397.7 1477.44   5
   4  -6  -2 60951.3 1599.47   6
   5  -7  -2 44297.0 1295.78   5
   5  -7  -2 43478.4 1442.18   6
   6  -8  -2 36425.2 1213.19   5
   6  -8  -2 36372.3 1389.61   6
   7  -9  -2 21230.2 1109.46   6
   8 -10  -2 7878.79 719.873   6
   9 -11  -2 359.781 197.995   6
 -11  11  -2 373.455 170.774   4
 -10  10  -2 5511.55 615.990   4
  -9   9  -2 14479.9 925.069   4
  -8   8  -2 45452.6 1593.79   4
  -8   8  -2 45424.8 1039.98   7
  -7   7  -2 39843.4 1366.61   4
  -7   7  -2 39558.1 897.418   7
  -7   7  -2 39622.6 965.222   2
  -6   6  -2 30568.0 1071.41   4
  -6   6  -2 30784.8 695.426   7
  -6   6  -2 29536.0 807.455   2
  -5   5  -2 29863.9 619.366   7
  -5   5  -2 30733.9 810.928   2
  -4   4  -2 27344.0 733.374   2
  -4   4  -2 26076.0 494.859   7
  -3   3  -2 12024.6 444.279   2
  -2   2  -2 16131.3 510.220   2
  -1   1  -2 53559.7 1077.57   2
   0   0  -2 41466.9 864.168   2
   1  -1  -2 141590. 2251.56   2
   1  -1  -2 142491. 2334.03   3
   2  -2  -2 28516.7 581.198   2
   2  -2  -2 26791.0 721.836   3
   2  -2  -2 26510.2 699.165   6
   3  -3  -2 21031.2 599.916   5
   3  -3  -2 20537.6 669.633   6
   3  -3  -2 20634.3 421.535   2
   4  -4  -2 28118.9 779.973   5
   4  -4  -2 27503.6 894.264   6
   5  -5  -2 25795.0 799.256   5
   5  -5  -2 27630.8 966.748   6
   6  -6  -2 46134.5 1197.53   5
   6  -6  -2 46309.6 1430.56   6
   7  -7  -2 58924.0 1468.80   5
   7  -7  -2 58731.5 1777.04   6
   8  -8  -2 38387.2 1183.24   5
   8  -8  -2 38140.6 1485.56   6
   9  -9  -2 23563.9 1222.93   6
  10 -10  -2 6658.32 690.084   6
 -10  12  -2 2555.70 500.012   4
  -9  11  -2 1129.56 327.427   4
  -8  10  -2 8064.82 707.751   4
  -6   8  -2 51957.0 1093.51   7
  -5   7  -2 42484.5 897.085   7
  -5   7  -2 43642.5 1030.94   2
  -4   6  -2 46314.5 892.017   7
  -4   6  -2 46468.6 1069.85   2
  -3   5  -2 21370.7 458.227   7
  -3   5  -2 19932.4 621.461   2
  -2   4  -2 19750.3 595.464   2
  -1   3  -2 4983.44 264.811   2
   0   2  -2 44745.9 768.168   7
   0   2  -2 44849.6 961.300   2
   1   1  -2 143484. 2387.03   1
   1   1  -2 147766. 2203.57   4
   1   1  -2 143714. 2265.28   7
   1   1  -2 146891. 2364.26   2
   2   0  -2 291536. 4369.95   1
   2   0  -2 291580. 4369.60   4
   2   0  -2 297039. 4430.67   7
   2   0  -2 295629. 4382.42   2
   3  -1  -2 113428. 2067.49   7
   3  -1  -2 117670. 1838.53   1
   3  -1  -2 120180. 1889.21   2
   4  -2  -2 24119.3 457.584   1
   4  -2  -2 22870.7 721.361   7
   4  -2  -2 23679.7 630.991   3
   4  -2  -2 25426.4 734.457   6
   5  -3  -2 9717.11 480.045   7
   5  -3  -2 9940.48 485.605   6
   6  -4  -2 2004.96 242.325   6
   7  -5  -2 25116.9 725.928   5
   7  -5  -2 25148.0 973.051   6
   8  -6  -2 26678.6 792.774   5
   8  -6  -2 26862.6 1096.07   6
   9  -7  -2 58484.3 1371.35   5
   9  -7  -2 55353.5 1797.20   6
  10  -8  -2 35721.1 1480.85   6
  11  -9  -2 18918.7 1127.86   6
  -8  12  -2 3171.04 502.313   4
  -5   9  -2 19758.3 620.675   7
  -4   8  -2 53463.7 1139.73   7
  -3   7  -2 47732.6 1018.39   7
   0   4  -2 1267.03 147.055   2
   0   4  -2 1465.23 184.595   1
   1   3  -2 32929.2 708.948   7
   1   3  -2 34005.8 827.492   2
   1   3  -2 33810.9 911.825   1
   2   2  -2 26661.6 640.930   7
   2   2  -2 28643.3 719.014   2
   3   1  -2 120294. 2064.82   1
   3   1  -2 118061. 2032.62   4
   3   1  -2 117253. 2018.06   7
   4   0  -2 224893. 3549.03   1
   4   0  -2 238039. 3694.45   4
   4   0  -2 229346. 3676.33   7
   5  -1  -2 102887. 2019.01   4
   5  -1  -2 105586. 1978.01   7
   5  -1  -2 102213. 1732.90   1
   6  -2  -2 3228.32 278.988   7
   6  -2  -2 4972.25 243.107   3
   6  -2  -2 4468.62 203.121   1
   7  -3  -2 2639.04 263.826   6
   7  -3  -2 2582.45 144.706   1
   7  -3  -2 2350.27 250.210   7
   8  -4  -2 10385.2 582.316   7
   8  -4  -2 11542.4 318.020   1
   8  -4  -2 11496.6 622.486   6
   9  -5  -2 11404.0 302.370   1
   9  -5  -2 11481.4 678.393   6
  10  -6  -2 22574.0 1051.04   6
  11  -7  -2 28597.7 1279.09   6
  12  -8  -2 32959.7 1477.27   6
  13  -9  -2 13833.3 992.590   6
  -3   9  -2 23336.6 741.331   7
  -2   8  -2 41087.4 1627.32   5
  -1   7  -2 66360.6 2016.50   5
   0   6  -2 37232.4 1164.11   1
   0   6  -2 36849.6 1354.85   5
   1   5  -2 27512.5 924.468   1
   3   3  -2 21481.0 628.460   7
   4   2  -2 24255.4 742.443   1
   4   2  -2 23243.5 682.144   7
   5   1  -2 103107. 2006.24   4
   5   1  -2 104461. 1951.86   7
   5   1  -2 101949. 1909.54   1
   6   0  -2 183112. 3202.95   4
   6   0  -2 180663. 3120.05   7
   6   0  -2 180562. 2972.93   1
   7  -1  -2 108164. 2216.31   4
   7  -1  -2 104095. 2106.98   7
   7  -1  -2 102881. 1855.15   1
   8  -2  -2 43099.6 1317.10   4
   8  -2  -2 42686.0 956.992   1
   8  -2  -2 44941.2 1241.62   7
   8  -2  -2 45164.5 916.717   3
   9  -3  -2 9207.98 351.800   1
   9  -3  -2 9231.95 543.498   7
  10  -4  -2 1499.09 133.969   1
  10  -4  -2 1332.50 223.782   7
  10  -4  -2 1018.58 194.225   6
  11  -5  -2 11517.9 381.168   1
  11  -5  -2 10334.3 657.189   7
  11  -5  -2 10422.2 684.938   6
  12  -6  -2 26519.7 608.447   1
  12  -6  -2 25184.9 1177.72   6
  13  -7  -2 38399.4 1581.58   6
  14  -8  -2 27264.1 1406.99   6
  -1   9  -2 27407.2 1403.83   5
   0   8  -2 46906.8 1486.92   1
   0   8  -2 47654.9 1797.33   5
   1   7  -2 37620.3 1486.73   5
   1   7  -2 34978.8 1213.33   1
   2   6  -2 44823.3 1341.80   1
   5   3  -2 10102.3 466.993   7
   6   2  -2 3900.01 318.107   4
   6   2  -2 4325.98 309.286   7
   6   2  -2 4602.40 321.213   1
   7   1  -2 103593. 2186.99   4
   7   1  -2 103105. 2093.32   7
   7   1  -2 104362. 2030.68   1
   8   0  -2 121087. 2374.42   7
   8   0  -2 116042. 2456.98   4
   8   0  -2 116554. 2194.13   1
   9  -1  -2 102570. 2342.37   4
   9  -1  -2 101298. 2202.18   7
   9  -1  -2 103379. 1956.54   1
  10  -2  -2 43389.4 1418.55   4
  10  -2  -2 39893.7 1009.54   1
  10  -2  -2 41852.9 1288.22   7
  10  -2  -2 42642.5 857.995   3
  11  -3  -2 11118.9 454.044   1
  11  -3  -2 9764.86 613.997   7
  12  -4  -2 6775.39 346.487   1
  12  -4  -2 7193.82 552.152   7
  13  -5  -2 13471.9 493.081   1
  13  -5  -2 12724.8 783.111   7
   0  10  -2 3577.35 520.278   5
   1   9  -2 31284.1 1531.27   5
   2   8  -2 50253.3 1901.96   5
   3   7  -2 52804.7 1851.89   5
   3   7  -2 48952.3 1527.91   1
   4   6  -2 64505.7 1965.49   5
   4   6  -2 59217.2 1672.59   1
   5   5  -2 30183.4 1205.24   5
   6   4  -2 1898.93 225.827   7
   7   3  -2 2246.93 244.958   7
   8   2  -2 42788.7 1220.07   7
   8   2  -2 41437.1 1292.45   4
   9   1  -2 105268. 2394.75   4
   9   1  -2 109259. 2288.62   7
  10   0  -2 101655. 2247.68   7
  10   0  -2 99255.5 2369.24   4
  11  -1  -2 49344.0 1607.54   4
  11  -1  -2 54956.0 1547.46   7
  12  -2  -2 32570.2 1203.30   7
  12  -2  -2 32073.4 667.813   3
  13  -3  -2 3469.18 388.802   7
  14  -4  -2 1879.83 309.902   7
  15  -5  -2 6828.12 603.715   7
  16  -6  -2 15140.4 962.641   7
   1  11  -2 944.450 339.258   5
   2  10  -2 6484.45 741.800   5
   3   9  -2 28992.9 1509.68   5
   4   8  -2 50179.3 1945.73   5
   5   7  -2 50039.4 1840.88   5
   6   6  -2 48124.1 1508.35   1
   6   6  -2 52504.5 1782.01   5
   7   5  -2 25290.1 1004.41   1
   7   5  -2 26815.6 1161.86   5
   8   4  -2 12123.1 639.523   7
   8   4  -2 11490.2 636.157   1
   9   3  -2 8868.44 549.534   7
   9   3  -2 8787.39 592.112   4
   9   3  -2 9488.95 559.307   1
  10   2  -2 39632.1 1371.75   4
  10   2  -2 38340.4 1257.19   7
  10   2  -2 42089.3 1252.57   1
  11   1  -2 51628.6 1644.51   4
  11   1  -2 50077.4 1500.41   7
  11   1  -2 52884.7 1427.78   1
  12   0  -2 61755.3 1575.89   1
  12   0  -2 60396.2 1720.57   7
  13  -1  -2 39350.9 1170.36   1
  13  -1  -2 36498.9 1333.19   7
  14  -2  -2 19162.0 973.395   7
  14  -2  -2 20880.4 809.115   1
  15  -3  -2 1143.91 191.352   1
  15  -3  -2 1590.88 324.449   7
  16  -4  -2 4079.52 492.384   7
  17  -5  -2 7895.93 715.797   7
  18  -6  -2 11305.1 888.867   7
   2  12  -2 10827.7 1058.85   5
   3  11  -2 1211.52 332.084   5
   4  10  -2 960.499 317.638   5
   5   9  -2 18551.2 1228.80   5
   6   8  -2 42866.8 1817.96   5
   7   7  -2 68403.7 2262.12   5
   8   6  -2 32519.2 1414.71   5
   9   5  -2 12604.7 793.659   5
   9   5  -2 11647.4 678.360   7
  10   4  -2 1057.21 210.714   7
  11   3  -2 9794.16 631.855   7
  12   2  -2 29589.5 1104.65   1
  12   2  -2 33252.9 1231.99   7
  13   1  -2 38595.0 1379.19   7
  13   1  -2 39427.3 1280.56   1
  14   0  -2 44110.5 1538.10   7
  14   0  -2 44171.2 1366.41   1
  15  -1  -2 53379.9 1776.09   7
  15  -1  -2 55303.2 1563.56   1
  16  -2  -2 19315.5 1057.69   7
  17  -3  -2 2465.73 389.202   7
  18  -4  -2 610.874 183.942   7
  19  -5  -2 7627.89 740.503   7
   4  12  -2 6474.94 842.555   5
   5  11  -2 471.788 273.414   5
   6  10  -2 10500.5 984.189   5
   7   9  -2 24339.9 1445.36   5
   8   8  -2 45685.6 1925.60   5
   9   7  -2 63680.8 2208.76   5
  10   6  -2 25298.5 1255.45   5
  10   6  -2 24242.6 1086.55   7
  11   5  -2 10232.7 685.188   7
  12   4  -2 7033.14 575.848   7
  13   3  -2 3556.87 407.306   7
  14   2  -2 20167.3 1015.95   7
  15   1  -2 51551.7 1751.59   7
  16   0  -2 30819.4 1346.67   7
  17  -1  -2 22465.2 1170.51   7
  18  -2  -2 10235.9 816.635   7
  19  -3  -2 1652.87 332.378   7
  20  -4  -2 507.579 237.490   7
   7  11  -2-77.3441 182.408   5
   8  10  -2 12004.2 1059.99   5
   9   9  -2 28073.2 1573.66   5
  10   8  -2 42271.9 1871.88   5
  11   7  -2 34373.4 1599.46   5
  11   7  -2 31206.0 1338.54   7
  12   6  -2 26088.8 1209.30   7
  13   5  -2 13400.2 853.457   7
  14   4  -2 2461.67 369.387   7
  15   3  -2 661.858 198.119   7
  16   2  -2 20387.1 1101.01   7
  17   1  -2 22336.3 1187.59   7
  18   0  -2 24291.9 1276.39   7
  19  -1  -2 19741.9 1174.62   7
  20  -2  -2 5451.05 641.800   7
   9  11  -2 504.217 302.344   5
  10  10  -2 7502.48 865.119   5
  11   9  -2 19675.8 1346.04   5
  11   9  -2 19199.7 1109.06   7
  12   8  -2 31330.8 1429.84   7
  13   7  -2 36654.5 1552.98   7
  14   6  -2 22814.8 1199.28   7
  15   5  -2 7343.41 668.753   7
  16   4  -2 4206.13 513.570   7
  17   3  -2 3168.50 448.450   7
  18   2  -2 9545.89 797.756   7
  19   1  -2 21253.6 1236.97   7
  10  12  -2 9851.44 849.436   7
  11  11  -2 653.622 241.563   7
  12  10  -2 1745.10 334.279   7
  13   9  -2 13579.9 978.269   7
  14   8  -2 30094.1 1479.32   7
  15   7  -2 26906.6 1395.23   7
  16   6  -2 15737.2 1054.79   7
  17   5  -2 7352.45 719.178   7
  18   4  -2 73.1852 117.156   7
  19   3  -2 1671.12 362.189   7
 -19  -3  -3 19724.4 1360.95   2
 -18  -4  -3 18968.2 1316.92   2
 -18  -4  -3 20106.0 1127.06   1
 -17  -5  -3 13783.5 1129.58   2
 -17  -5  -3 16017.6 1001.44   1
 -16  -6  -3 6684.04 789.317   2
 -16  -6  -3 8517.56 722.126   1
 -15  -7  -3 975.403 258.200   1
 -14  -8  -3 715.189 222.043   1
 -13  -9  -3 5295.58 566.696   1
 -12 -10  -3 13020.8 895.835   1
 -11 -11  -3 15071.1 966.427   1
 -21   1  -3 2202.59 439.698   2
 -20   0  -3-165.805 131.091   2
 -19  -1  -3 2349.85 437.615   2
 -18  -2  -3 13174.0 1035.74   2
 -17  -3  -3 27427.0 1509.04   2
 -17  -3  -3 26622.2 1248.33   1
 -16  -4  -3 24063.3 1412.88   2
 -16  -4  -3 25002.0 1184.51   1
 -15  -5  -3 22215.0 1357.78   2
 -15  -5  -3 23764.0 1150.35   1
 -14  -6  -3 4808.72 504.211   1
 -13  -7  -3 931.199 239.133   1
 -12  -8  -3 1204.61 260.629   1
 -11  -9  -3 12872.9 835.600   1
 -10 -10  -3 17339.9 971.131   1
  -9 -11  -3 21121.3 1089.01   1
  -8 -12  -3 15186.7 1098.61   2
  -8 -12  -3 16303.8 945.595   1
 -20   2  -3 10771.4 865.369   2
 -19   1  -3 2283.64 409.040   2
 -18   0  -3-35.5548 145.719   2
 -17  -1  -3 6631.22 688.566   2
 -16  -2  -3 18790.4 1167.94   2
 -16  -2  -3 20089.7 1001.49   1
 -15  -3  -3 30061.1 1494.39   2
 -15  -3  -3 30017.1 1239.00   1
 -14  -4  -3 46546.6 1902.03   2
 -14  -4  -3 50067.3 1643.13   1
 -13  -5  -3 19084.6 954.447   1
 -12  -6  -3 2978.05 375.883   1
 -12  -6  -3 3298.59 240.040   6
 -11  -7  -3 625.815 132.702   6
 -11  -7  -3 280.893 131.454   1
 -10  -8  -3 3182.49 384.603   1
 -10  -8  -3 3496.37 318.763   6
  -9  -9  -3 9864.97 605.320   6
  -9  -9  -3 10008.7 685.908   1
  -8 -10  -3 21457.7 983.110   6
  -8 -10  -3 20005.3 995.685   1
  -7 -11  -3 26427.1 1178.58   6
  -7 -11  -3 23647.7 1084.74   1
  -6 -12  -3 15523.5 1024.35   2
  -6 -12  -3 16466.3 985.716   6
  -6 -12  -3 17326.5 912.437   1
 -19   3  -3 20971.7 1157.68   2
 -18   2  -3 14622.8 958.927   2
 -17   1  -3 7778.57 692.180   2
 -16   0  -3 31.7217 102.819   2
 -15  -1  -3 3728.82 469.348   2
 -14  -2  -3 21226.5 1158.77   2
 -14  -2  -3 21083.6 972.075   1
 -14  -2  -3 23049.5 641.519   6
 -13  -3  -3 42439.5 1689.48   2
 -13  -3  -3 41647.3 1406.37   1
 -13  -3  -3 43421.7 862.438   6
 -12  -4  -3 52032.0 1528.18   5
 -12  -4  -3 54105.0 1618.87   1
 -11  -5  -3 38599.2 1331.52   1
 -11  -5  -3 40833.8 909.006   6
 -10  -6  -3 23581.0 1001.11   1
 -10  -6  -3 24417.0 738.723   6
  -9  -7  -3 628.316 123.695   6
  -9  -7  -3 986.175 209.386   1
  -8  -8  -3 6042.62 437.020   6
  -8  -8  -3 6707.80 514.345   1
  -7  -9  -3 11091.9 652.658   6
  -7  -9  -3 9796.43 633.415   1
  -6 -10  -3 21938.9 1017.12   6
  -6 -10  -3 21181.1 950.254   1
  -5 -11  -3 17531.3 1016.01   2
  -5 -11  -3 19390.4 1019.98   6
  -5 -11  -3 19152.3 897.383   1
  -4 -12  -3 16319.7 990.226   6
  -4 -12  -3 14425.1 772.633   1
  -3 -13  -3 4222.13 543.207   6
 -18   4  -3 20455.2 1075.81   2
 -17   3  -3 27295.6 1252.53   2
 -16   2  -3 20016.8 1049.36   2
 -15   1  -3 4016.22 460.868   2
 -14   0  -3-15.9357 69.1044   6
 -14   0  -3-61.3585 91.3216   2
 -13  -1  -3 10972.0 757.939   2
 -13  -1  -3 11086.3 439.672   6
 -12  -2  -3 27074.9 1227.89   2
 -12  -2  -3 26510.6 1026.36   1
 -12  -2  -3 26698.6 623.377   6
 -11  -3  -3 31990.3 1050.95   5
 -11  -3  -3 34023.2 1381.82   2
 -11  -3  -3 32885.5 1143.66   1
 -10  -4  -3 24287.7 953.504   5
 -10  -4  -3 25459.8 535.377   6
 -10  -4  -3 25370.7 974.354   1
 -10  -4  -3 24295.6 567.416   6
  -9  -5  -3 33926.9 1147.32   1
  -9  -5  -3 33545.0 811.247   6
  -8  -6  -3 18672.2 823.876   1
  -8  -6  -3 20451.4 679.884   6
  -7  -7  -3 535.021 120.659   6
  -7  -7  -3 744.154 174.443   1
  -6  -8  -3 11981.5 637.089   6
  -6  -8  -3 11196.4 625.950   1
  -5  -9  -3 13473.0 744.776   6
  -5  -9  -3 13565.9 687.005   1
  -4 -10  -3 17090.0 921.597   2
  -4 -10  -3 17815.7 920.651   6
  -4 -10  -3 16373.7 762.446   1
  -3 -11  -3 24937.4 1107.79   2
  -3 -11  -3 22601.8 1139.11   6
  -3 -11  -3 24638.7 952.578   1
  -2 -12  -3 16511.9 1028.98   6
  -1 -13  -3 11245.9 890.260   6
 -16   4  -3 26214.0 1159.38   2
 -15   3  -3 30138.8 1246.95   2
 -14   2  -3 20136.4 984.770   2
 -13   1  -3 10251.6 685.901   2
 -13   1  -3 10190.1 531.451   6
 -12   0  -3 120.980 64.9254   6
 -12   0  -3-79.8335 93.3527   2
 -11  -1  -3 19586.8 958.062   2
 -11  -1  -3 19636.3 538.419   6
 -10  -2  -3 29990.6 1207.20   2
 -10  -2  -3 30317.1 1014.67   1
 -10  -2  -3 28516.9 548.750   6
  -9  -3  -3 47586.0 1302.44   5
  -9  -3  -3 47842.7 1574.15   2
  -9  -3  -3 48313.5 1343.30   1
  -8  -4  -3 38237.5 1228.36   5
  -8  -4  -3 43477.0 1236.09   1
  -8  -4  -3 42312.8 823.029   6
  -7  -5  -3 45347.6 1422.55   5
  -7  -5  -3 45630.8 1284.94   1
  -7  -5  -3 47345.7 1043.22   6
  -6  -6  -3 8295.68 486.404   1
  -6  -6  -3 8811.04 438.833   6
  -5  -7  -3 1656.39 218.391   6
  -5  -7  -3 1707.56 220.704   1
  -4  -8  -3 4719.17 401.028   6
  -4  -8  -3 4913.09 368.404   1
  -3  -9  -3 15880.1 827.169   2
  -3  -9  -3 16856.3 857.398   6
  -3  -9  -3 18086.3 734.139   1
  -2 -10  -3 18285.3 850.632   2
  -2 -10  -3 16844.7 918.153   6
  -2 -10  -3 17760.3 731.698   1
  -1 -11  -3 24847.7 977.973   2
  -1 -11  -3 24208.4 1189.71   6
  -1 -11  -3 26194.9 897.125   1
   0 -12  -3 21153.3 1187.62   6
   1 -13  -3 5894.86 654.313   6
 -17   7  -3 337.964 188.754   4
 -16   6  -3 7920.89 750.503   4
 -15   5  -3 25047.8 1054.96   2
 -15   5  -3 23575.7 1236.83   4
 -14   4  -3 46963.3 1518.06   2
 -14   4  -3 47988.4 1712.96   4
 -13   3  -3 42950.3 1431.87   2
 -12   2  -3 26619.8 1074.15   2
 -11   1  -3 19240.9 890.053   2
 -10   0  -3-227.976 108.685   2
  -9  -1  -3 17524.6 836.881   2
  -8  -2  -3 36334.6 1006.99   5
  -8  -2  -3 35973.5 1240.08   2
  -8  -2  -3 35188.3 1047.94   1
  -7  -3  -3 43239.2 1182.02   5
  -7  -3  -3 41296.4 1340.50   2
  -7  -3  -3 41688.0 1141.20   1
  -6  -4  -3 93533.2 2080.69   5
  -6  -4  -3 89360.4 2189.08   2
  -6  -4  -3 91350.7 1922.27   1
  -6  -4  -3 94292.2 1584.22   6
  -5  -5  -3 16313.7 774.221   5
  -5  -5  -3 17748.8 817.440   2
  -5  -5  -3 16860.0 655.262   1
  -5  -5  -3 16669.7 562.708   6
  -4  -6  -3 18603.9 885.166   5
  -4  -6  -3 20778.8 883.251   2
  -4  -6  -3 19321.8 709.921   6
  -4  -6  -3 19918.0 711.921   1
  -3  -7  -3 3710.82 352.667   2
  -3  -7  -3 3917.96 338.485   6
  -3  -7  -3 3390.29 277.606   1
  -2  -8  -3 3941.34 365.336   2
  -2  -8  -3 3575.08 362.016   6
  -2  -8  -3 4579.68 321.714   1
  -1  -9  -3 21042.6 841.581   2
  -1  -9  -3 19642.4 947.291   6
  -1  -9  -3 21092.6 731.398   1
   0 -10  -3 39475.3 1153.36   2
   0 -10  -3 37259.5 1456.46   6
   0 -10  -3 38775.0 1046.18   1
   1 -11  -3 37426.7 1547.69   6
   2 -12  -3 13726.8 966.933   6
 -16   8  -3 1302.38 340.674   4
 -15   7  -3 679.685 255.103   4
 -14   6  -3 4185.37 389.185   2
 -14   6  -3 3984.11 498.212   4
 -13   5  -3 20273.8 890.642   2
 -13   5  -3 19287.0 1020.35   4
 -12   4  -3 56204.8 1594.23   2
 -12   4  -3 57154.6 1762.39   4
 -11   3  -3 34574.1 1177.50   2
 -11   3  -3 33388.4 1214.06   4
 -10   2  -3 30032.6 1069.00   2
  -9   1  -3 17005.8 770.418   2
  -8   0  -3 25.2508 73.3542   2
  -7  -1  -3 6846.36 463.691   2
  -6  -2  -3 38535.4 1028.57   5
  -6  -2  -3 40641.4 1218.23   2
  -6  -2  -3 39295.3 1030.98   1
  -5  -3  -3 88062.3 1858.88   5
  -5  -3  -3 85967.0 1991.43   2
  -5  -3  -3 89628.8 1767.53   1
  -5  -3  -3 87338.9 1371.16   6
  -4  -4  -3 42037.4 1217.55   5
  -4  -4  -3 42924.8 1251.28   2
  -4  -4  -3 44253.4 1074.43   1
  -4  -4  -3 43877.4 925.076   6
  -3  -5  -3 51712.4 1437.49   5
  -3  -5  -3 51753.1 1376.60   2
  -3  -5  -3 51151.6 1170.77   1
  -3  -5  -3 47719.7 1159.26   6
  -2  -6  -3 34231.6 1194.84   5
  -2  -6  -3 33762.5 1062.90   2
  -2  -6  -3 32967.6 1006.16   6
  -2  -6  -3 34847.4 901.646   1
  -1  -7  -3 1010.50 136.296   1
  -1  -7  -3 871.089 159.201   2
  -1  -7  -3 1434.27 213.894   6
   0  -8  -3 2960.41 270.953   2
   0  -8  -3 3609.13 370.822   6
   0  -8  -3 3303.23 237.249   1
   1  -9  -3 20936.5 707.508   2
   1  -9  -3 20624.4 1004.11   6
   1  -9  -3 21647.0 650.750   1
   2 -10  -3 30969.6 780.865   2
   2 -10  -3 30613.6 1329.36   6
   2 -10  -3 30925.0 789.195   1
   3 -11  -3 21321.3 1162.57   6
   4 -12  -3 17517.2 1132.59   6
 -15   9  -3 6985.90 751.950   4
 -14   8  -3 1050.19 316.041   4
 -13   7  -3 1318.25 283.693   4
 -12   6  -3 3633.81 349.267   2
 -12   6  -3 3334.05 412.323   4
 -11   5  -3 40045.2 1242.57   2
 -11   5  -3 41424.2 1432.04   4
 -11   5  -3 42087.8 929.009   3
 -10   4  -3 25355.7 942.405   2
 -10   4  -3 26972.2 1038.02   4
 -10   4  -3 25305.9 698.798   3
  -9   3  -3 51482.2 1412.25   2
  -9   3  -3 52112.9 1146.29   3
  -8   2  -3 37805.1 1139.15   2
  -8   2  -3 37161.3 1084.27   4
  -8   2  -3 38122.3 956.719   3
  -7   1  -3 7158.56 445.462   2
  -7   1  -3 7163.70 375.465   3
  -6   0  -3-13.6251 64.6988   2
  -5  -1  -3 24059.7 837.376   2
  -4  -2  -3 75747.5 1569.54   5
  -4  -2  -3 76232.7 1693.13   2
  -4  -2  -3 74595.7 1498.46   1
  -3  -3  -3 129526. 2461.81   5
  -3  -3  -3 130705. 2512.85   2
  -3  -3  -3 132265. 2291.19   1
  -3  -3  -3 134901. 2108.32   6
  -2  -4  -3 68406.8 1608.77   5
  -2  -4  -3 69990.3 1561.92   2
  -2  -4  -3 69658.6 1363.90   1
  -2  -4  -3 69442.8 1382.67   6
  -1  -5  -3 44164.5 1256.26   5
  -1  -5  -3 44614.2 1119.75   2
  -1  -5  -3 39102.9 918.169   1
  -1  -5  -3 43678.3 1110.43   6
   0  -6  -3 8912.21 555.972   5
   0  -6  -3 9109.29 436.172   2
   0  -6  -3 8642.30 351.400   1
   0  -6  -3 8714.72 498.167   6
   1  -7  -3 4434.40 413.811   5
   1  -7  -3 4084.29 273.015   2
   1  -7  -3 4147.40 381.802   6
   1  -7  -3 4170.96 228.699   1
   2  -8  -3 4865.12 266.713   2
   2  -8  -3 4907.10 238.262   1
   2  -8  -3 4408.21 427.495   6
   3  -9  -3 12754.5 330.075   2
   3  -9  -3 13820.9 393.894   1
   3  -9  -3 12799.0 800.436   6
   3  -9  -3 12656.5 317.744   2
   4 -10  -3 17703.5 1026.88   6
   5 -11  -3 18093.9 1106.34   6
 -14  10  -3 15270.8 1113.02   4
 -13   9  -3 5133.62 600.059   4
 -12   8  -3 891.191 237.259   4
 -11   7  -3 413.918 145.703   4
 -11   7  -3 335.163 89.0073   2
 -10   6  -3 23139.0 857.385   2
 -10   6  -3 23344.6 1025.79   4
  -9   5  -3 32051.9 1038.05   2
  -9   5  -3 33561.9 1158.34   4
  -8   4  -3 40209.6 1156.80   2
  -7   3  -3 43175.8 1200.31   2
  -7   3  -3 45038.6 1164.82   4
  -6   2  -3 43422.9 1158.95   2
  -6   2  -3 40096.8 1015.27   4
  -5   1  -3 19833.6 713.843   2
  -5   1  -3 19624.6 625.158   3
  -4   0  -3 35.5026 52.5117   3
  -4   0  -3 26.9309 69.9273   2
  -3  -1  -3 17005.7 622.383   2
  -3  -1  -3 16978.8 629.152   3
  -2  -2  -3 43206.2 1079.61   2
  -1  -3  -3 132555. 2416.25   5
  -1  -3  -3 134270. 2366.06   2
  -1  -3  -3 128965. 2197.56   6
   0  -4  -3 111665. 2205.73   5
   0  -4  -3 111480. 2034.79   2
   0  -4  -3 109441. 1844.17   1
   0  -4  -3 114184. 2087.24   6
   1  -5  -3 72663.3 1702.14   5
   1  -5  -3 73730.8 1438.10   2
   1  -5  -3 73632.0 1268.37   1
   1  -5  -3 70632.5 1632.24   6
   2  -6  -3 17832.8 767.339   5
   2  -6  -3 17675.1 524.676   2
   2  -6  -3 17452.5 422.747   1
   2  -6  -3 17684.9 769.302   6
   3  -7  -3 4144.17 380.272   5
   3  -7  -3 4427.18 198.090   2
   3  -7  -3 4496.73 409.225   6
   4  -8  -3 87.3416 95.2898   6
   5  -9  -3 9414.71 702.443   6
   6 -10  -3 18838.4 1092.11   6
   7 -11  -3 18946.0 1168.01   6
 -12  10  -3 12968.0 956.335   4
 -11   9  -3 16837.0 1022.35   4
 -10   8  -3 3929.12 450.400   4
 -10   8  -3 3763.07 305.454   2
  -9   7  -3 858.990 152.773   2
  -9   7  -3 890.720 203.033   4
  -8   6  -3 20803.2 765.378   2
  -8   6  -3 20665.1 886.934   4
  -7   5  -3 48256.6 1256.15   2
  -6   4  -3 91792.7 1928.39   2
  -6   4  -3 91939.4 1885.25   4
  -5   3  -3 89970.1 1864.32   2
  -5   3  -3 91089.7 1713.61   4
  -4   2  -3 73349.3 1454.23   2
  -4   2  -3 53434.9 1104.47   4
  -3   1  -3 17458.4 624.864   2
  -2   0  -3-82.8569 75.4177   2
  -2   0  -3-20.1185 49.2004   3
  -1  -1  -3 601.479 114.233   2
   0  -2  -3 85976.8 1619.39   2
   0  -2  -3 82611.9 1756.16   3
   1  -3  -3 64182.6 1372.37   5
   1  -3  -3 63423.2 1260.72   2
   1  -3  -3 60706.5 1313.72   6
   2  -4  -3 148626. 2710.42   5
   2  -4  -3 149401. 2449.40   2
   2  -4  -3 154915. 2758.58   6
   3  -5  -3 61323.1 1468.88   5
   3  -5  -3 61740.3 1120.44   2
   3  -5  -3 62104.5 1544.10   6
   4  -6  -3 24711.2 892.996   5
   4  -6  -3 26780.5 1009.07   6
   5  -7  -3 303.492 95.1340   5
   5  -7  -3 415.502 140.691   6
   6  -8  -3 1799.02 255.139   5
   6  -8  -3 1529.87 280.270   6
   7  -9  -3 22485.7 1150.87   6
   8 -10  -3 32757.8 1510.44   6
 -11  11  -3 17567.4 1152.04   4
 -10  10  -3 20165.0 1152.27   4
  -9   9  -3 10999.3 776.286   4
  -8   8  -3 7497.64 587.847   4
  -8   8  -3 7204.10 414.128   2
  -7   7  -3 392.032 130.458   4
  -7   7  -3 518.651 112.264   2
  -6   6  -3 8557.07 449.108   2
  -5   5  -3 18833.4 683.185   2
  -5   5  -3 17607.4 680.836   4
  -4   4  -3 44208.8 1130.13   2
  -4   4  -3 45129.5 1051.36   4
  -3   3  -3 129772. 2379.81   2
  -3   3  -3 129027. 2118.08   4
  -2   2  -3 48110.5 1146.18   2
  -2   2  -3 48311.1 804.686   4
  -1   1  -3 714.650 118.614   2
   0   0  -3 18.9242 47.5127   2
   1  -1  -3 69.1457 56.3320   2
   1  -1  -3 59.0445 59.0699   3
   2  -2  -3 104819. 1840.32   2
   2  -2  -3 107636. 2034.31   3
   3  -3  -3 133498. 2173.96   2
   3  -3  -3 135838. 2472.39   6
   4  -4  -3 117249. 2341.38   6
   4  -4  -3 116609. 1849.63   2
   5  -5  -3 84779.7 1777.13   5
   5  -5  -3 84972.1 1986.35   6
   6  -6  -3 17637.3 702.417   5
   6  -6  -3 18115.9 861.081   6
   7  -7  -3 934.192 170.036   5
   7  -7  -3 1269.08 248.999   6
   8  -8  -3 6232.24 443.867   5
   8  -8  -3 5206.69 520.656   6
   9  -9  -3 8504.14 723.214   6
  10 -10  -3 15299.2 1043.55   6
 -10  12  -3 11354.9 956.484   4
  -9  11  -3 24072.8 1320.00   4
  -8  10  -3 23205.3 1197.18   4
  -7   9  -3 10880.2 745.003   4
  -6   8  -3 11759.6 536.340   2
  -5   7  -3 1828.59 204.120   2
  -4   6  -3 20808.3 719.041   2
  -3   5  -3 57475.0 1339.87   2
  -2   4  -3 73093.2 1548.98   2
  -1   3  -3 137206. 2450.69   2
   0   2  -3 84698.7 1431.50   7
   0   2  -3 85154.4 1669.58   2
   1   1  -3 84.0791 52.2404   2
   1   1  -3 8.72382 20.1241   4
   1   1  -3 57.2459 36.8068   7
   2   0  -3-58.6172 61.6412   2
   2   0  -3 57.7039 40.1950   7
   3  -1  -3 17615.4 622.934   7
   3  -1  -3 17577.5 523.546   2
   4  -2  -3 46897.4 1088.89   3
   4  -2  -3 47543.9 938.010   2
   5  -3  -3 93445.3 1979.73   6
   6  -4  -3 93469.6 2089.21   6
   7  -5  -3 58133.9 1634.78   6
   8  -6  -3 21732.7 995.847   6
   9  -7  -3 41.0136 92.4948   6
  10  -8  -3 4069.84 502.822   6
  11  -9  -3 8050.88 733.960   6
  -8  12  -3 18724.8 1191.47   4
  -7  11  -3 28052.2 1369.81   4
  -3   7  -3 3266.27 132.821   7
  -3   7  -3 3739.00 319.411   2
  -2   6  -3 33009.1 619.519   7
  -2   6  -3 36562.0 1000.45   2
  -1   5  -3 43862.3 807.776   7
  -1   5  -3 46855.0 1148.60   2
   0   4  -3 117121. 1818.87   7
   0   4  -3 103197. 2108.49   2
   1   3  -3 63720.7 1180.42   7
   1   3  -3 63455.0 1387.52   2
   2   2  -3 105552. 1876.07   7
   2   2  -3 111494. 2022.55   2
   2   2  -3 107429. 1832.40   4
   3   1  -3 17587.0 533.401   4
   3   1  -3 17315.5 572.476   7
   3   1  -3 17743.4 582.868   2
   3   1  -3 18473.3 613.433   1
   4   0  -3 46.2749 54.3557   2
   4   0  -3 5.77628 47.5637   1
   4   0  -3 86.1256 54.1317   4
   4   0  -3 30.5239 43.6644   7
   5  -1  -3 74391.8 1617.49   7
   5  -1  -3 70385.0 1360.03   1
   6  -2  -3 53800.1 1200.25   3
   6  -2  -3 54184.8 1032.64   1
   6  -2  -3 52036.7 1375.26   7
   7  -3  -3 62247.9 1606.56   7
   7  -3  -3 61996.1 1079.52   1
   7  -3  -3 60911.9 1369.40   3
   8  -4  -3 53623.1 1536.20   6
   8  -4  -3 53705.0 1544.00   7
   9  -5  -3 41018.6 1390.28   6
  10  -6  -3 9875.30 693.082   6
  11  -7  -3 1303.47 288.521   6
  12  -8  -3 3678.68 487.929   6
  13  -9  -3 8542.95 795.820   6
  -3   9  -3 18470.5 516.119   7
   0   6  -3 8707.32 346.495   7
   1   5  -3 73700.5 1842.50   1
   1   5  -3 77419.7 1447.95   7
   2   4  -3 154160. 2578.69   7
   3   3  -3 132526. 2321.05   7
   4   2  -3 46199.4 1192.15   1
   4   2  -3 45577.4 1100.16   4
   4   2  -3 45623.1 1085.94   7
   5   1  -3 72877.6 1577.51   1
   5   1  -3 75027.4 1587.08   4
   5   1  -3 74216.4 1583.81   7
   6   0  -3-76.6457 64.2566   1
   6   0  -3 18.8247 58.0830   7
   6   0  -3-21.1129 65.5483   4
   7  -1  -3 27986.5 772.374   1
   7  -1  -3 29381.9 993.941   4
   7  -1  -3 29196.9 966.232   7
   8  -2  -3 34879.9 1137.91   7
   8  -2  -3 35510.3 853.469   1
   8  -2  -3 35867.6 907.351   3
   9  -3  -3 47932.6 997.820   1
   9  -3  -3 47224.5 1441.80   7
  10  -4  -3 65289.8 1194.28   1
  10  -4  -3 66476.6 1853.35   7
  11  -5  -3 40989.3 1465.30   7
  13  -7  -3 707.726 242.155   6
  14  -8  -3 4745.52 577.863   6
   1   7  -3 3646.49 385.820   1
   2   6  -3 17938.0 630.040   7
   2   6  -3 17952.7 848.055   1
   3   5  -3 63142.7 1400.14   7
   4   4  -3 111233. 2131.81   7
   5   3  -3 95989.0 1998.40   4
   5   3  -3 97975.9 1956.78   7
   6   2  -3 50999.1 1326.26   4
   6   2  -3 52176.5 1297.49   7
   7   1  -3 28061.2 892.072   1
   7   1  -3 27786.4 949.364   4
   7   1  -3 27309.8 910.518   7
   8   0  -3-33.7477 59.4616   1
   8   0  -3 65.4637 92.8812   4
   8   0  -3 37.4884 49.1517   7
   9  -1  -3 12700.4 532.653   1
   9  -1  -3 13414.4 721.155   4
   9  -1  -3 13491.2 676.145   7
  10  -2  -3 40656.3 976.896   3
  10  -2  -3 39715.8 1310.43   7
  10  -2  -3 38643.7 1015.03   1
  11  -3  -3 51177.3 1608.93   7
  11  -3  -3 53067.5 1187.43   1
  12  -4  -3 61338.4 1263.81   1
  12  -4  -3 58749.1 1831.15   7
  13  -5  -3 17921.5 987.901   7
   4   6  -3 25512.2 1067.01   1
   4   6  -3 28072.7 907.673   7
   5   5  -3 86549.6 1887.80   7
   6   4  -3 93750.3 2019.47   7
   7   3  -3 61821.7 1638.97   1
   7   3  -3 64056.0 1653.61   4
   7   3  -3 65357.7 1598.77   7
   8   2  -3 35404.9 1115.66   1
   8   2  -3 34727.9 1167.76   4
   8   2  -3 33946.2 1089.25   7
   9   1  -3 13159.3 700.769   4
   9   1  -3 13462.7 672.047   7
  10   0  -3-14.8608 82.2783   4
  10   0  -3 54.3926 72.2982   7
  11  -1  -3 4729.84 424.952   7
  12  -2  -3 21083.2 638.048   3
  12  -2  -3 21277.6 991.326   7
  13  -3  -3 43134.1 1543.71   7
  13  -3  -3 43632.8 1149.22   1
  14  -4  -3 26544.8 1239.73   7
  15  -5  -3 15051.2 957.154   7
   5   7  -3 61.8962 75.2551   7
   6   6  -3 18968.7 809.205   7
   7   5  -3 59179.6 1711.69   1
   7   5  -3 54554.4 1521.19   7
   8   4  -3 54870.9 1612.84   1
   8   4  -3 54988.1 1620.74   4
   8   4  -3 56449.0 1544.11   7
   9   3  -3 44699.3 1385.52   1
   9   3  -3 44760.3 1462.39   4
   9   3  -3 44978.5 1375.26   7
  10   2  -3 41821.2 1300.54   1
  10   2  -3 38455.0 1364.62   4
  10   2  -3 40159.7 1302.56   7
  11   1  -3 4774.83 428.544   7
  11   1  -3 4229.98 378.978   1
  12   0  -3-47.3247 55.5964   7
  12   0  -3 122.244 94.2582   1
  13  -1  -3 16477.0 889.060   7
  13  -1  -3 16721.3 749.086   1
  14  -2  -3 27220.7 1226.84   7
  14  -2  -3 30753.2 758.340   3
  14  -2  -3 29146.9 1009.22   1
  15  -3  -3 37143.5 1508.88   7
  16  -4  -3 26225.4 1310.02   7
  17  -5  -3 15287.1 1032.22   7
   6   8  -3 2047.94 279.282   7
   7   7  -3 1143.82 216.835   7
   8   6  -3 22992.3 976.315   7
   9   5  -3 39811.8 1342.89   7
  10   4  -3 63811.7 1803.00   7
  11   3  -3 50103.4 1570.46   7
  12   2  -3 20025.5 955.168   7
  13   1  -3 16769.7 893.210   7
  14   0  -3 218.792 127.124   1
  14   0  -3 20.2787 81.5700   7
  15  -1  -3 766.122 221.381   7
  15  -1  -3 387.044 124.220   1
  16  -2  -3 12934.4 881.752   7
  17  -3  -3 31351.3 1465.74   7
  18  -4  -3 28051.4 1446.61   7
  19  -5  -3 17509.0 1173.32   7
   6  10  -3 20473.6 996.357   7
   7   9  -3 22779.7 1045.52   7
   8   8  -3 7166.40 572.459   7
   9   7  -3 20.7035 77.6919   7
  10   6  -3 10127.8 682.838   7
  11   5  -3 38520.6 1417.96   7
  12   4  -3 54546.1 1758.67   7
  13   3  -3 41007.8 1499.01   7
  14   2  -3 27527.6 1223.72   7
  15   1  -3 631.697 199.486   7
  16   0  -3 94.4768 190.193   7
  17  -1  -3 2213.14 382.454   7
  18  -2  -3 11436.5 888.144   7
  19  -3  -3 21990.9 1297.78   7
   6  12  -3 23932.8 1155.39   7
   7  11  -3 21094.7 1078.89   7
   8  10  -3 35892.8 1444.16   7
   9   9  -3 9060.39 698.641   7
  10   8  -3 4012.68 458.536   7
  11   7  -3 1707.68 311.519   7
  12   6  -3 10623.2 754.417   7
  13   5  -3 17358.9 989.368   7
  14   4  -3 24769.3 1201.41   7
  15   3  -3 35912.1 1491.06   7
  16   2  -3 12800.3 877.530   7
  17   1  -3 1652.71 347.346   7
  18   0  -3-79.0844 150.484   7
  19  -1  -3 3272.83 495.748   7
   8  12  -3 16090.9 1002.58   7
   9  11  -3 34175.6 1505.31   7
  10  10  -3 14507.6 945.597   7
  11   9  -3 11269.5 827.660   7
  12   8  -3 3585.72 477.967   7
  13   7  -3 331.361 171.649   7
  14   6  -3 5408.12 579.183   7
  15   5  -3 15436.0 1002.09   7
  16   4  -3 26593.6 1332.95   7
  17   3  -3 33151.4 1532.78   7
  18   2  -3 10869.7 872.837   7
  19   1  -3 3644.64 529.578   7
  10  12  -3 12907.6 947.178   7
  11  11  -3 16437.0 1067.25   7
  12  10  -3 9745.25 828.277   7
  13   9  -3 8598.39 771.672   7
  14   8  -3 4903.77 577.974   7
  15   7  -3 643.110 241.210   7
  16   6  -3 6125.22 663.746   7
  17   5  -3 16790.8 1101.17   7
  18   4  -3 29739.9 1517.09   7
 -16  -6  -4 13409.8 1134.07   2
 -16  -6  -4 15091.0 981.708   1
 -15  -7  -4 10576.2 1002.37   2
 -15  -7  -4 11632.9 859.536   1
 -14  -8  -4 12386.2 1083.59   2
 -14  -8  -4 12555.6 893.585   1
 -13  -9  -4 10585.2 1004.41   2
 -13  -9  -4 10161.4 813.041   1
 -12 -10  -4 908.906 267.396   1
 -19  -1  -4 22838.8 1389.37   2
 -18  -2  -4 7912.92 818.891   2
 -17  -3  -4 928.998 269.227   2
 -16  -4  -4 814.650 226.747   1
 -16  -4  -4 730.478 254.885   2
 -15  -5  -4 9010.71 873.256   2
 -15  -5  -4 11523.1 800.513   1
 -14  -6  -4 19654.0 1290.36   2
 -14  -6  -4 18711.2 1030.94   1
 -13  -7  -4 17097.5 1223.28   2
 -13  -7  -4 19176.1 1046.34   1
 -12  -8  -4 28520.3 1562.80   2
 -12  -8  -4 28015.5 1277.30   1
 -11  -9  -4 10681.5 933.283   2
 -11  -9  -4 10080.9 751.839   1
 -10 -10  -4 3083.43 410.617   1
 -10 -10  -4 2428.26 447.959   2
  -9 -11  -4 409.049 175.640   1
  -9 -11  -4 673.415 257.092   2
  -8 -12  -4 4664.06 622.360   2
  -8 -12  -4 5331.09 536.687   1
 -20   2  -4 9527.07 855.908   2
 -19   1  -4 21961.0 1285.62   2
 -18   0  -4 30960.6 1539.71   2
 -17  -1  -4 16225.8 1109.72   2
 -16  -2  -4 13234.0 987.488   2
 -15  -3  -4 1581.98 349.712   2
 -14  -4  -4 3455.41 413.444   1
 -14  -4  -4 4012.80 545.650   2
 -13  -5  -4 21116.1 1251.17   2
 -13  -5  -4 20486.8 1023.44   1
 -12  -6  -4 17067.4 1125.29   2
 -12  -6  -4 16440.6 911.026   1
 -11  -7  -4 23177.9 1319.84   2
 -11  -7  -4 22972.0 1081.29   1
 -10  -8  -4 23687.5 1333.60   2
 -10  -8  -4 23115.9 1081.28   1
  -9  -9  -4 14178.1 1013.81   2
  -9  -9  -4 15660.7 878.985   1
  -8 -10  -4 3406.35 496.321   2
  -8 -10  -4 4541.40 470.595   1
  -7 -11  -4 813.263 226.262   1
  -7 -11  -4 1188.33 326.674   2
  -6 -12  -4 2522.90 350.317   1
  -6 -12  -4 2290.89 420.908   2
 -19   3  -4 2693.83 440.328   2
 -18   2  -4 7548.06 707.021   2
 -17   1  -4 16213.5 1030.71   2
 -16   0  -4 17859.9 1079.69   2
 -15  -1  -4 17227.0 1063.45   2
 -14  -2  -4 14399.6 976.020   2
 -13  -3  -4 6365.65 641.020   2
 -13  -3  -4 6712.47 531.686   1
 -12  -4  -4 428.375 153.395   1
 -12  -4  -4 2.36359 130.380   2
 -11  -5  -4 10939.2 679.091   1
 -11  -5  -4 10939.1 834.083   2
 -10  -6  -4 20601.0 1164.71   2
 -10  -6  -4 22639.3 995.911   1
 -10  -6  -4 22326.2 522.511   6
  -9  -7  -4 31415.6 1446.01   2
  -9  -7  -4 32351.6 1207.47   1
  -9  -7  -4 29021.5 833.010   6
  -8  -8  -4 22919.6 1204.76   2
  -8  -8  -4 20813.7 950.740   1
  -8  -8  -4 20932.3 781.408   6
  -7  -9  -4 16994.2 1027.19   2
  -7  -9  -4 16729.5 852.721   1
  -7  -9  -4 17593.7 789.307   6
  -6 -10  -4 7076.33 645.019   2
  -6 -10  -4 7638.43 559.181   1
  -6 -10  -4 7252.04 545.997   6
  -5 -11  -4 340.901 143.389   1
  -5 -11  -4 241.246 156.166   2
  -5 -11  -4 55.6628 88.2288   6
  -4 -12  -4 2599.05 396.528   6
 -18   4  -4-140.492 137.714   2
 -17   3  -4 815.075 241.857   2
 -16   2  -4 12473.0 856.767   2
 -15   1  -4 17784.7 1017.37   2
 -14   0  -4 27703.2 1281.39   2
 -13  -1  -4 30000.3 1333.47   2
 -12  -2  -4 12800.5 846.910   2
 -11  -3  -4 5961.87 568.361   2
 -11  -3  -4 5713.50 460.774   1
 -10  -4  -4 2538.21 306.600   1
 -10  -4  -4 2448.76 377.106   2
  -9  -5  -4 5378.26 545.966   2
  -9  -5  -4 6408.71 478.395   1
  -8  -6  -4 58838.3 1938.48   2
  -8  -6  -4 57520.2 1621.89   1
  -8  -6  -4 59656.8 1199.23   6
  -7  -7  -4 39560.2 1523.14   2
  -7  -7  -4 39112.9 1267.61   1
  -7  -7  -4 39075.5 1049.68   6
  -6  -8  -4 30225.9 1292.27   2
  -6  -8  -4 29644.4 1075.77   1
  -6  -8  -4 28117.1 977.886   6
  -5  -9  -4 14673.1 868.423   2
  -5  -9  -4 14677.8 724.310   1
  -5  -9  -4 14146.3 742.080   6
  -4 -10  -4 8329.70 641.611   2
  -4 -10  -4 8076.02 527.061   1
  -4 -10  -4 7193.41 562.195   6
  -3 -11  -4 499.464 138.520   1
  -3 -11  -4 411.053 164.100   2
  -3 -11  -4 376.725 151.547   6
  -2 -12  -4 5077.56 564.286   6
  -1 -13  -4 14336.5 999.531   6
 -16   4  -4 710.279 201.120   2
 -15   3  -4 1351.14 274.630   2
 -14   2  -4 14674.9 874.739   2
 -13   1  -4 30900.6 1290.19   2
 -12   0  -4 43060.6 1539.11   2
 -11  -1  -4 44677.4 1561.91   2
 -10  -2  -4 15518.7 868.241   2
  -9  -3  -4 4873.60 481.611   2
  -9  -3  -4 4630.69 378.737   1
  -8  -4  -4 8377.91 535.268   5
  -8  -4  -4 8157.98 622.536   2
  -8  -4  -4 8988.34 527.522   1
  -7  -5  -4 21715.6 1027.08   2
  -7  -5  -4 20686.7 825.820   1
  -7  -5  -4 20870.7 518.241   6
  -6  -6  -4 31687.1 1259.76   2
  -6  -6  -4 32715.1 1060.20   1
  -6  -6  -4 31473.2 851.196   6
  -5  -7  -4 62713.9 1838.20   2
  -5  -7  -4 62583.9 1575.55   1
  -5  -7  -4 60293.8 1473.93   6
  -4  -8  -4 35569.3 1307.37   2
  -4  -8  -4 34445.8 1091.26   1
  -4  -8  -4 34639.8 1138.19   6
  -3  -9  -4 6976.31 534.584   2
  -3  -9  -4 6666.77 438.786   1
  -3  -9  -4 6337.37 497.269   6
  -2 -10  -4 5576.63 466.203   2
  -2 -10  -4 4747.84 364.023   1
  -2 -10  -4 3804.25 429.230   6
  -1 -11  -4 364.199 167.604   6
   0 -12  -4 3350.76 478.703   6
   1 -13  -4 4376.46 571.392   6
 -17   7  -4 16749.1 1141.82   4
 -15   5  -4 10702.7 723.444   2
 -14   4  -4 3485.47 408.926   2
 -13   3  -4 5291.08 493.937   2
 -12   2  -4 13836.8 789.935   2
 -11   1  -4 45467.6 1503.16   2
 -10   0  -4 61245.6 1785.23   2
  -9  -1  -4 21646.5 972.723   2
  -8  -2  -4 22191.6 977.100   2
  -7  -3  -4 5591.22 469.378   2
  -7  -3  -4 6230.74 405.384   1
  -6  -4  -4 5464.30 415.421   5
  -6  -4  -4 4803.23 437.081   2
  -6  -4  -4 4684.35 346.797   1
  -5  -5  -4 24475.2 970.144   5
  -5  -5  -4 23776.0 988.199   2
  -5  -5  -4 22482.2 800.559   1
  -5  -5  -4 22382.3 625.395   6
  -4  -6  -4 28378.9 1079.51   2
  -4  -6  -4 29801.6 920.361   1
  -4  -6  -4 27384.4 845.579   6
  -3  -7  -4 63133.0 1710.52   2
  -3  -7  -4 64329.9 1484.39   1
  -3  -7  -4 61588.8 1555.86   6
  -2  -8  -4 46283.9 1399.97   2
  -2  -8  -4 49774.5 1241.94   1
  -2  -8  -4 47830.3 1439.38   6
  -1  -9  -4 29626.6 1027.68   2
  -1  -9  -4 28222.6 868.164   1
  -1  -9  -4 27301.9 1135.79   6
   0 -10  -4 7361.13 457.989   2
   0 -10  -4 7078.25 382.821   1
   0 -10  -4 6272.46 558.060   6
   1 -11  -4-10.9726 108.221   6
   2 -12  -4 1861.06 341.123   6
 -15   7  -4 15051.1 1009.74   4
 -14   6  -4 20471.3 971.468   2
 -14   6  -4 20593.8 1110.26   4
 -13   5  -4 23595.5 1035.08   2
 -13   5  -4 21532.0 1060.86   4
 -12   4  -4 276.341 112.147   4
 -12   4  -4 4.61317 93.3500   2
 -11   3  -4 5830.16 481.568   2
 -10   2  -4 16649.5 821.089   2
  -9   1  -4 22965.9 956.751   2
  -8   0  -4 37646.8 1251.26   2
  -7  -1  -4 39855.5 1284.09   2
  -6  -2  -4 22066.9 905.893   2
  -5  -3  -4 5553.91 430.046   2
  -4  -4  -4 6832.58 453.978   5
  -4  -4  -4 5968.84 445.178   2
  -4  -4  -4 5982.76 360.252   1
  -4  -4  -4 6875.89 282.362   6
  -3  -5  -4 13387.1 680.243   5
  -3  -5  -4 12411.8 637.020   2
  -3  -5  -4 12883.5 526.784   1
  -3  -5  -4 13114.2 504.253   6
  -2  -6  -4 39079.6 1188.19   2
  -2  -6  -4 40659.3 1019.00   1
  -2  -6  -4 38459.7 1103.52   6
  -1  -7  -4 59520.5 1509.79   2
  -1  -7  -4 59414.3 1300.34   1
  -1  -7  -4 59933.6 1577.06   6
   0  -8  -4 43982.0 1219.48   2
   0  -8  -4 45105.5 1043.74   1
   0  -8  -4 44730.2 1427.85   6
   1  -9  -4 33116.8 961.600   2
   1  -9  -4 35013.1 847.347   1
   1  -9  -4 33680.2 1316.78   6
   2 -10  -4 6529.16 586.898   6
   3 -11  -4-17.1265 140.060   6
   4 -12  -4 2707.46 436.890   6
 -14   8  -4 14085.9 968.653   4
 -13   7  -4 21213.9 923.589   2
 -13   7  -4 19955.2 1086.05   4
 -12   6  -4 18656.5 875.961   2
 -12   6  -4 18230.0 956.778   4
 -11   5  -4 11031.3 657.364   2
 -11   5  -4 10402.7 660.918   4
 -11   5  -4 12563.4 531.656   3
 -10   4  -4 2500.70 297.131   2
 -10   4  -4 2952.78 315.792   4
 -10   4  -4 2356.02 227.126   3
  -9   3  -4 5390.23 437.074   2
  -9   3  -4 5332.47 351.004   3
  -8   2  -4 22858.2 917.272   2
  -8   2  -4 22495.9 784.907   3
  -7   1  -4 40303.4 1258.22   2
  -7   1  -4 42433.5 1154.61   3
  -6   0  -4 109372. 2355.44   2
  -6   0  -4 112487. 2286.30   3
  -5  -1  -4 121712. 2501.11   2
  -4  -2  -4 41271.7 1205.55   2
  -3  -3  -4 6655.29 428.911   2
  -2  -4  -4 2695.25 279.266   5
  -2  -4  -4 2160.77 240.047   2
  -2  -4  -4 2765.73 205.699   6
  -1  -5  -4 7353.29 484.847   5
  -1  -5  -4 7944.75 442.532   2
  -1  -5  -4 6336.67 376.099   6
   0  -6  -4 61837.5 1697.96   5
   0  -6  -4 63495.5 1475.72   2
   0  -6  -4 63270.8 1569.17   6
   1  -7  -4 54496.1 1284.25   2
   1  -7  -4 53818.9 1548.16   6
   2  -8  -4 48303.0 1090.21   2
   2  -8  -4 40555.4 1427.84   6
   3  -9  -4 24389.2 573.079   2
   3  -9  -4 24616.7 1135.93   6
   4 -10  -4 4617.10 517.294   6
   5 -11  -4 405.369 159.363   6
 -13   9  -4 13479.8 946.739   4
 -12   8  -4 26936.6 1272.50   4
 -11   7  -4 24646.9 970.025   2
 -11   7  -4 24244.7 1110.94   4
 -10   6  -4 22749.1 928.230   2
 -10   6  -4 23910.9 1011.28   4
  -9   5  -4 6351.10 472.251   2
  -8   4  -4 8962.05 551.175   2
  -8   4  -4 9579.42 512.753   4
  -7   3  -4 5866.74 429.333   2
  -7   3  -4 6077.66 361.270   4
  -6   2  -4 23616.2 879.109   2
  -5   1  -4 120749. 2456.52   2
  -5   1  -4 120951. 2334.99   3
  -4   0  -4 113238. 2290.09   2
  -4   0  -4 109211. 2207.33   3
  -3  -1  -4 131635. 2543.15   2
  -2  -2  -4 71074.0 1611.54   2
  -1  -3  -4 17550.6 662.672   2
   0  -4  -4 16003.0 606.111   2
   0  -4  -4 14807.6 566.692   6
   1  -5  -4 17051.4 734.098   5
   1  -5  -4 18032.7 621.186   2
   1  -5  -4 15274.8 651.375   6
   2  -6  -4 30127.2 1064.17   5
   2  -6  -4 31131.0 825.349   2
   2  -6  -4 30191.5 1054.04   6
   3  -7  -4 39146.9 863.717   2
   3  -7  -4 34463.6 1248.27   6
   4  -8  -4 29730.9 1220.58   6
   5  -9  -4 14243.3 883.655   6
   6 -10  -4 328.812 185.174   6
   7 -11  -4 627.274 211.690   6
 -11   9  -4 11269.6 806.074   4
 -10   8  -4 24920.3 1127.58   4
 -10   8  -4 24706.0 940.990   2
  -9   7  -4 32020.6 1198.22   4
  -9   7  -4 30952.6 1067.51   2
  -8   6  -4 59115.8 1569.55   2
  -8   6  -4 60125.7 1591.08   4
  -7   5  -4 22465.8 868.153   2
  -7   5  -4 23332.4 818.917   4
  -6   4  -4 5161.77 391.045   2
  -6   4  -4 5206.00 323.227   4
  -5   3  -4 5864.45 403.173   2
  -5   3  -4 6566.01 302.026   4
  -4   2  -4 42264.3 1189.95   2
  -3   1  -4 130704. 2520.01   2
  -2   0  -4 112181. 2212.54   2
  -1  -1  -4 50514.2 1243.76   2
   0  -2  -4 57797.7 1329.65   2
   1  -3  -4 11918.6 499.603   2
   2  -4  -4 6614.48 341.829   2
   2  -4  -4 6632.41 398.971   6
   3  -5  -4 24126.6 661.732   2
   3  -5  -4 24379.2 901.379   6
   4  -6  -4 27079.6 1049.34   6
   4  -6  -4 29688.8 658.551   2
   5  -7  -4 34746.6 1164.15   5
   5  -7  -4 34159.1 1283.56   6
   6  -8  -4 61728.0 1933.05   6
   7  -9  -4 23915.3 1209.04   6
   8 -10  -4 9101.95 786.839   6
 -10  10  -4 3636.73 477.112   4
  -9   9  -4 16380.0 928.671   4
  -8   8  -4 21746.7 994.753   4
  -8   8  -4 22812.8 872.698   2
  -7   7  -4 41356.5 1296.99   4
  -7   7  -4 40350.9 1218.81   2
  -6   6  -4 33875.6 1074.32   2
  -5   5  -4 23563.1 860.338   2
  -5   5  -4 25257.3 775.451   4
  -4   4  -4 6562.09 425.188   2
  -4   4  -4 6670.94 306.673   4
  -3   3  -4 7230.99 431.559   2
  -3   3  -4 6717.97 234.105   4
  -2   2  -4 70292.9 1602.94   2
  -1   1  -4 54631.0 1326.61   2
   0   0  -4 163785. 2906.09   2
   1  -1  -4 83861.8 1703.28   2
   2  -2  -4 94937.5 1799.13   2
   2  -2  -4 86499.1 1906.39   3
   3  -3  -4 6688.76 327.286   2
   4  -4  -4 2053.45 241.910   6
   4  -4  -4 1986.06 162.143   2
   5  -5  -4 31544.7 1110.36   6
   5  -5  -4 31593.1 684.329   2
   6  -6  -4 33731.1 1235.80   6
   7  -7  -4 34491.4 1341.00   6
   8  -8  -4 29788.8 1329.76   6
   9  -9  -4 16322.1 1028.75   6
  10 -10  -4 5108.16 610.973   6
  -9  11  -4 1037.96 279.474   4
  -8  10  -4 4223.31 477.567   4
  -7   9  -4 18014.7 932.815   4
  -7   9  -4 18553.5 773.110   2
  -6   8  -4 33345.4 1196.76   4
  -6   8  -4 32762.9 1066.58   2
  -5   7  -4 64504.2 1600.63   2
  -4   6  -4 29094.2 967.107   2
  -3   5  -4 14356.7 636.968   2
  -2   4  -4 2486.12 249.403   2
  -1   3  -4 17396.9 672.624   2
   0   2  -4 57290.8 1363.92   2
   1   1  -4 78321.0 1661.76   2
   2   0  -4 90613.7 1798.14   2
   3  -1  -4 137339. 2438.54   2
   4  -2  -4 43683.4 1176.41   3
   4  -2  -4 46395.2 1055.27   2
   5  -3  -4 7916.14 464.476   3
   5  -3  -4 8014.36 344.267   2
   7  -5  -4 18749.4 878.310   6
   8  -6  -4 37310.3 1382.28   6
   9  -7  -4 33976.5 1400.46   6
  10  -8  -4 19531.4 1111.66   6
  11  -9  -4 9433.44 808.407   6
  -7  11  -4 479.581 198.064   4
  -6  10  -4 8344.57 658.757   4
  -4   8  -4 35913.4 1124.57   2
  -3   7  -4 66915.7 1636.84   2
  -2   6  -4 42794.6 1218.13   2
  -1   5  -4 8179.50 233.745   7
  -1   5  -4 7738.45 459.993   2
   0   4  -4 16362.3 453.207   7
   0   4  -4 17468.7 687.188   2
   1   3  -4 11597.2 423.811   7
   1   3  -4 12373.7 553.969   2
   2   2  -4 89075.8 1556.70   4
   2   2  -4 86156.2 1701.29   7
   2   2  -4 91771.7 1857.04   2
   3   1  -4 139822. 2378.30   4
   3   1  -4 140411. 2554.67   2
   3   1  -4 139401. 2529.08   7
   4   0  -4 123628. 2401.84   7
   4   0  -4 125106. 2292.36   2
   5  -1  -4 83331.2 1864.08   7
   5  -1  -4 80712.0 1627.50   2
   6  -2  -4 22339.6 775.768   3
   6  -2  -4 22428.4 885.048   7
   7  -3  -4 2411.46 295.073   7
   7  -3  -4 2345.76 249.888   3
  11  -7  -4 27657.8 1314.49   6
  12  -8  -4 18376.2 1121.92   6
  -1   7  -4 59788.2 1049.39   7
   0   6  -4 70206.9 1280.06   7
   0   6  -4 68492.8 1677.40   2
   1   5  -4 18064.2 539.242   7
   1   5  -4 17836.6 726.054   2
   2   4  -4 6577.31 328.179   7
   2   4  -4 6526.36 419.149   2
   3   3  -4 6828.75 348.813   4
   3   3  -4 6138.03 342.033   7
   3   3  -4 6826.99 415.470   2
   4   2  -4 46651.1 1107.49   4
   4   2  -4 45250.7 1159.37   7
   4   2  -4 46635.6 1208.72   2
   5   1  -4 79970.6 1696.44   4
   5   1  -4 81931.1 1781.75   7
   5   1  -4 79389.5 1770.04   1
   6   0  -4 82629.1 1840.43   4
   6   0  -4 80869.9 1864.59   7
   6   0  -4 82651.4 1733.09   1
   7  -1  -4 55315.7 1519.11   7
   7  -1  -4 55550.5 1274.88   1
   8  -2  -4 10754.3 638.805   7
   8  -2  -4 11804.3 535.479   3
   8  -2  -4 11793.8 459.575   1
   9  -3  -4 4167.50 417.510   7
   9  -3  -4 4637.94 340.963   3
   9  -3  -4 4516.91 245.776   1
  10  -4  -4 719.901 194.895   7
  -1   9  -4 29160.6 693.770   7
   0   8  -4 49522.9 1082.21   7
   1   7  -4 60907.1 1301.25   7
   2   6  -4 32437.6 1234.24   1
   2   6  -4 30859.8 851.127   7
   3   5  -4 24578.2 1030.74   1
   3   5  -4 25164.4 773.910   7
   4   4  -4 2078.78 211.204   7
   5   3  -4 7794.16 443.821   4
   5   3  -4 7985.15 442.663   7
   5   3  -4 7740.07 518.661   1
   6   2  -4 21491.6 798.192   4
   6   2  -4 21550.8 801.105   7
   7   1  -4 53613.7 1439.00   4
   7   1  -4 55593.3 1474.84   7
   8   0  -4 71296.4 1649.26   1
   8   0  -4 73158.5 1819.01   4
   8   0  -4 69025.9 1795.51   7
   9  -1  -4 38455.9 1080.32   1
   9  -1  -4 39682.8 1336.32   4
   9  -1  -4 39407.7 1301.58   7
  10  -2  -4 24623.8 1051.75   7
  10  -2  -4 23480.1 762.159   1
  10  -2  -4 24788.8 815.425   3
  11  -3  -4 2569.72 218.183   1
  11  -3  -4 2593.74 352.479   7
  11  -3  -4 2943.65 266.697   3
  12  -4  -4 1093.99 122.512   1
  12  -4  -4 1122.25 239.822   7
  13  -5  -4 8837.26 717.980   7
   1   9  -4 34034.6 963.518   7
   2   8  -4 43787.1 1157.48   7
   3   7  -4 38474.4 1093.08   7
   4   6  -4 29720.9 943.930   7
   5   5  -4 29155.0 955.376   7
   5   5  -4 30172.8 1187.30   1
   6   4  -4 244.664 103.771   1
   6   4  -4 239.135 93.8800   4
   6   4  -4 176.926 64.5117   7
   7   3  -4 2524.62 283.458   4
   7   3  -4 2014.63 248.643   7
   7   3  -4 2211.69 282.292   1
   8   2  -4 11589.1 642.961   1
   8   2  -4 12621.3 663.845   4
   8   2  -4 11386.4 624.994   7
   9   1  -4 39115.3 1230.78   1
   9   1  -4 39689.4 1319.31   4
   9   1  -4 40410.5 1298.67   7
  10   0  -4 33141.7 1236.10   4
  10   0  -4 29929.5 1159.83   7
  11  -1  -4 45261.3 1519.59   7
  12  -2  -4 8157.19 630.320   7
  12  -2  -4 7123.28 413.680   3
  13  -3  -4 2489.51 243.434   1
  13  -3  -4 2841.83 394.381   7
  14  -4  -4 536.634 199.606   7
  15  -5  -4 9239.16 779.970   7
   2  10  -4 7180.18 452.725   7
   3   9  -4 23760.2 890.820   7
   4   8  -4 28579.8 1002.40   7
   5   7  -4 35602.4 1153.91   7
   6   6  -4 36615.8 1182.54   7
   7   5  -4 19214.2 831.048   7
   8   4  -4 3536.35 373.183   4
   8   4  -4 3428.35 347.396   7
   9   3  -4 3544.08 380.861   1
   9   3  -4 4270.90 415.786   4
   9   3  -4 3886.49 376.926   7
  10   2  -4 23543.7 999.776   1
  10   2  -4 23771.7 1038.08   4
  10   2  -4 23301.4 996.403   7
  11   1  -4 48422.1 1469.67   1
  11   1  -4 45678.0 1510.78   7
  12   0  -4 115579. 2549.94   1
  12   0  -4 119419. 2821.66   7
  13  -1  -4 41733.5 1280.49   1
  13  -1  -4 40095.1 1514.02   7
  14  -2  -4 27857.0 979.424   1
  14  -2  -4 24816.2 1215.68   7
  14  -2  -4 25784.8 821.003   3
  15  -3  -4 3601.42 480.520   7
  16  -4  -4 1876.62 365.547   7
  17  -5  -4 7362.02 735.105   7
   4  10  -4 6079.35 471.065   7
   5   9  -4 14717.0 757.428   7
   6   8  -4 64329.9 1774.09   7
   7   7  -4 31200.0 1160.75   7
   8   6  -4 39895.8 1345.30   7
   9   5  -4 14068.7 764.948   7
  10   4  -4 736.281 175.398   7
  11   3  -4 2522.80 329.500   7
  12   2  -4 7208.12 578.067   7
  13   1  -4 40295.2 1504.19   7
  14   0  -4 48680.5 1731.43   7
  15  -1  -4 27761.0 1313.41   7
  16  -2  -4 17731.8 1071.09   7
  17  -3  -4 2526.97 418.247   7
  18  -4  -4 485.765 187.764   7
   5  11  -4 656.477 184.006   7
   6  10  -4 149.338 59.2817   7
   7   9  -4 25907.1 1122.60   7
   8   8  -4 29071.2 1194.43   7
   9   7  -4 35667.0 1351.43   7
  10   6  -4 30074.5 1239.23   7
  11   5  -4 9892.46 691.273   7
  12   4  -4 1407.35 265.799   7
  13   3  -4 2484.25 358.971   7
  14   2  -4 23188.3 1151.36   7
  15   1  -4 30329.8 1365.33   7
  16   0  -4 23081.6 1228.67   7
  17  -1  -4 24110.8 1292.51   7
  18  -2  -4 13974.1 1009.19   7
   7  11  -4 373.698 163.535   7
   8  10  -4 9038.16 692.824   7
   9   9  -4 17406.4 970.340   7
  10   8  -4 20155.2 1053.78   7
  11   7  -4 27108.1 1250.27   7
  12   6  -4 23020.3 1152.09   7
  13   5  -4 8571.41 694.314   7
  14   4  -4 860.373 234.156   7
  15   3  -4 4364.15 507.238   7
  16   2  -4 16633.0 1037.08   7
  17   1  -4 22311.4 1252.43   7
  18   0  -4 18585.6 1183.30   7
   9  11  -4 633.698 229.786   7
  10  10  -4 4207.65 510.872   7
  11   9  -4 9499.03 772.358   7
  12   8  -4 18181.7 1070.75   7
  13   7  -4 31531.3 1439.44   7
  14   6  -4 19031.2 1115.63   7
  15   5  -4 8526.88 742.241   7
  16   4  -4 1864.88 359.956   7
  17   3  -4 2143.51 382.793   7
  18   2  -4 15573.8 1076.88   7
  11  11  -4 45.8745 181.306   7
  12  10  -4 1743.08 346.545   7
  13   9  -4 7330.88 722.581   7
  14   8  -4 28429.9 1449.39   7
  15   7  -4 29208.1 1480.30   7
  16   6  -4 16767.2 1105.37   7
  17   5  -4 7835.43 763.167   7
 -18  -2  -5 7456.89 809.433   2
 -17  -3  -5 14107.5 1110.83   2
 -16  -4  -5 16245.0 1190.29   2
 -15  -5  -5 15730.6 1165.55   2
 -14  -6  -5 8259.59 845.614   2
 -14  -6  -5 8216.15 696.622   1
 -13  -7  -5 1451.28 289.834   1
 -13  -7  -5 975.321 309.672   2
 -12  -8  -5 957.094 245.056   1
 -12  -8  -5 723.447 273.414   2
 -11  -9  -5 11422.6 981.240   2
 -11  -9  -5 9895.73 755.269   1
 -10 -10  -5 16434.7 1156.42   2
 -10 -10  -5 17525.7 1011.64   1
  -9 -11  -5 17392.0 1184.49   2
  -9 -11  -5 17944.2 1012.07   1
 -19   1  -5 6936.20 738.544   2
 -18   0  -5-212.181 156.639   2
 -17  -1  -5 4379.64 576.977   2
 -16  -2  -5 20631.3 1264.60   2
 -15  -3  -5 34227.8 1654.02   2
 -14  -4  -5 25536.6 1424.18   2
 -13  -5  -5 16276.5 1126.41   2
 -12  -6  -5 4929.97 611.999   2
 -12  -6  -5 4826.32 501.472   1
 -11  -7  -5 3404.70 412.452   1
 -11  -7  -5 2986.48 494.313   2
 -10  -8  -5 2963.65 386.161   1
 -10  -8  -5 2379.01 439.314   2
  -9  -9  -5 6907.54 718.499   2
  -9  -9  -5 7931.00 634.664   1
  -8 -10  -5 20337.6 1216.40   2
  -8 -10  -5 20268.1 1016.75   1
  -7 -11  -5 18516.0 1143.56   2
  -7 -11  -5 20339.6 1009.75   1
 -19   3  -5 6647.28 693.050   2
 -18   2  -5 7179.04 712.398   2
 -17   1  -5 4846.88 575.853   2
 -16   0  -5 86.8095 166.605   2
 -15  -1  -5 6035.96 644.424   2
 -14  -2  -5 12799.9 934.242   2
 -13  -3  -5 26290.2 1342.61   2
 -12  -4  -5 26488.8 1361.17   2
 -11  -5  -5 20364.9 1170.28   2
 -11  -5  -5 18872.1 936.381   1
 -10  -6  -5 8847.68 763.379   2
 -10  -6  -5 8950.48 626.433   1
  -9  -7  -5 2720.46 427.889   2
  -9  -7  -5 4170.87 434.514   1
  -8  -8  -5 624.158 189.244   1
  -8  -8  -5 956.804 270.154   2
  -7  -9  -5 14666.3 954.067   2
  -7  -9  -5 14099.1 784.464   1
  -6 -10  -5 20778.6 1141.69   2
  -6 -10  -5 25050.9 1053.65   1
  -5 -11  -5 15968.9 973.145   2
  -5 -11  -5 17513.7 858.828   1
 -18   4  -5 12228.7 903.686   2
 -17   3  -5 16968.4 1059.94   2
 -16   2  -5 21455.3 1183.92   2
 -15   1  -5 5072.03 552.814   2
 -14   0  -5-9.65417 147.437   2
 -13  -1  -5 8682.78 721.735   2
 -12  -2  -5 25091.0 1250.37   2
 -11  -3  -5 18306.4 1050.91   2
 -10  -4  -5 51773.1 1835.96   2
  -9  -5  -5 38392.6 1538.04   2
  -9  -5  -5 36593.0 1261.74   1
  -8  -6  -5 8544.05 693.809   2
  -8  -6  -5 7437.46 529.967   1
  -7  -7  -5 917.851 191.571   1
  -7  -7  -5 1120.79 239.765   2
  -7  -7  -5 1126.69 141.039   6
  -6  -8  -5 650.379 164.965   1
  -6  -8  -5 1018.23 244.267   2
  -6  -8  -5 845.521 154.462   6
  -5  -9  -5 13986.4 864.697   2
  -5  -9  -5 13680.0 711.896   1
  -5  -9  -5 13364.8 700.847   6
  -4 -10  -5 20519.5 1039.00   2
  -4 -10  -5 22177.2 908.110   1
  -4 -10  -5 21834.6 994.325   6
  -3 -11  -5 24900.6 1172.16   6
  -2 -12  -5 17270.3 1037.21   6
 -16   4  -5 16438.8 997.492   2
 -15   3  -5 34003.4 1451.80   2
 -14   2  -5 14617.3 911.285   2
 -13   1  -5 8192.15 667.686   2
 -12   0  -5 72.3508 108.933   2
 -11  -1  -5 7703.34 632.349   2
 -10  -2  -5 26965.0 1199.72   2
  -9  -3  -5 44827.6 1600.87   2
  -8  -4  -5 54588.4 1773.67   2
  -7  -5  -5 41304.3 1507.19   2
  -6  -6  -5 12859.5 792.800   2
  -6  -6  -5 12902.6 652.919   1
  -6  -6  -5 13675.4 474.364   6
  -5  -7  -5 710.829 162.610   1
  -5  -7  -5 816.264 202.923   2
  -5  -7  -5 701.758 134.027   6
  -4  -8  -5 9021.87 637.526   2
  -4  -8  -5 8506.72 509.599   1
  -4  -8  -5 9814.09 552.247   6
  -3  -9  -5 10485.4 673.459   2
  -3  -9  -5 9952.21 543.235   1
  -3  -9  -5 9552.51 619.868   6
  -2 -10  -5 21109.2 940.051   2
  -2 -10  -5 19555.6 989.765   6
  -1 -11  -5 22933.0 1154.47   6
   0 -12  -5 12018.2 886.816   6
 -15   5  -5 14017.6 884.164   2
 -14   4  -5 26195.4 1210.92   2
 -13   3  -5 27833.0 1239.03   2
 -12   2  -5 24156.0 1119.73   2
 -11   1  -5 7498.92 593.963   2
 -10   0  -5-15.4272 78.9534   2
  -9  -1  -5 6021.23 516.811   2
  -8  -2  -5 51097.4 1630.89   2
  -7  -3  -5 77167.3 2077.37   2
  -6  -4  -5 39656.4 1387.23   2
  -5  -5  -5 33613.0 1245.19   2
  -4  -6  -5 30853.1 1173.90   2
  -4  -6  -5 31424.8 884.620   6
  -3  -7  -5 3879.08 389.489   2
  -3  -7  -5 3892.44 325.359   6
  -2  -8  -5 6014.61 472.471   2
  -2  -8  -5 7172.23 493.583   6
  -1  -9  -5 9821.62 585.389   2
  -1  -9  -5 9097.33 625.094   6
   0 -10  -5 16663.1 736.811   2
   0 -10  -5 16764.6 937.022   6
   1 -11  -5 23890.6 1223.88   6
   2 -12  -5 14521.3 1000.01   6
 -14   6  -5 9204.44 673.749   2
 -13   5  -5 14454.2 850.682   2
 -12   4  -5 27438.6 1184.98   2
 -12   4  -5 29022.3 980.606   3
 -11   3  -5 18860.4 949.464   2
 -11   3  -5 18511.8 781.453   3
 -10   2  -5 26646.3 1126.14   2
 -10   2  -5 26233.8 976.615   3
  -9   1  -5 5382.77 481.279   2
  -8   0  -5 1.50892 87.5112   2
  -7  -1  -5 26982.4 1079.57   2
  -6  -2  -5 28423.9 1095.13   2
  -5  -3  -5 65766.1 1781.64   2
  -4  -4  -5 53265.3 1540.39   2
  -3  -5  -5 39517.5 1263.07   2
  -3  -5  -5 37950.2 963.678   6
  -2  -6  -5 29020.7 1050.78   2
  -2  -6  -5 31287.4 953.671   6
  -1  -7  -5 4958.95 397.416   2
  -1  -7  -5 4903.45 396.332   6
   0  -8  -5 3704.88 329.949   2
   0  -8  -5 3655.60 377.398   6
   1  -9  -5 16335.3 673.647   2
   1  -9  -5 15687.9 870.423   6
   2 -10  -5 21015.2 1106.58   6
   3 -11  -5 24456.5 1273.28   6
   4 -12  -5 10572.8 893.370   6
 -13   7  -5 1374.20 245.195   2
 -13   7  -5 1738.98 307.762   4
 -12   6  -5 4245.30 444.754   2
 -12   6  -5 4722.65 463.238   4
 -11   5  -5 19087.5 942.127   2
 -11   5  -5 20461.8 899.833   4
 -11   5  -5 20713.4 813.855   3
 -10   4  -5 55442.2 1697.16   2
 -10   4  -5 55835.6 1469.90   3
  -9   3  -5 46469.2 1493.68   2
  -9   3  -5 46540.6 1313.85   3
  -8   2  -5 49265.9 1531.33   2
  -8   2  -5 51078.6 1399.91   3
  -7   1  -5 26787.5 1050.55   2
  -7   1  -5 26901.6 965.839   3
  -6   0  -5 14.2050 55.1409   2
  -6   0  -5-10.0582 72.3997   3
  -5  -1  -5 29323.0 1072.60   2
  -5  -1  -5 30983.7 1090.60   3
  -4  -2  -5 36823.7 1195.07   2
  -3  -3  -5 54841.0 1504.70   2
  -2  -4  -5 67397.1 1683.62   2
  -1  -5  -5 48239.5 1334.11   2
  -1  -5  -5 47661.1 1209.28   6
   0  -6  -5 13828.7 637.512   2
   0  -6  -5 13625.9 646.086   6
   1  -7  -5 328.251 95.3041   2
   1  -7  -5 427.994 141.742   6
   2  -8  -5 6997.14 387.442   2
   2  -8  -5 6787.62 541.964   6
   3  -9  -5 13621.0 836.146   6
   4 -10  -5 29047.5 1357.29   6
   5 -11  -5 16048.1 1054.16   6
 -12   8  -5 1062.05 245.527   4
 -11   7  -5 3233.01 369.258   2
 -11   7  -5 3984.44 428.493   4
 -10   6  -5 9250.49 618.267   2
 -10   6  -5 10627.5 629.542   4
  -9   5  -5 39311.4 1343.66   2
  -8   4  -5 52581.5 1579.59   2
  -7   3  -5 81429.8 2037.04   2
  -6   2  -5 27744.1 1043.21   2
  -6   2  -5 29331.1 978.545   3
  -5   1  -5 30481.0 1079.28   2
  -5   1  -5 32123.9 1036.53   3
  -4   0  -5 105.065 81.3960   2
  -4   0  -5 36.3634 67.8260   3
  -3  -1  -5 15318.7 705.832   2
  -2  -2  -5 70836.9 1718.73   2
  -1  -3  -5 50933.2 1361.35   2
   0  -4  -5 51602.8 1340.88   2
   1  -5  -5 24439.4 823.641   2
   1  -5  -5 21933.8 820.858   6
   2  -6  -5 3990.75 301.501   2
   2  -6  -5 4165.73 372.295   6
   3  -7  -5 1973.89 188.547   2
   3  -7  -5 1826.30 274.024   6
   4  -8  -5 8146.84 621.873   6
   4  -8  -5 8882.91 319.221   2
   5  -9  -5 21454.0 1117.38   6
   6 -10  -5 21488.1 1193.05   6
   7 -11  -5 18594.8 1169.71   6
 -10   8  -5 2705.12 318.424   2
 -10   8  -5 2611.92 336.304   4
  -9   7  -5 3367.78 355.482   2
  -9   7  -5 3723.14 374.346   4
  -8   6  -5 8418.46 565.370   2
  -7   5  -5 40580.0 1337.62   2
  -7   5  -5 43895.7 1130.12   4
  -6   4  -5 41299.7 1312.64   2
  -6   4  -5 40114.5 960.162   4
  -5   3  -5 71544.4 1814.45   2
  -4   2  -5 36119.5 1171.16   2
  -3   1  -5 14905.1 691.662   2
  -2   0  -5 8.22413 66.0738   2
  -1  -1  -5 22546.3 830.189   2
   0  -2  -5 31049.5 978.756   2
   1  -3  -5 79867.8 1762.38   2
   1  -3  -5 80784.5 1992.53   3
   2  -4  -5 35468.4 1002.07   2
   3  -5  -5 36110.0 953.571   2
   4  -6  -5 18729.3 872.970   6
   4  -6  -5 22163.4 636.534   2
   5  -7  -5 7515.02 581.247   6
   5  -7  -5 7547.51 278.907   2
   6  -8  -5 1084.34 241.038   6
   7  -9  -5 12428.8 880.822   6
   8 -10  -5 18137.7 1132.65   6
  -9   9  -5 7990.53 603.260   4
  -9   9  -5 7849.87 542.941   2
  -8   8  -5 489.772 145.112   2
  -8   8  -5 837.136 193.233   4
  -7   7  -5 595.960 149.630   2
  -6   6  -5 13688.3 581.496   4
  -6   6  -5 13860.3 711.457   2
  -5   5  -5 34894.8 1170.13   2
  -5   5  -5 34616.3 874.783   4
  -4   4  -5 56349.7 1537.18   2
  -4   4  -5 57368.2 1057.84   4
  -3   3  -5 54872.5 1481.76   2
  -2   2  -5 75859.4 1800.64   2
  -1   1  -5 23086.7 853.056   2
   0   0  -5 13.7029 63.5995   2
   1  -1  -5 12576.9 577.768   2
   2  -2  -5 49214.1 1239.10   2
   3  -3  -5 72022.6 1558.76   2
   3  -3  -5 71593.4 1815.29   3
   4  -4  -5 66675.6 1415.96   2
   5  -5  -5 20352.8 609.158   2
   6  -6  -5 11119.2 696.600   6
   7  -7  -5 1320.41 277.894   6
   8  -8  -5 642.717 204.749   6
   9  -9  -5 13762.3 971.431   6
  -7   9  -5 16324.8 845.278   4
  -7   9  -5 17574.1 822.781   2
  -6   8  -5 728.192 168.771   2
  -6   8  -5 775.281 177.481   4
  -5   7  -5 571.214 140.840   2
  -4   6  -5 31061.3 873.049   4
  -4   6  -5 31869.4 1102.28   2
  -3   5  -5 42454.1 914.399   4
  -3   5  -5 39107.9 1238.43   2
  -2   4  -5 70100.0 1147.57   4
  -2   4  -5 72609.8 1757.48   2
  -1   3  -5 52050.9 1399.30   2
   0   2  -5 32680.8 1039.44   2
   1   1  -5 11741.0 567.431   2
   2   0  -5 20.6038 45.8858   2
   3  -1  -5 12611.2 559.642   2
   4  -2  -5 46231.8 1154.38   2
   5  -3  -5 58941.8 1596.88   3
   5  -3  -5 60756.7 1331.49   2
   6  -4  -5 66423.5 1364.27   2
  -6  10  -5 27891.8 1188.97   4
  -5   9  -5 15001.3 777.816   4
  -5   9  -5 14157.0 737.055   2
  -4   8  -5 9345.63 579.705   2
  -3   7  -5 3927.70 369.562   2
  -2   6  -5 31613.0 1094.41   2
  -1   5  -5 51263.8 1430.43   2
   0   4  -5 51046.7 1399.96   2
   1   3  -5 81038.1 1378.18   4
   1   3  -5 83809.1 1629.19   7
   1   3  -5 82321.2 1888.73   2
   2   2  -5 50236.2 991.520   4
   2   2  -5 49124.2 1213.01   7
   2   2  -5 49443.9 1329.56   2
   3   1  -5 11976.3 561.474   7
   3   1  -5 12491.5 585.427   2
   4   0  -5 5.93065 51.8338   2
   4   0  -5 56.1529 53.8322   7
   5  -1  -5 14084.0 696.398   7
   5  -1  -5 13803.6 577.859   2
   6  -2  -5 33023.8 932.794   2
  -1   7  -5 4777.65 409.055   2
   0   6  -5 14666.3 440.178   7
   0   6  -5 16116.9 752.948   2
   1   5  -5 24570.8 693.692   7
   1   5  -5 26203.9 959.537   2
   2   4  -5 35583.9 942.143   7
   2   4  -5 34610.7 878.147   4
   2   4  -5 39174.4 1178.87   2
   3   3  -5 76025.2 1501.81   4
   3   3  -5 72912.6 1616.24   7
   3   3  -5 73648.1 1761.50   2
   4   2  -5 46007.3 1103.19   4
   4   2  -5 45929.3 1233.94   7
   4   2  -5 45837.3 1279.73   2
   5   1  -5 13740.8 589.193   4
   5   1  -5 13908.2 653.661   7
   5   1  -5 14873.2 645.214   2
   6   0  -5-4.07568 60.0649   7
   7  -1  -5 11760.2 668.505   7
   8  -2  -5 9947.20 652.898   7
   9  -3  -5 56801.3 1785.87   7
   0   8  -5 3675.30 200.687   7
   1   7  -5 236.668 70.5509   7
   2   6  -5 4208.40 285.663   7
   3   5  -5 36899.2 1023.67   7
   4   4  -5 68286.6 1896.51   1
   4   4  -5 66200.3 1521.08   4
   4   4  -5 68329.5 1581.60   7
   5   3  -5 59493.8 1716.40   1
   5   3  -5 61901.1 1463.96   4
   5   3  -5 59343.2 1511.27   7
   6   2  -5 34762.0 1183.96   1
   6   2  -5 32085.7 1016.82   4
   6   2  -5 33658.7 1110.60   7
   7   1  -5 10585.1 580.599   4
   7   1  -5 11362.9 637.050   7
   7   1  -5 11535.7 621.682   1
   8   0  -5-119.696 94.0955   4
   8   0  -5 78.7208 83.7018   7
   9  -1  -5 2264.41 312.247   7
  10  -2  -5 52800.0 1311.86   1
  10  -2  -5 54019.7 1727.61   7
  11  -3  -5 36147.8 1438.93   7
  12  -4  -5 53907.1 1889.34   7
   1   9  -5 17475.5 589.150   7
   2   8  -5 7350.06 401.977   7
   3   7  -5 2018.52 220.881   7
   4   6  -5 20467.5 779.389   7
   5   5  -5 27734.4 989.682   4
   5   5  -5 31763.8 1022.71   7
   6   4  -5 63335.2 1633.84   4
   6   4  -5 64382.8 1647.92   7
   7   3  -5 44279.0 1318.30   4
   7   3  -5 45469.3 1360.97   7
   7   3  -5 44107.3 1473.83   1
   8   2  -5 10377.4 606.674   4
   8   2  -5 10120.9 617.164   7
   8   2  -5 10069.6 639.646   1
   9   1  -5 2265.05 288.162   1
   9   1  -5 2468.87 310.364   4
   9   1  -5 2460.74 317.528   7
  10   0  -5 98.5182 94.5578   1
  10   0  -5 21.7941 86.3566   7
  11  -1  -5 28870.0 1232.65   7
  12  -2  -5 39915.7 1551.30   7
  13  -3  -5 33744.2 1466.05   7
  14  -4  -5 35463.2 1571.93   7
   3   9  -5 13405.2 622.326   7
   4   8  -5 9249.11 529.302   7
   5   7  -5 7202.59 480.799   7
   6   6  -5 11402.9 633.032   7
   7   5  -5 30649.2 1143.90   4
   7   5  -5 29365.8 1085.49   7
   8   4  -5 45753.1 1451.43   4
   8   4  -5 45942.9 1433.20   7
   9   3  -5 57178.5 1693.44   4
   9   3  -5 58187.2 1698.28   7
  10   2  -5 55910.9 1712.63   1
  10   2  -5 53563.6 1675.46   7
  11   1  -5 29466.8 1159.59   1
  11   1  -5 31212.6 1256.26   7
  12   0  -5 53.0705 81.7841   7
  12   0  -5-170.484 130.625   1
  13  -1  -5 9204.04 577.298   1
  13  -1  -5 9529.36 728.332   7
  14  -2  -5 19051.1 1093.65   7
  15  -3  -5 25617.6 1345.26   7
  16  -4  -5 26926.3 1433.27   7
   4  10  -5 29618.1 1057.37   7
   5   9  -5 23112.0 958.398   7
   6   8  -5 756.826 170.758   7
   7   7  -5 768.065 181.324   7
   8   6  -5 6106.56 498.985   7
   9   5  -5 30513.2 1194.76   7
  10   4  -5 40305.3 1436.54   7
  11   3  -5 37363.2 1399.69   7
  12   2  -5 37699.0 1456.38   7
  13   1  -5 10451.2 758.928   7
  14   0  -5-35.7449 154.838   7
  15  -1  -5 5212.03 573.712   7
  16  -2  -5 8006.49 752.444   7
  17  -3  -5 29595.5 1538.95   7
   6  10  -5 22756.4 1026.67   7
   7   9  -5 10353.4 685.149   7
   8   8  -5 355.302 106.366   7
   9   7  -5 1114.33 228.623   7
  10   6  -5 5240.76 502.854   7
  11   5  -5 36603.8 1427.44   7
  12   4  -5 53344.9 1796.72   7
  13   3  -5 33128.6 1408.76   7
  14   2  -5 17996.0 1042.71   7
  15   1  -5 4775.73 545.783   7
  16   0  -5 214.219 182.272   7
  17  -1  -5 3934.74 542.581   7
   8  10  -5 21278.3 1082.56   7
   9   9  -5 13081.1 839.536   7
  10   8  -5 3625.83 442.556   7
  11   7  -5 499.372 203.163   7
  12   6  -5 15763.9 962.698   7
  13   5  -5 33970.3 1467.32   7
  14   4  -5 35241.3 1529.61   7
  15   3  -5 27287.8 1360.84   7
  16   2  -5 9165.98 789.360   7
  17   1  -5 3472.03 502.676   7
  10  10  -5 20024.7 1131.00   7
  11   9  -5 9975.64 783.832   7
  12   8  -5 2486.45 402.752   7
  13   7  -5 2816.32 433.539   7
  14   6  -5 8714.94 762.450   7
  15   5  -5 20149.9 1191.60   7
  16   4  -5 26300.4 1390.85   7
  17   3  -5 29071.2 1496.94   7
  12  10  -5 16623.3 1082.94   7
  13   9  -5 10792.6 872.883   7
  14   8  -5 1407.24 321.278   7
  15   7  -5 263.462 170.873   7
 -15  -5  -6 5933.42 738.475   2
 -14  -6  -6 14678.0 1154.87   2
 -13  -7  -6 19458.3 1323.65   2
 -12  -8  -6 23496.7 1446.70   2
 -11  -9  -6 11545.7 1000.67   2
 -10 -10  -6 2235.30 428.084   2
  -9 -11  -6 1157.68 352.255   2
 -17  -1  -6 25661.7 1461.60   2
 -16  -2  -6 13706.2 1050.49   2
 -15  -3  -6 1143.24 317.383   2
 -14  -4  -6 765.696 256.804   2
 -13  -5  -6 4685.82 612.244   2
 -12  -6  -6 24472.9 1415.53   2
 -11  -7  -6 22621.8 1337.97   2
 -10  -8  -6 17629.8 1173.01   2
  -9  -9  -6 11397.2 929.005   2
  -8 -10  -6 1961.89 395.163   2
  -7 -11  -6 926.761 253.486   2
 -18   2  -6 8014.44 778.575   2
 -17   1  -6 24944.4 1393.31   2
 -16   0  -6 18947.2 1195.96   2
 -15  -1  -6 21942.4 1273.01   2
 -14  -2  -6 9758.05 830.212   2
 -13  -3  -6 2159.37 404.164   2
 -12  -4  -6 842.332 265.156   2
 -11  -5  -6 7994.95 746.451   2
 -10  -6  -6 23015.1 1281.21   2
  -9  -7  -6 24577.4 1308.30   2
  -8  -8  -6 17826.2 1100.26   2
  -7  -9  -6 11290.2 852.581   2
  -6 -10  -6 1902.39 355.889   2
  -5 -11  -6 690.133 244.347   2
 -18   4  -6 721.488 245.114   2
 -17   3  -6 2715.20 450.360   2
 -16   2  -6 13868.5 987.613   2
 -15   1  -6 20480.7 1185.88   2
 -14   0  -6 20879.2 1190.16   2
 -13  -1  -6 16719.8 1044.83   2
 -12  -2  -6 12447.1 893.539   2
 -11  -3  -6 9009.94 747.241   2
 -10  -4  -6 1784.53 345.739   2
  -9  -5  -6 17490.3 1041.43   2
  -8  -6  -6 13441.6 899.234   2
  -7  -7  -6 21038.8 1129.81   2
  -6  -8  -6 25736.7 1239.89   2
  -5  -9  -6 19397.8 1045.84   2
  -4 -10  -6 5397.13 535.944   2
 -16   4  -6-117.100 159.281   2
 -15   3  -6 1176.40 286.550   2
 -14   2  -6 9742.36 782.498   2
 -13   1  -6 17392.8 1031.56   2
 -12   0  -6 38078.4 1556.19   2
 -11  -1  -6 29074.3 1321.91   2
 -10  -2  -6 24311.2 1193.96   2
  -9  -3  -6 8362.33 679.705   2
  -8  -4  -6 785.939 219.779   2
  -7  -5  -6 30837.5 1314.61   2
  -6  -6  -6 38891.8 1476.08   2
  -5  -7  -6 30655.8 1283.50   2
  -4  -8  -6 28526.4 1218.02   2
  -4  -8  -6 30660.3 1029.31   6
  -3  -9  -6 11846.3 742.539   2
  -3  -9  -6 10729.7 654.125   6
  -2 -10  -6 2700.43 351.818   2
  -2 -10  -6 2297.40 326.810   6
  -1 -11  -6-68.6612 164.440   6
   0 -12  -6 3071.27 452.260   6
 -15   5  -6 6340.21 637.766   2
 -14   4  -6 911.203 242.430   2
 -13   3  -6 2027.15 367.245   2
 -12   2  -6 11971.1 820.504   2
 -11   1  -6 30851.8 1328.86   2
 -10   0  -6 59228.1 1908.67   2
  -9  -1  -6 46434.4 1631.15   2
  -8  -2  -6 20511.4 1023.15   2
  -7  -3  -6 2939.62 371.437   2
  -6  -4  -6 837.511 190.070   2
  -5  -5  -6 13435.7 787.731   2
  -4  -6  -6 37620.6 1365.09   2
  -3  -7  -6 32807.3 1246.15   2
  -3  -7  -6 32581.8 1031.23   6
  -2  -8  -6 18023.9 884.256   2
  -2  -8  -6 17583.1 808.306   6
  -1  -9  -6 5806.89 474.425   2
  -1  -9  -6 6197.76 515.415   6
   0 -10  -6 2586.35 368.385   6
   1 -11  -6 583.905 220.689   6
   2 -12  -6 4575.22 567.861   6
 -14   6  -6 14882.0 934.300   2
 -13   5  -6 4107.41 484.565   2
 -12   4  -6 70.8796 124.636   2
 -12   4  -6 724.415 178.886   3
 -11   3  -6 9134.19 686.352   2
 -11   3  -6 8701.33 584.720   3
 -10   2  -6 27436.8 1206.80   2
 -10   2  -6 27422.9 1088.66   3
  -9   1  -6 48672.7 1637.16   2
  -9   1  -6 47344.5 1529.85   3
  -8   0  -6 40317.7 1451.93   2
  -8   0  -6 39195.4 1376.81   3
  -7  -1  -6 39129.5 1406.87   2
  -6  -2  -6 20715.7 974.556   2
  -5  -3  -6 3406.60 377.434   2
  -4  -4  -6 2837.23 337.718   2
  -3  -5  -6 6830.20 524.406   2
  -2  -6  -6 26412.2 1047.61   2
  -1  -7  -6 33522.3 1176.76   2
  -1  -7  -6 33390.1 1124.78   6
   0  -8  -6 18151.5 805.362   2
   0  -8  -6 19215.3 902.514   6
   1  -9  -6 8792.50 512.022   2
   1  -9  -6 8538.53 639.695   6
   2 -10  -6 4732.41 520.607   6
   3 -11  -6-165.576 148.006   6
 -13   7  -6 19938.3 1041.16   2
 -12   6  -6 24088.2 1144.16   2
 -11   5  -6 8625.98 665.432   2
 -11   5  -6 8535.37 560.954   3
 -10   4  -6 1825.03 310.614   2
 -10   4  -6 2140.09 283.113   3
  -9   3  -6 8930.23 651.775   2
  -9   3  -6 8050.22 551.782   3
  -8   2  -6 21048.7 1001.07   2
  -8   2  -6 20741.0 909.358   3
  -7   1  -6 39248.4 1397.97   2
  -7   1  -6 41525.8 1353.40   3
  -6   0  -6 30290.9 1181.51   2
  -6   0  -6 29718.1 1138.26   3
  -5  -1  -6 31032.8 1178.72   2
  -5  -1  -6 30510.6 1174.52   3
  -4  -2  -6 30901.4 1160.94   2
  -4  -2  -6 32150.9 1236.95   3
  -3  -3  -6 3231.14 351.199   2
  -2  -4  -6 62.9387 84.0155   2
  -1  -5  -6 14994.1 738.256   2
   0  -6  -6 29865.4 1048.91   2
   1  -7  -6 41708.9 1240.53   2
   1  -7  -6 40218.7 1329.71   6
   2  -8  -6 26148.9 879.282   2
   2  -8  -6 25119.1 1103.41   6
   3  -9  -6 15547.5 913.136   6
   4 -10  -6 4966.77 551.372   6
   5 -11  -6 543.085 222.934   6
 -11   7  -6 24069.8 1109.70   2
 -10   6  -6 22155.4 1056.21   2
  -9   5  -6 15384.4 859.882   2
  -8   4  -6 654.970 178.393   2
  -7   3  -6 3227.83 378.122   2
  -6   2  -6 20114.2 941.785   2
  -6   2  -6 21828.9 915.512   3
  -5   1  -6 31492.8 1173.35   2
  -5   1  -6 30903.6 1129.86   3
  -4   0  -6 46649.2 1446.41   2
  -4   0  -6 46214.2 1431.94   3
  -3  -1  -6 49642.7 1489.50   2
  -3  -1  -6 49732.5 1517.00   3
  -2  -2  -6 17539.1 807.530   2
  -2  -2  -6 17723.2 867.747   3
  -1  -3  -6 11953.4 642.544   2
   0  -4  -6 6673.57 460.443   2
   1  -5  -6 27231.8 959.935   2
   2  -6  -6 64371.1 1575.60   2
   3  -7  -6 71947.9 1594.00   2
   4  -8  -6 33740.0 1361.12   6
   4  -8  -6 35523.2 885.139   2
   5  -9  -6 14355.4 915.890   6
   6 -10  -6 4562.31 554.868   6
 -10   8  -6 18754.9 951.779   2
  -9   7  -6 23576.2 1062.80   2
  -8   6  -6 14998.0 823.986   2
  -8   6  -6 15436.9 637.812   4
  -7   5  -6 29003.7 1160.59   2
  -6   4  -6 949.633 200.921   2
  -5   3  -6 3621.45 375.553   2
  -4   2  -6 34590.1 1223.50   2
  -3   1  -6 47146.6 1438.94   2
  -2   0  -6 41832.0 1328.85   2
  -2   0  -6 44184.1 1363.60   3
  -1  -1  -6 51766.2 1474.25   2
   0  -2  -6 24264.3 928.801   2
   0  -2  -6 25941.4 1041.49   3
   1  -3  -6 3514.37 319.463   2
   1  -3  -6 3645.02 396.424   3
   2  -4  -6 3546.24 312.696   2
   3  -5  -6 4702.53 344.010   2
   4  -6  -6 24184.0 776.875   2
   5  -7  -6 28148.1 751.825   2
  -9   9  -6 13115.6 771.911   2
  -8   8  -6 21610.9 1009.43   2
  -7   7  -6 22765.3 807.072   4
  -7   7  -6 22304.7 1012.01   2
  -6   6  -6 42250.6 1019.32   4
  -6   6  -6 39248.2 1376.29   2
  -5   5  -6 15145.9 786.706   2
  -4   4  -6 4107.97 399.846   2
  -3   3  -6 2953.73 325.327   2
  -2   2  -6 17846.8 813.846   2
  -1   1  -6 49275.0 1433.21   2
   0   0  -6 57962.0 1550.39   2
   1  -1  -6 58387.3 1540.23   2
   1  -1  -6 61033.4 1664.41   3
   2  -2  -6 37309.1 1132.17   2
   2  -2  -6 36174.6 1249.30   3
   3  -3  -6 2736.20 268.210   2
   3  -3  -6 2985.79 341.642   3
   4  -4  -6 1825.78 204.592   2
   5  -5  -6 15237.5 590.988   2
   6  -6  -6 19056.6 602.675   2
  -7   9  -6 12463.0 748.514   2
  -6   8  -6 28803.7 1162.21   2
  -5   7  -6 35494.5 961.958   4
  -5   7  -6 33956.1 1260.12   2
  -4   6  -6 38630.4 877.436   4
  -4   6  -6 39922.3 1345.63   2
  -3   5  -6 7794.23 548.006   2
  -2   4  -6 329.112 116.223   2
  -1   3  -6 11968.2 656.181   2
   0   2  -6 23848.3 935.331   2
   1   1  -6 57616.4 1544.61   2
   2   0  -6 91558.1 2057.10   2
   3  -1  -6 44345.9 1362.94   3
   3  -1  -6 41896.3 1228.25   2
   4  -2  -6 28689.7 1092.15   3
   4  -2  -6 29625.0 953.584   2
   5  -3  -6 3950.03 401.609   3
   5  -3  -6 4153.58 319.377   2
   6  -4  -6 2173.91 216.809   2
  -5   9  -6 19597.1 947.711   2
  -4   8  -6 32922.4 1006.26   4
  -4   8  -6 31988.2 1221.45   2
  -3   7  -6 34800.6 927.227   4
  -3   7  -6 33046.4 1231.96   2
  -2   6  -6 27994.6 689.817   4
  -2   6  -6 25631.0 1054.88   2
  -1   5  -6 14676.4 347.008   4
  -1   5  -6 14509.0 355.141   4
  -1   5  -6 16305.4 793.219   2
   0   4  -6 7181.32 504.256   2
   1   3  -6 3519.05 343.744   2
   2   2  -6 40100.4 1248.36   2
   3   1  -6 42613.0 1268.10   2
   4   0  -6 81018.5 1879.03   2
   5  -1  -6 47409.6 1296.22   2
   6  -2  -6 20966.8 909.913   3
   6  -2  -6 21404.9 779.154   2
   7  -3  -6 23342.1 994.103   3
  -2   8  -6 18975.7 922.103   2
  -1   7  -6 33742.3 1244.02   2
   0   6  -6 32611.3 1193.13   2
   1   5  -6 28904.6 726.928   4
   1   5  -6 28410.3 811.582   7
   1   5  -6 28642.2 1088.41   2
   2   4  -6 3431.35 210.209   4
   2   4  -6 3649.36 290.176   7
   2   4  -6 3649.22 360.079   2
   3   3  -6 2489.69 191.909   4
   3   3  -6 2516.68 291.790   2
   3   3  -6 2763.44 270.527   7
   4   2  -6 28908.8 831.519   4
   4   2  -6 28856.3 1008.05   7
   4   2  -6 30304.2 1051.63   2
   5   1  -6 46111.6 1397.54   7
   5   1  -6 48509.8 1370.33   2
   6   0  -6 40609.5 1353.46   7
   6   0  -6 41360.5 1227.00   2
   7  -1  -6 49297.0 1582.93   7
   8  -2  -6 49294.5 1633.27   7
   8  -2  -6 47193.5 1459.45   3
   9  -3  -6 2182.60 295.930   3
   1   7  -6 45769.8 1047.67   7
   2   6  -6 63553.2 1437.46   7
   3   5  -6 4746.87 318.555   4
   3   5  -6 4778.41 346.258   7
   3   5  -6 4792.21 433.096   2
   4   4  -6 1768.57 260.286   2
   4   4  -6 1956.70 208.490   4
   4   4  -6 1763.34 228.617   7
   5   3  -6 3953.24 304.936   4
   5   3  -6 4000.19 359.648   7
   6   2  -6 20588.9 791.801   4
   6   2  -6 21063.6 896.769   7
   7   1  -6 52567.4 1460.32   4
   7   1  -6 50408.3 1550.91   7
   8   0  -6 58192.8 1759.25   7
   9  -1  -6 70887.0 2057.45   7
  10  -2  -6 23268.2 1140.20   7
  10  -2  -6 24284.8 1000.25   3
  11  -3  -6 2399.27 369.936   7
  11  -3  -6 2502.90 309.226   3
   2   8  -6 26080.3 803.177   7
   3   7  -6 71333.1 1652.97   7
   4   6  -6 24692.6 906.478   4
   4   6  -6 26556.4 934.240   7
   5   5  -6 14879.8 688.095   4
   5   5  -6 15668.1 732.290   7
   6   4  -6 1840.27 235.346   4
   6   4  -6 1863.49 251.985   7
   7   3  -6 21693.2 875.184   4
   7   3  -6 22665.4 963.901   7
   8   2  -6 48428.4 1576.29   1
   8   2  -6 49185.2 1472.90   4
   8   2  -6 47794.6 1537.20   7
   9   1  -6 71876.3 1933.85   1
   9   1  -6 70688.7 1930.21   4
   9   1  -6 68081.7 1975.64   7
  10   0  -6 72507.3 1892.38   1
  10   0  -6 73078.8 2128.39   7
  11  -1  -6 31683.2 1089.84   1
  11  -1  -6 29668.0 1327.20   7
  12  -2  -6 13662.3 911.480   7
  12  -2  -6 14394.3 751.243   3
  13  -3  -6 2750.78 425.559   7
  13  -3  -6 2929.02 340.740   3
   4   8  -6 35104.3 1133.63   7
   5   7  -6 27663.8 1066.01   4
   5   7  -6 26535.5 1001.06   7
   6   6  -6 16730.1 816.975   4
   6   6  -6 17747.2 826.259   7
   7   5  -6 26991.0 1055.15   4
   7   5  -6 29031.3 1118.25   7
   8   4  -6 4354.08 408.169   4
   8   4  -6 3297.10 369.165   7
   9   3  -6 2301.69 309.049   4
   9   3  -6 2104.76 310.162   7
  10   2  -6 23091.5 1082.54   7
  11   1  -6 31476.5 1335.21   7
  12   0  -6 36333.0 1493.13   7
  12   0  -6 36483.8 1301.65   1
  13  -1  -6 25706.4 1285.73   7
  14  -2  -6 12972.7 934.839   7
  14  -2  -6 12628.0 705.820   3
  15  -3  -6 3675.21 523.273   7
  16  -4  -6 1798.62 410.129   7
   5   9  -6 15024.1 753.544   7
   6   8  -6 27188.9 1080.84   7
   7   7  -6 29195.1 1159.38   7
   8   6  -6 28974.2 1174.66   7
   9   5  -6 23370.0 1081.30   7
  10   4  -6 878.127 209.273   7
  11   3  -6 3077.02 399.189   7
  12   2  -6 13937.5 892.371   7
  13   1  -6 26808.8 1296.63   7
  14   0  -6 25990.0 1324.05   7
  15  -1  -6 29438.1 1469.90   7
  15  -1  -6 29621.2 1140.06   3
  16  -2  -6 13480.0 1022.46   7
   7   9  -6 12753.9 766.632   7
   8   8  -6 31564.7 1285.23   7
   9   7  -6 31842.6 1317.40   7
  10   6  -6 37683.6 1469.56   7
  11   5  -6 9669.46 722.880   7
  12   4  -6 224.141 147.156   7
  13   3  -6 2982.53 427.417   7
  14   2  -6 11481.6 866.994   7
  15   1  -6 27185.2 1393.31   7
  16   0  -6 34760.6 1644.49   7
   9   9  -6 19080.1 1050.10   7
  10   8  -6 31381.2 1391.13   7
  11   7  -6 31960.1 1411.29   7
  12   6  -6 17624.1 1050.19   7
  13   5  -6 7698.13 695.171   7
  14   4  -6 493.942 221.544   7
  15   3  -6 3631.28 512.700   7
  16   2  -6 13021.1 982.281   7
  11   9  -6 16872.5 1046.62   7
  12   8  -6 20869.2 1193.73   7
  13   7  -6 15525.7 1034.27   7
  14   6  -6 15492.1 1053.80   7
  15   5  -6 6733.25 696.855   7
  16   4  -6 2267.30 423.775   7
  13   9  -6 12315.3 950.513   7
 -15  -3  -7 17699.3 1224.27   2
 -14  -4  -7 13686.9 1072.89   2
 -13  -5  -7 16417.7 1181.15   2
 -12  -6  -7 4674.74 628.905   2
 -11  -7  -7 117.776 163.097   2
 -10  -8  -7 2037.43 394.621   2
  -9  -9  -7 9732.35 863.647   2
  -8 -10  -7 12531.7 979.776   2
 -16   0  -7-289.425 178.786   2
 -15  -1  -7 3515.47 517.875   2
 -14  -2  -7 16015.5 1123.99   2
 -13  -3  -7 16581.8 1127.02   2
 -12  -4  -7 20507.1 1253.38   2
 -11  -5  -7 13659.4 1010.14   2
 -10  -6  -7 4060.25 549.332   2
  -9  -7  -7 252.170 178.442   2
  -8  -8  -7 1095.46 295.125   2
  -7  -9  -7 10733.4 859.446   2
  -6 -10  -7 18671.8 1125.93   2
 -16   2  -7 10812.9 905.226   2
 -15   1  -7 2864.65 459.195   2
 -14   0  -7 328.342 192.501   2
 -13  -1  -7 6698.72 691.044   2
 -12  -2  -7 15784.7 1055.00   2
 -11  -3  -7 25155.6 1334.40   2
 -10  -4  -7 14124.0 982.497   2
  -9  -5  -7 12995.4 930.260   2
  -8  -6  -7 4786.69 562.369   2
  -7  -7  -7 2430.35 394.181   2
  -6  -8  -7 60.8940 117.179   2
  -5  -9  -7 13109.8 889.375   2
  -4 -10  -7 21625.0 1132.22   2
 -16   4  -7 15232.0 1064.15   2
 -15   3  -7 16867.8 1103.85   2
 -14   2  -7 17162.8 1095.16   2
 -13   1  -7 6942.57 687.583   2
 -12   0  -7 24.7710 130.544   2
 -11  -1  -7 9511.83 771.710   2
 -10  -2  -7 20117.8 1130.68   2
  -9  -3  -7 31939.2 1427.92   2
  -8  -4  -7 40045.6 1609.28   2
  -7  -5  -7 22375.8 1157.48   2
  -6  -6  -7 7683.28 662.520   2
  -5  -7  -7 1584.34 291.421   2
  -4  -8  -7 1560.32 307.458   2
  -3  -9  -7 16390.2 927.558   2
 -15   5  -7 8901.53 789.877   2
 -14   4  -7 15733.2 1042.37   2
 -13   3  -7 17749.4 1082.30   2
 -12   2  -7 15508.7 995.902   2
 -11   1  -7 8592.94 711.801   2
 -10   0  -7 336.700 198.040   2
  -9  -1  -7 9753.20 741.824   2
  -8  -2  -7 21857.6 1119.00   2
  -7  -3  -7 27546.2 1252.55   2
  -6  -4  -7 40749.8 1532.44   2
  -5  -5  -7 15967.3 915.349   2
  -4  -6  -7 7424.85 598.428   2
  -3  -7  -7 200.949 93.2764   2
  -2  -8  -7 1622.72 276.668   2
  -1  -9  -7 9864.57 650.163   2
   1 -11  -7 20227.6 1132.42   6
 -14   6  -7 10213.1 808.392   2
 -13   5  -7 16547.0 1035.97   2
 -12   4  -7 22201.7 1184.59   2
 -12   4  -7 22320.8 1046.31   3
 -11   3  -7 24544.4 1227.00   2
 -11   3  -7 25825.0 1133.84   3
 -10   2  -7 19434.0 1066.80   2
 -10   2  -7 19711.3 992.436   3
  -9   1  -7 9328.83 721.118   2
  -9   1  -7 10373.3 708.001   3
  -8   0  -7-46.3331 90.9225   2
  -8   0  -7-85.7981 120.069   3
  -7  -1  -7 6064.97 556.063   2
  -6  -2  -7 23843.5 1112.77   2
  -5  -3  -7 27690.3 1193.55   2
  -4  -4  -7 18373.4 938.418   2
  -3  -5  -7 20939.4 992.781   2
  -2  -6  -7 8688.10 617.762   2
  -1  -7  -7 1615.12 262.748   2
   0  -8  -7 2315.34 310.733   2
 -13   7  -7 645.459 257.800   2
 -12   6  -7 4797.49 532.276   2
 -11   5  -7 15301.7 956.589   2
 -11   5  -7 16920.2 892.156   3
 -10   4  -7 16209.8 958.029   2
 -10   4  -7 14293.9 821.869   3
  -9   3  -7 31577.2 1353.89   2
  -9   3  -7 31776.0 1254.75   3
  -8   2  -7 21754.5 1083.45   2
  -8   2  -7 21669.0 1021.41   3
  -7   1  -7 7114.99 594.461   2
  -7   1  -7 6656.88 550.832   3
  -6   0  -7 79.2734 98.0096   2
  -6   0  -7 45.7685 101.643   3
  -5  -1  -7 9872.57 681.775   2
  -5  -1  -7 9635.79 685.755   3
  -4  -2  -7 22499.8 1037.78   2
  -4  -2  -7 24679.0 1141.69   3
  -3  -3  -7 41456.6 1430.05   2
  -2  -4  -7 43241.6 1448.54   2
  -1  -5  -7 27497.4 1104.50   2
   0  -6  -7 9013.04 592.799   2
   1  -7  -7 4323.34 391.067   2
   2  -8  -7 4497.88 370.299   2
 -11   7  -7 54.0057 145.618   2
 -10   6  -7 3561.93 432.689   2
 -10   6  -7 4702.55 463.461   3
  -9   5  -7 13980.1 868.852   2
  -9   5  -7 14319.0 817.543   3
  -8   4  -7 39235.8 1516.76   2
  -8   4  -7 43599.4 1482.10   3
  -7   3  -7 28488.1 1237.04   2
  -7   3  -7 30189.7 1196.59   3
  -6   2  -7 24636.3 1117.55   2
  -6   2  -7 24573.1 1064.27   3
  -5   1  -7 8399.33 625.555   2
  -5   1  -7 8860.97 623.031   3
  -4   0  -7 115.419 117.975   2
  -4   0  -7 175.495 120.139   3
  -3  -1  -7 9430.58 632.693   2
  -3  -1  -7 7549.85 593.120   3
  -2  -2  -7 32462.2 1222.69   2
  -2  -2  -7 33115.5 1312.41   3
  -1  -3  -7 88392.3 2188.78   2
  -1  -3  -7 83460.0 2348.51   3
   0  -4  -7 82419.1 2066.76   2
   1  -5  -7 49932.8 1472.28   2
   2  -6  -7 26487.0 974.980   2
   3  -7  -7 2855.67 283.905   2
 -10   8  -7 2060.29 336.865   2
  -9   7  -7 137.516 122.195   2
  -8   6  -7 5631.12 536.439   2
  -7   5  -7 23883.9 1115.78   2
  -6   4  -7 42397.0 1507.15   2
  -5   3  -7 25661.8 1118.62   2
  -4   2  -7 23759.2 1058.23   2
  -3   1  -7 8469.06 601.103   2
  -3   1  -7 8497.02 605.932   3
  -2   0  -7 32.8686 93.9685   2
  -2   0  -7 100.006 110.820   3
  -1  -1  -7 18710.6 880.832   2
  -1  -1  -7 19594.1 950.809   3
   0  -2  -7 59503.2 1680.99   2
   0  -2  -7 60462.9 1833.52   3
   1  -3  -7 35581.6 1204.75   2
   1  -3  -7 35079.3 1380.08   3
   2  -4  -7 31952.1 1108.41   2
   3  -5  -7 16669.0 733.172   2
   4  -6  -7 21272.2 795.483   2
   5  -7  -7 451.477 107.565   2
  -9   9  -7 9966.59 729.486   2
  -8   8  -7 1546.22 306.279   2
  -7   7  -7 2738.55 374.202   2
  -6   6  -7 7767.45 608.324   2
  -5   5  -7 16504.5 889.152   2
  -4   4  -7 18179.9 920.097   2
  -3   3  -7 41913.7 1435.04   2
  -2   2  -7 32285.6 1220.31   2
  -1   1  -7 18823.4 888.083   2
   0   0  -7-59.7421 76.4423   2
   0   0  -7 200.561 132.801   3
   1  -1  -7 13450.3 712.059   2
   1  -1  -7 12905.4 756.081   3
   2  -2  -7 45939.0 1384.12   2
   2  -2  -7 46153.0 1549.52   3
   3  -3  -7 33679.5 1119.11   2
   3  -3  -7 33298.2 1326.88   3
   4  -4  -7 17990.2 754.056   2
   5  -5  -7 44807.7 1222.37   2
   6  -6  -7 12862.6 548.025   2
  -7   9  -7 10196.9 728.480   2
  -6   8  -7 269.570 142.458   2
  -5   7  -7 609.794 194.893   2
  -4   6  -7 7494.92 592.688   2
  -3   5  -7 21646.1 1007.56   2
  -2   4  -7 45635.9 1505.13   2
  -1   3  -7 89927.2 2256.91   2
   0   2  -7 59511.6 1712.00   2
   1   1  -7 11027.6 649.894   2
   2   0  -7 45.2810 69.7488   2
   3  -1  -7 9798.50 652.385   3
   3  -1  -7 9326.40 571.856   2
   4  -2  -7 27092.5 1151.67   3
   4  -2  -7 29952.3 1038.28   2
   5  -3  -7 43706.6 1541.87   3
   5  -3  -7 45424.2 1293.12   2
   6  -4  -7 65601.2 2013.35   3
   6  -4  -7 67294.9 1611.83   2
  -6  10  -7 22129.3 1102.00   2
  -5   9  -7 13550.1 839.824   2
  -4   8  -7 1794.66 307.131   2
  -3   7  -7 537.205 178.179   2
  -2   6  -7 8740.55 631.651   2
  -1   5  -7 27446.3 1131.53   2
   0   4  -7 83813.7 2163.01   2
   1   3  -7 36501.9 1290.40   2
   2   2  -7 45905.8 1451.33   2
   3   1  -7 9965.11 607.636   2
   4   0  -7 30.5037 80.8169   2
   5  -1  -7 13680.3 781.100   3
   5  -1  -7 12677.5 659.127   2
   6  -2  -7 33258.0 1278.76   3
   6  -2  -7 31257.1 1062.06   2
   7  -3  -7 77819.5 2180.22   3
   7  -3  -7 83181.3 1883.43   2
   8  -4  -7 52257.2 1746.93   3
  -3   9  -7 17349.7 955.575   2
  -2   8  -7 2012.70 324.247   2
  -1   7  -7 1796.85 142.036   4
  -1   7  -7 1475.83 263.621   2
   0   6  -7 8162.07 240.718   4
   0   6  -7 9193.14 644.141   2
   1   5  -7 53464.1 1661.44   2
   2   4  -7 33013.5 1235.61   2
   3   3  -7 34545.1 1249.75   2
   4   2  -7 28878.0 1079.91   7
   4   2  -7 29895.4 1124.83   2
   5   1  -7 12290.1 711.481   7
   5   1  -7 13576.3 709.912   2
   6   0  -7 16.3564 67.9519   2
   7  -1  -7 19906.8 840.881   2
   8  -2  -7 32927.5 1277.87   3
   9  -3  -7 28511.6 1203.02   3
  10  -4  -7 19050.7 996.851   3
   1   7  -7 3490.30 416.695   2
   2   6  -7 26326.6 745.539   4
   2   6  -7 26159.8 852.793   7
   2   6  -7 26422.4 1147.58   2
   3   5  -7 17988.1 595.293   4
   3   5  -7 17988.2 752.015   7
   3   5  -7 17434.9 903.591   2
   4   4  -7 18253.9 639.415   4
   4   4  -7 17883.7 796.435   7
   4   4  -7 18447.1 910.563   2
   5   3  -7 45499.9 1184.90   4
   5   3  -7 43503.0 1395.75   7
   5   3  -7 45851.8 1481.94   2
   6   2  -7 33103.3 1231.09   7
   7   1  -7 18305.7 928.747   7
   8   0  -7 146.106 102.706   7
   9  -1  -7 10120.0 746.615   7
  10  -2  -7 14380.9 936.690   7
  10  -2  -7 16221.0 867.631   3
  11  -3  -7 22192.9 1056.62   3
   3   7  -7 3061.75 292.056   7
   4   6  -7 21670.7 798.045   4
   4   6  -7 20891.8 854.656   7
   5   5  -7 41963.8 1192.19   4
   5   5  -7 43342.3 1356.43   7
   6   4  -7 68532.4 1669.10   4
   6   4  -7 67200.4 1853.65   7
   7   3  -7 79839.7 1955.08   4
   7   3  -7 83380.4 2175.32   7
   8   2  -7 30882.0 1136.37   4
   8   2  -7 32763.3 1296.07   7
   9   1  -7 9820.33 709.559   7
  10   0  -7 217.695 171.659   7
  11  -1  -7 2828.96 409.928   7
  12  -2  -7 13142.0 939.519   7
  12  -2  -7 12494.4 771.129   3
  13  -3  -7 25693.5 1144.88   3
   4   8  -7 3723.46 346.087   7
   5   7  -7 248.574 105.953   7
   6   6  -7 13301.7 691.801   4
   6   6  -7 11910.3 702.941   7
   7   5  -7 21431.0 917.458   4
   7   5  -7 23765.7 1044.20   7
   8   4  -7 53658.7 1577.49   4
   8   4  -7 53275.4 1715.35   7
   9   3  -7 27214.1 1116.71   4
   9   3  -7 29737.1 1261.68   7
  10   2  -7 17511.6 980.394   7
  11   1  -7 3252.69 439.270   7
  12   0  -7-57.8005 96.6104   7
  13  -1  -7 5087.20 484.686   3
  13  -1  -7 4413.08 552.530   7
  14  -2  -7 23731.9 1339.72   7
  14  -2  -7 24726.5 1108.43   3
  15  -3  -7 27939.3 1524.42   7
   6   8  -7 2738.40 334.327   7
   7   7  -7 1065.94 220.245   7
   8   6  -7 10751.4 727.956   7
   9   5  -7 20958.7 1060.07   7
  10   4  -7 20761.0 1087.48   7
  11   3  -7 23480.2 1190.70   7
  12   2  -7 12557.4 888.685   7
  13   1  -7 4582.17 554.520   7
  14   0  -7 431.388 189.128   7
  15  -1  -7 5165.40 496.840   3
  15  -1  -7 4798.23 603.766   7
   8   8  -7 2316.86 361.308   7
   9   7  -7 1232.18 286.280   7
  10   6  -7 6216.44 596.478   7
  11   5  -7 11720.5 844.848   7
  12   4  -7 24765.6 1270.53   7
  13   3  -7 24535.4 1293.62   7
  14   2  -7 24376.7 1323.87   7
  15   1  -7 4141.93 544.394   7
  10   8  -7 2106.79 370.277   7
  11   7  -7 842.423 254.332   7
  12   6  -7 4265.29 532.115   7
  13   5  -7 22163.9 1258.94   7
  14   4  -7 30223.1 1506.31   7
  15   3  -7 26348.3 1441.80   7
  11   9  -7 9942.32 819.075   7
  12   8  -7 185.476 138.149   7
  13   7  -7 378.406 195.017   7
  14   6  -7 4002.66 550.930   7
 -13  -3  -8 2093.17 437.419   2
 -12  -4  -8 823.462 255.705   2
 -11  -5  -8 7452.98 765.694   2
 -10  -6  -8 20309.8 1276.71   2
  -9  -7  -8 20649.7 1269.46   2
  -8  -8  -8 14178.8 1037.77   2
  -7  -9  -8 9079.78 813.671   2
  -6 -10  -8 1329.29 310.028   2
 -14   0  -8 16427.6 1141.02   2
 -13  -1  -8 16325.0 1124.29   2
 -12  -2  -8 6624.23 701.949   2
 -11  -3  -8 111.580 179.392   2
 -10  -4  -8 1925.81 387.060   2
  -9  -5  -8 5762.72 639.100   2
  -8  -6  -8 19708.6 1185.32   2
  -7  -7  -8 19065.8 1152.37   2
  -6  -8  -8 17203.1 1083.29   2
  -5  -9  -8 8271.61 731.951   2
 -15   3  -8 2386.08 450.197   2
 -14   2  -8 9173.60 828.636   2
 -13   1  -8 16989.4 1121.11   2
 -12   0  -8 17697.1 1131.16   2
 -11  -1  -8 19344.1 1168.38   2
 -10  -2  -8 12782.2 925.782   2
  -9  -3  -8 5876.10 627.779   2
  -8  -4  -8 85.9839 123.566   2
  -7  -5  -8 9031.74 762.193   2
  -6  -6  -8 15375.2 987.776   2
  -5  -7  -8 27261.0 1318.38   2
  -4  -8  -8 26388.3 1283.11   2
  -3  -9  -8 13541.8 883.445   2
 -14   4  -8-7.32155 119.861   2
 -13   3  -8 1393.00 321.008   2
 -12   2  -8 5955.24 648.499   2
 -11   1  -8 18885.8 1139.76   2
 -10   0  -8 27071.2 1367.46   2
  -9  -1  -8 17244.3 1058.53   2
  -8  -2  -8 17020.6 1039.47   2
  -7  -3  -8 7734.86 688.332   2
  -6  -4  -8 54.2253 125.291   2
  -5  -5  -8 14047.1 905.519   2
  -4  -6  -8 28656.8 1299.87   2
  -3  -7  -8 25009.4 1187.84   2
  -2  -8  -8 20758.7 1055.27   2
 -14   6  -8 12018.3 940.316   2
 -13   5  -8 7904.30 748.401   2
 -12   4  -8 532.915 222.837   2
 -12   4  -8 527.334 174.378   3
 -11   3  -8 215.285 172.510   2
 -11   3  -8 394.565 164.468   3
 -10   2  -8 13896.7 950.610   2
 -10   2  -8 11879.3 825.942   3
  -9   1  -8 18193.9 1071.07   2
  -9   1  -8 17784.8 1017.97   3
  -8   0  -8 31162.4 1405.20   2
  -8   0  -8 32066.8 1412.19   3
  -7  -1  -8 25434.2 1241.98   2
  -6  -2  -8 9007.54 711.855   2
  -5  -3  -8 4516.52 494.964   2
  -4  -4  -8 328.929 165.638   2
  -3  -5  -8 19267.5 1012.95   2
  -2  -6  -8 34777.7 1371.41   2
  -1  -7  -8 23348.6 1079.32   2
   0  -8  -8 20212.4 972.111   2
 -12   6  -8 13381.3 945.011   2
 -11   5  -8 7214.85 683.372   2
 -11   5  -8 7706.24 657.688   3
 -10   4  -8 1550.81 325.287   2
 -10   4  -8 1780.50 326.130   3
  -9   3  -8 5068.33 559.862   2
  -9   3  -8 5663.72 554.376   3
  -8   2  -8 16020.4 991.458   2
  -8   2  -8 16660.2 961.399   3
  -7   1  -8 24974.5 1222.69   2
  -7   1  -8 26070.5 1218.03   3
  -6   0  -8 47717.9 1719.47   2
  -6   0  -8 47519.8 1724.01   3
  -5  -1  -8 37961.2 1485.27   2
  -5  -1  -8 37649.6 1521.52   3
  -4  -2  -8 23542.7 1128.60   2
  -4  -2  -8 21944.0 1164.62   3
  -3  -3  -8 2822.36 380.447   2
  -2  -4  -8 4157.54 447.524   2
  -1  -5  -8 19205.9 964.272   2
   0  -6  -8 22420.9 1022.17   2
   1  -7  -8 24382.8 1028.40   2
   2  -8  -8 25282.5 992.041   2
 -11   7  -8 18713.5 1101.10   2
 -10   6  -8 21394.9 1172.39   2
 -10   6  -8 22644.5 1137.97   3
  -9   5  -8 6311.60 612.047   2
  -9   5  -8 6909.40 618.767   3
  -8   4  -8 267.078 169.238   2
  -8   4  -8 379.726 163.870   3
  -7   3  -8 7452.94 649.160   2
  -7   3  -8 7973.56 648.487   3
  -6   2  -8 8994.80 699.895   2
  -6   2  -8 9323.54 695.521   3
  -5   1  -8 37005.8 1451.39   2
  -5   1  -8 35369.1 1425.57   3
  -4   0  -8 33550.3 1371.18   2
  -4   0  -8 36671.0 1444.39   3
  -3  -1  -8 55656.5 1799.65   2
  -3  -1  -8 56970.2 1881.60   3
  -2  -2  -8 42811.3 1515.05   2
  -2  -2  -8 42743.2 1637.92   3
  -1  -3  -8 15259.9 848.248   2
  -1  -3  -8 14204.5 926.649   3
   0  -4  -8 69.9135 70.8867   2
   1  -5  -8 7371.23 554.700   2
   2  -6  -8 14227.5 748.609   2
   3  -7  -8 45832.2 1380.70   2
 -10   8  -8 10631.9 819.780   2
  -9   7  -8 21250.2 1145.66   2
  -8   6  -8 21240.7 1126.79   2
  -7   5  -8 8481.79 689.973   2
  -6   4  -8 197.748 123.219   2
  -5   3  -8 4220.08 472.930   2
  -4   2  -8 22803.2 1110.03   2
  -4   2  -8 26070.8 1182.38   3
  -3   1  -8 57739.3 1837.99   2
  -3   1  -8 61370.1 1909.34   3
  -2   0  -8 39790.5 1461.41   2
  -2   0  -8 41817.2 1537.08   3
  -1  -1  -8 30425.3 1219.62   2
  -1  -1  -8 29496.8 1286.69   3
   0  -2  -8 24350.7 1061.93   2
   0  -2  -8 25559.1 1212.07   3
   1  -3  -8 4779.22 440.861   2
   1  -3  -8 3333.05 436.336   3
   2  -4  -8 1342.74 231.025   2
   3  -5  -8 6006.08 465.954   2
   4  -6  -8 47695.0 1394.17   2
  -8   8  -8 15322.4 967.034   2
  -7   7  -8 19719.3 1077.05   2
  -6   6  -8 14285.7 899.925   2
  -5   5  -8 15046.9 903.274   2
  -4   4  -8 27.8636 109.933   2
  -3   3  -8 2982.32 380.591   2
  -2   2  -8 46013.0 1576.71   2
  -1   1  -8 28843.6 1190.42   2
   0   0  -8 43229.1 1479.56   2
   0   0  -8 41823.2 1545.12   3
   1  -1  -8 33097.7 1251.08   2
   1  -1  -8 33426.2 1364.76   3
   2  -2  -8 20189.2 928.263   2
   2  -2  -8 19322.4 1035.00   3
   3  -3  -8 4390.02 489.408   3
   3  -3  -8 4399.01 407.143   2
   4  -4  -8 1712.98 250.256   2
   4  -4  -8 1383.99 302.726   3
   5  -5  -8 18273.8 793.001   2
   6  -6  -8 27540.6 937.064   2
  -7   9  -8 7858.34 680.892   2
  -6   8  -8 19271.4 1064.62   2
  -5   7  -8 30423.1 1334.78   2
  -4   6  -8 28794.9 1274.82   2
  -3   5  -8 21637.0 1074.94   2
  -2   4  -8 5098.14 500.529   2
  -1   3  -8 14149.0 831.916   2
   0   2  -8 24731.4 1094.77   2
   1   1  -8 30217.9 1202.82   2
   2   0  -8 41602.2 1426.56   2
   3  -1  -8 38241.1 1469.07   3
   3  -1  -8 39230.0 1339.19   2
   4  -2  -8 23120.0 1133.46   3
   4  -2  -8 23920.0 990.701   2
   5  -3  -8 1276.51 213.868   2
   5  -3  -8 1561.74 309.318   3
   6  -4  -8 3375.02 452.583   3
   6  -4  -8 3082.76 316.628   2
   7  -5  -8 9057.57 523.948   2
  -6  10  -8 1156.44 289.158   2
  -5   9  -8 8939.16 719.164   2
  -4   8  -8 28514.3 1302.64   2
  -3   7  -8 25630.7 1204.29   2
  -2   6  -8 34730.5 1401.45   2
  -1   5  -8 18462.2 979.815   2
   0   4  -8 126.181 71.9170   2
   1   3  -8 4267.83 447.669   2
   2   2  -8 20305.8 972.776   2
   3   1  -8 38744.8 1373.02   2
   4   0  -8 41177.5 1396.09   2
   5  -1  -8 43911.4 1597.61   3
   5  -1  -8 45259.2 1444.15   2
   6  -2  -8 19060.7 1033.24   3
   6  -2  -8 22376.0 933.209   2
   7  -3  -8 2400.86 369.128   3
   7  -3  -8 2857.85 310.216   2
   8  -4  -8-78.1026 114.980   3
  -3   9  -8 15146.3 953.860   2
  -2   8  -8 22997.4 1153.06   2
  -1   7  -8 23934.3 1153.61   2
   0   6  -8 22689.3 1108.34   2
   1   5  -8 5306.98 512.302   2
   2   4  -8 1373.36 267.599   2
   3   3  -8 4143.98 442.192   2
   4   2  -8 24301.4 1071.70   2
   5   1  -8 45480.6 1492.55   2
   6   0  -8 33760.8 1237.81   2
   7  -1  -8 26777.7 1213.56   3
   7  -1  -8 26415.0 1056.70   2
   8  -2  -8 9259.08 700.440   3
   9  -3  -8 3978.40 474.051   3
  10  -4  -8 221.280 115.507   3
   1   7  -8 23952.5 1167.12   2
   2   6  -8 17021.2 953.789   2
   3   5  -8 6733.38 585.711   2
   4   4  -8 1376.52 252.688   2
   5   3  -8 1607.27 278.721   2
   5   3  -8 1500.33 254.791   7
   6   2  -8 19311.0 982.455   7
   6   2  -8 21039.6 998.473   2
   7   1  -8 25598.6 1179.02   7
   9  -1  -8 24050.1 1163.83   3
  10  -2  -8 16066.0 951.372   3
  11  -3  -8 6428.53 601.947   3
   4   6  -8 47185.7 1441.51   7
   5   5  -8 18362.1 889.928   7
   6   4  -8 3586.56 316.373   4
   6   4  -8 3132.99 376.483   7
   7   3  -8 2200.76 322.778   7
   8   2  -8 8057.83 656.856   7
   9   1  -8 22849.0 1173.38   7
  10   0  -8 25665.1 1289.55   7
  11  -1  -8 20191.0 1193.34   7
  11  -1  -8 23155.2 1141.53   3
  12  -2  -8 9781.00 742.431   3
  13  -3  -8 2986.80 414.318   3
   5   7  -8 32448.7 1199.09   7
   6   6  -8 28354.2 1173.52   7
   7   5  -8 8463.51 646.254   7
   8   4  -8 167.251 108.578   7
   9   3  -8 4205.55 483.851   7
  10   2  -8 15582.1 982.305   7
  11   1  -8 22800.6 1239.60   7
  12   0  -8 37874.0 1683.94   7
  13  -1  -8 17049.4 1139.61   7
  13  -1  -8 17108.2 989.944   3
  14  -2  -8 14487.2 912.875   3
   7   7  -8 20684.1 1029.97   7
   8   6  -8 15151.1 905.987   7
   9   5  -8 5569.67 559.253   7
  10   4  -8 639.216 228.128   7
  11   3  -8 6368.98 645.496   7
  12   2  -8 11712.0 897.815   7
  13   1  -8 17153.6 1137.75   7
  14   0  -8 18635.7 1218.89   7
   9   7  -8 24609.1 1225.38   7
  10   6  -8 12247.9 885.792   7
  11   5  -8 9279.94 791.796   7
  12   4  -8 1092.46 294.414   7
  13   3  -8 2798.02 453.467   7
  14   2  -8 13721.0 1037.36   7
  10   8  -8 18528.9 1116.67   7
  11   7  -8 22403.2 1260.59   7
  12   6  -8 24860.9 1362.56   7
  13   5  -8 12779.6 988.493   7
  14   4  -8 2982.29 472.538   7
 -11  -3  -9 15291.7 1122.44   2
 -10  -4  -9 18743.7 1231.75   2
  -9  -5  -9 12966.7 1007.00   2
  -8  -6  -9 5506.72 651.498   2
  -7  -7  -9 895.873 297.327   2
  -6  -8  -9 1427.50 344.437   2
  -5  -9  -9 6160.16 659.042   2
 -12   0  -9 29.3383 110.878   2
 -11  -1  -9 2628.46 452.611   2
 -10  -2  -9 13026.3 995.647   2
  -9  -3  -9 22820.7 1317.92   2
  -8  -4  -9 17547.1 1133.92   2
  -7  -5  -9 20566.1 1217.44   2
  -6  -6  -9 14595.3 1006.97   2
  -5  -7  -9 1026.20 263.290   2
  -4  -8  -9 1013.30 277.207   2
 -12   2  -9 18475.2 1203.79   2
 -11   1  -9 2725.47 466.306   2
 -10   0  -9-179.188 168.576   2
  -9  -1  -9 2061.36 383.942   2
  -8  -2  -9 20075.1 1188.79   2
  -7  -3  -9 23461.2 1263.50   2
  -6  -4  -9 28698.8 1400.99   2
  -5  -5  -9 19397.9 1129.52   2
  -4  -6  -9 5883.21 603.382   2
  -3  -7  -9 809.663 251.742   2
  -2  -8  -9 1468.31 296.538   2
 -12   4  -9 15933.9 1106.50   2
 -11   3  -9 17697.9 1152.08   2
 -11   3  -9 17080.9 1071.09   3
 -10   2  -9 12563.8 954.985   2
 -10   2  -9 13062.7 933.623   3
  -9   1  -9 1907.80 381.025   2
  -9   1  -9 2399.08 410.718   3
  -8   0  -9 54.9896 140.744   2
  -8   0  -9 203.061 179.362   3
  -7  -1  -9 16075.3 1033.83   2
  -6  -2  -9 14762.1 972.373   2
  -5  -3  -9 31665.7 1440.81   2
  -4  -4  -9 28073.1 1340.27   2
  -3  -5  -9 16069.1 974.448   2
  -2  -6  -9 5517.13 558.173   2
  -1  -7  -9 487.235 193.001   2
   0  -8  -9 1025.83 256.069   2
 -11   5  -9 13377.5 985.033   2
 -10   4  -9 20464.6 1207.36   2
 -10   4  -9 20407.2 1166.11   3
  -9   3  -9 22623.0 1258.25   2
  -9   3  -9 22739.6 1225.51   3
  -8   2  -9 22672.4 1245.66   2
  -8   2  -9 19198.5 1128.21   3
  -7   1  -9 13833.4 957.974   2
  -7   1  -9 14478.6 965.427   3
  -6   0  -9 67.1810 128.323   2
  -6   0  -9-254.901 167.612   3
  -5  -1  -9 27763.3 1331.37   2
  -5  -1  -9 29136.1 1424.94   3
  -4  -2  -9 28396.6 1325.77   2
  -4  -2  -9 28551.4 1429.11   3
  -3  -3  -9 33013.3 1427.02   2
  -2  -4  -9 27380.6 1256.72   2
  -1  -5  -9 14455.3 880.379   2
   0  -6  -9 6743.53 582.389   2
   1  -7  -9 4292.83 451.028   2
 -10   6  -9 6203.49 657.247   2
  -9   5  -9 13467.6 955.426   2
  -9   5  -9 14049.6 953.533   3
  -8   4  -9 17558.8 1079.93   2
  -8   4  -9 17968.4 1065.04   3
  -7   3  -9 21844.1 1194.19   2
  -7   3  -9 22829.2 1197.92   3
  -6   2  -9 15777.0 992.578   2
  -6   2  -9 15197.3 971.518   3
  -5   1  -9 27028.9 1310.78   2
  -5   1  -9 28116.3 1336.28   3
  -4   0  -9 0.71598 93.6307   2
  -4   0  -9-133.082 108.096   3
  -3  -1  -9 2790.61 397.512   2
  -3  -1  -9 4041.79 507.751   3
  -2  -2  -9 12838.1 837.815   2
  -2  -2  -9 13145.8 930.507   3
  -1  -3  -9 26728.3 1205.74   2
  -1  -3  -9 20694.3 1217.36   3
   0  -4  -9 24197.7 1128.16   2
   1  -5  -9 17875.5 936.289   2
   2  -6  -9 8191.78 598.713   2
   3  -7  -9 7.32608 73.3144   2
  -9   7  -9 330.166 176.479   2
  -8   6  -9 5057.51 575.260   2
  -7   5  -9 23482.5 1248.81   2
  -6   4  -9 30174.6 1401.82   2
  -5   3  -9 30153.8 1393.92   2
  -5   3  -9 35870.0 1512.22   3
  -4   2  -9 26066.0 1261.21   2
  -4   2  -9 30138.8 1368.79   3
  -3   1  -9 3322.05 425.476   2
  -3   1  -9 3607.11 459.453   3
  -2   0  -9 38.9211 116.063   2
  -2   0  -9-11.9749 135.195   3
  -1  -1  -9 6582.38 585.787   2
  -1  -1  -9 6488.00 635.776   3
   0  -2  -9 21769.2 1069.60   2
   0  -2  -9 24477.1 1271.61   3
   1  -3  -9 28934.1 1226.07   2
   1  -3  -9 30403.6 1462.35   3
   2  -4  -9 34744.7 1322.29   2
   3  -5  -9 16636.9 855.098   2
   4  -6  -9 2895.15 340.140   2
  -8   8  -9 1046.04 271.138   2
  -7   7  -9 830.525 236.041   2
  -6   6  -9 15975.3 1012.70   2
  -5   5  -9 17430.4 1042.60   2
  -4   4  -9 30550.9 1372.19   2
  -3   3  -9 29897.8 1342.92   2
  -2   2  -9 12560.7 840.493   2
  -1   1  -9 7844.72 645.624   2
  -1   1  -9 7557.76 669.487   3
   0   0  -9 123.421 110.657   2
   0   0  -9 25.6742 121.424   3
   1  -1  -9 8111.84 634.475   2
   1  -1  -9 8974.45 738.806   3
   2  -2  -9 28164.4 1362.63   3
   2  -2  -9 28782.7 1201.46   2
   3  -3  -9 32376.7 1515.00   3
   3  -3  -9 33721.0 1288.72   2
   4  -4  -9 23074.3 1273.80   3
   4  -4  -9 23626.5 1024.58   2
   5  -5  -9 9919.64 616.159   2
  -6   8  -9 1010.13 272.067   2
  -5   7  -9 1517.56 320.656   2
  -4   6  -9 7318.97 663.939   2
  -3   5  -9 17771.2 1024.97   2
  -2   4  -9 25055.0 1215.64   2
  -1   3  -9 25099.3 1203.28   2
   0   2  -9 22040.4 1102.51   2
   1   1  -9 8113.38 638.497   2
   2   0  -9-7.23296 82.5445   2
   2   0  -9 124.231 141.275   3
   3  -1  -9 5610.72 583.275   3
   3  -1  -9 5844.73 518.695   2
   4  -2  -9 27497.3 1342.74   3
   4  -2  -9 27457.2 1148.32   2
   5  -3  -9 28755.4 1415.30   3
   5  -3  -9 30132.4 1176.40   2
   6  -4  -9 15367.2 1041.02   3
   6  -4  -9 15026.5 778.811   2
   7  -5  -9 22447.5 927.262   2
  -4   8  -9 1412.83 296.632   2
  -3   7  -9 1004.48 284.260   2
  -2   6  -9 5780.22 587.343   2
  -1   5  -9 13471.5 877.489   2
   0   4  -9 24538.3 1185.12   2
   1   3  -9 32189.0 1357.84   2
   2   2  -9 28669.1 1260.30   2
   3   1  -9 6071.79 542.333   2
   4   0  -9-58.3049 107.616   2
   4   0  -9 101.313 122.697   3
   5  -1  -9 6662.34 633.850   3
   5  -1  -9 7208.33 569.821   2
   6  -2  -9 17000.7 1041.75   3
   6  -2  -9 18869.3 918.227   2
   7  -3  -9 22352.4 1236.13   3
   7  -3  -9 25941.8 1063.83   2
   8  -4  -9 18649.2 1140.01   3
  -3   9  -9 4941.62 573.310   2
  -2   8  -9 1860.90 353.162   2
  -1   7  -9 871.591 243.613   2
   0   6  -9 6309.02 603.512   2
   1   5  -9 18602.1 1038.81   2
   2   4  -9 36088.3 1456.01   2
   3   3  -9 33255.4 1370.80   2
   4   2  -9 28475.0 1248.13   2
   5   1  -9 7586.79 610.832   2
   6   0  -9-67.6319 82.9305   2
   7  -1  -9 8524.77 731.592   3
   7  -1  -9 9004.36 658.323   2
   8  -2  -9 18836.9 1103.58   3
   9  -3  -9 31665.2 1487.64   3
  10  -4  -9 29868.4 1476.32   3
   1   7  -9 3279.00 442.754   2
   2   6  -9 8670.32 715.574   2
   3   5  -9 17563.9 1014.13   2
   4   4  -9 26278.6 1228.06   2
   5   3  -9 29952.5 1307.72   2
   6   2  -9 19158.3 1018.66   2
   9  -1  -9 6511.09 646.711   3
  10  -2  -9 23234.8 1250.52   3
  11  -3  -9 19464.6 1155.48   3
  11  -1  -9 12160.7 892.716   3
  12  -2  -9 15172.4 1006.00   3
   6   6  -9 6808.58 580.237   7
   7   5  -9 21401.4 1102.01   7
   8   4  -9 19149.4 1075.27   7
   9   3  -9 29308.4 1402.40   7
  10   2  -9 20658.6 1196.94   7
  11   1  -9 9676.81 847.780   7
  12   0  -9-18.2869 112.066   7
  13  -1  -9 6798.36 682.854   3
   8   6  -9 15357.1 958.570   7
   9   5  -9 19332.7 1127.14   7
  10   4  -9 25876.9 1353.05   7
  11   3  -9 17757.1 1137.14   7
  12   2  -9 15853.9 1105.18   7
  13   1  -9 6335.48 727.356   7
  14   0  -9 105.155 166.280   3
  10   6  -9 7611.85 714.858   7
  11   5  -9 18479.9 1170.52   7
  12   4  -9 25918.8 1427.57   7
  13   3  -9 23839.4 1406.23   7
  12   6  -9 3797.36 537.738   7
  -8  -4 -10 128.562 131.644   2
  -7  -5 -10 4013.61 559.215   2
  -6  -6 -10 12609.9 974.167   2
  -5  -7 -10 11371.1 915.839   2
  -4  -8 -10 10207.5 854.937   2
  -9  -1 -10 17027.6 1177.41   2
  -8  -2 -10 11432.0 932.502   2
  -7  -3 -10 886.923 271.356   2
  -6  -4 -10 523.820 191.867   2
  -5  -5 -10 8728.86 795.807   2
  -4  -6 -10 15926.7 1055.71   2
  -3  -7 -10 20424.3 1189.05   2
  -2  -8 -10 10692.0 831.287   2
 -11   3 -10 3065.37 490.599   3
 -10   2 -10 13987.1 1049.19   3
  -9   1 -10 17707.7 1183.85   2
  -9   1 -10 18470.9 1213.40   3
  -8   0 -10 14683.1 1056.76   2
  -8   0 -10 15248.2 1101.69   3
  -7  -1 -10 18288.9 1164.07   2
  -6  -2 -10 5222.87 603.292   2
  -5  -3 -10 3625.80 504.105   2
  -4  -4 -10 188.967 141.045   2
  -3  -5 -10 9511.71 798.218   2
  -2  -6 -10 17312.4 1058.05   2
  -1  -7 -10 20347.8 1123.73   2
 -10   4 -10 2093.40 402.449   3
  -9   3 -10 1160.97 310.968   2
  -9   3 -10 2190.54 396.546   3
  -8   2 -10 10871.5 898.305   2
  -8   2 -10 11033.7 911.578   3
  -7   1 -10 20286.9 1219.26   2
  -7   1 -10 19138.3 1205.01   3
  -6   0 -10 40247.2 1737.69   2
  -6   0 -10 41323.4 1817.57   3
  -5  -1 -10 18594.4 1132.66   2
  -5  -1 -10 19437.5 1232.51   3
  -4  -2 -10 10615.8 842.124   2
  -4  -2 -10 12003.2 973.613   3
  -3  -3 -10 3391.78 463.565   2
  -2  -4 -10 382.296 178.518   2
  -1  -5 -10 7762.52 685.069   2
   0  -6 -10 18141.4 1025.62   2
   1  -7 -10 18409.6 999.817   2
  -9   5 -10 5391.19 627.294   3
  -8   4 -10 245.550 194.362   2
  -8   4 -10 436.106 213.102   3
  -7   3 -10 1377.80 328.075   2
  -7   3 -10 600.270 197.472   3
  -6   2 -10 5871.99 638.781   2
  -6   2 -10 6519.63 683.886   3
  -5   1 -10 19415.6 1161.61   2
  -5   1 -10 19770.3 1208.14   3
  -4   0 -10 22087.2 1217.18   2
  -4   0 -10 20489.1 1232.60   3
  -3  -1 -10 19880.3 1143.12   2
  -3  -1 -10 22789.7 1309.15   3
  -2  -2 -10 9807.09 774.829   2
  -2  -2 -10 9150.72 829.437   3
  -1  -3 -10 1058.35 256.794   2
  -1  -3 -10 838.664 291.644   3
   0  -4 -10 1260.72 274.268   2
   1  -5 -10 7861.08 651.158   2
   2  -6 -10 22026.4 1083.01   2
  -8   6 -10 14435.1 1041.71   3
  -7   5 -10 4657.53 577.717   2
  -7   5 -10 5538.40 638.606   3
  -6   4 -10 268.434 118.770   2
  -6   4 -10 492.497 203.192   3
  -5   3 -10 2785.35 428.903   2
  -5   3 -10 3712.14 520.615   3
  -4   2 -10 10990.5 855.550   2
  -4   2 -10 12610.1 942.296   3
  -3   1 -10 19411.3 1123.72   2
  -3   1 -10 20525.6 1212.83   3
  -2   0 -10 22588.7 1191.85   2
  -2   0 -10 24513.5 1332.71   3
  -1  -1 -10 21691.2 1156.53   2
  -1  -1 -10 23900.9 1330.51   3
   0  -2 -10 7582.14 657.511   2
   0  -2 -10 9148.09 827.188   3
   1  -3 -10 4007.28 463.497   2
   1  -3 -10 3841.11 565.557   3
   2  -4 -10 1664.76 297.568   2
   3  -5 -10 8494.82 652.602   2
   4  -6 -10 10905.2 704.646   2
  -5   5 -10 6820.23 682.271   2
  -4   4 -10 121.777 115.831   2
  -3   3 -10 3242.56 446.722   2
  -2   2 -10 9778.65 784.340   2
  -2   2 -10 9873.86 821.987   3
  -1   1 -10 20403.6 1127.84   2
  -1   1 -10 20818.4 1205.04   3
   0   0 -10 26698.2 1283.38   2
   0   0 -10 26427.1 1380.04   3
   1  -1 -10 18215.8 1148.86   3
   1  -1 -10 18320.2 1031.50   2
   2  -2 -10 14133.6 1019.71   3
   2  -2 -10 15177.8 912.071   2
   3  -3 -10 5639.87 660.971   3
   3  -3 -10 4697.47 496.840   2
   4  -4 -10 1409.80 268.345   2
   5  -5 -10 13206.2 779.872   2
  -4   6 -10 17149.9 1093.07   2
  -3   5 -10 9987.75 811.405   2
  -2   4 -10 453.444 204.766   2
  -1   3 -10 638.591 229.994   2
   0   2 -10 10069.9 775.374   2
   1   1 -10 17594.2 1109.69   3
   1   1 -10 18589.2 1052.57   2
   2   0 -10 35100.8 1593.55   3
   2   0 -10 32330.7 1399.34   2
   3  -1 -10 27018.9 1402.79   3
   3  -1 -10 25923.5 1218.01   2
   4  -2 -10 19799.0 1214.04   3
   4  -2 -10 20660.1 1043.65   2
   5  -3 -10 5048.53 622.346   3
   5  -3 -10 4210.66 453.209   2
   6  -4 -10 141.373 122.012   2
   6  -4 -10 229.323 211.462   3
  -2   6 -10 16549.9 1057.05   2
  -1   5 -10 7998.94 713.682   2
   0   4 -10 381.404 171.811   2
   1   3 -10 5082.88 558.546   2
   2   2 -10 15211.0 946.649   2
   3   1 -10 25873.3 1246.69   2
   4   0 -10 27032.5 1397.89   3
   4   0 -10 26708.7 1240.87   2
   5  -1 -10 30578.7 1501.34   3
   5  -1 -10 29376.1 1282.86   2
   6  -2 -10 16386.9 1099.64   3
   6  -2 -10 14988.8 872.735   2
   7  -3 -10 1926.21 306.484   2
   7  -3 -10 1585.46 354.180   3
   8  -4 -10 498.680 230.722   3
   0   6 -10 20369.7 1163.61   2
   1   5 -10 9966.40 798.515   2
   2   4 -10 2005.80 352.900   2
   3   3 -10 4948.85 548.283   2
   4   2 -10 19968.2 1094.44   2
   5   1 -10 28887.8 1308.37   2
   6   0 -10 24438.4 1327.36   3
   6   0 -10 23642.2 1156.15   2
   7  -1 -10 23891.7 1333.06   3
   7  -1 -10 22774.8 1115.37   2
   8  -2 -10 18723.5 1191.38   3
   9  -3 -10 589.793 185.642   3
   2   6 -10 22622.5 1246.49   2
   3   5 -10 7656.68 706.295   2
   4   4 -10 1453.69 299.057   2
   5   3 -10 5423.25 571.517   2
   6   2 -10 15259.6 947.990   2
   8   0 -10 18520.9 1174.28   3
   9  -1 -10 25553.1 1395.14   3
  10  -2 -10 13330.5 1004.59   3
  11  -3 -10 4122.76 563.309   3
  10   0 -10 29376.2 1509.64   3
  11  -1 -10 21533.7 1273.50   3
  12  -2 -10 8323.35 797.885   3
  12   0 -10 30804.4 1555.05   3
  13  -1 -10 15345.4 1091.97   3
   9   5 -10 5053.27 600.675   7
  10   4 -10-155.479 167.672   7
  11   3 -10 3590.23 531.838   7
  11   5 -10 3690.01 537.210   7
  -9   1 -11 1405.04 390.304   3
  -5  -3 -11 18923.4 1215.42   2
  -4  -4 -11 20486.7 1254.43   2
  -3  -5 -11 11617.4 925.474   2
  -2  -6 -11 7342.14 707.868   2
  -1  -7 -11 88.2144 140.080   2
  -9   3 -11 13233.1 1054.53   3
  -8   2 -11 13591.5 1081.66   3
  -7   1 -11 3394.07 541.680   3
  -6   0 -11 486.484 266.226   3
  -5  -1 -11 3666.23 527.941   2
  -5  -1 -11 3108.75 515.079   3
  -4  -2 -11 11044.5 898.982   2
  -3  -3 -11 21018.2 1233.97   2
  -2  -4 -11 15408.1 1033.06   2
  -1  -5 -11 14094.4 973.049   2
   0  -6 -11 5473.82 592.741   2
  -7   3 -11 15253.1 1130.89   3
  -6   2 -11 11991.4 1001.11   3
  -5   1 -11 4191.17 564.537   2
  -5   1 -11 3200.48 517.622   3
  -4   0 -11 182.600 109.816   2
  -4   0 -11-523.816 233.663   3
  -3  -1 -11 7108.80 702.785   2
  -3  -1 -11 7311.09 792.000   3
  -2  -2 -11 12306.4 922.563   2
  -2  -2 -11 13183.9 1084.61   3
  -1  -3 -11 14890.5 1001.43   2
   0  -4 -11 24317.1 1268.96   2
   1  -5 -11 18403.6 1074.19   2
   2  -6 -11 7425.19 646.391   2
  -6   4 -11 18620.5 1259.77   3
  -5   3 -11 19480.9 1270.09   3
  -4   2 -11 12120.0 936.499   2
  -4   2 -11 10519.1 925.109   3
  -3   1 -11 8319.41 762.848   2
  -3   1 -11 7744.02 796.188   3
  -2   0 -11 48.1837 111.512   2
  -2   0 -11 257.435 207.599   3
  -1  -1 -11 8123.59 730.432   2
  -1  -1 -11 7270.58 769.714   3
   0  -2 -11 17970.9 1088.74   2
   0  -2 -11 18534.5 1280.49   3
   1  -3 -11 19926.2 1340.84   3
   1  -3 -11 20378.9 1138.35   2
   2  -4 -11 18195.9 1057.60   2
   3  -5 -11 13880.1 887.186   2
  -4   4 -11 19834.7 1275.95   3
  -3   3 -11 22006.5 1343.52   3
  -3   3 -11 20910.1 1244.27   2
  -2   2 -11 10744.9 927.356   3
  -2   2 -11 11575.0 898.125   2
  -1   1 -11 7748.90 779.345   3
  -1   1 -11 5952.30 632.284   2
   0   0 -11 89.2056 153.829   2
   0   0 -11 286.707 295.382   3
   1  -1 -11 8152.37 815.244   3
   1  -1 -11 7857.38 710.619   2
   2  -2 -11 18901.9 1285.45   3
   2  -2 -11 19001.1 1093.94   2
   3  -3 -11 32853.5 1739.60   3
   3  -3 -11 30931.0 1389.05   2
   4  -4 -11 25788.7 1227.57   2
  -1   3 -11 14748.2 1022.99   2
   0   2 -11 18862.3 1234.40   3
   0   2 -11 17406.3 1093.37   2
   1   1 -11 8266.51 813.261   3
   1   1 -11 8466.32 747.178   2
   2   0 -11-121.689 186.992   2
   2   0 -11-31.9178 169.227   3
   3  -1 -11 5268.41 663.691   3
   3  -1 -11 5270.91 565.863   2
   4  -2 -11 15232.8 1135.21   3
   4  -2 -11 14344.6 927.308   2
   5  -3 -11 21609.0 1404.65   3
   5  -3 -11 21421.3 1118.30   2
   6  -4 -11 27723.0 1248.78   2
   1   3 -11 18145.3 1128.27   2
   2   2 -11 19491.5 1147.97   2
   3   1 -11 6274.36 711.087   3
   3   1 -11 4882.84 567.689   2
   4   0 -11-178.373 198.429   2
   4   0 -11 174.565 230.154   3
   5  -1 -11 5163.79 657.999   3
   5  -1 -11 5645.93 583.321   2
   6  -2 -11 13033.5 1051.29   3
   6  -2 -11 11737.5 825.897   2
   7  -3 -11 21856.4 1401.30   3
   7  -3 -11 24762.0 1190.72   2
   3   3 -11 31249.7 1491.70   2
   4   2 -11 13915.6 957.198   2
   5   1 -11 5256.35 649.428   3
   5   1 -11 5740.86 598.677   2
   6   0 -11-58.7850 150.077   2
   6   0 -11-765.675 264.105   3
   7  -1 -11 3663.53 558.085   3
   7  -1 -11 4434.21 517.076   2
   8  -2 -11 11839.1 1005.52   3
   9  -3 -11 16065.1 1207.58   3
   6   2 -11 11351.8 861.637   2
   7   1 -11 3766.62 564.551   3
   8   0 -11 91.2173 143.995   3
   9  -1 -11 2499.91 450.975   3
   2  -4 -12 2152.03 379.019   2
   3  -3 -12 1971.89 363.329   2
   4  -4 -12-121.685 214.358   2
   4  -2 -12 9310.46 787.710   2
   5  -3 -12 3092.43 445.551   2
   0   0   0    0.00    0.00   0
;
_shelx_hkl_checksum              35799
_olex2_submission_special_instructions 'No special instructions were received'
_oxdiff_exptl_absorpt_empirical_details
;
Empirical correction (ABSPACK) includes:
- Absorption correction using spherical harmonics
- Frame scaling
;
_oxdiff_exptl_absorpt_empirical_full_max 1.574
_oxdiff_exptl_absorpt_empirical_full_min 0.687
loop_
_space_group_symop_operation_xyz
'x, y, z'
'x, -y, z+1/2'
'x+1/2, y+1/2, z'
'x+1/2, -y+1/2, z+1/2'
loop_
_atom_site_label
_atom_site_type_symbol
_atom_site_fract_x
_atom_site_fract_y
_atom_site_fract_z
_atom_site_U_iso_or_equiv
_atom_site_adp_type
_atom_site_occupancy
_atom_site_site_symmetry_order
_atom_site_calc_flag
_atom_site_refinement_flags_posn
_atom_site_refinement_flags_adp
_atom_site_refinement_flags_occupancy
_atom_site_disorder_assembly
_atom_site_disorder_group
Ce1 Ce -0.49984(2) -0.43156(2) -0.74922(2) 0.01007(5) Uani 1 1 d . . . . .
O2 O -0.64756(17) -0.4509(3) -0.3208(3) 0.0182(6) Uani 1 1 d . . . . .
O10 O -0.87088(15) 0.0165(3) -0.6131(3) 0.0174(6) Uani 1 1 d . . . . .
O11 O -0.88331(18) -0.1097(3) -0.4160(3) 0.0232(6) Uani 1 1 d . . . . .
O16 O -0.49374(17) -0.6773(3) -0.6943(3) 0.0215(6) Uani 1 1 d . . . . .
H16A H -0.5289 -0.7212 -0.7508 0.032 Uiso 1 1 d GR . . . .
H16B H -0.5078 -0.6928 -0.6030 0.032 Uiso 1 1 d GR . . . .
O9 O -0.56115(16) -0.2692(3) -0.9227(3) 0.0184(6) Uani 1 1 d . . . . .
O12 O -0.44727(18) -0.2200(3) -0.6579(3) 0.0250(6) Uani 1 1 d . U . . .
C10 C -0.8477(3) -0.0736(4) -0.5312(5) 0.0161(10) Uani 1 1 d . . . . .
C2 C -0.6185(3) -0.4121(4) -0.4382(5) 0.0139(9) Uani 1 1 d . . . . .
C3 C -0.6639(2) -0.3129(4) -0.5305(4) 0.0142(7) Uani 1 1 d . . . . .
C4 C -0.7354(2) -0.2452(5) -0.4824(5) 0.0161(10) Uani 1 1 d . . . . .
H4 H -0.7597 -0.2629 -0.3900 0.019 Uiso 1 1 calc R . . . .
C8 C -0.6178(2) -0.1854(4) -0.8939(4) 0.0175(8) Uani 1 1 d . . . . .
N3 N -0.62950(18) -0.2919(3) -0.6614(3) 0.0125(6) Uani 1 1 d . . . . .
C7 C -0.6628(2) -0.2023(4) -0.7503(4) 0.0140(7) Uani 1 1 d . . . . .
C13 C -0.4490(4) -0.1432(7) -0.5585(7) 0.0290(12) Uani 0.7 1 d . U P A 1
H13 H -0.5019 -0.1111 -0.5252 0.035 Uiso 0.7 1 calc R . P A 1
O8 O -0.6381(3) -0.0901(4) -0.9728(4) 0.0294(10) Uani 1 1 d . . . . .
C5 C -0.7701(2) -0.1502(4) -0.5755(4) 0.0145(7) Uani 1 1 d . . . . .
C6 C -0.7330(2) -0.1283(4) -0.7108(4) 0.0158(8) Uani 1 1 d . . . . .
H6 H -0.7552 -0.0639 -0.7751 0.019 Uiso 1 1 calc R . . . .
O1 O -0.54613(17) -0.4499(2) -0.4875(3) 0.0149(6) Uani 1 1 d . . . . .
N14 N -0.3774(8) -0.1017(12) -0.4933(14) 0.0428(18) Uani 0.7 1 d . U P A 1
C14 C -0.2970(4) -0.1478(8) -0.5366(9) 0.0462(18) Uani 0.7 1 d . U P A 1
H14A H -0.3020 -0.2378 -0.5732 0.069 Uiso 0.7 1 calc GR . P A 1
H14B H -0.2585 -0.1463 -0.4530 0.069 Uiso 0.7 1 calc GR . P A 1
H14C H -0.2746 -0.0911 -0.6137 0.069 Uiso 0.7 1 calc GR . P A 1
C15 C -0.3878(7) -0.0038(13) -0.3761(12) 0.079(3) Uani 0.7 1 d . U P A 1
H15A H -0.3815 0.0847 -0.4167 0.118 Uiso 0.7 1 calc GR . P A 1
H15B H -0.3447 -0.0182 -0.3011 0.118 Uiso 0.7 1 calc GR . P A 1
H15C H -0.4440 -0.0128 -0.3329 0.118 Uiso 0.7 1 calc GR . P A 1
O17 O -0.5905(3) -0.8846(4) -0.7673(4) 0.0504(11) Uani 1 1 d . . . . .
H17A H -0.6103 -0.9323 -0.8352 0.076 Uiso 1 1 d G . . . .
H17B H -0.6121 -0.9076 -0.6866 0.076 Uiso 1 1 d G . . . .
C13A C -0.4068(13) -0.200(2) -0.531(2) 0.043(4) Uiso 0.3 1 d . . P A 2
H13A H -0.3843 -0.2750 -0.4836 0.052 Uiso 0.3 1 calc R . P A 2
N14A N -0.3959(13) -0.089(2) -0.470(2) 0.028(5) Uiso 0.3 1 d . . P A 2
C14A C -0.3507(13) -0.0801(19) -0.330(2) 0.043(5) Uiso 0.3 1 d . . P A 2
H14D H -0.3367 -0.1685 -0.2952 0.065 Uiso 0.3 1 calc GR . P A 2
H14E H -0.3868 -0.0363 -0.2578 0.065 Uiso 0.3 1 calc GR . P A 2
H14F H -0.2986 -0.0295 -0.3428 0.065 Uiso 0.3 1 calc GR . P A 2
C15A C -0.4375(17) 0.031(3) -0.510(3) 0.080(8) Uiso 0.3 1 d . . P A 2
H15D H -0.4853 0.0113 -0.5745 0.120 Uiso 0.3 1 calc GR . P A 2
H15E H -0.3974 0.0881 -0.5614 0.120 Uiso 0.3 1 calc GR . P A 2
H15F H -0.4580 0.0757 -0.4226 0.120 Uiso 0.3 1 calc GR . P A 2
loop_
_atom_site_aniso_label
_atom_site_aniso_U_11
_atom_site_aniso_U_22
_atom_site_aniso_U_33
_atom_site_aniso_U_23
_atom_site_aniso_U_13
_atom_site_aniso_U_12
Ce1 0.00944(8) 0.01128(8) 0.00950(8) -0.00074(13) 0.00222(5) 0.00041(12)
O2 0.0172(14) 0.0223(15) 0.0151(14) 0.0070(12) 0.0058(11) 0.0062(11)
O10 0.0120(13) 0.0178(14) 0.0225(15) 0.0026(12) -0.0004(11) 0.0038(11)
O11 0.0195(14) 0.0324(16) 0.0177(14) 0.0036(13) 0.0091(11) 0.0096(13)
O16 0.0305(16) 0.0178(14) 0.0161(12) 0.0024(10) 0.0032(13) -0.0020(12)
O9 0.0225(14) 0.0195(15) 0.0132(13) 0.0043(12) 0.0051(11) 0.0097(12)
O12 0.0255(14) 0.0211(15) 0.0285(16) -0.0054(13) 0.0024(13) -0.0053(12)
C10 0.013(2) 0.019(2) 0.015(2) -0.0032(15) 0.0010(19) -0.0005(15)
C2 0.015(2) 0.0143(19) 0.013(2) -0.0032(15) 0.0023(18) 0.0011(17)
C3 0.0137(16) 0.0153(18) 0.0135(17) 0.0009(14) 0.0016(13) 0.0010(14)
C4 0.017(3) 0.0197(18) 0.012(2) 0.0017(17) 0.0031(18) 0.002(2)
C8 0.0194(19) 0.020(2) 0.0133(18) -0.0011(16) 0.0032(15) 0.0021(16)
N3 0.0127(14) 0.0114(14) 0.0133(14) 0.0005(12) 0.0021(11) -0.0003(12)
C7 0.0141(16) 0.0164(17) 0.0115(16) -0.0002(14) 0.0002(13) 0.0017(14)
C13 0.024(2) 0.033(3) 0.030(3) -0.012(2) 0.006(2) -0.008(2)
O8 0.044(3) 0.0266(18) 0.0179(19) 0.0113(14) 0.0080(17) 0.0164(16)
C5 0.0122(17) 0.0156(18) 0.0158(18) -0.0007(15) 0.0025(14) -0.0006(15)
C6 0.0140(17) 0.0174(19) 0.0159(18) 0.0027(15) 0.0027(14) 0.0039(14)
O1 0.0125(13) 0.0202(14) 0.0121(13) 0.0013(10) 0.0035(10) 0.0059(10)
N14 0.036(4) 0.053(3) 0.039(4) -0.021(3) 0.003(3) -0.016(3)
C14 0.032(4) 0.060(4) 0.046(4) -0.006(4) -0.017(3) -0.001(4)
C15 0.075(6) 0.096(6) 0.065(5) -0.048(5) 0.011(5) -0.028(5)
O17 0.080(3) 0.046(2) 0.0255(18) -0.0069(17) 0.0097(19) -0.033(2)
loop_
_atom_type_symbol
_atom_type_description
_atom_type_scat_dispersion_real
_atom_type_scat_dispersion_imag
_atom_type_scat_source
C C 0.0033 0.0016 'International Tables Vol C Tables 4.2.6.8 and 6.1.1.4'
H H 0.0000 0.0000 'International Tables Vol C Tables 4.2.6.8 and 6.1.1.4'
Ce Ce -0.2486 2.6331 'International Tables Vol C Tables 4.2.6.8 and 6.1.1.4'
N N 0.0061 0.0033 'International Tables Vol C Tables 4.2.6.8 and 6.1.1.4'
O O 0.0106 0.0060 'International Tables Vol C Tables 4.2.6.8 and 6.1.1.4'
loop_
_geom_angle_atom_site_label_1
_geom_angle_atom_site_label_2
_geom_angle_atom_site_label_3
_geom_angle
_geom_angle_site_symmetry_1
_geom_angle_site_symmetry_3
_geom_angle_publ_flag
O2 Ce1 C2 24.26(10) 2_544 2_544 ?
O10 Ce1 O2 138.32(9) 3_545 2_544 ?
O10 Ce1 O16 69.90(9) 3_545 . ?
O10 Ce1 O9 142.47(9) 3_545 . ?
O10 Ce1 O12 74.58(10) 3_545 . ?
O10 Ce1 C2 134.28(11) 3_545 2_544 ?
O10 Ce1 N3 127.70(9) 3_545 . ?
O10 Ce1 O1 74.96(9) 3_545 . ?
O10 Ce1 O1 124.18(9) 3_545 2_544 ?
O11 Ce1 O2 125.34(9) 4_544 2_544 ?
O11 Ce1 O10 74.15(9) 4_544 3_545 ?
O11 Ce1 O16 105.35(10) 4_544 . ?
O11 Ce1 O9 77.18(9) 4_544 . ?
O11 Ce1 O12 78.85(10) 4_544 . ?
O11 Ce1 C2 101.61(11) 4_544 2_544 ?
O11 Ce1 N3 133.84(10) 4_544 . ?
O11 Ce1 O1 76.37(9) 4_544 2_544 ?
O11 Ce1 O1 146.48(9) 4_544 . ?
O16 Ce1 O2 69.32(9) . 2_544 ?
O16 Ce1 C2 67.59(11) . 2_544 ?
O16 Ce1 N3 119.99(9) . . ?
O16 Ce1 O1 73.85(8) . 2_544 ?
O9 Ce1 O2 78.64(9) . 2_544 ?
O9 Ce1 O16 142.27(10) . . ?
O9 Ce1 C2 74.98(11) . 2_544 ?
O9 Ce1 N3 62.14(9) . . ?
O9 Ce1 O1 70.24(9) . 2_544 ?
O9 Ce1 O1 123.04(8) . . ?
O12 Ce1 O2 139.71(9) . 2_544 ?
O12 Ce1 O16 141.20(10) . . ?
O12 Ce1 O9 76.54(11) . . ?
O12 Ce1 C2 150.60(12) . 2_544 ?
O12 Ce1 N3 71.60(9) . . ?
O12 Ce1 O1 142.03(9) . 2_544 ?
O12 Ce1 O1 80.71(9) . . ?
N3 Ce1 O2 68.84(8) . 2_544 ?
N3 Ce1 C2 88.66(11) . 2_544 ?
O1 Ce1 O2 86.94(9) . 2_544 ?
O1 Ce1 O2 49.36(8) 2_544 2_544 ?
O1 Ce1 O16 75.54(8) . . ?
O1 Ce1 C2 109.18(10) . 2_544 ?
O1 Ce1 C2 25.27(11) 2_544 2_544 ?
O1 Ce1 N3 61.25(9) . . ?
O1 Ce1 N3 106.88(9) 2_544 . ?
O1 Ce1 O1 133.24(8) . 2_544 ?
C2 O2 Ce1 91.8(2) . 2_545 ?
C10 O10 Ce1 135.6(3) . 3_455 ?
C10 O11 Ce1 145.2(3) . 4_445 ?
Ce1 O16 H16A 110.9 . . ?
Ce1 O16 H16B 110.7 . . ?
H16A O16 H16B 108.0 . . ?
C8 O9 Ce1 126.1(2) . . ?
C13 O12 Ce1 145.2(3) . . ?
C13A O12 Ce1 126.1(9) . . ?
O10 C10 O11 126.5(4) . . ?
O10 C10 C5 117.2(4) . . ?
O11 C10 C5 116.2(4) . . ?
O2 C2 Ce1 64.0(2) . 2_545 ?
O2 C2 C3 121.9(4) . . ?
O2 C2 O1 122.8(4) . . ?
C3 C2 Ce1 168.3(3) . 2_545 ?
O1 C2 Ce1 59.4(2) . 2_545 ?
O1 C2 C3 115.3(4) . . ?
C4 C3 C2 122.8(4) . . ?
N3 C3 C2 114.8(3) . . ?
N3 C3 C4 122.4(4) . . ?
C3 C4 H4 121.2 . . ?
C3 C4 C5 117.7(4) . . ?
C5 C4 H4 121.2 . . ?
O9 C8 C7 116.1(3) . . ?
O8 C8 O9 125.7(4) . . ?
O8 C8 C7 118.2(4) . . ?
C3 N3 Ce1 120.6(2) . . ?
C7 N3 Ce1 119.5(2) . . ?
C7 N3 C3 119.9(3) . . ?
N3 C7 C8 115.3(3) . . ?
N3 C7 C6 121.8(3) . . ?
C6 C7 C8 122.9(3) . . ?
O12 C13 H13 119.3 . . ?
O12 C13 N14 121.4(7) . . ?
N14 C13 H13 119.3 . . ?
C4 C5 C10 120.6(4) . . ?
C6 C5 C10 120.1(3) . . ?
C6 C5 C4 119.3(3) . . ?
C7 C6 C5 118.9(3) . . ?
C7 C6 H6 120.6 . . ?
C5 C6 H6 120.6 . . ?
Ce1 O1 Ce1 138.93(11) . 2_545 ?
C2 O1 Ce1 124.9(3) . . ?
C2 O1 Ce1 95.3(2) . 2_545 ?
C13 N14 C14 121.8(9) . . ?
C13 N14 C15 116.2(11) . . ?
C14 N14 C15 122.0(10) . . ?
N14 C14 H14A 109.5 . . ?
N14 C14 H14B 109.5 . . ?
N14 C14 H14C 109.5 . . ?
H14A C14 H14B 109.5 . . ?
H14A C14 H14C 109.5 . . ?
H14B C14 H14C 109.5 . . ?
N14 C15 H15A 109.5 . . ?
N14 C15 H15B 109.5 . . ?
N14 C15 H15C 109.5 . . ?
H15A C15 H15B 109.5 . . ?
H15A C15 H15C 109.5 . . ?
H15B C15 H15C 109.5 . . ?
H17A O17 H17B 109.4 . . ?
O12 C13A H13A 117.1 . . ?
N14A C13A O12 125.7(19) . . ?
N14A C13A H13A 117.1 . . ?
C13A N14A C14A 120.6(19) . . ?
C13A N14A C15A 125(2) . . ?
C15A N14A C14A 113(2) . . ?
N14A C14A H14D 109.5 . . ?
N14A C14A H14E 109.5 . . ?
N14A C14A H14F 109.5 . . ?
H14D C14A H14E 109.5 . . ?
H14D C14A H14F 109.5 . . ?
H14E C14A H14F 109.5 . . ?
N14A C15A H15D 109.5 . . ?
N14A C15A H15E 109.5 . . ?
N14A C15A H15F 109.5 . . ?
H15D C15A H15E 109.5 . . ?
H15D C15A H15F 109.5 . . ?
H15E C15A H15F 109.5 . . ?
loop_
_geom_bond_atom_site_label_1
_geom_bond_atom_site_label_2
_geom_bond_distance
_geom_bond_site_symmetry_2
_geom_bond_publ_flag
Ce1 O2 2.707(3) 2_544 ?
Ce1 O10 2.450(2) 3_545 ?
Ce1 O11 2.435(3) 4_544 ?
Ce1 O16 2.557(3) . ?
Ce1 O9 2.493(3) . ?
Ce1 O12 2.458(3) . ?
Ce1 C2 3.011(4) 2_544 ?
Ce1 N3 2.625(3) . ?
Ce1 O1 2.520(3) . ?
Ce1 O1 2.604(3) 2_544 ?
O2 Ce1 2.707(3) 2_545 ?
O2 C2 1.238(5) . ?
O10 Ce1 2.450(2) 3_455 ?
O10 C10 1.242(5) . ?
O11 Ce1 2.435(3) 4_445 ?
O11 C10 1.254(5) . ?
O16 H16A 0.8819 . ?
O16 H16B 0.8823 . ?
O9 C8 1.266(5) . ?
O12 C13 1.203(7) . ?
O12 C13A 1.34(2) . ?
C10 C5 1.512(6) . ?
C2 Ce1 3.011(4) 2_545 ?
C2 C3 1.503(5) . ?
C2 O1 1.291(5) . ?
C3 C4 1.397(6) . ?
C3 N3 1.338(4) . ?
C4 H4 0.9500 . ?
C4 C5 1.403(6) . ?
C8 C7 1.510(5) . ?
C8 O8 1.253(5) . ?
N3 C7 1.333(5) . ?
C7 C6 1.391(5) . ?
C13 H13 0.9500 . ?
C13 N14 1.349(14) . ?
C5 C6 1.393(5) . ?
C6 H6 0.9500 . ?
O1 Ce1 2.604(3) 2_545 ?
N14 C14 1.415(13) . ?
N14 C15 1.477(14) . ?
C14 H14A 0.9800 . ?
C14 H14B 0.9800 . ?
C14 H14C 0.9800 . ?
C15 H15A 0.9800 . ?
C15 H15B 0.9800 . ?
C15 H15C 0.9800 . ?
O17 H17A 0.8502 . ?
O17 H17B 0.8502 . ?
C13A H13A 0.9500 . ?
C13A N14A 1.28(3) . ?
N14A C14A 1.47(3) . ?
N14A C15A 1.44(3) . ?
C14A H14D 0.9800 . ?
C14A H14E 0.9800 . ?
C14A H14F 0.9800 . ?
C15A H15D 0.9800 . ?
C15A H15E 0.9800 . ?
C15A H15F 0.9800 . ?
loop_
_geom_hbond_atom_site_label_D
_geom_hbond_atom_site_label_H
_geom_hbond_atom_site_label_A
_geom_hbond_distance_DH
_geom_hbond_distance_HA
_geom_hbond_distance_DA
_geom_hbond_angle_DHA
_geom_hbond_site_symmetry_A
O16 H16A O17 0.88 1.94 2.693(5) 143.1 .
O16 H16B O9 0.88 1.90 2.768(4) 168.0 2_545
O17 H17A O8 0.85 2.09 2.918(6) 163.7 1_545
O17 H17B O8 0.85 2.01 2.820(5) 160.0 2_545
