#------------------------------------------------------------------------------
#$Date: 2022-02-04 21:44:44 +0200 (Fri, 04 Feb 2022) $
#$Revision: 272686 $
#$URL: file:///home/coder/svn-repositories/cod/cif/7/70/91/7709198.cif $
#------------------------------------------------------------------------------
#
# This file is available in the Crystallography Open Database (COD),
# http://www.crystallography.net/
#
# All data on this site have been placed in the public domain by the
# contributors.
#
data_7709198
loop_
_publ_author_name
'Mi, Fu-Qi'
'Ma, Fa-Xue'
'Zou, Shui-Xiang'
'Zhan, Dong-Sun'
'Zhang, Teng'
_publ_section_title
;
 A proton-conductive metal-organic framework based on imidazole and
 sulphate ligands.
;
_journal_issue                   4
_journal_name_full
'Dalton transactions (Cambridge, England : 2003)'
_journal_page_first              1313
_journal_page_last               1317
_journal_paper_doi               10.1039/d1dt04129k
_journal_volume                  51
_journal_year                    2022
_chemical_formula_moiety         'C12 H9 Cu N6 O4 S'
_chemical_formula_sum            'C12 H9 Cu N6 O4 S'
_chemical_formula_weight         396.85
_space_group_crystal_system      orthorhombic
_space_group_IT_number           60
_space_group_name_Hall           '-P 2n 2ab'
_space_group_name_H-M_alt        'P b c n'
_atom_sites_solution_hydrogens   geom
_audit_creation_date             2021-10-18
_audit_creation_method
;
Olex2 1.2
(compiled 2018.05.29 svn.r3508 for OlexSys, GUI svn.r5506)
;
_audit_update_record
;
2021-10-24 deposited with the CCDC.	2021-12-27 downloaded from the CCDC.
;
_cell_angle_alpha                90
_cell_angle_beta                 90
_cell_angle_gamma                90
_cell_formula_units_Z            8
_cell_length_a                   20.6518(4)
_cell_length_b                   9.8071(2)
_cell_length_c                   15.1637(3)
_cell_measurement_reflns_used    4300
_cell_measurement_temperature    100.15
_cell_measurement_theta_max      60.7680
_cell_measurement_theta_min      3.6700
_cell_volume                     3071.17(11)
_computing_molecular_graphics    'Olex2 (Dolomanov et al., 2009)'
_computing_publication_material  'Olex2 (Dolomanov et al., 2009)'
_computing_structure_refinement  'SHELXL 2018/3 (Sheldrick, 2015)'
_computing_structure_solution    'SHELXT 2014/4 (Sheldrick, 2014)'
_diffrn_ambient_temperature      100.15
_diffrn_measured_fraction_theta_full 1.000
_diffrn_measured_fraction_theta_max 0.963
_diffrn_measurement_device_type  X-ray
_diffrn_radiation_type           CuK\a
_diffrn_radiation_wavelength     1.54184
_diffrn_reflns_av_R_equivalents  0.0257
_diffrn_reflns_av_unetI/netI     0.0249
_diffrn_reflns_Laue_measured_fraction_full 1.000
_diffrn_reflns_Laue_measured_fraction_max 0.963
_diffrn_reflns_limit_h_max       25
_diffrn_reflns_limit_h_min       -17
_diffrn_reflns_limit_k_max       5
_diffrn_reflns_limit_k_min       -12
_diffrn_reflns_limit_l_max       19
_diffrn_reflns_limit_l_min       -18
_diffrn_reflns_number            11189
_diffrn_reflns_point_group_measured_fraction_full 1.000
_diffrn_reflns_point_group_measured_fraction_max 0.963
_diffrn_reflns_theta_full        67.684
_diffrn_reflns_theta_max         76.370
_diffrn_reflns_theta_min         4.282
_exptl_absorpt_coefficient_mu    3.589
_exptl_crystal_density_diffrn    1.717
_exptl_crystal_description       green
_exptl_crystal_F_000             1600
_exptl_crystal_size_max          0.3
_exptl_crystal_size_mid          0.26
_exptl_crystal_size_min          0.24
_refine_diff_density_max         2.558
_refine_diff_density_min         -1.001
_refine_diff_density_rms         0.236
_refine_ls_extinction_method     none
_refine_ls_goodness_of_fit_ref   1.101
_refine_ls_hydrogen_treatment    constr
_refine_ls_matrix_type           full
_refine_ls_number_parameters     217
_refine_ls_number_reflns         3109
_refine_ls_number_restraints     0
_refine_ls_restrained_S_all      1.101
_refine_ls_R_factor_all          0.0811
_refine_ls_R_factor_gt           0.0757
_refine_ls_shift/su_max          0.000
_refine_ls_shift/su_mean         0.000
_refine_ls_structure_factor_coef Fsqd
_refine_ls_weighting_details
'w=1/[\s^2^(Fo^2^)+(0.1759P)^2^+8.6580P] where P=(Fo^2^+2Fc^2^)/3'
_refine_ls_weighting_scheme      calc
_refine_ls_wR_factor_gt          0.2535
_refine_ls_wR_factor_ref         0.2619
_reflns_Friedel_coverage         0.000
_reflns_number_gt                2718
_reflns_number_total             3109
_reflns_threshold_expression     'I > 2\s(I)'
_cod_data_source_file            d1dt04129k2.cif
_cod_data_source_block           1
_cod_depositor_comments
'Adding full bibliography for 7709198--7709199.cif.'
_cod_database_code               7709198
_shelx_shelxl_version_number     2018/3
_shelx_space_group_comment
;
The symmetry employed for this shelxl refinement is uniquely defined
by the following loop, which should always be used as a source of
symmetry information in preference to the above space-group names.
They are only intended as comments.
;
_olex2_refinement_description
;
1. Others
 Fixed Uiso: H008(0.032) H00A(0.035) H00E(0.03) H00F(0.033) H00G(0.035)
 H00J(0.035) H00K(0.063) H00M(0.065) H00O(0.054)
 Fixed X: H008(0.334272) H00A(0.323132) H00E(0.321908) H00F(0.333227)
 H00G(0.310167) H00J(0.324271) H00K(0.551009) H00M(0.439338) H00O(0.610862)
 Fixed Y: H008(0.173929) H00A(0.829982) H00E(0.429009) H00F(0.095853)
 H00G(0.573035) H00J(0.907736) H00K(0.825497) H00M(0.9014) H00O(0.569133)
 Fixed Z: H008(0.697144) H00A(0.829119) H00E(0.610946) H00F(0.846456)
 H00G(0.913984) H00J(0.681212) H00K(0.534184) H00M(0.538867) H00O(0.505859)
;
_shelx_res_file
;
TITL 1_a.res in Pbcn
    1.res
    created by SHELXL-2018/3 at 11:03:58 on 19-Jul-2021
REM Old TITL crystal-1_auto_a.res in Pbcn
REM SHELXT solution in Pbcn
REM R1 0.154, Rweak 0.001, Alpha 0.024, Orientation as input
REM Formula found by SHELXT: C14 Cu N4 O4 S
CELL 1.54184 20.6518 9.8071 15.1637 90 90 90
ZERR 8 0.0004 0.0002 0.0003 0 0 0
LATT 1
SYMM 0.5-X,0.5-Y,0.5+Z
SYMM -X,+Y,0.5-Z
SYMM 0.5+X,0.5-Y,-Z
SFAC C H Cu N O S
UNIT 96 72 8 48 32 8

L.S. 10
PLAN  10
TEMP -173
CONF
BOND $H
list 4
MORE -1
fmap 2
acta
REM <olex2.extras>
REM <HklSrc "%.\\1.hkl">
REM </olex2.extras>

WGHT    0.175900    8.658001
FVAR       0.13393
CU01  3    0.318320    0.724721    0.513105    11.00000    0.04063    0.01509 =
         0.01046   -0.00016   -0.00056    0.00409
S002  6    0.175378    0.578480    0.513063    11.00000    0.04011    0.01143 =
         0.01258   -0.00016    0.00027    0.00055
O003  5    0.209284    0.446718    0.512481    11.00000    0.03954    0.01565 =
         0.01849    0.00019   -0.00110    0.00385
O004  5    0.133688    0.591096    0.434321    11.00000    0.04287    0.02027 =
         0.01408    0.00276   -0.00186    0.00421
O005  5    0.221932    0.692715    0.512004    11.00000    0.04391    0.01791 =
         0.02872   -0.00016   -0.00136   -0.00384
O006  5    0.134304    0.590044    0.592766    11.00000    0.04898    0.02064 =
         0.01532   -0.00118    0.00472    0.00196
N007  4    0.322121    0.291929    0.882651    11.00000    0.05264    0.01257 =
         0.01195    0.00230    0.00180   -0.00285
N008  4    0.330652    0.227849    0.743269    11.00000    0.05104    0.01463 =
         0.01465   -0.00098   -0.00113   -0.00047
AFIX  43
H008  2    0.334272    0.173929    0.697144    11.00000   -1.20000
AFIX   0
N009  4    0.319892    0.711171    0.643292    11.00000    0.05025    0.01164 =
         0.01619    0.00070   -0.00051    0.00236
N00A  4    0.322185    0.775861    0.782848    11.00000    0.05781    0.01332 =
         0.01627   -0.00256    0.00097    0.00040
AFIX  43
H00A  2    0.323132    0.829982    0.829119    11.00000   -1.20000
AFIX   0
C00B  1    0.320759    0.408190    0.830869    11.00000    0.04748    0.01892 =
         0.00659    0.00142    0.00043   -0.00269
C00C  1    0.325345    0.366966    0.741179    11.00000    0.04175    0.01451 =
         0.01594   -0.00213    0.00054    0.00086
N00D  4    0.414470    0.715476    0.516191    11.00000    0.03831    0.05703 =
         0.02757   -0.00545   -0.00193    0.00496
C00E  1    0.322439    0.457967    0.670727    11.00000    0.04852    0.01735 =
         0.00925   -0.00116   -0.00132   -0.00060
AFIX  43
H00E  2    0.321908    0.429009    0.610946    11.00000   -1.20000
AFIX   0
C00F  1    0.329370    0.188044    0.827955    11.00000    0.05315    0.01763 =
         0.01229   -0.00238    0.00190   -0.00069
AFIX  43
H00F  2    0.333227    0.095853    0.846456    11.00000   -1.20000
AFIX   0
C00G  1    0.315908    0.544130    0.854702    11.00000    0.05927    0.01480 =
         0.01299   -0.00079    0.00346   -0.00282
AFIX  43
H00G  2    0.310167    0.573035    0.913984    11.00000   -1.20000
AFIX   0
C00H  1    0.320396    0.593441    0.694821    11.00000    0.04707    0.01701 =
         0.01333    0.00191   -0.00065    0.00021
C00I  1    0.320153    0.634340    0.784608    11.00000    0.04624    0.01513 =
         0.01277   -0.00216    0.00110    0.00037
C00J  1    0.322446    0.815035    0.699218    11.00000    0.05585    0.01371 =
         0.01870    0.00048   -0.00069    0.00084
AFIX  43
H00J  2    0.324271    0.907736    0.681212    11.00000   -1.20000
AFIX   0
N00K  4    0.517060    0.772316    0.527330    11.00000    0.05517    0.04697 =
         0.05468   -0.00181   -0.00515   -0.00120
AFIX  43
H00K  2    0.551009    0.825497    0.534184    11.00000   -1.20000
AFIX   0
C00L  1    0.516963    0.631565    0.512570    11.00000    0.05499    0.03704 =
         0.03948   -0.00210   -0.00078   -0.00003
C00M  1    0.452946    0.810164    0.528883    11.00000    0.07189    0.03868 =
         0.05217    0.00574    0.01539    0.01253
AFIX  43
H00M  2    0.439338    0.901400    0.538867    11.00000   -1.20000
AFIX   0
C00N  1    0.450959    0.594270    0.507206    11.00000    0.04762    0.04266 =
         0.02824   -0.00153    0.00090   -0.00199
C00O  1    0.566834    0.541199    0.504115    11.00000    0.04174    0.05420 =
         0.03882    0.00141    0.00061   -0.00288
AFIX  43
H00O  2    0.610862    0.569133    0.505859    11.00000   -1.20000
AFIX   0
HKLF 4




REM  1_a.res in Pbcn
REM wR2 = 0.2619, GooF = S = 1.101, Restrained GooF = 1.101 for all data
REM R1 = 0.0757 for 2718 Fo > 4sig(Fo) and 0.0811 for all 3109 data
REM 217 parameters refined using 0 restraints

END

WGHT      0.1759      8.6580

REM Highest difference peak  2.558,  deepest hole -1.001,  1-sigma level  0.236
Q1    1   0.5000  0.6234  0.7500  10.50000  0.05    2.56
Q2    1   0.5000  0.4643  0.7500  10.50000  0.05    2.45
Q3    1   0.5000  0.2407  0.7500  10.50000  0.05    2.11
Q4    1   0.5125  1.0861  0.6410  11.00000  0.05    1.44
Q5    1   0.4962  0.9173  0.6149  11.00000  0.05    1.35
Q6    1  -0.0010  0.5933  0.7143  11.00000  0.05    1.17
Q7    1   0.4155  0.7979  0.4990  11.00000  0.05    1.00
Q8    1   0.4938  0.8028  0.3309  11.00000  0.05    0.94
Q9    1   0.5079  1.0015  0.7199  11.00000  0.05    0.80
Q10   1   0.3215  0.3904  0.7783  11.00000  0.05    0.74
;
_shelx_res_checksum              43396
_shelx_hkl_file
;
   0   0   1    0.02    0.05
   0   0   2 1497.62   42.49
   0   0   3    0.03    0.17
   0   0   4 4690.62  132.99
   0   0   5    0.10    0.25
   0   0   6 2809.11   79.85
   0   0   7   -0.02    0.27
   0   0   8 1511.74   43.27
   0   0   9    0.19    0.33
   0   0  10  638.27   18.73
   0   0  11    0.40    0.38
   0   0  12  465.91   14.02
   0   0  13   -0.32    0.41
   0   0  14  115.32    4.11
   0   0  15    0.26    0.30
   0   0  16   36.63    1.31
   0   0  17    0.20    0.24
   0   0  18   10.97    0.49
   0   0  19   -0.01    0.12
   0  -1   0    0.02    0.09
   0   1   1    0.10    0.07
   0  -1   1    0.08    0.10
   0  -1  -2    0.02    0.10
   0  -1   2    0.08    0.10
   0   1   2    0.05    0.11
   0  -1   2    0.06    0.15
   0   1   3    0.20    0.17
   0  -1   3    0.33    0.22
   0   1   4   -0.04    0.20
   0  -1   4   -0.11    0.23
   0   1   5    0.51    0.24
   0  -1   6    0.23    0.27
   0   1   6   -0.09    0.24
   0  -1   7    0.76    0.34
   0   1   7    0.73    0.32
   0  -1   8   -0.11    0.32
   0   1   8   -0.05    0.28
   0   1   9   -0.10    0.31
   0  -1   9    0.20    0.31
   0   1  10   -0.19    0.34
   0  -1  10    0.08    0.34
   0  -1  11    0.27    0.40
   0   1  11    0.82    0.42
   0  -1  12    0.05    0.39
   0   1  12   -0.14    0.37
   0  -1  13    0.24    0.26
   0   1  13   -0.15    0.37
   0  -1  13   -0.16    0.39
   0  -1  14    0.03    0.26
   0  -1  14    0.66    0.39
   0  -1  15    0.21    0.30
   0  -1  16    0.07    0.28
   0   1  16    0.10    0.28
   0   1  17   -0.12    0.24
   0  -1  17    0.16    0.24
   0  -1  18   -0.15    0.20
   0   1  18    0.02    0.18
   0  -1  19   -0.01    0.10
   0   1  19    0.07    0.11
   0  -2   0 1306.47   37.15
   0  -2   1   10.17    0.47
   0  -2   2   80.75    2.53
   0  -2  -2   84.37    2.54
   0  -2   2   86.44    2.54
   0   2   3   23.28    0.81
   0   2   4  833.64   23.79
   0  -2   5    0.69    0.26
   0   2   5    0.52    0.22
   0  -2   5    0.43    0.26
   0  -2   6  120.85    3.79
   0   2   6  121.72    3.74
   0   2   7   50.00    1.74
   0  -2   7   46.35    1.77
   0   2   8  356.89   10.56
   0   2   9   77.67    2.71
   0  -2  10   25.97    0.98
   0   2  10   31.26    1.34
   0  -2  11  176.07    5.28
   0   2  11  183.97    5.74
   0  -2  12    2.55    0.31
   0   2  12    2.59    0.49
   0  -2  13  107.36    3.33
   0  -2  14    1.83    0.35
   0  -2  15  206.38    6.13
   0  -2  16    3.65    0.38
   0  -2  17   67.90    2.16
   0   2  17   70.34    2.16
   0   2  18    4.05    0.27
   0  -2  18    3.65    0.27
   0  -3   0    0.18    0.26
   0  -3   1    0.24    0.19
   0  -3   2   -0.03    0.20
   0  -3   3    0.14    0.24
   0  -3   4    0.26    0.26
   0  -3   5   -0.04    0.22
   0  -3   6   -0.14    0.27
   0   3   7    0.20    0.24
   0  -3   7    0.27    0.29
   0   3   8    0.08    0.25
   0  -3   8   -0.03    0.31
   0  -3   9    0.11    0.34
   0  -3   9   -0.01    0.21
   0  -3  10    0.09    0.34
   0  -3  10    0.24    0.23
   0  -3  11    0.34    0.39
   0  -3  11    0.02    0.25
   0  -3  12    0.16    0.38
   0  -3  12    0.03    0.26
   0  -3  13    0.33    0.43
   0  -3  13    0.53    0.30
   0  -3  14    0.17    0.31
   0  -3  15    0.02    0.30
   0  -3  16    0.09    0.25
   0  -3  17    0.01    0.20
   0   3  17    0.38    0.21
   0  -3  18    0.21    0.15
   0   3  18    0.11    0.15
   0  -4   0  147.70    4.38
   0  -4   1    1.05    0.23
   0  -4   2  207.17    6.14
   0  -4   3    0.10    0.25
   0  -4   4  164.31    4.93
   0  -4   4  163.50    5.03
   0  -4   5    1.80    0.38
   0  -4   5    1.59    0.29
   0  -4   6  247.98    7.44
   0  -4   7  100.60    3.34
   0  -4   8  242.11    7.26
   0  -4   8  267.42    7.66
   0  -4   9   43.04    1.51
   0  -4   9   49.85    1.91
   0  -4  10    3.55    0.36
   0  -4  10    3.44    0.51
   0  -4  11   45.21    1.61
   0  -4  11   52.61    2.11
   0  -4  12    2.99    0.36
   0  -4  12    3.46    0.59
   0  -4  13   37.88    1.37
   0  -4  13   36.48    1.78
   0  -4  14    4.78    0.43
   0  -4  15    1.22    0.29
   0  -4  16    0.57    0.24
   0  -4  17    1.24    0.21
   0   4  18    0.98    0.13
   0  -4  18    0.98    0.13
   0  -5   0    0.04    0.17
   0  -5  -1    0.07    0.15
   0  -5   1   -0.05    0.20
   0  -5   1    0.04    0.10
   0  -5  -2   -0.01    0.12
   0  -5   2    0.10    0.25
   0  -5   2   -0.07    0.14
   0  -5   3   -0.09    0.26
   0  -5   3    0.03    0.17
   0  -5   4    0.05    0.28
   0  -5   4    0.13    0.19
   0  -5   5   -0.24    0.29
   0  -5   5    0.11    0.22
   0  -5   6    0.05    0.25
   0  -5   6    0.09    0.20
   0  -5   7   -0.16    0.26
   0  -5   7    0.07    0.22
   0  -5   8    0.04    0.30
   0  -5   8    0.03    0.24
   0  -5   9    0.20    0.33
   0  -5   9   -0.05    0.26
   0  -5  10    0.18    0.32
   0  -5  10    0.04    0.27
   0  -5  11    0.05    0.34
   0  -5  11    0.07    0.28
   0  -5  12   -0.15    0.35
   0  -5  12    0.05    0.30
   0  -5  13    0.02    0.29
   0  -5  14    0.72    0.30
   0  -5  15    0.01    0.25
   0  -5  16    0.14    0.20
   0  -5  17    0.07    0.14
   0  -6   0 1127.73   33.14
   0  -6   0 1181.73   33.04
   0  -6   1    0.20    0.21
   0  -6  -1    0.16    0.19
   0  -6   2  432.47   12.65
   0  -6   3    8.89    0.62
   0  -6  -3   10.36    0.45
   0  -6   3   10.21    0.51
   0  -6  -3    9.94    0.46
   0  -6  -4  281.73    8.04
   0  -6  -4  284.52    8.06
   0  -6   4  265.15    8.09
   0  -6  -5   12.54    0.56
   0  -6   5   11.51    0.63
   0  -6   5   11.45    0.57
   0  -6   6  101.07    3.52
   0  -6   6  106.58    3.38
   0  -6   7   21.18    1.03
   0  -6   7   21.22    0.88
   0  -6   8  124.41    4.09
   0  -6   8  125.15    3.84
   0  -6   9  210.30    6.26
   0  -6   9  190.67    5.90
   0  -6  10   96.25    3.21
   0  -6  10   85.62    2.83
   0  -6  11    5.07    0.44
   0  -6  12   99.78    3.13
   0  -6  13   78.80    2.51
   0  -6  14   28.04    1.03
   0  -6  15   40.03    1.32
   0  -6  16    7.31    0.35
   0  -7   0    0.08    0.17
   0  -7   0    0.11    0.19
   0  -7   0    0.02    0.18
   0  -7   1   -0.06    0.18
   0  -7  -1   -0.02    0.16
   0  -7   1    0.04    0.15
   0  -7   1   -0.01    0.17
   0  -7  -1    0.09    0.17
   0  -7   2   -0.08    0.18
   0  -7  -2    0.11    0.18
   0  -7   2    0.11    0.17
   0  -7   2    0.06    0.20
   0  -7  -2    0.08    0.18
   0  -7   3   -0.05    0.19
   0  -7  -3    0.06    0.18
   0  -7   3    0.16    0.25
   0  -7  -3   -0.17    0.22
   0  -7  -4   -0.04    0.17
   0  -7   4   -0.16    0.19
   0  -7   4    0.16    0.24
   0  -7  -5    0.01    0.18
   0  -7   5    0.02    0.26
   0  -7   6    0.07    0.29
   0  -7  -6    7.76    0.52
   0  -7   7    0.25    0.29
   0  -7   8   -0.10    0.31
   0  -7   9    0.17    0.32
   0  -7  10    0.19    0.31
   0  -7  11   -0.30    0.31
   0  -7  12    0.03    0.28
   0  -7  13    0.09    0.25
   0  -7  14   -0.13    0.20
   0  -7 -15    0.07    0.13
   0  -7  15    0.02    0.15
   0  -8   0  121.80    3.65
   0  -8   0  120.41    3.67
   0  -8  -1    8.78    0.49
   0  -8   1    9.77    0.50
   0  -8  -1    8.31    0.50
   0  -8   1    8.89    0.53
   0  -8  -2   78.42    2.43
   0  -8   2   78.00    2.43
   0  -8  -2   76.25    2.44
   0  -8   2   78.23    2.41
   0  -8   2   78.53    2.46
   0  -8   3    4.45    0.34
   0  -8  -3    4.62    0.35
   0  -8  -3    3.65    0.36
   0  -8   3    4.36    0.37
   0  -8   3    4.39    0.33
   0  -8   4    2.60    0.26
   0  -8   4    2.57    0.28
   0  -8  -4    2.82    0.34
   0  -8   4    2.61    0.33
   0  -8  -4    3.03    0.29
   0  -8  -5   55.26    1.74
   0  -8   5   46.32    1.75
   0  -8   6  124.03    3.85
   0  -8   7   54.39    1.88
   0  -8   8    1.16    0.34
   0  -8   9  106.55    3.33
   0  -8  10   14.89    0.71
   0  -8  11   80.36    2.53
   0  -8  12    5.86    0.39
   0  -8  13  228.42    6.64
   0  -8  14    0.48    0.12
   0  -9   0   -0.16    0.24
   0  -9   0    0.05    0.20
   0  -9  -1   -0.23    0.27
   0  -9   1    0.07    0.24
   0  -9  -1   -0.11    0.21
   0  -9   1   -0.05    0.20
   0  -9   2    0.03    0.25
   0  -9  -2   -0.22    0.26
   0  -9   2   -0.01    0.19
   0  -9  -2    0.17    0.21
   0  -9   3    0.39    0.26
   0  -9  -3    0.09    0.25
   0  -9   3    0.09    0.19
   0  -9  -3    0.29    0.21
   0  -9   4    0.33    0.25
   0  -9   4    0.26    0.19
   0  -9   5    0.17    0.26
   0  -9   5   -0.07    0.18
   0  -9   6    0.26    0.26
   0  -9   6    0.16    0.18
   0  -9   7    0.10    0.25
   0  -9   7    0.09    0.16
   0  -9   8    0.37    0.25
   0  -9   9   -0.02    0.22
   0  -9  10    0.07    0.20
   0  -9  11    0.16    0.16
   0  -9  12    0.05    0.13
   0 -10   0   64.17    2.06
   0 -10   0   67.46    2.10
   0 -10   1    0.47    0.19
   0 -10  -1    0.23    0.19
   0 -10   1   -0.10    0.27
   0 -10  -1    0.16    0.26
   0 -10   2    7.97    0.41
   0 -10  -2    8.04    0.42
   0 -10  -2    9.05    0.49
   0 -10   2    8.58    0.47
   0 -10   3    0.28    0.18
   0 -10   3    0.41    0.25
   0 -10   4    1.29    0.20
   0 -10   4    1.80    0.27
   0 -10   5    1.79    0.27
   0 -10   6    2.13    0.27
   0 -10   7    5.04    0.34
   0 -10   8    3.46    0.27
   0 -10   9    8.07    0.38
   0 -10  10   10.74    0.41
   0 -10  11    0.21    0.09
   0 -11   0    0.56    0.23
   0 -11   1    0.02    0.14
   0 -11   1   -0.15    0.21
   0 -11  -2   10.43    0.43
   0 -11   2   -0.11    0.22
   0 -11   3   -0.42    0.22
   0 -11   4   -0.26    0.21
   0 -11   5   -0.09    0.17
   0 -11   6    0.09    0.14
   0 -11   7    0.10    0.13
   0 -11   8   -0.12    0.11
   0 -12   1    9.58    0.40
   0 -12   2   12.71    0.47
   0 -12   3    3.05    0.21
   0 -12   4    0.93    0.13
   1   0   0    0.07    0.06
   1   0   1    0.02    0.07
   1   0   2   11.42    0.43
  -1   0   2   10.84    0.41
  -1   0   3   -0.05    0.16
   1   0   3    0.07    0.19
   1   0   4  215.62    6.27
  -1   0   4  212.96    6.24
   1   0   5    0.18    0.25
  -1   0   5    0.12    0.25
  -1   0   6  451.06   12.92
   1   0   6  437.77   12.90
  -1   0   7   -0.02    0.27
   1   0   7    0.02    0.29
   1   0   8  442.17   12.80
  -1   0   8  427.34   12.78
   1   0   9    0.03    0.29
  -1   0   9    0.23    0.30
   1   0  10  463.65   13.85
  -1   0  10  467.41   13.83
   1   0  11   -0.18    0.34
  -1   0  11    0.18    0.35
   1   0  12  703.18   20.99
  -1   0  12  721.66   21.02
   1   0  13   -0.05    0.37
  -1   0  13    0.05    0.35
   1   0  14  386.93   12.21
  -1   0  14  414.40   12.25
  -1   0  15    0.08    0.29
  -1   0  16  343.02    9.97
  -1   0  17   -0.06    0.25
  -1   0  18  220.06    6.39
  -1   0  19   -0.18    0.11
  -1  -1   0    4.89    0.25
   1   1   0    5.42    0.20
   1  -1   0    5.15    0.20
   1  -1   0    4.83    0.18
  -1  -1   1    3.06    0.20
  -1   1   1    3.04    0.13
   1  -1   1    3.49    0.17
  -1  -1  -2   99.46    2.89
  -1  -1   2   99.92    2.89
   1  -1   2   95.19    2.89
  -1   1   2   96.75    2.87
   1   1   2  101.57    2.90
  -1  -1  -3   64.12    2.02
  -1  -1   3   65.13    2.01
   1   1   3   73.78    2.10
  -1   1   3   69.79    2.07
  -1  -1   3   72.41    2.11
  -1  -1  -4   37.79    1.17
  -1  -1   4   37.62    1.16
  -1   1   4   39.09    1.27
   1   1   4   39.06    1.29
  -1  -1   4   39.70    1.30
   1   1   5  147.56    4.41
  -1   1   5  144.80    4.39
  -1  -1   5  147.14    4.42
   1   1   6   66.91    2.18
  -1  -1   6   65.37    2.20
  -1   1   6   65.39    2.16
   1   1   7  264.63    7.79
  -1   1   7  260.23    7.77
  -1  -1   7  257.30    7.80
  -1   1   8   28.52    1.21
  -1  -1   8   27.59    1.23
   1   1   8   28.31    1.21
   1  -1   8   26.07    1.20
  -1  -1   9   63.63    2.30
  -1   1   9   58.07    2.22
   1   1   9   63.64    2.28
   1  -1   9   60.62    2.28
   1  -1  10    0.80    0.37
   1   1  10    0.34    0.33
  -1   1  10    0.49    0.34
  -1  -1  10    0.55    0.37
   1  -1  11  119.52    4.01
  -1   1  11  115.41    3.95
   1   1  11  112.87    3.94
  -1  -1  11  112.73    3.96
  -1  -1  12    0.86    0.42
   1   1  12    0.91    0.42
   1  -1  12    0.92    0.45
  -1   1  12    1.10    0.44
   1  -1  13    0.05    0.39
  -1   1  13    0.61    0.38
  -1  -1  13    0.77    0.40
   1   1  13    0.47    0.41
  -1  -1  13    0.71    0.28
   1  -1  14    0.28    0.37
  -1   1  14    0.21    0.36
  -1  -1  14   -0.11    0.37
  -1  -1  14    0.51    0.29
  -1  -1  15   69.84    2.26
  -1  -1  16    0.76    0.29
  -1   1  16    1.35    0.31
  -1  -1  17   22.90    0.88
  -1   1  17   24.09    0.89
  -1  -1  18    1.10    0.21
  -1   1  18    1.08    0.21
  -1  -1  19    3.18    0.19
  -1   1  19    3.22    0.19
   1  -2   0    0.02    0.11
  -1  -2   0    0.05    0.20
   1  -2   0    0.07    0.05
  -1  -2   1  854.35   24.05
   1  -2  -1  839.46   23.95
   1   2  -1  841.37   23.95
   1  -2   1  843.38   23.99
   1  -2   2    0.68    0.16
  -1  -2   2    0.73    0.20
  -1   2   2    0.74    0.12
  -1  -2  -2    0.60    0.20
   1  -2   2    0.58    0.20
  -1   2   3  393.67   11.19
   1  -2   3  382.39   11.24
  -1  -2   3  392.35   11.24
  -1  -2  -3  393.87   11.24
  -1  -2   4   59.23    1.93
  -1   2   4   60.10    1.85
   1   2   4   61.29    1.89
   1  -2   4   56.28    1.89
  -1  -2  -4   56.73    1.84
  -1  -2   4   59.61    1.84
  -1   2   5   19.44    0.79
   1  -2   5   20.29    0.86
   1   2   5   21.75    0.84
  -1  -2   5   20.73    0.88
  -1   2   6   21.90    0.91
   1  -2   6   22.38    0.96
   1   2   6   22.76    0.94
  -1  -2   6   22.47    0.98
  -1   2   7   92.42    2.93
   1   2   7   88.40    2.93
   1  -2   7   90.70    2.98
   1  -2   8  194.51    6.07
   1   2   8  199.21    6.02
  -1   2   8  194.89    6.01
   1   2   9   59.97    2.10
  -1   2   9   60.47    2.10
  -1   2  10   67.21    2.34
   1   2  10   64.43    2.34
  -1  -2  11   74.71    2.43
  -1   2  11   81.72    2.86
   1   2  11   81.58    2.88
  -1  -2  12    1.87    0.29
  -1   2  12    1.73    0.45
  -1  -2  13   12.91    0.65
  -1  -2  13   14.47    1.03
  -1   2  13   12.09    0.93
  -1  -2  14   41.81    1.48
  -1  -2  14   42.79    1.97
  -1  -2  15   17.70    0.79
  -1  -2  16   82.33    2.58
  -1   2  17    2.38    0.29
  -1  -2  17    1.71    0.27
  -1  -2  18   16.67    0.60
  -1   2  18   16.03    0.59
   1  -3   0    1.52    0.09
  -1  -3   0    2.01    0.31
   1  -3   0    1.75    0.18
  -1  -3   1    6.08    0.45
   1  -3  -1    5.75    0.26
   1  -3   1    6.33    0.36
   1   3  -2   19.63    0.69
   1  -3  -2   19.14    0.69
  -1  -3   2   19.95    0.79
   1  -3   2   20.58    0.77
   1  -3   2   20.06    0.70
  -1  -3   2   19.77    0.82
  -1  -3  -2   19.25    0.81
  -1  -3   3   18.91    0.80
   1  -3   3   17.97    0.77
   1  -3   3   18.95    0.72
  -1  -3  -3   17.83    0.78
  -1  -3   3   17.88    0.78
   1  -3   4   25.57    1.03
  -1  -3  -4   27.92    1.01
   1  -3   4   25.94    0.99
  -1   3   5    4.46    0.33
   1  -3   5    4.02    0.38
  -1  -3   6    0.95    0.29
  -1   3   6    0.88    0.24
   1  -3   6    1.15    0.30
  -1   3   7   61.94    2.08
   1  -3   7   61.94    2.19
  -1  -3   7   59.91    2.19
  -1  -3   8   54.38    2.09
  -1   3   8   56.21    1.98
   1  -3   8   57.04    2.09
   1  -3   9   44.75    1.78
  -1  -3   9   44.27    1.78
  -1   3   9   45.16    1.66
  -1  -3   9   39.02    1.40
   1  -3  10    9.56    0.76
  -1   3  10   10.22    0.69
  -1  -3  10    8.91    0.76
  -1  -3  10    9.40    0.50
   1  -3  11   76.68    2.81
  -1  -3  11   75.81    2.81
  -1  -3  11   69.58    2.31
   1  -3  12    0.58    0.39
  -1  -3  12    0.69    0.44
  -1  -3  12    1.11    0.29
  -1  -3  13   74.93    2.93
   1  -3  13   73.43    2.91
  -1  -3  13   74.27    2.40
  -1  -3  14    5.09    0.43
  -1  -3  15   63.41    2.07
  -1  -3  16    1.38    0.28
  -1   3  17    4.43    0.32
  -1  -3  17    4.25    0.32
   1  -3 -18    0.19    0.13
  -1   3  18    0.13    0.14
  -1  -3  18    0.35    0.15
   1  -4   0    0.01    0.15
  -1  -4   0   -0.02    0.29
  -1  -4   1  246.30    7.12
   1  -4   1  234.36    6.83
   1  -4   1  242.83    6.96
   1  -4  -1  237.62    6.86
  -1  -4  -2    5.03    0.45
  -1  -4   2    5.80    0.47
   1  -4   2    4.75    0.29
   1  -4   2    4.42    0.37
   1  -4  -2    4.39    0.22
  -1  -4   2    5.08    0.40
  -1  -4   3  104.83    3.10
   1  -4   3  101.21    3.06
   1  -4   3   98.01    2.95
   1   4  -3   94.79    2.90
   1  -4  -3   92.06    2.89
   1  -4   4   14.53    0.66
   1  -4   4   13.39    0.72
  -1  -4   4   13.87    0.75
   1  -4   5   49.79    1.73
  -1  -4   5   50.08    1.85
  -1  -4   6   45.49    1.72
   1  -4   6   46.20    1.69
  -1  -4   6   46.23    1.79
  -1  -4   7  336.87    9.89
   1  -4   7  325.26    9.85
   1  -4   8  133.47    4.23
  -1  -4   8  137.13    4.27
  -1  -4   8  124.50    3.88
   1  -4   9   92.50    3.02
  -1  -4   9   88.69    3.03
  -1  -4  10   12.98    0.90
   1  -4  10   13.55    0.90
  -1  -4  10   11.40    0.60
   1  -4  11    7.54    0.74
  -1  -4  11    9.37    0.82
  -1  -4  11    8.21    0.52
   1  -4  12   10.92    0.90
  -1  -4  12   10.96    0.89
  -1  -4  12   10.89    0.61
  -1  -4  13   16.19    0.73
   1  -4  13   14.67    1.04
  -1  -4  13   15.64    1.08
  -1  -4  14   45.27    1.57
  -1  -4  15    1.09    0.28
  -1  -4  16   14.83    0.63
  -1  -4  17    0.11    0.18
  -1   4  18   22.46    0.72
  -1  -4  18   21.72    0.72
   1  -5   0   30.13    1.06
  -1  -5   0   29.79    1.11
   1  -5  -1    0.25    0.13
  -1  -5   1    0.30    0.21
   1  -5   1    0.09    0.20
   1  -5   2  197.78    5.89
   1  -5   2  212.08    6.08
  -1  -5   2  207.93    6.12
   1  -5   3    8.17    0.42
   1  -5   3    8.06    0.54
  -1  -5   3    7.96    0.57
   1  -5   4   14.71    0.67
  -1  -5   4   15.19    0.82
  -1  -5   5    3.71    0.46
  -1  -5   5    3.69    0.39
   1  -5   5    3.50    0.36
  -1  -5   6    0.21    0.33
   1  -5   6    0.53    0.25
  -1  -5   6    1.22    0.30
  -1  -5   6    0.54    0.23
  -1  -5   7   11.06    0.70
   1  -5   7   10.54    0.68
  -1  -5   7    9.04    0.50
   1  -5   8   31.34    1.34
  -1  -5   8   30.60    1.36
  -1  -5   8   27.82    1.07
   1  -5   9    8.95    0.73
  -1  -5   9    9.13    0.54
  -1  -5  10   11.67    0.86
   1  -5  10   11.89    0.85
  -1  -5  10   10.54    0.60
  -1  -5  11    4.52    0.61
   1  -5  11    3.98    0.55
  -1  -5  11    3.64    0.41
  -1  -5  12    7.57    0.75
   1  -5  12    8.67    0.77
  -1  -5  12    8.67    0.54
  -1  -5  13    0.08    0.28
  -1  -5  14   15.28    0.70
  -1  -5  15    5.33    0.39
  -1  -5  16    0.91    0.22
   1  -5 -17    3.69    0.23
  -1  -5  17    3.61    0.23
  -1  -6   0    0.17    0.24
   1  -6   0    0.28    0.20
  -1  -6   1  173.99    5.28
   1  -6  -1  177.08    5.09
  -1  -6  -1  167.57    5.17
  -1  -6   2    6.06    0.50
   1  -6   2    7.10    0.38
   1  -6  -2    7.13    0.39
  -1  -6   2    7.48    0.42
  -1  -6  -2    7.61    0.38
   1  -6  -3  181.92    5.36
  -1  -6   3  175.86    5.64
   1  -6   3  182.99    5.36
  -1  -6   3  178.41    5.39
   1  -6  -3  184.82    5.34
  -1  -6  -3  187.38    5.36
  -1  -6  -4   24.17    0.86
  -1  -6   4   23.12    1.11
  -1  -6   4   22.46    0.89
   1  -6  -4   23.97    0.84
  -1  -6   4   21.23    0.93
   1  -6   5  100.92    3.08
  -1  -6  -5  108.83    3.12
  -1  -6   5   97.58    3.45
   1  -6  -5  104.39    3.08
  -1  -6   5   96.17    3.26
  -1  -6   5  100.84    3.15
   1  -6   6   21.59    0.82
  -1  -6   6   21.40    1.04
  -1  -6   6   21.02    0.91
  -1  -6   7   55.14    2.08
   1  -6   7   55.26    2.04
  -1  -6   7   57.55    1.89
  -1  -6   8   43.12    1.76
   1  -6   8   42.60    1.72
  -1  -6   8   43.65    1.53
   1  -6   9  229.97    7.06
  -1  -6   9  234.75    7.12
  -1  -6   9  222.75    6.75
  -1  -6  10   82.81    3.06
  -1  -6  10   85.70    2.73
  -1  -6  11    1.40    0.35
  -1  -6  12  135.78    4.15
  -1  -6  13   18.38    0.80
  -1  -6  14  103.40    3.16
  -1  -6  15    3.54    0.30
  -1  -6  16   59.03    1.80
   1  -7   0   14.72    0.62
  -1  -7   0   15.15    0.63
  -1  -7   0   15.20    0.62
   1  -7   0   15.78    0.61
  -1  -7   1    0.17    0.18
   1  -7  -1    0.12    0.19
   1  -7   1   -0.05    0.19
  -1  -7   1   -0.10    0.18
  -1  -7  -1    0.01    0.18
  -1  -7   1    0.10    0.20
   1  -7  -1    0.15    0.16
  -1  -7  -1    0.01    0.17
   1  -7   1   -0.01    0.16
  -1  -7   1    0.14    0.17
  -1  -7   2    3.82    0.29
  -1  -7  -2    3.74    0.29
   1  -7   2    3.70    0.30
  -1  -7   2    4.03    0.32
  -1  -7   2    2.96    0.38
   1  -7   2    4.08    0.28
   1  -7  -2    4.07    0.28
  -1  -7  -2    4.35    0.29
  -1  -7   3    0.55    0.19
   1  -7   3    0.43    0.20
  -1  -7  -3    0.09    0.22
  -1  -7   3    0.16    0.30
  -1  -7   3    0.60    0.25
  -1  -7  -3    0.98    0.20
   1  -7  -3    0.51    0.19
  -1  -7   4   15.74    0.72
   1  -7  -4   16.16    0.64
   1  -7   4   15.95    0.64
  -1  -7  -4   15.92    0.67
  -1  -7   5    0.72    0.28
   1  -7   5    0.24    0.19
   1  -7   6   31.08    1.08
  -1  -7   6   31.89    1.19
  -1  -7   7   11.44    0.64
  -1  -7   8    2.04    0.38
  -1  -7   9    0.73    0.33
  -1  -7  10    0.98    0.34
  -1  -7  11    0.75    0.32
  -1  -7  12    0.11    0.28
  -1  -7  13   -0.08    0.24
  -1  -7  14    0.34    0.21
  -1  -7  15    0.01    0.15
   1  -7 -15   -0.06    0.13
  -1  -8   0    0.01    0.23
   1  -8   0   -0.04    0.22
  -1  -8   0   -0.01    0.24
  -1  -8   1  761.05   21.78
  -1  -8  -1  776.05   21.78
   1  -8  -1  768.58   21.76
   1  -8   1  766.18   21.76
   1  -8   1  756.49   21.77
  -1  -8  -1  750.04   21.78
  -1  -8   1  747.64   21.79
  -1  -8   2    0.97    0.25
   1  -8   2    0.74    0.24
   1  -8  -2    0.64    0.22
  -1  -8  -2    0.76    0.24
   1  -8   2    0.76    0.20
  -1  -8  -2    0.47    0.26
  -1  -8   2    0.50    0.26
  -1  -8   3   94.37    2.88
   1  -8  -3   94.69    2.86
  -1  -8  -3   91.19    2.86
   1  -8   3   95.82    2.85
  -1  -8   3   90.66    2.89
   1  -8   3   96.34    2.86
  -1  -8   3   91.73    2.82
  -1  -8  -3   91.21    2.88
   1  -8   4    0.04    0.19
   1  -8   4    0.01    0.20
   1  -8  -4    0.25    0.22
  -1  -8  -4    0.30    0.22
  -1  -8  -4    0.07    0.26
  -1  -8   4    0.05    0.26
   1  -8   5  309.45    8.91
  -1  -8  -5  329.23    8.98
   1  -8   5  292.36    8.89
  -1  -8   5  304.12    9.02
  -1  -8   6   32.29    1.24
  -1  -8   7  129.47    4.00
  -1  -8   8    1.10    0.35
  -1  -8   9  128.05    3.93
  -1  -8  10   15.36    0.72
  -1  -8  11   46.91    1.58
  -1  -8  12   16.87    0.69
  -1  -8  13   52.74    1.66
  -1  -8  14    1.83    0.15
  -1  -9   0   28.97    1.06
   1  -9   0   29.77    1.05
  -1  -9   0   29.00    1.07
   1  -9   1    0.05    0.19
   1  -9  -1    0.23    0.20
  -1  -9   1    0.05    0.20
  -1  -9  -1   -0.14    0.22
  -1  -9   1    0.07    0.23
  -1  -9  -1   -0.29    0.31
   1  -9   2   38.69    1.27
  -1  -9   2   37.04    1.29
   1  -9  -2   36.19    1.27
  -1  -9  -2   38.20    1.30
  -1  -9   2   36.96    1.31
  -1  -9  -2   37.14    1.31
   1  -9   3    3.41    0.28
   1  -9  -3    2.84    0.29
  -1  -9   3    3.38    0.31
  -1  -9  -3    3.27    0.31
  -1  -9  -3    3.16    0.34
  -1  -9   3    3.13    0.34
   1  -9   4   19.84    0.79
  -1  -9   4   20.37    0.82
  -1  -9   4   20.86    0.87
   1  -9   4   22.49    0.80
   1  -9   5    0.85    0.20
  -1  -9   5    0.62    0.27
  -1  -9   5    0.52    0.21
  -1  -9   6   42.08    1.41
   1  -9   6   41.59    1.37
  -1  -9   6   43.77    1.46
  -1  -9   7    0.76    0.28
  -1  -9   7    0.66    0.20
  -1  -9   8   16.15    0.69
  -1  -9   8   16.81    0.64
  -1  -9   9    1.63    0.26
  -1  -9  10   17.54    0.68
  -1  -9  11    8.53    0.40
  -1  -9  12    1.91    0.17
  -1  -9  13    6.96    0.27
  -1 -10   0   -0.29    0.27
  -1 -10   0    0.12    0.20
   1 -10   0    0.19    0.18
  -1 -10  -1    6.48    0.41
  -1 -10   1    6.12    0.41
  -1 -10   1    6.04    0.38
   1 -10  -1    6.05    0.36
   1 -10   1    6.49    0.36
  -1 -10  -1    6.64    0.39
  -1 -10  -2    0.44    0.27
  -1 -10   2   -0.16    0.23
  -1 -10   2    0.13    0.18
   1 -10   2    0.05    0.16
  -1 -10  -2    0.06    0.19
  -1 -10   3    1.34    0.22
   1 -10   3    1.10    0.18
  -1 -10   4   -0.05    0.23
  -1 -10   4    0.16    0.18
  -1 -10   5    7.95    0.44
  -1 -10   5    8.01    0.39
  -1 -10   6    1.15    0.24
  -1 -10   7    4.68    0.32
  -1 -10   8    0.36    0.18
  -1 -10   9    5.95    0.31
  -1 -10  10   11.63    0.44
  -1 -10  11    0.25    0.09
  -1 -11   0   77.42    2.30
  -1 -11   0   73.01    2.27
  -1 -11   1    0.04    0.21
  -1 -11   1    0.11    0.15
  -1 -11   2   36.53    1.26
  -1 -11   2   33.72    1.21
  -1 -11   3   -0.09    0.21
  -1 -11   4    8.23    0.40
  -1 -11   5    1.33    0.20
  -1 -11   6   13.37    0.51
  -1 -11   7    3.86    0.22
  -1 -11   8    6.58    0.28
  -1 -12   1   27.20    0.87
  -1 -12   2    4.67    0.27
  -1 -12   3   15.90    0.54
  -1 -12   4    1.06    0.12
   2   0   0 2220.42   62.97
   2   0  -1    0.10    0.14
   2   0   2   49.26    1.52
  -2   0   3    0.04    0.17
   2   0   3    0.09    0.21
   2   0   4  152.83    4.46
  -2   0   4  147.56    4.41
  -2   0   5    0.01    0.21
   2   0   5   -0.06    0.24
   2   0   6  614.28   17.72
  -2   0   6  613.83   17.71
   2   0   7    0.14    0.29
  -2   0   7   -0.14    0.26
   2   0   8  166.70    5.10
  -2   0   8  158.76    5.06
  -2   0   9    0.10    0.31
   2   0   9    0.17    0.32
  -2   0  10  141.76    4.60
   2   0  10  138.25    4.60
   2   0  11   -0.04    0.36
  -2   0  11    0.26    0.34
  -2   0  12   97.55    3.51
   2   0  12   96.52    3.51
   2   0  13   -0.11    0.41
  -2   0  13    0.37    0.38
  -2   0  14   37.63    1.81
  -2   0  15    0.41    0.29
  -2   0  16   13.91    0.66
  -2   0  17   -0.04    0.24
  -2   0  18    5.44    0.33
   2   0  18    4.73    0.32
  -2   0  19    0.09    0.11
   2   0  19    0.03    0.10
   2  -1   0    0.05    0.13
   2   1   0    0.14    0.13
   2  -1   1  468.98   13.10
   2  -1  -1  452.72   13.14
   2   1  -1  452.99   13.14
   2  -1   2   15.15    0.55
  -2   1   2   14.60    0.47
   2  -1   3   58.65    1.85
   2   1   3   60.20    1.86
  -2  -1  -4   12.51    0.50
  -2  -1   4   13.18    0.50
  -2  -1   4   13.62    0.60
  -2  -1   5  261.54    7.53
  -2  -1  -5  259.56    7.55
   2   1   5  271.11    7.72
  -2   1   5  265.22    7.69
  -2  -1   5  266.92    7.72
   2   1   6    4.72    0.41
  -2   1   6    5.07    0.41
  -2  -1   6    5.04    0.43
  -2  -1   7  694.33   20.22
  -2   1   7  704.25   20.18
   2   1   7  698.72   20.20
  -2  -1   8    0.76    0.36
  -2   1   8    0.32    0.29
   2   1   8    0.23    0.30
   2  -1   9   12.10    0.79
   2   1   9   12.07    0.78
  -2   1   9   11.37    0.74
  -2  -1   9   11.05    0.76
   2   1  10   58.95    2.24
   2  -1  10   59.29    2.28
  -2  -1  10   58.52    2.26
  -2   1  10   55.21    2.18
  -2   1  11   76.46    2.82
   2  -1  11   75.95    2.87
   2   1  11   76.97    2.84
  -2  -1  11   75.86    2.85
  -2  -1  12   41.35    1.90
   2   1  12   44.80    1.91
   2  -1  12   40.55    1.88
  -2   1  12   41.60    1.86
  -2  -1  13    5.36    0.41
  -2   1  13    5.60    0.65
   2  -1  13    4.96    0.66
  -2  -1  13    4.82    0.67
  -2  -1  14   39.10    1.40
  -2   1  14   37.54    1.81
  -2  -1  14   41.66    1.91
   2  -1  14   41.00    1.89
  -2  -1  15   14.10    0.68
  -2  -1  16   25.55    0.98
  -2   1  16   25.67    0.98
  -2  -1  17    1.13    0.26
  -2   1  17    1.47    0.27
  -2  -1  18    0.29    0.19
  -2   1  18    0.36    0.18
   2  -1  18    0.27    0.18
   2   1  18    0.35    0.18
   2  -2   0  293.34    8.32
   2   2   0  290.28    8.32
  -2  -2   0  285.64    8.43
   2  -2   1    0.17    0.10
   2  -2  -1    0.01    0.16
   2   2  -1    0.11    0.16
  -2  -2   1    0.04    0.22
  -2  -2   2    8.19    0.43
  -2  -2  -2    7.64    0.43
   2  -2   2    7.49    0.35
  -2   2   2    7.81    0.28
  -2  -2  -3   14.22    0.63
  -2  -2   3   16.36    0.64
   2  -2   3   14.75    0.61
  -2   2   3   15.03    0.55
  -2  -2  -4   96.32    2.99
  -2  -2   4  100.17    2.99
  -2  -2   4   99.20    3.07
   2  -2   4   98.06    3.03
  -2   2   4  100.37    2.97
  -2  -2  -5   12.02    0.53
  -2  -2   5   11.27    0.51
  -2  -2   5   12.80    0.66
   2  -2   5   11.99    0.61
   2   2   5   13.35    0.62
  -2   2   5   12.65    0.58
  -2  -2   6    3.69    0.41
   2  -2   6    2.62    0.36
   2   2   6    3.61    0.38
  -2   2   6    3.01    0.33
  -2  -2   7   28.66    1.21
   2  -2   7   26.36    1.17
  -2   2   7   28.13    1.14
   2   2   7   28.54    1.17
   2   2   8  121.79    3.93
   2  -2   8  121.43    3.96
  -2   2   8  123.41    3.90
   2  -2   9   16.15    0.66
  -2  -2   9   16.15    0.66
  -2   2   9   18.12    0.92
   2   2   9   19.57    0.97
   2  -2   9   19.53    1.01
  -2  -2  10   41.69    1.42
   2  -2  10   42.28    1.43
   2  -2  10   46.23    1.86
  -2   2  10   48.22    1.81
   2  -2  11   31.49    1.17
  -2  -2  11   33.06    1.18
  -2  -2  11   35.21    1.63
  -2   2  11   36.07    1.55
  -2  -2  12    3.28    0.33
   2  -2  12    3.49    0.34
  -2  -2  12    3.07    0.55
  -2   2  12    3.25    0.52
  -2  -2  13    2.81    0.35
  -2   2  13    2.26    0.46
  -2  -2  13    2.29    0.51
  -2  -2  14   19.07    0.84
  -2  -2  14   20.01    1.25
  -2  -2  15   37.60    1.34
  -2  -2  16    9.20    0.51
  -2  -2  17    7.74    0.44
  -2   2  17    8.60    0.44
   2  -2  18    2.55    0.22
  -2   2  18    2.58    0.22
   2   2  18    2.38    0.22
  -2  -2  18    2.17    0.22
   2  -2 -18    2.05    0.17
  -2  -3   0    0.02    0.26
   2  -3  -1 1905.38   54.41
   2  -3   1 1910.69   54.39
   2   3  -1 1927.05   54.41
  -2  -3   1 1966.52   54.61
   2  -3   2    3.26    0.24
  -2  -3   2    3.54    0.38
  -2  -3  -2    3.94    0.37
   2   3  -2    3.62    0.28
   2  -3  -2    4.08    0.27
  -2  -3   3  527.16   15.07
   2  -3   3  509.67   14.96
   2   3  -3  511.66   15.01
  -2  -3   3  535.92   15.07
  -2  -3  -3  535.06   15.07
  -2  -3   4    8.06    0.49
  -2  -3  -4    7.48    0.48
  -2   3   4    7.45    0.36
   2  -3   4    7.89    0.45
  -2  -3  -5   40.81    1.41
  -2   3   5   39.38    1.33
   2  -3   5   40.79    1.44
  -2  -3   6    3.55    0.47
  -2   3   6    3.36    0.32
   2  -3   6    3.34    0.38
  -2  -3   7  286.53    8.59
  -2  -3   7  290.41    8.57
   2  -3   7  283.36    8.53
  -2   3   7  281.97    8.41
  -2   3   8   89.81    2.93
  -2  -3   8   87.36    3.08
   2  -3   8   90.64    3.05
  -2  -3   9  121.08    3.80
   2  -3   9  123.83    3.81
  -2   3   9  137.34    4.10
   2  -3   9  136.93    4.25
  -2  -3   9  132.68    4.26
   2  -3  10   15.24    0.69
  -2  -3  10   16.16    0.70
   2  -3  10   16.66    1.01
  -2   3  10   18.43    0.94
  -2  -3  10   18.16    1.06
  -2  -3  11   98.14    3.09
   2  -3  11   97.97    3.09
   2  -3  11  105.35    3.62
  -2   3  11  101.89    3.43
  -2  -3  11  102.61    3.62
  -2  -3  12    0.77    0.28
  -2  -3  12    1.12    0.47
   2  -3  12    0.52    0.38
  -2  -3  13   71.48    2.32
   2  -3  13   69.98    2.80
  -2  -3  13   73.36    2.87
  -2  -3  14   38.21    1.37
  -2  -3  15   22.97    0.93
  -2  -3  16   20.86    0.82
  -2  -3  17    1.29    0.23
  -2   3  17    1.55    0.24
   2   3  18   13.82    0.51
   2  -3  18   13.89    0.51
  -2   3  18   14.78    0.52
  -2  -3  18   13.81    0.52
   2  -3 -18   13.36    0.49
  -2  -4   0  111.26    3.53
  -2  -4   1    0.50    0.32
   2  -4   1    0.19    0.08
  -2  -4  -2  110.59    3.29
  -2  -4   2  112.95    3.30
   2  -4   2  106.46    3.02
   2  -4  -2   98.34    2.96
   2   4  -2   99.05    2.97
  -2  -4   3   15.15    0.76
   2  -4  -3   14.63    0.61
   2   4  -3   15.35    0.62
  -2  -4   3   16.29    0.78
  -2  -4  -3   15.86    0.79
   2  -4   3   14.25    0.61
  -2  -4   4   32.08    1.28
   2   4  -4   31.47    1.17
   2  -4  -4   30.43    1.15
  -2  -4   4   31.86    1.25
  -2  -4  -4   32.03    1.26
   2  -4   4   32.05    1.15
   2  -4   5   11.38    0.60
  -2  -4   5   11.14    0.71
   2   4  -5   10.78    0.64
   2  -4   6   72.47    2.44
  -2  -4   7  101.71    3.30
   2  -4   7   93.48    3.20
   2  -4   8  107.74    3.45
  -2  -4   8  108.12    3.50
   2  -4   8   98.69    3.10
  -2  -4   8  100.51    3.11
   2  -4   9   59.56    2.13
  -2  -4   9   56.67    2.15
   2  -4   9   51.31    1.74
  -2  -4   9   49.85    1.73
  -2  -4  10   12.05    0.88
   2  -4  10   12.67    0.88
  -2  -4  10   11.30    0.58
   2  -4  10   10.59    0.56
  -2  -4  11    0.31    0.35
   2  -4  11    0.10    0.36
  -2  -4  11    0.22    0.28
   2  -4  12   10.81    0.87
  -2  -4  12   10.00    0.87
  -2  -4  12   10.80    0.59
   2  -4 -12    8.41    0.89
   2   4 -12   10.08    0.96
  -2  -4  13   43.21    1.52
  -2  -4  14   12.21    0.62
  -2  -4  15    9.79    0.53
  -2  -4  16    2.68    0.29
  -2  -4  17    0.40    0.18
   2  -4  18    0.63    0.12
   2   4  18    0.66    0.11
  -2  -5   0    0.03    0.35
  -2  -5   1   12.88    0.77
  -2  -5  -2   28.89    1.27
  -2  -5   2   27.38    1.16
   2  -5   3   87.40    2.69
  -2  -5   3   91.05    2.94
  -2  -5   4    0.35    0.31
   2  -5   4    0.43    0.18
  -2  -5   5   36.28    1.49
   2  -5   5   33.70    1.28
  -2  -5   6   16.44    0.94
  -2  -5   6   14.68    0.83
   2  -5   6   14.79    0.77
  -2  -5   6   15.25    0.65
   2  -5   6   14.54    0.64
  -2  -5   7   31.20    1.50
   2  -5   7   33.68    1.38
  -2  -5   7   35.68    1.46
   2  -5   7   34.62    1.14
  -2  -5   7   33.04    1.18
   2  -5   7   32.57    1.18
   2  -5   8   99.72    3.34
  -2  -5   8   98.91    3.40
   2  -5   8  100.98    2.98
   2  -5   8   96.14    3.04
  -2  -5   8   96.11    3.05
   2  -5   9   27.79    1.31
  -2  -5   9   27.63    1.35
   2  -5   9   26.22    1.04
  -2  -5   9   26.82    1.04
   2  -5  10   42.07    1.78
  -2  -5  10   42.54    1.83
  -2  -5  10   38.69    1.44
  -2  -5  11    1.59    0.43
   2  -5  11    1.10    0.36
  -2  -5  11    1.51    0.34
   2  -5  12   74.19    2.87
  -2  -5  12   75.58    2.47
  -2  -5  13    0.12    0.28
  -2  -5  14  195.21    5.79
  -2  -5  15    2.04    0.29
  -2  -5  16   40.56    1.32
   2  -5 -17    0.42    0.14
   2   5  17    0.73    0.14
  -2  -5  17    0.56    0.14
  -2   5  17    0.79    0.14
   2  -5  17    0.53    0.15
   2  -6   0  172.31    4.98
  -2  -6   0  163.03    5.13
  -2  -6   1    0.77    0.28
  -2  -6  -1    1.31    0.26
   2  -6  -1    1.13    0.20
   2  -6   2   59.53    1.84
  -2  -6   2   54.83    2.06
   2  -6  -2   60.27    1.85
  -2  -6   2   56.49    1.86
   2  -6   2   57.75    1.87
  -2  -6  -2   58.88    1.83
   2  -6  -2   59.13    1.83
   2  -6  -2   59.21    1.84
   2  -6  -3   14.41    0.60
  -2  -6   3   14.19    0.83
   2  -6   3   15.16    0.61
  -2  -6   3   14.63    0.63
   2  -6   3   14.48    0.64
   2  -6  -3   15.85    0.59
  -2  -6  -3   15.19    0.60
   2  -6  -3   14.13    0.61
   2  -6  -3   15.70    0.63
  -2  -6  -3   15.68    0.61
   2  -6   4   75.59    2.35
  -2  -6  -4   80.50    2.38
   2  -6  -4   77.27    2.37
  -2  -6   4   71.81    2.68
   2  -6  -4   76.57    2.35
   2  -6   4   77.81    2.36
   2  -6   4   79.10    2.41
  -2  -6   4   76.27    2.40
  -2  -6  -4   75.13    2.35
   2  -6  -4   77.87    2.35
  -2  -6   4   70.88    2.51
  -2  -6  -5   22.22    0.79
   2  -6  -5   20.16    0.78
   2  -6   5   19.37    0.75
  -2  -6   5   21.11    1.10
   2  -6  -5   18.30    0.72
   2  -6   5   19.25    0.74
  -2  -6   5   19.45    0.80
   2  -6   5   19.30    0.80
  -2  -6  -5   20.52    0.75
  -2  -6   5   17.19    0.90
  -2  -6   6   52.07    2.16
  -2  -6  -6   63.21    1.84
   2  -6  -6   64.70    1.85
   2  -6   6   53.49    1.77
  -2  -6   6   50.38    2.00
   2  -6   6   53.29    1.84
  -2  -6   6   51.07    1.83
   2  -6   7   25.04    0.90
  -2  -6   7   24.00    1.16
  -2  -6   7   24.88    0.98
   2  -6   7   23.06    0.97
   2  -6   8   33.35    1.16
  -2  -6   8   34.37    1.51
  -2  -6   8   33.78    1.26
   2  -6   8   34.70    1.27
  -2  -6   9  126.73    4.16
  -2  -6   9  120.68    3.79
  -2  -6  10   20.01    1.16
  -2  -6  10   21.16    0.90
  -2  -6  11    0.45    0.31
  -2  -6  12   16.94    0.78
  -2  -6  13   45.56    1.56
  -2  -6  14    5.01    0.38
  -2  -6  15   24.00    0.86
   2  -6  16    1.77    0.20
  -2  -6  16    1.45    0.17
   2  -6 -16    1.37    0.19
   2  -7   0    0.07    0.20
   2  -7   0   -0.08    0.17
  -2  -7   0   -0.05    0.18
   2  -7   0    0.03    0.21
   2  -7   0    0.01    0.15
  -2  -7   0    0.12    0.17
  -2  -7   1    0.29    0.19
   2  -7   1   -0.10    0.22
   2  -7  -1    0.28    0.20
  -2  -7  -1    0.22    0.18
   2  -7   1    0.17    0.18
   2  -7  -1    0.08    0.18
  -2  -7   1    0.28    0.19
   2  -7  -1    0.25    0.21
  -2  -7   1    0.13    0.23
   2  -7  -1    0.37    0.16
  -2  -7  -1    0.31    0.17
   2  -7   1    0.13    0.15
   2  -7   2    1.22    0.20
  -2  -7   2    1.49    0.21
   2  -7   2    0.94    0.23
   2  -7   2    0.95    0.23
   2  -7  -2    1.38    0.25
   2  -7   2    0.95    0.23
   2  -7  -2    1.95    0.28
  -2  -7  -2    1.27    0.22
  -2  -7   2    1.16    0.23
   2  -7  -2    1.47    0.22
  -2  -7   2    1.28    0.35
   2  -7  -2    1.37    0.20
   2  -7   3    3.32    0.34
  -2  -7   3    2.73    0.30
   2  -7  -3    3.55    0.30
   2  -7   3    3.33    0.30
   2  -7  -3    2.42    0.27
   2  -7   3    3.16    0.28
  -2  -7  -3    2.49    0.27
  -2  -7   3    2.22    0.40
   2  -7   3    2.77    0.24
   2  -7  -3    3.02    0.26
   2  -7  -4    2.74    0.30
  -2  -7  -4    2.25    0.28
   2  -7   4    2.67    0.28
  -2  -7   4    2.96    0.44
   2  -7  -4    2.52    0.25
  -2  -7   4    3.03    0.34
   2  -7   4    2.72    0.34
  -2  -7  -5   27.04    0.98
   2  -7   5   27.25    1.05
  -2  -7   5   26.56    1.05
   2  -7  -5   29.60    1.03
  -2  -7  -5   28.28    1.02
   2  -7   5   24.94    0.97
  -2  -7   6   35.06    1.28
   2  -7   6   33.71    1.18
  -2  -7   7   76.03    2.47
   2  -7   7   75.39    2.35
  -2  -7   8    6.05    0.50
  -2  -7   9    0.02    0.30
  -2  -7  10    1.24    0.33
  -2  -7  11    5.60    0.45
  -2  -7  12    1.82    0.31
  -2  -7  13    1.16    0.27
  -2  -7  14    0.57    0.20
   2  -7 -15    1.05    0.16
   2  -7  15    0.98    0.16
  -2  -7  15    1.13    0.17
   2  -8   0   55.32    1.75
  -2  -8   0   54.42    1.78
  -2  -8   0   53.51    1.78
   2  -8   0   55.76    1.78
   2  -8   0   54.60    1.78
  -2  -8   1    2.30    0.30
  -2  -8  -1    2.21    0.29
   2  -8  -1    1.63    0.24
   2  -8   1    1.55    0.23
   2  -8   1    1.73    0.29
   2  -8   1    1.39    0.27
  -2  -8   1    2.39    0.32
   2  -8  -1    1.94    0.29
  -2  -8  -1    1.86    0.29
  -2  -8  -2   33.59    1.22
   2  -8  -2   35.97    1.21
   2  -8   2   35.37    1.19
  -2  -8   2   35.17    1.23
   2  -8   2   35.33    1.24
   2  -8   2   35.53    1.24
  -2  -8   2   34.18    1.24
   2  -8  -2   36.42    1.24
  -2  -8  -2   35.54    1.24
  -2  -8   3    6.32    0.41
   2  -8  -3    6.49    0.39
   2  -8   3    6.40    0.36
   2  -8  -3    6.81    0.43
   2  -8   3    6.69    0.42
  -2  -8   3    6.68    0.43
  -2  -8  -3    5.74    0.42
   2  -8   3    6.53    0.43
   2  -8   4    0.37    0.22
   2  -8   4    0.53    0.25
  -2  -8  -4    1.10    0.29
   2  -8  -4    1.11    0.29
  -2  -8   4    0.81    0.27
   2  -8   4    0.54    0.18
  -2  -8   5   32.84    1.27
   2  -8   5   30.81    1.15
  -2  -8  -5   38.39    1.26
   2  -8  -5   39.67    1.28
   2  -8   5   29.93    1.12
  -2  -8   6   60.45    2.02
   2  -8   6   59.24    1.90
   2  -8   6   60.30    1.89
  -2  -8   7   44.61    1.52
   2  -8   7   41.07    1.37
   2  -8   7   40.72    1.36
  -2  -8   8    4.75    0.44
  -2  -8   9   53.51    1.82
  -2  -8  10    9.90    0.56
  -2  -8  11   32.49    1.17
  -2  -8  12    4.25    0.33
  -2  -8  13   72.15    2.20
  -2  -8  14    0.83    0.13
   2  -8  14    0.78    0.12
  -2  -9   0    0.14    0.22
   2  -9   0    0.14    0.19
  -2  -9   0    0.03    0.24
   2  -9   0    0.17    0.24
   2  -9  -1   21.32    0.78
  -2  -9   1   21.03    0.81
  -2  -9  -1   20.17    0.80
   2  -9   1   19.53    0.76
   2  -9  -1   18.98    0.81
  -2  -9  -1   19.28    0.81
   2  -9   1   20.20    0.82
  -2  -9   1   20.18    0.82
   2  -9   2    6.05    0.37
  -2  -9   2    6.46    0.42
   2  -9  -2    6.62    0.39
  -2  -9  -2    6.73    0.42
  -2  -9  -2    5.67    0.42
   2  -9  -2    6.36    0.45
   2  -9   2    6.67    0.44
  -2  -9   2    6.36    0.44
  -2  -9  -3  158.77    4.64
  -2  -9   3  156.68    4.64
   2  -9   3  152.69    4.58
   2  -9   3  154.85    4.66
  -2  -9   3  158.15    4.66
  -2  -9  -3  155.41    4.64
   2  -9   3  152.22    4.61
   2  -9   4    8.63    0.42
  -2  -9   4    8.32    0.47
   2  -9   4    8.70    0.46
  -2  -9   4    7.88    0.49
   2  -9   4    7.51    0.49
  -2  -9   5    3.29    0.30
   2  -9   5    3.13    0.25
   2  -9   5    3.25    0.28
  -2  -9   5    3.30    0.35
   2  -9   5    3.28    0.33
  -2  -9   6   45.63    1.51
   2  -9   6   43.40    1.46
   2  -9   6   47.25    1.55
  -2  -9   6   47.35    1.56
  -2  -9   7    4.63    0.32
  -2  -9   7    4.75    0.37
   2  -9   7    4.51    0.37
  -2  -9   8   33.33    1.14
   2  -9   8   33.14    1.18
  -2  -9   8   34.71    1.18
  -2  -9   9   10.50    0.44
   2  -9   9    9.48    0.47
  -2  -9   9    9.05    0.48
  -2  -9  10   62.81    1.92
   2  -9  10   59.68    1.91
  -2  -9  11   14.08    0.53
   2  -9  11   12.73    0.52
   2  -9  12   14.62    0.51
  -2  -9  12   13.39    0.50
   2 -10   0    6.01    0.34
  -2 -10   0    6.42    0.38
  -2 -10   0    6.40    0.41
  -2 -10  -1    0.21    0.21
  -2 -10   1    0.06    0.19
   2 -10   1    0.17    0.16
  -2 -10  -1   -0.25    0.25
  -2 -10   1   -0.01    0.24
   2 -10   1   -0.11    0.27
  -2 -10  -2    0.01    0.20
   2 -10   2    0.25    0.15
  -2 -10   2    0.09    0.19
  -2 -10   2   -0.23    0.23
   2 -10   2    0.01    0.23
  -2 -10  -2    0.53    0.26
  -2 -10   3    0.25    0.20
  -2 -10   3    0.16    0.22
  -2 -10   4    0.89    0.20
  -2 -10   4    1.25    0.26
   2 -10   4    1.19    0.25
  -2 -10   5    0.04    0.17
  -2 -10   5   -0.14    0.21
   2 -10   5    0.27    0.21
  -2 -10   6    1.56    0.20
   2 -10   6    1.79    0.24
  -2 -10   6    1.56    0.24
   2 -10   7    0.66    0.20
  -2 -10   7    0.97    0.21
  -2 -10   8    0.44    0.18
   2 -10   8    0.41    0.17
   2 -10   9    2.08    0.20
  -2 -10   9    1.94    0.20
   2 -10  10    3.41    0.21
  -2 -10  10    3.57    0.21
   2 -10  11    0.07    0.07
  -2 -10  11    0.00    0.08
  -2 -11   0    0.54    0.18
  -2 -11   0    1.28    0.25
   2 -11   0    1.21    0.26
  -2 -11   1   36.91    1.24
  -2 -11  -1   43.82    1.30
   2 -11   1   36.64    1.27
   2 -11  -1   41.90    1.30
  -2 -11   1   36.04    1.26
  -2 -11   2    3.48    0.26
   2 -11   2    3.32    0.30
  -2 -11   3    4.35    0.26
   2 -11   3    3.59    0.29
  -2 -11   3    4.55    0.30
   2 -11   4    2.79    0.25
  -2 -11   4    2.11    0.24
   2 -11   5    6.20    0.33
  -2 -11   5    6.43    0.33
  -2 -11   6   10.35    0.43
   2 -11   6   10.64    0.43
   2 -11   7   17.02    0.58
  -2 -11   7   16.68    0.59
   2 -11   8   12.31    0.43
  -2 -11   8   12.65    0.44
   2 -12   2   10.60    0.41
  -2 -12   2   10.37    0.40
   2 -12   3    3.11    0.19
  -2 -12   3    3.00    0.20
  -2 -12   4    4.03    0.20
   2 -12   4    4.15    0.20
   3   0   0    0.09    0.19
   3   0  -1    0.14    0.21
   3   0   1    0.13    0.19
   3   0  -2    0.09    0.25
   3   0   3   -0.10    0.20
   3   0   4    9.57    0.50
  -3   0   4    9.82    0.47
  -3   0   5    0.17    0.21
   3   0   5    0.07    0.25
  -3   0   6   66.30    2.15
   3   0   6   66.12    2.23
   3   0   7   -0.20    0.29
  -3   0   7   -0.07    0.29
   3   0   8   67.31    2.38
  -3   0   8   66.38    2.35
  -3   0   9    0.03    0.30
   3   0   9    0.21    0.32
   3   0  10   13.92    0.90
  -3   0  10   14.19    0.89
   3   0  11    0.14    0.35
  -3   0  11   -0.26    0.36
   3   0  12   11.70    0.93
  -3   0  12   11.84    0.90
  -3   0  13    0.27    0.37
  -3   0  14    9.41    0.85
  -3   0  15   -0.11    0.26
   3   0  15    0.30    0.26
  -3   0  16   27.26    1.01
   3   0  16   26.09    1.00
  -3   0  17   -0.06    0.23
   3   0  17    0.05    0.23
  -3   0  18   35.38    1.15
   3   0  18   34.72    1.14
   3  -1   0   54.82    1.71
   3   1   0   54.85    1.71
   3   1  -1   17.04    0.65
   3  -1  -1   15.38    0.64
   3  -1   2 1136.96   32.17
   3   1  -2 1128.57   32.23
   3  -1  -2 1125.28   32.23
   3  -1   3   17.93    0.69
  -3   1   3   16.86    0.58
   3  -1   4  441.50   13.00
   3   1   4  449.67   13.01
  -3  -1   4  448.05   13.00
  -3   1   4  458.64   12.90
  -3  -1  -5    0.01    0.14
  -3  -1   5    0.13    0.25
  -3  -1   5    0.01    0.13
   3   1   5   -0.02    0.24
  -3  -1   6    0.55    0.28
  -3  -1  -6    0.43    0.13
  -3  -1   6    0.50    0.11
   3   1   6    0.45    0.26
  -3   1   6    0.50    0.26
  -3  -1   7  179.10    5.41
  -3   1   7  176.24    5.40
   3   1   7  176.34    5.43
   3   1   8   44.46    1.67
  -3   1   8   42.05    1.62
  -3  -1   8   40.20    1.65
   3   1   9    2.90    0.43
  -3  -1   9    2.76    0.45
  -3   1   9    2.64    0.40
   3   1  10  103.05    3.59
  -3  -1  10  105.19    3.63
  -3   1  10  106.34    3.57
   3   1  11  115.31    4.00
  -3  -1  11  118.78    4.04
   3  -1  11  112.56    4.00
  -3   1  11  119.27    4.00
  -3   1  12   37.31    1.71
   3  -1  12   36.53    1.72
  -3  -1  12   36.79    1.74
   3  -1  13   41.53    1.45
  -3  -1  13   40.65    1.44
  -3  -1  13   40.19    1.91
  -3   1  13   43.87    1.91
   3  -1  13   43.21    1.95
   3   1 -14   18.58    1.41
  -3  -1  14   20.24    0.83
   3  -1  14   20.69    0.85
  -3  -1  14   20.06    1.27
  -3   1  14   16.81    1.13
   3  -1  15  171.94    5.12
  -3  -1  15  170.62    5.12
   3  -1  16    6.91    0.45
   3   1  16    7.26    0.45
  -3  -1  16    6.61    0.44
  -3   1  16    6.64    0.44
   3  -1  17   26.13    0.98
  -3  -1  17   28.07    0.98
   3   1  17   27.46    0.98
  -3   1  17   28.10    0.98
  -3  -1  18    0.73    0.18
   3  -1  18    0.44    0.18
  -3   1  18    0.44    0.18
   3   1  18    0.50    0.17
   3   2   0   -0.02    0.19
   3  -2   0   -0.05    0.17
   3  -2  -1    0.94    0.22
   3   2  -1    1.13    0.23
   3  -2  -2    0.23    0.23
   3   2  -2    0.38    0.24
   3  -2   2    0.18    0.15
  -3  -2   3   16.70    0.69
  -3  -2  -3   16.60    0.68
   3  -2   3   16.01    0.64
  -3   2   3   15.87    0.58
  -3  -2   4    0.61    0.28
  -3  -2  -4    0.12    0.20
  -3  -2   4    0.36    0.20
  -3   2   4    0.49    0.18
   3  -2   4    0.35    0.21
  -3  -2   5   57.96    1.79
  -3  -2  -5   57.40    1.80
  -3   2   5   54.08    1.80
   3  -2   5   51.80    1.85
  -3  -2   5   56.17    1.91
  -3  -2  -6    7.36    0.39
  -3  -2   6    7.18    0.38
   3  -2   6    7.03    0.51
  -3   2   6    7.21    0.46
  -3  -2   6    7.65    0.55
   3  -2   7   57.38    2.12
  -3   2   7   61.85    2.07
  -3  -2   7   62.37    2.16
   3  -2   8    1.15    0.36
  -3   2   8    0.96    0.30
  -3  -2   8    1.31    0.38
  -3  -2   9    3.52    0.28
   3  -2   9    3.35    0.27
  -3   2   9    4.42    0.46
   3  -2   9    4.63    0.51
   3  -2  10    0.16    0.19
  -3  -2  10    0.42    0.21
  -3   2  10    0.07    0.29
   3  -2  10   -0.08    0.32
  -3  -2  10    0.09    0.35
  -3  -2  11    0.22    0.23
   3  -2  11   -0.08    0.21
  -3   2  11    0.08    0.31
  -3  -2  11    0.10    0.36
   3  -2  11    0.23    0.37
  -3  -2  12    0.33    0.24
   3  -2  12    0.51    0.26
  -3  -2  12    0.53    0.39
  -3   2  12    0.49    0.34
   3  -2  12    0.51    0.38
   3  -2  13    0.95    0.29
  -3  -2  13    0.79    0.27
   3  -2  13    0.65    0.41
  -3  -2  13    1.73    0.49
  -3   2  13    1.11    0.39
   3  -2  14    2.74    0.34
  -3  -2  14    2.44    0.35
   3   2 -14    3.63    0.71
   3  -2 -14    2.19    0.60
  -3  -2  15   -0.22    0.28
   3  -2  15    0.30    0.28
   3  -2  16    2.19    0.31
  -3  -2  16    2.18    0.31
   3   2  17    0.08    0.20
   3  -2  17    0.26    0.21
  -3  -2  17    0.29    0.21
  -3   2  17    0.22    0.21
  -3   2  18    0.08    0.15
   3   2  18    0.22    0.16
  -3  -2  18    0.18    0.15
   3  -2  18    0.21    0.16
   3  -2 -18    0.24    0.12
  -3  -3   0   70.07    2.30
   3   3  -1    7.88    0.39
   3  -3  -1    8.04    0.38
  -3  -3   1    7.55    0.53
   3  -3  -2  284.80    8.33
   3  -3   2  284.01    8.27
   3   3  -2  284.94    8.33
  -3  -3   2  294.10    8.45
  -3  -3  -2  295.00    8.46
   3  -3  -3   25.86    0.99
   3   3  -3   25.86    0.99
   3  -3   3   25.42    0.92
  -3  -3   3   25.63    1.03
  -3  -3  -3   24.82    1.02
   3   3  -4   72.74    2.41
   3  -3  -4   72.10    2.41
  -3  -3  -4   76.41    2.40
  -3  -3   4   77.00    2.40
  -3   3   4   72.81    2.22
   3  -3   4   71.88    2.33
  -3  -3  -5    5.46    0.41
  -3  -3   5    5.22    0.41
  -3   3   5    5.73    0.34
   3  -3   5    4.86    0.40
  -3  -3   5    5.07    0.47
  -3  -3  -6    5.54    0.39
   3  -3   6    5.23    0.44
  -3   3   6    5.11    0.36
  -3  -3   6    5.72    0.52
   3  -3   7  125.49    4.06
  -3   3   7  126.11    3.94
  -3  -3   7  132.39    4.17
   3  -3   8  194.72    6.03
  -3  -3   8  195.22    6.08
  -3   3   8  188.32    5.88
  -3  -3   8  199.57    6.09
  -3   3   9  136.27    4.20
   3  -3   9  141.17    4.38
  -3  -3   9  141.02    4.42
  -3  -3   9  129.00    3.93
   3  -3   9  125.23    3.93
   3  -3  10   12.79    0.86
  -3  -3  10   12.34    0.87
  -3   3  10   10.77    0.72
  -3  -3  10   10.76    0.54
   3  -3  10   11.16    0.55
   3  -3  11  172.96    5.48
  -3  -3  11  174.91    5.54
   3  -3  11  163.43    4.88
  -3  -3  11  164.11    4.94
   3  -3  11  162.21    4.94
  -3  -3  12    0.81    0.41
   3  -3  12    0.51    0.41
   3  -3  12    0.72    0.28
  -3  -3  12    0.81    0.29
   3  -3  12    0.57    0.21
  -3  -3  13  295.14    8.47
   3  -3  13  291.51    8.47
   3  -3 -13  266.17    9.20
   3   3 -13  276.05    9.24
   3  -3  13  290.39    9.06
  -3  -3  14    4.68    0.41
   3  -3  14    4.05    0.40
   3  -3  15  261.69    7.61
  -3  -3  15  257.08    7.60
  -3  -3  16    1.53    0.28
   3  -3  16    1.42    0.27
   3  -3  17   55.27    1.80
  -3   3  17   61.72    1.82
  -3  -3  17   56.82    1.81
   3   3  17   57.97    1.80
  -3   3  18    0.59    0.15
   3   3  18    0.69    0.14
  -3  -3  18    0.71    0.15
   3  -3  18    0.58    0.15
   3  -3 -18    0.56    0.12
  -3  -4   0    0.05    0.29
  -3  -4   1  212.80    6.43
  -3  -4   2    1.58    0.35
  -3  -4  -2    1.04    0.29
   3  -4   2    0.90    0.15
   3   4  -2    1.09    0.17
   3  -4  -2    0.97    0.17
   3  -4   3   52.88    1.70
   3   4  -3   53.99    1.75
   3  -4  -3   52.35    1.73
  -3  -4  -3   52.76    1.90
  -3  -4   3   55.61    1.92
   3  -4  -4    0.43    0.22
   3   4  -4    0.46    0.25
  -3  -4  -4    0.27    0.25
   3  -4   4    0.12    0.18
  -3  -4   4    0.36    0.25
  -3  -4   4    0.71    0.31
   3  -4  -5    2.76    0.36
   3   4  -5    3.15    0.38
  -3  -4   5    2.84    0.37
   3  -4   5    2.57    0.32
  -3  -4  -5    3.54    0.39
   3  -4  -6    0.03    0.29
   3   4  -6   -0.06    0.28
   3  -4   6    0.24    0.25
   3  -4  -7   13.98    0.84
   3   4  -7   13.45    0.84
   3  -4   7   14.66    0.79
   3  -4   8    2.27    0.25
   3  -4   8    3.20    0.45
  -3  -4   8    2.94    0.47
   3   4  -8    2.29    0.48
  -3  -4   8    3.12    0.50
  -3  -4   8    2.76    0.30
   3  -4   8    2.32    0.28
   3  -4  -9   10.47    0.83
   3   4  -9   10.03    0.83
   3  -4   9   10.55    0.75
  -3  -4   9   11.95    0.83
  -3  -4   9    9.52    0.52
   3  -4   9   10.18    0.53
   3  -4   9    9.91    0.48
   3  -4 -10    1.89    0.50
   3   4 -10    2.99    0.56
   3  -4  10    2.70    0.48
  -3  -4  10    2.63    0.49
  -3  -4  10    2.28    0.31
   3  -4  10    1.97    0.31
   3  -4  10    2.04    0.25
   3  -4 -11    2.88    0.57
   3   4 -11    2.50    0.56
  -3  -4  11    3.53    0.58
   3  -4  11    2.85    0.49
  -3  -4  11    3.58    0.37
   3  -4  11    3.13    0.35
   3  -4  11    3.69    0.30
  -3  -4  12    8.20    0.51
   3  -4  12    8.76    0.53
   3  -4  12    7.07    0.71
  -3  -4  12    8.35    0.82
   3  -4 -12    6.53    0.79
  -3  -4  13    8.13    0.51
   3  -4  13    7.68    0.50
  -3  -4  14    9.90    0.55
   3  -4  14   10.78    0.57
   3  -4  15    0.59    0.26
  -3  -4  15    0.66    0.26
  -3  -4  16    1.61    0.24
   3  -4  16    1.50    0.25
   3  -4 -17   -0.02    0.17
  -3   4  17    0.15    0.17
   3   4  17    0.16    0.16
  -3  -4  17    0.02    0.16
   3  -4  17    0.04    0.16
  -3  -5   0  386.31   11.47
  -3  -5   1   -0.31    0.33
  -3  -5  -2 1666.16   47.78
  -3  -5   2 1671.50   47.78
  -3  -5   3    7.34    0.57
   3  -5   3    6.08    0.34
  -3  -5   3    7.35    0.60
  -3  -5  -3    7.74    0.61
  -3  -5   4   50.26    1.87
   3  -5   4   46.97    1.61
  -3  -5  -4   51.29    1.88
   3  -5   5    7.03    0.46
  -3  -5   5    7.60    0.63
   3  -5   6  153.78    4.69
  -3  -5   6  154.16    4.70
  -3  -5   6  160.46    5.12
   3  -5   6  147.89    4.86
  -3  -5   7   15.95    0.99
   3  -5   7   15.16    0.63
  -3  -5   7   15.97    0.90
   3  -5   7   14.97    0.80
   3  -5   7   15.35    0.67
  -3  -5   7   14.38    0.65
   3  -5   8  296.82    8.61
   3  -5   8  297.01    8.96
  -3  -5   8  310.07    9.10
   3  -5   8  291.49    8.66
  -3  -5   8  296.59    8.66
   3  -5   9   48.78    1.59
   3  -5   9   46.25    1.91
  -3  -5   9   49.31    2.03
  -3  -5   9   48.91    1.65
   3  -5   9   47.90    1.65
   3  -5  10   47.50    1.57
   3  -5  10   51.41    2.00
  -3  -5  10   51.88    2.10
   3  -5  10   46.29    1.64
  -3  -5  10   47.54    1.65
   3  -5  11    4.16    0.55
  -3  -5  11    5.04    0.64
  -3  -5  11    4.30    0.41
   3  -5  11    5.30    0.42
  -3  -5  12   35.80    1.30
   3  -5  12   35.42    1.30
  -3  -5  13    1.63    0.32
   3  -5  13    1.56    0.32
  -3  -5  14   42.13    1.44
   3  -5  14   41.71    1.45
  -3  -5  15   28.38    1.02
   3  -5  15   28.83    1.03
  -3  -5  16    3.34    0.28
   3  -5  16    3.60    0.28
   3  -5 -17   18.83    0.65
   3   5  17   19.14    0.64
  -3   5  17   20.98    0.65
  -3  -5  17   19.02    0.65
   3  -5  17   18.29    0.65
   3  -6   0   -0.13    0.19
  -3  -6   1   27.94    1.22
   3  -6  -1   30.04    1.03
   3  -6  -1   30.51    1.03
  -3  -6  -1   30.29    1.02
   3  -6  -2   -0.06    0.16
  -3  -6  -2    0.03    0.16
   3  -6  -2   -0.01    0.19
   3  -6   2   -0.05    0.18
   3  -6  -2    0.11    0.18
   3  -6   2   -0.07    0.18
  -3  -6  -2    0.11    0.16
  -3  -6   2   -0.06    0.28
   3  -6   2   -0.19    0.19
  -3  -6   2    0.07    0.19
   3  -6  -3   21.11    0.76
  -3  -6   3   21.49    1.04
   3  -6   3   20.77    0.76
   3  -6  -3   19.76    0.75
   3  -6   3   19.31    0.75
  -3  -6  -3   19.78    0.75
   3  -6  -3   19.66    0.72
  -3  -6  -3   19.95    0.74
  -3  -6   3   18.88    0.77
   3  -6   3   21.17    0.79
  -3  -6   4    3.31    0.31
   3  -6   4    3.31    0.30
   3  -6  -4    2.74    0.27
   3  -6   4    3.33    0.29
  -3  -6  -4    2.73    0.27
   3  -6   4    3.14    0.28
   3  -6  -4    3.13    0.26
  -3  -6   4    2.42    0.44
   3  -6  -4    2.89    0.24
  -3  -6  -4    3.26    0.27
   3  -6   5    7.83    0.41
  -3  -6   5    7.54    0.68
   3  -6  -5    8.50    0.41
   3  -6  -5    9.14    0.46
  -3  -6  -5    9.59    0.47
   3  -6   5    8.19    0.44
  -3  -6  -5    8.02    0.41
   3  -6   5    8.23    0.46
  -3  -6   5    7.41    0.46
  -3  -6   6    8.39    0.50
   3  -6   6    9.55    0.52
   3  -6   6    8.90    0.47
  -3  -6   6    8.60    0.73
   3  -6  -6    8.73    0.42
  -3  -6   6    7.88    0.63
  -3  -6  -6    8.48    0.45
   3  -6   7    4.75    0.34
  -3  -6   7    3.99    0.58
  -3  -6   7    4.19    0.39
   3  -6   7    3.87    0.36
  -3  -6   7    3.97    0.49
  -3  -6   8    8.05    0.52
   3  -6   8    8.57    0.52
  -3  -6   8    7.20    0.65
   3  -6   8    8.22    0.44
  -3  -6   9   16.78    0.75
   3  -6   9   15.22    0.74
  -3  -6   9   13.83    0.96
   3  -6   9   15.84    0.66
   3  -6  10    2.52    0.36
  -3  -6  10    1.91    0.34
  -3  -6  10    2.46    0.47
   3  -6  11    1.27    0.31
  -3  -6  11    1.08    0.30
   3  -6  12    0.35    0.29
  -3  -6  12    0.10    0.28
   3  -6  13    3.60    0.36
  -3  -6  13    4.00    0.37
  -3  -6  14    0.29    0.23
   3  -6  14    0.20    0.24
  -3  -6  15    1.92    0.24
   3  -6  15    1.51    0.23
   3  -6  16    2.48    0.19
  -3  -6  16    2.45    0.19
  -3  -7   0    2.33    0.24
   3  -7   0    1.96    0.24
   3  -7   0    1.63    0.25
   3  -7   0    1.96    0.26
  -3  -7   0    1.62    0.30
   3  -7   0    1.92    0.21
   3  -7   1    0.05    0.19
  -3  -7   1    0.02    0.18
   3  -7  -1   -0.09    0.18
  -3  -7  -1   -0.04    0.17
   3  -7  -1    0.05    0.22
   3  -7   1   -0.01    0.21
   3  -7  -1   -0.01    0.21
  -3  -7   1    0.11    0.19
  -3  -7   1   -0.03    0.24
   3  -7  -1   -0.08    0.15
   3  -7   1   -0.09    0.14
   3  -7  -2   84.31    2.60
  -3  -7   2   76.29    2.84
   3  -7   2   81.89    2.59
   3  -7   2   85.53    2.59
   3  -7   2   83.29    2.58
  -3  -7   2   83.31    2.58
  -3  -7  -2   84.20    2.57
   3  -7  -2   83.49    2.58
   3  -7  -2   84.22    2.57
   3  -7   2   83.36    2.53
   3  -7  -2   86.13    2.55
  -3  -7  -3    0.34    0.20
   3  -7  -3    0.78    0.23
   3  -7   3    0.73    0.23
   3  -7  -3    0.62    0.23
   3  -7   3    0.88    0.23
  -3  -7   3    0.50    0.25
   3  -7   3    0.51    0.16
   3  -7   3    0.58    0.25
  -3  -7   3    0.86    0.36
   3  -7  -3    0.61    0.17
  -3  -7  -3    0.76    0.19
  -3  -7   4   42.37    1.47
   3  -7   4   42.22    1.47
   3  -7   4   40.68    1.41
  -3  -7   4   40.26    1.75
   3  -7  -4   40.88    1.41
   3  -7  -4   44.02    1.43
  -3  -7  -4   41.56    1.42
   3  -7   4   42.84    1.43
  -3  -7  -4   43.69    1.41
   3  -7   4   43.55    1.37
   3  -7   5    0.99    0.23
  -3  -7   5    0.68    0.37
  -3  -7  -5    0.60    0.22
   3  -7   5    1.13    0.30
  -3  -7   5    0.90    0.29
   3  -7   6  120.46    3.68
   3  -7   6  124.76    3.77
  -3  -7   6  121.82    3.76
   3  -7   7   28.90    1.02
  -3  -7   7   27.75    1.10
   3  -7   7   26.39    1.09
   3  -7   8    8.00    0.39
   3  -7   8    8.89    0.45
   3  -7   8    8.19    0.53
  -3  -7   8    8.49    0.54
  -3  -7   9    6.06    0.46
   3  -7   9    5.22    0.45
   3  -7   9    4.91    0.31
  -3  -7  10    0.20    0.29
   3  -7  10    0.32    0.30
  -3  -7  11    4.10    0.40
   3  -7  11    4.93    0.41
   3  -7  12    2.63    0.33
  -3  -7  12    3.18    0.34
  -3  -7  13   -0.01    0.22
   3  -7  13    0.01    0.22
   3  -7 -14    1.16    0.19
  -3  -7  14    1.09    0.21
   3  -7  14    1.07    0.22
   3  -7 -15    0.12    0.12
   3  -7  15    0.04    0.14
  -3  -7  15    0.33    0.14
   3  -8   0    0.18    0.22
  -3  -8   0   -0.03    0.20
   3  -8   0   -0.03    0.16
   3  -8   0    0.20    0.25
   3  -8   1    2.88    0.30
  -3  -8   1    2.63    0.29
   3  -8  -1    3.03    0.30
  -3  -8  -1    2.57    0.29
   3  -8   1    2.44    0.31
  -3  -8   1    2.17    0.29
   3  -8   1    2.15    0.23
   3  -8  -1    2.36    0.25
  -3  -8   2   -0.01    0.23
   3  -8  -2   -0.14    0.26
  -3  -8  -2   -0.09    0.26
   3  -8   2    0.83    0.27
  -3  -8   2    0.34    0.22
   3  -8   2    0.42    0.18
   3  -8  -2   -0.12    0.19
   3  -8   2    0.54    0.26
   3  -8   3   -0.08    0.24
   3  -8   3   -0.19    0.23
   3  -8  -3    0.35    0.26
  -3  -8  -3    0.03    0.24
  -3  -8   3    0.39    0.24
  -3  -8   3    0.01    0.23
  -3  -8   3   -0.11    0.27
   3  -8  -3    0.01    0.19
   3  -8   3    0.11    0.15
   3  -8   4    0.05    0.15
  -3  -8  -4    0.15    0.21
   3  -8  -4    0.52    0.27
  -3  -8  -4    0.25    0.24
   3  -8   4   -0.02    0.23
  -3  -8   4    0.20    0.24
   3  -8   4   -0.17    0.25
   3  -8   5   21.69    0.89
  -3  -8  -5   21.87    0.89
   3  -8   5   20.99    0.82
   3  -8   5   22.10    0.96
  -3  -8   5   24.76    0.99
   3  -8   6    2.40    0.23
  -3  -8   6    2.57    0.37
   3  -8   6    2.94    0.39
   3  -8   6    2.52    0.30
   3  -8   7   14.03    0.60
   3  -8   7   14.19    0.71
  -3  -8   7   14.78    0.73
  -3  -8   8    0.56    0.30
   3  -8   8   -0.02    0.29
   3  -8   8   -0.08    0.20
  -3  -8   9    3.64    0.39
   3  -8   9    4.39    0.41
  -3  -8  10    0.73    0.28
   3  -8  10    0.30    0.27
   3  -8  11   -0.01    0.24
  -3  -8  11    0.19    0.25
  -3  -8  12    0.66    0.22
   3  -8  12    0.56    0.23
   3  -8  13    0.23    0.18
  -3  -8  13    0.37    0.18
   3  -8  14    0.35    0.10
  -3  -8  14    0.34    0.11
   3  -9   0  177.75    5.25
  -3  -9   0  177.21    5.30
   3  -9   0  181.34    5.31
  -3  -9   0  178.37    5.30
   3  -9   1    0.24    0.18
   3  -9  -1    0.39    0.19
  -3  -9   1    0.33    0.22
   3  -9  -1   -0.34    0.30
  -3  -9  -1    0.03    0.28
  -3  -9   1    0.24    0.25
   3  -9   1    0.26    0.24
   3  -9   2  183.47    5.45
  -3  -9   2  190.64    5.52
   3  -9  -2  190.19    5.52
   3  -9   2  184.92    5.50
  -3  -9   2  183.48    5.52
  -3  -9  -2  183.50    5.51
   3  -9   2  187.31    5.52
  -3  -9   3   21.21    0.88
   3  -9   3   22.60    0.82
  -3  -9  -3   23.49    0.90
   3  -9  -3   23.46    0.90
   3  -9   3   22.42    0.90
   3  -9   3   24.11    0.90
  -3  -9   3   22.68    0.91
   3  -9   4   96.48    3.01
  -3  -9   4   96.34    3.08
   3  -9  -4  112.61    3.14
   3  -9   4   97.02    3.06
  -3  -9  -4  109.15    3.13
   3  -9   4   99.27    3.10
  -3  -9   4   99.50    3.10
  -3  -9   5    0.24    0.24
   3  -9   5   -0.01    0.24
  -3  -9   5   -0.01    0.21
   3  -9   5    0.22    0.21
  -3  -9   6  170.45    5.06
  -3  -9   6  174.34    5.08
   3  -9   6  169.91    5.01
   3  -9   6  167.86    5.07
  -3  -9   7   11.37    0.54
   3  -9   7   12.37    0.57
  -3  -9   7   11.85    0.57
   3  -9   7   11.01    0.48
  -3  -9   8   59.88    1.93
   3  -9   8   62.79    1.95
  -3  -9   8   61.20    1.95
  -3  -9   9   16.73    0.64
  -3  -9   9   17.74    0.68
   3  -9   9   15.71    0.66
  -3  -9  10   64.58    1.98
   3  -9  10   63.63    1.98
   3  -9  11   41.43    1.33
  -3  -9  11   43.16    1.34
  -3  -9  12    5.29    0.26
   3  -9  12    5.66    0.26
  -3 -10   0    0.15    0.21
   3 -10   0   -0.29    0.26
  -3 -10   0   -0.35    0.25
  -3 -10  -1    3.37    0.30
  -3 -10   1    3.62    0.31
  -3 -10  -1    3.22    0.32
  -3 -10   1    2.88    0.32
   3 -10   1    3.21    0.33
   3 -10  -1    3.38    0.33
  -3 -10  -2   -0.02    0.21
  -3 -10   2    0.01    0.19
   3 -10  -2    1.39    0.29
  -3 -10   2    0.17    0.22
  -3 -10  -2    1.06    0.28
   3 -10   2    0.16    0.21
  -3 -10   3    0.63    0.22
  -3 -10   3    0.37    0.23
   3 -10   3    0.72    0.24
  -3 -10   4    0.63    0.21
   3 -10   4    0.83    0.23
  -3 -10   4    0.77    0.23
  -3 -10   5   -0.02    0.18
  -3 -10   5   -0.07    0.21
   3 -10   5   -0.08    0.20
  -3 -10   6    0.22    0.17
  -3 -10   6    0.17    0.19
   3 -10   6   -0.04    0.19
  -3 -10   7    0.09    0.15
   3 -10   7    0.28    0.18
  -3 -10   7    0.18    0.19
   3 -10   8    0.62    0.17
  -3 -10   8    0.31    0.17
  -3 -10   9    1.48    0.17
   3 -10   9    1.79    0.18
   3 -10  10    0.39    0.12
  -3 -10  10    0.38    0.12
  -3 -11   0  224.33    6.62
  -3 -11   0  231.08    6.64
   3 -11   0  230.45    6.64
  -3 -11   1    0.32    0.18
   3 -11   1    0.16    0.20
  -3 -11   1    0.18    0.20
  -3 -11   2  106.18    3.21
  -3 -11   2  109.74    3.22
   3 -11   2  108.16    3.22
  -3 -11   3    0.05    0.15
  -3 -11   3   -0.16    0.20
   3 -11   3   -0.32    0.20
  -3 -11   4   32.92    1.09
  -3 -11   4   35.34    1.12
   3 -11   4   34.39    1.11
   3 -11   5    1.13    0.18
  -3 -11   5    1.41    0.20
  -3 -11   6   68.50    2.01
   3 -11   6   65.10    2.01
   3 -11   7    6.24    0.28
  -3 -11   7    6.07    0.28
  -3 -11   8   26.92    0.82
   3 -11   8   25.42    0.81
  -3 -12   2    6.15    0.28
  -3 -12   3    3.47    0.21
   3 -12   3    4.64    0.22
   4   0   0   35.64    1.23
   4   0   1    0.02    0.24
   4   0  -1   -0.08    0.25
   4   0  -2    1.04    0.33
   4   0  -3   -0.09    0.33
   4   0   4  135.97    4.08
  -4   0   4  134.41    4.02
   4   0   5    0.16    0.26
  -4   0   5    0.04    0.22
   4   0   6   68.48    2.32
  -4   0   6   70.56    2.26
  -4   0   7   -0.06    0.24
   4   0   7   -0.10    0.30
   4   0   8   46.18    1.80
  -4   0   8   47.88    1.80
   4   0   9   -0.25    0.31
  -4   0   9   -0.03    0.29
  -4   0  10    2.25    0.44
   4   0  10    2.23    0.47
   4   0  11   -0.05    0.37
  -4   0  11    0.27    0.35
  -4   0  12   24.74    1.35
  -4   0  13    0.11    0.37
  -4   0  14    2.69    0.53
   4   0 -14    1.30    0.59
  -4   0  15   -0.33    0.27
   4   0  15    0.14    0.27
  -4   0  16    1.96    0.30
   4   0  16    1.25    0.28
  -4   0  17    0.38    0.22
   4   0  17    0.11    0.21
  -4   0  18    0.40    0.17
   4   0  18    0.27    0.16
   4  -1   0    0.05    0.24
   4   1   0    0.15    0.25
   4  -1   1  321.37    9.15
   4   1   1  325.78    9.15
   4   1  -1  307.48    9.16
   4  -1  -1  307.95    9.16
   4   1  -2   20.05    0.85
   4  -1  -2   22.33    0.87
   4  -1   3    1.20    0.24
   4   1  -3    2.04    0.35
   4  -1  -3    1.26    0.33
   4  -1   4   21.49    0.86
  -4   1   4   21.68    0.76
   4  -1   5   26.43    1.05
  -4   1   5   26.75    0.93
  -4  -1   5   26.05    1.02
   4   1   6    0.97    0.31
  -4  -1   6    1.67    0.30
  -4  -1   6    1.03    0.17
  -4  -1  -6    1.20    0.19
  -4  -1   7  408.67   11.29
  -4  -1  -7  369.72   10.98
  -4   1   7  401.66   11.28
   4   1   7  393.19   11.32
  -4  -1   8   21.91    1.03
   4   1   8   22.68    1.09
  -4   1   8   22.91    1.06
   4   1   9    0.78    0.34
  -4  -1   9    0.51    0.34
  -4   1   9    1.04    0.32
  -4  -1  10   64.27    2.51
  -4   1  10   68.50    2.48
  -4  -1  11  101.53    3.62
  -4   1  11  101.97    3.56
  -4   1  12   18.81    1.14
   4  -1  12   18.20    1.15
  -4  -1  12   20.71    1.21
   4  -1  13    3.64    0.35
  -4  -1  13    3.92    0.35
  -4  -1  13    4.37    0.62
  -4   1  13    2.63    0.52
   4  -1 -13    2.72    0.72
   4   1 -13    3.40    0.75
   4  -1  14   33.64    1.21
  -4  -1  14   34.59    1.21
  -4  -1  14   32.05    1.67
  -4   1  14   30.49    1.58
   4  -1 -14   32.18    1.88
   4   1 -14   29.06    1.80
  -4  -1  15   26.66    1.00
   4  -1  15   25.37    1.00
   4  -1  16   43.98    1.53
  -4  -1  16   47.68    1.54
  -4   1  16   47.25    1.54
   4   1  16   45.00    1.53
  -4  -1  17    1.46    0.25
   4  -1  17    1.66    0.25
  -4   1  17    1.61    0.25
   4   1  17    1.13    0.24
   4  -1 -17    1.13    0.20
  -4  -1  18    4.37    0.27
   4  -1  18    4.02    0.26
  -4   1  18    4.59    0.27
   4   1  18    3.99    0.26
   4  -2   0    0.33    0.23
   4   2   0    0.49    0.24
   4   2  -1    0.08    0.24
   4  -2  -1   -0.10    0.25
   4   2  -2   96.74    2.95
   4  -2  -2   93.74    2.94
   4  -2   3    2.49    0.26
   4  -2  -3    3.16    0.37
   4   2  -3    2.99    0.37
   4  -2  -4    9.98    0.62
   4   2  -4   10.79    0.64
  -4  -2   4   11.13    0.54
  -4  -2  -4   10.33    0.55
   4  -2   4   10.20    0.53
  -4  -2   5    3.43    0.31
  -4  -2   5    3.28    0.39
  -4  -2  -5    2.78    0.30
   4  -2   5    2.81    0.35
  -4   2   5    2.26    0.28
  -4  -2  -6    2.75    0.27
  -4  -2   6    2.26    0.38
  -4   2   6    2.32    0.30
  -4  -2   6    2.02    0.24
   4  -2   6    2.51    0.35
  -4  -2  -7    2.52    0.24
  -4  -2   7    2.94    0.42
  -4   2   7    2.21    0.33
   4  -2   7    2.70    0.39
   4  -2   8   25.34    1.16
  -4   2   8   24.76    1.08
  -4  -2   8   22.88    1.13
  -4  -2   9    0.12    0.32
  -4   2   9    0.37    0.28
   4  -2   9   -0.04    0.32
  -4  -2   9    0.33    0.18
   4  -2   9    0.36    0.19
  -4  -2  10    1.05    0.40
  -4   2  10    0.72    0.32
   4  -2  10    1.05    0.40
  -4  -2  10    0.78    0.21
   4  -2  10    1.08    0.23
  -4   2  11   24.21    1.20
  -4  -2  11   22.67    1.26
   4  -2  11   21.95    1.23
  -4  -2  11   21.28    0.85
   4  -2  11   21.21    0.85
   4  -2  12    0.62    0.39
  -4  -2  12   -0.21    0.38
  -4   2  12    0.40    0.32
  -4  -2  12    0.18    0.24
   4  -2  12    0.15    0.22
   4   2 -13   14.23    1.20
   4  -2 -13   12.78    1.17
   4  -2  13   15.88    0.70
  -4  -2  13   14.31    0.68
  -4  -2  13   14.52    1.07
  -4  -2  14    0.54    0.28
   4  -2  14    0.47    0.28
   4  -2  14    0.25    0.21
  -4  -2  15    9.96    0.54
   4  -2  15   10.00    0.55
  -4  -2  16    1.72    0.28
   4  -2  16    1.87    0.29
   4  -2 -17    0.13    0.17
  -4   2  17    0.65    0.21
   4   2  17    0.65    0.20
   4  -2  17    0.67    0.20
  -4  -2  17    0.71    0.21
  -4   2  18    0.25    0.15
  -4  -2  18    0.32    0.15
   4  -2  18    0.55    0.14
   4   2  18    0.30    0.14
   4   3   0   -0.01    0.20
   4  -3   0   -0.11    0.19
  -4  -3   0   -0.08    0.26
   4   3  -1  975.61   27.86
   4  -3  -1  967.72   27.85
  -4  -3   1  995.27   28.01
   4   3  -2    5.88    0.41
   4  -3  -2    5.67    0.40
  -4  -3   2    5.73    0.46
  -4  -3  -2    6.03    0.50
   4   3  -3  275.12    8.06
   4  -3  -3  275.86    8.05
  -4   3   3  263.70    7.81
   4  -3   3  279.16    7.96
  -4  -3  -3  298.48    8.13
  -4  -3   3  301.35    8.13
   4  -3  -4    8.52    0.57
   4   3  -4    9.64    0.60
  -4  -3   4   10.34    0.58
  -4  -3  -4    9.58    0.58
   4  -3   4    8.84    0.49
  -4   3   4    8.66    0.38
  -4  -3   5   66.91    2.30
   4   3  -5   65.37    2.30
   4  -3  -5   64.80    2.29
   4  -3   5   66.34    2.21
  -4   3   5   66.09    2.07
  -4  -3   5   69.76    2.22
  -4  -3  -5   66.80    2.21
   4   3  -6    1.89    0.39
  -4  -3   6    2.43    0.43
  -4  -3  -6    2.45    0.30
  -4  -3   6    2.35    0.29
  -4   3   6    2.00    0.26
   4  -3   6    2.00    0.33
  -4  -3  -7  482.68   13.79
  -4   3   7  473.01   13.82
   4  -3   7  465.82   13.96
  -4  -3   7  482.74   14.05
  -4   3   8  102.99    3.31
   4  -3   8  100.35    3.43
  -4  -3   8  104.82    3.52
  -4   3   9  144.42    4.49
   4  -3   9  146.24    4.66
  -4  -3   9  150.29    4.74
  -4  -3   9  140.96    4.24
   4  -3   9  138.41    4.23
   4   3 -10   17.90    1.20
  -4  -3  10   20.29    0.81
   4  -3  10   20.80    0.81
   4  -3  10   19.94    1.11
   4   3 -11   56.23    2.44
   4  -3 -11   55.55    2.43
   4  -3  11   55.92    2.26
  -4  -3  11   55.97    1.82
   4  -3  11   55.28    1.82
   4  -3  11   52.85    1.77
   4   3 -12    0.46    0.47
   4  -3 -12    0.59    0.51
   4  -3  12    0.67    0.39
   4  -3  12    0.05    0.21
  -4  -3  12    0.46    0.27
   4  -3  12    0.63    0.26
   4  -3  13   52.22    1.72
  -4  -3  13   54.37    1.79
   4  -3  13   55.87    1.80
   4   3 -13   48.92    2.41
   4  -3 -13   48.49    2.40
  -4  -3  14   45.94    1.59
   4  -3  14   47.32    1.60
  -4  -3  15   22.86    0.90
   4  -3  15   22.52    0.90
  -4  -3  16   21.81    0.83
   4  -3  16   22.30    0.84
  -4   3  17    2.50    0.24
   4   3  17    2.19    0.22
   4  -3  17    2.15    0.24
  -4  -3  17    2.18    0.24
   4  -3 -17    1.79    0.23
  -4   3  18    8.52    0.34
   4   3  18    7.73    0.33
  -4  -3  18    8.18    0.33
   4  -3  18    8.22    0.33
   4  -3  18    9.03    0.33
  -4  -4   0   10.87    0.68
  -4  -4   1    0.43    0.34
   4  -4  -2    2.18    0.25
   4   4  -2    2.18    0.25
  -4  -4   2    2.55    0.39
  -4  -4  -2    2.79    0.38
   4   4  -3    0.78    0.25
   4  -4  -3    0.58    0.24
   4  -4   3    0.64    0.17
  -4  -4   3    0.72    0.32
  -4  -4  -3    0.78    0.31
  -4  -4   4   12.22    0.76
   4  -4  -4   12.67    0.66
   4   4  -4   13.28    0.68
   4  -4   4   13.11    0.61
  -4  -4   4   14.65    0.76
  -4  -4  -4   14.49    0.76
  -4  -4   5   -0.08    0.25
   4  -4   5   -0.10    0.21
  -4  -4  -5    0.29    0.25
   4   4  -5    0.13    0.28
   4  -4  -5   -0.15    0.28
   4   4  -6   32.74    1.39
   4  -4  -6   30.66    1.35
  -4  -4   6   33.16    1.31
  -4  -4  -6   34.69    1.33
   4  -4   6   33.40    1.30
   4  -4  -7   10.38    0.76
   4   4  -7   10.59    0.77
  -4  -4   7   12.36    0.84
  -4  -4   7   12.05    0.54
   4  -4   7   11.82    0.53
   4  -4   7   11.54    0.69
   4  -4   8   31.89    1.14
   4  -4  -8   33.77    1.52
   4   4  -8   33.85    1.54
  -4  -4   8   37.32    1.59
  -4  -4   8   33.45    1.16
   4  -4   8   32.24    1.16
   4  -4   8   35.81    1.45
   4  -4  -9    0.90    0.37
   4   4  -9    1.07    0.40
  -4  -4   9   -0.13    0.37
   4  -4   9   -0.27    0.33
  -4  -4   9    0.14    0.21
   4  -4   9    0.16    0.23
   4  -4   9   -0.05    0.21
   4  -4 -10    0.32    0.42
   4   4 -10    0.38    0.42
  -4  -4  10    0.78    0.39
   4  -4  10    1.03    0.37
  -4  -4  10    0.50    0.26
   4  -4  10    0.50    0.24
   4  -4  10    0.38    0.22
   4   4 -11   26.94    1.56
   4  -4 -11   27.39    1.54
   4  -4  11   30.51    1.48
  -4  -4  11   29.25    1.11
   4  -4  11   28.73    1.11
   4  -4  11   29.23    1.06
   4  -4 -12   -0.18    0.43
   4  -4  12    0.30    0.35
  -4  -4  12   -0.38    0.41
  -4  -4  12    0.25    0.26
   4  -4  12   -0.08    0.26
   4  -4  12    0.03    0.20
  -4  -4  13    9.38    0.54
   4  -4  13    8.98    0.53
  -4  -4  14    0.21    0.26
   4  -4  14    0.37    0.26
  -4  -4  15    6.58    0.41
   4  -4  15    6.29    0.41
  -4  -4  16    0.92    0.23
   4  -4  16    1.29    0.23
   4  -4 -17    1.43    0.19
   4   4  17    1.75    0.18
  -4  -4  17    1.35    0.18
   4  -4  17    1.45    0.19
  -4   4  17    1.80    0.19
  -4  -5   0   -0.03    0.35
  -4  -5   1  101.42    3.41
  -4  -5   2   27.64    1.27
  -4  -5  -2   27.57    1.30
  -4  -5  -3  223.87    6.83
  -4  -5   3  222.02    6.82
  -4  -5   3  217.97    6.75
  -4  -5   4    1.25    0.37
  -4  -5   4    1.05    0.35
  -4  -5  -4    1.73    0.37
   4  -5   5   57.96    2.15
  -4  -5   5   64.11    2.43
  -4  -5  -5   65.95    2.38
   4  -5   6   46.21    1.52
  -4  -5   6   46.82    1.53
   4  -5   6   42.74    1.52
  -4  -5   6   49.13    1.94
   4  -5   6   42.14    1.65
  -4  -5  -6   50.60    1.51
  -4  -5   7   46.94    1.55
   4  -5   7   46.70    1.54
   4  -5   7   45.53    1.52
   4  -5   7   44.35    1.72
  -4  -5   8  175.38    5.25
   4  -5   8  177.42    5.24
   4  -5   8  173.27    5.21
   4  -5   8  171.88    5.52
  -4  -5   8  188.93    5.72
  -4  -5   9   55.03    1.84
   4  -5   9   55.64    1.84
   4  -5   9   55.76    1.80
   4  -5   9   53.69    2.11
  -4  -5   9   56.15    2.25
  -4  -5  10   42.95    1.54
   4  -5  10   44.73    1.54
   4  -5  10   44.35    1.48
   4  -5  10   42.51    1.83
  -4  -5  10   46.47    1.98
  -4  -5  11    7.79    0.51
   4  -5  11    8.17    0.51
   4  -5  11    7.95    0.44
  -4  -5  11    7.89    0.75
   4  -5  12   48.90    1.68
  -4  -5  12   49.10    1.68
   4  -5  13    2.11    0.33
  -4  -5  13    1.80    0.31
  -4  -5  14  195.73    5.79
   4  -5  14  196.17    5.79
  -4  -5  15    3.32    0.30
   4  -5  15    2.98    0.30
  -4  -5  16   51.76    1.63
   4  -5  16   52.80    1.63
   4  -5 -16   53.04    1.64
   4  -5  16   51.70    1.59
   4  -5  17    0.75    0.12
  -4   5  17    0.92    0.12
   4   5  17    0.94    0.12
   4  -5  17    1.14    0.12
   4  -5 -17    0.82    0.14
   4  -6   0  144.15    4.34
  -4  -6   0  150.42    4.83
   4  -6   0  148.61    4.35
   4  -6   1    1.84    0.21
  -4  -6   1    1.75    0.21
   4  -6  -1    1.65    0.20
  -4  -6  -1    1.85    0.20
   4  -6  -1    1.37    0.22
   4  -6   1    1.44    0.23
   4  -6  -1    1.80    0.23
  -4  -6   1    1.93    0.47
  -4  -6  -1    1.91    0.21
  -4  -6  -2   54.85    1.68
   4  -6  -2   52.23    1.67
   4  -6   2   52.28    1.70
  -4  -6   2   51.81    1.71
   4  -6   2   53.65    1.72
   4  -6   2   53.93    1.70
  -4  -6   2   50.76    1.97
   4  -6  -2   53.98    1.70
  -4  -6  -2   54.33    2.12
  -4  -6   2   51.92    2.10
  -4  -6  -2   53.95    1.68
   4  -6  -3    0.73    0.20
  -4  -6  -3    0.86    0.21
   4  -6   3    0.99    0.23
   4  -6  -3    0.95    0.21
   4  -6   3    0.91    0.20
  -4  -6   3    0.83    0.22
   4  -6   3    0.90    0.21
  -4  -6   3    0.54    0.33
  -4  -6  -3    0.85    0.19
   4  -6  -3    0.92    0.17
  -4  -6  -4    7.86    0.41
   4  -6   4    7.74    0.43
   4  -6  -4    7.02    0.40
   4  -6   4    7.97    0.40
   4  -6  -4    7.44    0.39
  -4  -6   4    6.77    0.64
   4  -6   4    7.07    0.43
  -4  -6   4    8.07    0.43
   4  -6   4    6.73    0.33
  -4  -6  -4    7.71    0.39
  -4  -6  -5   17.55    0.70
   4  -6   5   16.00    0.67
  -4  -6   5   15.37    0.69
   4  -6   5   15.58    0.70
   4  -6  -5   15.36    0.64
   4  -6   5   16.44    0.64
  -4  -6   5   14.40    0.95
   4  -6   5   15.25    0.59
  -4  -6  -5   15.56    0.65
   4  -6   6    1.65    0.26
  -4  -6   6    1.80    0.29
   4  -6   6    1.72    0.29
   4  -6  -6    1.87    0.22
   4  -6   6    2.17    0.24
  -4  -6   6    1.86    0.47
  -4  -6  -6    2.13    0.24
  -4  -6   7    8.97    0.79
   4  -6   7    8.56    0.48
  -4  -6   7    9.46    0.72
  -4  -6   7    9.10    0.53
   4  -6   7    8.89    0.52
   4  -6   8    1.31    0.26
  -4  -6   8    1.08    0.38
  -4  -6   8    1.72    0.32
   4  -6   8    1.53    0.31
   4  -6   9   28.14    1.02
  -4  -6   9   27.78    1.08
   4  -6   9   26.97    1.08
  -4  -6   9   26.33    1.38
   4  -6  10    7.49    0.51
  -4  -6  10    7.94    0.51
   4  -6  10    7.11    0.42
  -4  -6  10    6.87    0.69
  -4  -6  11    0.38    0.29
   4  -6  11    0.12    0.27
  -4  -6  12   11.47    0.60
   4  -6  12   12.02    0.61
   4  -6  13    8.40    0.50
  -4  -6  13    8.71    0.49
  -4  -6  14    4.58    0.34
   4  -6  14    4.21    0.34
   4  -6  14    4.20    0.27
   4  -6 -15    2.00    0.23
  -4  -6  15    1.70    0.22
   4  -6  15    1.90    0.23
  -4  -6  16    0.51    0.13
   4  -6  16    0.31    0.13
  -4  -7   0    0.18    0.18
   4  -7   0   -0.08    0.22
   4  -7   0    0.09    0.18
  -4  -7   0    0.06    0.18
  -4  -7   0    0.03    0.22
   4  -7   0   -0.12    0.20
   4  -7   0    0.14    0.14
   4  -7  -1    8.26    0.44
  -4  -7  -1    6.42    0.52
  -4  -7   1    7.24    0.60
   4  -7   1    8.37    0.45
   4  -7  -1    8.20    0.44
  -4  -7  -1    7.75    0.42
   4  -7   1    7.95    0.42
   4  -7  -1    8.40    0.42
  -4  -7   1    8.08    0.42
   4  -7   1    7.75    0.37
  -4  -7  -1    7.89    0.42
   4  -7  -1    8.05    0.38
   4  -7   2    0.71    0.24
   4  -7  -2    0.95    0.24
  -4  -7  -2    0.88    0.21
   4  -7  -2    1.01    0.21
   4  -7   2    0.74    0.21
  -4  -7   2    0.47    0.21
   4  -7  -2    0.94    0.23
   4  -7   2    0.84    0.24
  -4  -7   2    0.66    0.34
  -4  -7  -2    0.58    0.21
   4  -7   2    0.78    0.16
   4  -7  -2    0.50    0.16
  -4  -7   3    0.69    0.25
   4  -7   3    0.95    0.27
   4  -7   3    1.07    0.25
   4  -7   3    0.79    0.23
   4  -7  -3    0.95    0.24
   4  -7  -3    1.13    0.22
  -4  -7  -3    0.54    0.22
  -4  -7   3    0.34    0.31
   4  -7  -3    0.72    0.17
  -4  -7  -3    0.66    0.20
   4  -7   3    0.77    0.15
  -4  -7   4   11.07    0.83
   4  -7  -4   12.19    0.56
   4  -7   4   11.24    0.55
   4  -7  -4   12.44    0.57
   4  -7   4   11.80    0.57
  -4  -7  -4   12.33    0.56
  -4  -7  -4   11.36    0.54
  -4  -7   4   11.96    0.60
   4  -7   4   12.04    0.61
  -4  -7   5    3.55    0.37
   4  -7   5    4.07    0.38
   4  -7  -5    4.08    0.32
   4  -7   5    3.70    0.31
   4  -7   5    3.29    0.32
  -4  -7   5    3.75    0.52
  -4  -7  -5    3.40    0.31
   4  -7   6   14.29    0.66
   4  -7   6   13.54    0.57
  -4  -7   6   16.57    0.73
   4  -7   6   16.24    0.72
  -4  -7   6   14.39    1.00
   4  -7   7   32.52    1.12
   4  -7   7   29.30    1.04
  -4  -7   7   31.57    1.19
   4  -7   7   32.27    1.19
   4  -7   8    0.13    0.17
  -4  -7   8   -0.07    0.28
   4  -7   8    0.18    0.27
   4  -7   8    0.17    0.21
   4  -7   9   14.75    0.62
   4  -7   9   14.11    0.58
   4  -7   9   15.00    0.72
  -4  -7   9   14.42    0.70
   4  -7  10    0.24    0.18
  -4  -7  10    0.29    0.29
   4  -7  10    0.03    0.29
  -4  -7  11    1.07    0.30
   4  -7  11    1.47    0.31
   4  -7  12    2.63    0.32
  -4  -7  12    3.32    0.33
  -4  -7  13    0.42    0.22
   4  -7  13    0.40    0.22
   4  -7 -13    0.45    0.20
  -4  -7  14    0.98    0.19
   4  -7  14    1.15    0.21
   4  -7 -14    0.98    0.18
   4  -7  15    1.36    0.16
  -4  -7  15    1.33    0.15
   4  -7 -15    1.44    0.15
   4  -8   0    0.37    0.27
   4  -8   0    0.45    0.22
  -4  -8   0    0.25    0.22
   4  -8   0    0.61    0.27
   4  -8   0    0.38    0.17
   4  -8  -1    1.29    0.28
  -4  -8  -1    1.39    0.25
   4  -8  -1    1.73    0.27
  -4  -8   1    1.44    0.27
   4  -8   1    1.63    0.26
   4  -8  -1    2.04    0.33
   4  -8   1    1.26    0.28
   4  -8   1    1.15    0.20
   4  -8  -1    1.23    0.20
   4  -8   2    0.17    0.25
   4  -8  -2    0.46    0.27
   4  -8  -2   -0.24    0.25
  -4  -8  -2   -0.27    0.25
  -4  -8   2    0.25    0.21
   4  -8   2   -0.08    0.21
  -4  -8  -2    0.31    0.23
   4  -8   2    0.04    0.16
   4  -8  -2    0.11    0.16
   4  -8   2   -0.03    0.26
   4  -8  -3   -0.01    0.24
  -4  -8  -3   -0.08    0.25
  -4  -8   3    0.41    0.23
   4  -8   3    0.37    0.23
  -4  -8   3    0.73    0.34
  -4  -8  -3    0.59    0.23
   4  -8   3    0.44    0.15
   4  -8   3    0.15    0.26
   4  -8  -4    7.29    0.44
   4  -8   4    6.17    0.41
  -4  -8   4    6.60    0.42
   4  -8   4    5.67    0.41
  -4  -8  -4    7.74    0.46
  -4  -8   4    5.11    0.56
  -4  -8  -4    6.21    0.41
   4  -8   4    6.22    0.33
   4  -8   5    0.78    0.26
  -4  -8  -5    1.42    0.26
   4  -8   5    0.77    0.27
  -4  -8   6    0.35    0.30
   4  -8   6    0.37    0.30
   4  -8   6    0.26    0.23
  -4  -8   7    0.20    0.29
   4  -8   7    0.16    0.28
   4  -8   7   -0.10    0.22
  -4  -8   8    3.12    0.37
   4  -8   8    3.32    0.38
   4  -8   8    2.43    0.27
  -4  -8   9    5.48    0.43
   4  -8   9    5.08    0.42
   4  -8   9    4.93    0.31
  -4  -8  10    0.33    0.26
   4  -8  10    0.37    0.26
  -4  -8  11    7.59    0.43
   4  -8  11    7.26    0.43
  -4  -8  12    0.07    0.19
   4  -8  12    0.27    0.21
   4  -8  13   24.05    0.76
   4  -8  13   19.71    0.72
  -4  -8  14    0.07    0.08
   4  -9   0   -0.01    0.16
  -4  -9   0    0.17    0.24
   4  -9   0    0.08    0.25
   4  -9  -1   65.72    2.08
   4  -9   1   65.49    2.07
   4  -9   1   70.93    2.17
  -4  -9   1   67.90    2.15
   4  -9  -1   68.22    2.15
  -4  -9  -1   65.20    2.14
   4  -9   1   69.96    2.16
   4  -9   2    6.67    0.35
  -4  -9   2    8.00    0.47
   4  -9   2    7.24    0.47
  -4  -9  -2    6.08    0.43
   4  -9   2    7.16    0.44
  -4  -9   2    7.35    0.44
   4  -9  -2    7.00    0.45
  -4  -9   3  401.67   11.60
  -4  -9  -3  398.97   11.58
  -4  -9  -3  396.10   11.57
   4  -9   3  398.30   11.58
   4  -9   3  405.68   11.59
  -4  -9   3  399.64   11.59
   4  -9  -3  404.51   11.58
  -4  -9  -4    4.28    0.36
  -4  -9   4    4.31    0.38
   4  -9   4    4.21    0.37
   4  -9   4    4.23    0.37
  -4  -9   4    4.22    0.37
  -4  -9   5   25.37    0.95
   4  -9   5   24.14    0.92
   4  -9   5   24.86    0.94
  -4  -9   5   25.02    0.94
  -4  -9   6   36.30    1.30
   4  -9   6   40.13    1.32
  -4  -9   6   39.02    1.32
   4  -9   6   36.40    1.27
  -4  -9   7   67.66    2.18
   4  -9   7   69.83    2.19
  -4  -9   7   72.43    2.20
   4  -9   7   68.51    2.14
  -4  -9   8   25.34    0.93
   4  -9   8   27.49    0.94
   4  -9   8   24.64    0.87
  -4  -9   8   27.22    0.95
  -4  -9   9   41.71    1.35
   4  -9   9   41.16    1.36
  -4  -9   9   41.69    1.36
  -4  -9  10   65.17    2.00
   4  -9  10   66.58    2.01
  -4  -9  10   65.12    2.02
   4  -9  11   25.26    0.83
  -4  -9  11   24.41    0.83
   4  -9  12   13.30    0.47
  -4  -9  12   13.74    0.48
  -4 -10   0   12.17    0.57
  -4 -10   0   12.12    0.56
   4 -10   0   12.36    0.56
  -4 -10   1    0.19    0.21
   4 -10  -1   -0.09    0.23
  -4 -10  -1    0.07    0.22
   4 -10   1   -0.15    0.24
  -4 -10   1   -0.42    0.25
  -4 -10   2    2.16    0.27
   4 -10   2    1.18    0.25
  -4 -10   2    1.86    0.26
  -4 -10  -2    3.73    0.33
   4 -10  -2    4.77    0.35
  -4 -10   3   -0.12    0.20
  -4 -10   3    0.12    0.20
   4 -10   3   -0.01    0.19
  -4 -10   4    1.59    0.24
   4 -10   4    2.24    0.25
  -4 -10   4    2.08    0.26
  -4 -10   5    0.89    0.22
  -4 -10   5    1.18    0.23
   4 -10   5    0.94    0.21
  -4 -10   6    1.24    0.20
  -4 -10   6    1.34    0.22
   4 -10   6    0.89    0.21
  -4 -10   7    0.66    0.17
   4 -10   7    0.50    0.18
  -4 -10   7    0.64    0.18
  -4 -10   8    1.66    0.18
  -4 -10   8    1.83    0.20
   4 -10   8    2.10    0.20
   4 -10   9    0.40    0.14
  -4 -10   9    0.27    0.13
  -4 -10  10    0.50    0.11
   4 -10  10    0.52    0.11
   4 -11   0    3.02    0.28
  -4 -11   0    2.04    0.26
  -4 -11  -1   24.78    0.92
  -4 -11   1   24.38    0.92
  -4 -11  -1   31.99    0.97
  -4 -11   1   25.26    0.92
   4 -11  -1   34.46    0.98
   4 -11   1   26.57    0.93
  -4 -11   2    3.06    0.25
  -4 -11   2    2.54    0.25
   4 -11   2    3.01    0.25
  -4 -11   3    0.89    0.17
   4 -11   3    0.43    0.18
  -4 -11   3    0.54    0.18
  -4 -11   4    3.12    0.22
  -4 -11   4    3.04    0.24
   4 -11   4    2.95    0.23
  -4 -11   5    2.95    0.20
   4 -11   5    2.71    0.22
  -4 -11   5    2.65    0.22
   4 -11   6   17.74    0.63
  -4 -11   6   19.05    0.64
   4 -11   7   14.39    0.50
  -4 -11   7   14.88    0.51
   5   0   0   -0.06    0.30
   5   0   1    0.10    0.29
   5   0  -1   -0.40    0.33
   5   0  -2    0.02    0.33
   5   0  -3    0.40    0.34
   5   0  -4    0.63    0.37
  -5   0   5    0.09    0.21
   5   0   6   10.44    0.64
  -5   0   6   11.86    0.60
  -5   0   7    0.02    0.25
   5   0   7    0.05    0.30
   5   0   8   10.77    0.73
   5   0   9   -0.07    0.33
  -5   0   9    0.49    0.31
  -5   0  10   59.98    2.32
  -5   0  11    0.14    0.34
   5   0 -12  127.73    4.73
  -5   0  12  129.70    4.44
   5   0 -13   -0.23    0.57
  -5   0  13    0.21    0.36
  -5   0  14   92.20    2.85
   5   0  14   93.91    2.86
   5   0  15    0.23    0.26
  -5   0  15   -0.04    0.25
  -5   0  16   61.95    1.99
   5   0  16   62.50    1.99
  -5   0  17   -0.11    0.20
   5   0  17    0.02    0.19
  -5   0  18   29.77    0.97
   5   1   0   68.54    2.23
   5  -1   0   70.46    2.23
   5   1  -1    1.16    0.33
   5   1   1    1.12    0.35
   5  -1  -1    1.05    0.31
   5  -1   1    1.49    0.31
   5  -1  -2  431.06   12.66
   5   1  -2  442.59   12.67
   5  -1  -3    2.64    0.42
   5   1  -3    2.60    0.39
  -5   1   4  245.98    7.10
   5  -1  -4  243.03    7.35
   5   1  -4  245.43    7.35
  -5  -1   5   13.50    0.67
  -5   1   5   12.17    0.55
   5   1  -5   13.17    0.78
   5  -1   5   12.65    0.65
   5  -1   6  113.48    3.66
  -5  -1   6  116.14    3.64
  -5   1   6  116.90    3.51
  -5  -1   7   87.47    2.82
  -5  -1  -7   82.90    2.58
  -5   1   8   68.35    2.47
  -5  -1   8   74.60    2.49
  -5   1   9    8.02    0.62
  -5  -1   9    7.42    0.67
  -5  -1  10   44.59    1.93
  -5   1  10   48.99    1.92
  -5  -1  11  130.32    4.47
  -5   1  11  131.73    4.41
   5  -1 -12    0.50    0.54
   5   1 -12    0.57    0.54
  -5   1  12    0.90    0.40
  -5  -1  12    0.68    0.42
  -5  -1  12    1.03    0.24
   5  -1  12    0.89    0.25
   5  -1 -13   -0.15    0.54
   5   1 -13    0.15    0.56
  -5  -1  13   -0.05    0.39
  -5   1  13    0.20    0.33
  -5  -1  13    0.36    0.24
   5  -1  13    0.32    0.24
  -5  -1  14    3.00    0.34
   5  -1  14    2.38    0.33
   5  -1 -14    2.70    0.67
   5   1 -14    1.95    0.61
   5  -1  15  117.75    3.62
  -5  -1  15  118.08    3.61
  -5   1  15  120.46    3.61
   5   1  15  118.59    3.61
   5  -1  16    2.59    0.25
   5  -1  16    3.48    0.33
  -5  -1  16    2.64    0.31
  -5   1  16    3.17    0.31
   5   1  16    3.02    0.31
   5  -1 -16    2.49    0.27
  -5  -1  17   14.48    0.59
   5  -1  17   14.74    0.59
   5   1  17   14.20    0.58
  -5   1  17   14.23    0.59
   5  -1 -17   13.64    0.53
  -5   1  18    0.31    0.14
  -5  -1  18    0.23    0.15
   5  -2   0   -0.03    0.24
   5   2   0    0.03    0.25
   5   2  -1  425.10   12.22
   5  -2  -1  418.30   12.22
   5   2  -2    3.68    0.39
   5  -2  -2    4.38    0.42
   5  -2  -3  124.36    3.54
   5   2  -3  123.09    3.53
   5  -2   4    9.53    0.53
   5  -2  -4   10.41    0.66
   5   2  -4    9.87    0.65
   5   2  -5    2.04    0.42
   5  -2  -5    2.30    0.41
   5  -2   5    2.99    0.35
  -5  -2   5    2.69    0.31
  -5  -2   5    2.31    0.36
   5  -2  -6    1.93    0.45
   5   2  -6    1.75    0.42
  -5  -2   6    2.40    0.39
  -5  -2   6    1.68    0.26
  -5  -2  -6    2.32    0.28
  -5   2   6    2.12    0.29
   5  -2   6    1.92    0.33
  -5  -2  -7    6.82    0.40
   5  -2   7    7.22    0.55
  -5   2   7    6.52    0.48
  -5  -2   7    6.42    0.56
   5  -2   8   28.81    1.31
  -5   2   8   29.66    1.25
  -5  -2   8   31.88    1.36
  -5  -2   9   11.71    0.84
   5  -2   9   11.43    0.79
  -5   2   9   13.49    0.76
  -5  -2   9   12.11    0.79
   5  -2   9   11.39    0.51
  -5  -2   9   11.25    0.51
   5  -2 -10    6.96    0.80
   5   2 -10    5.93    0.74
   5  -2  10    7.21    0.67
  -5  -2  10    7.18    0.70
  -5   2  10    6.69    0.60
  -5  -2  10    7.48    0.41
   5  -2  10    6.51    0.40
   5  -2 -11   27.74    1.58
   5   2 -11   24.62    1.50
  -5   2  11   28.48    1.33
   5  -2  11   24.95    1.35
  -5  -2  11   25.49    1.39
  -5  -2  11   25.04    0.96
   5  -2  11   26.67    0.98
   5  -2 -12    3.82    0.73
   5   2 -12    3.60    0.70
  -5  -2  12    3.87    0.61
  -5   2  12    3.28    0.50
  -5  -2  12    3.95    0.36
   5  -2  12    4.37    0.36
   5  -2 -13    4.71    0.76
   5   2 -13    3.48    0.71
   5  -2  13    4.97    0.41
  -5  -2  13    4.55    0.39
  -5  -2  13    4.73    0.64
  -5  -2  14    2.82    0.33
   5  -2  14    3.04    0.35
   5  -2  14    2.64    0.29
  -5  -2  15    4.47    0.38
   5  -2  15    4.33    0.32
  -5  -2  16   16.78    0.71
   5  -2  16   18.46    0.73
  -5   2  16   18.47    0.72
   5   2  16   17.86    0.71
  -5   2  17    0.16    0.18
   5   2  17    0.50    0.18
  -5  -2  17    0.41    0.19
   5  -2  17    0.31    0.18
   5  -2 -17    0.09    0.17
  -5   2  18    4.18    0.22
  -5  -2  18    3.59    0.22
   5  -2  18    3.82    0.20
   5  -3   0   40.98    1.42
   5   3   0   44.15    1.45
   5  -3  -1    4.44    0.37
   5   3  -1    4.58    0.38
  -5  -3   1    4.09    0.44
   5   3  -2  112.21    3.44
   5  -3  -2  107.69    3.42
  -5  -3  -2  109.24    3.49
  -5  -3   2  111.64    3.51
   5  -3  -3    7.69    0.52
   5   3  -3    7.24    0.51
  -5   3   3    6.58    0.28
  -5  -3   3    8.44    0.55
  -5  -3  -3    6.96    0.54
   5   3  -4   57.12    2.03
   5  -3  -4   56.89    2.03
  -5  -3   4   63.43    2.04
  -5  -3  -4   61.30    2.05
   5  -3   4   58.43    1.92
  -5   3   4   56.10    1.78
  -5  -3   5   33.55    1.35
   5   3  -5   32.06    1.33
   5  -3  -5   30.82    1.31
   5  -3   5   29.30    1.19
  -5   3   5   30.37    1.08
  -5  -3  -5   32.53    1.26
  -5  -3   5   33.30    1.25
   5   3  -6    1.84    0.42
   5  -3  -6    2.10    0.42
  -5  -3   6    2.40    0.43
  -5  -3  -6    2.69    0.32
  -5  -3   6    2.48    0.31
  -5   3   6    2.82    0.28
   5  -3   6    2.31    0.34
  -5  -3   7  188.21    5.69
   5  -3  -7  173.25    5.69
   5   3  -7  174.52    5.71
  -5  -3  -7  182.86    5.44
   5  -3   7  174.63    5.55
  -5   3   7  180.90    5.42
   5  -3  -8   92.22    3.44
   5   3  -8  104.36    3.51
  -5  -3   8   99.41    2.98
   5  -3   8   95.45    2.97
  -5   3   8   99.88    3.17
   5  -3   8   96.73    3.31
  -5  -3   8  104.25    3.43
   5  -3  -9   82.05    3.18
   5   3  -9   82.33    3.20
  -5  -3   9   86.70    2.67
   5  -3   9   86.38    2.67
   5  -3   9   86.36    3.05
  -5  -3   9   93.25    3.15
   5  -3 -10   17.31    1.18
   5   3 -10   17.90    1.19
  -5  -3  10   19.15    0.77
   5  -3  10   18.91    0.77
   5  -3  10   18.74    1.08
   5  -3 -11   33.22    1.75
   5   3 -11   32.12    1.74
   5  -3  11   33.97    1.60
   5  -3  11   31.67    1.17
  -5  -3  11   33.39    1.19
   5  -3  11   32.95    1.19
   5  -3  12    3.27    0.32
  -5  -3  12    3.21    0.34
   5  -3  12    3.64    0.35
   5   3 -12    2.52    0.63
   5  -3 -12    3.44    0.65
   5  -3  13   50.96    1.70
  -5  -3  13   53.51    1.75
   5  -3  13   53.99    1.76
   5   3 -13   48.46    2.36
   5  -3 -13   46.28    2.32
  -5  -3  14   10.81    0.57
   5  -3  14   12.27    0.60
   5  -3  14   11.00    0.52
  -5  -3  15   80.66    2.55
   5  -3  15   82.85    2.56
  -5  -3  16    2.96    0.28
   5  -3  16    3.14    0.30
   5   3  17   29.93    1.00
  -5   3  17   32.84    1.02
  -5  -3  17   30.37    1.01
   5  -3  17   30.52    1.01
   5  -3 -17   30.05    1.01
   5  -3  18    0.82    0.11
  -5  -4   0    0.03    0.34
   5  -4  -1   56.78    1.82
   5   4  -1   57.95    1.84
  -5  -4   1   58.25    2.09
  -5  -4  -2    0.48    0.34
  -5  -4   2    1.04    0.36
   5  -4  -2    0.94    0.23
   5   4  -2    0.79    0.23
   5   4  -3   34.49    1.26
   5  -4  -3   31.61    1.24
  -5  -4   3   34.87    1.39
  -5  -4  -3   33.29    1.39
  -5  -4   4    2.43    0.38
  -5  -4  -4    2.18    0.38
   5   4  -4    3.02    0.39
   5  -4  -4    3.19    0.38
   5  -4  -5   18.71    0.92
   5   4  -5   19.62    0.95
  -5  -4   5   20.23    0.95
  -5  -4  -5   19.89    0.95
   5  -4   5   18.13    0.83
   5  -4  -6   16.05    0.91
   5   4  -6   17.62    0.95
  -5  -4   6   18.88    1.03
  -5  -4  -6   17.19    0.89
  -5  -4   6   18.80    0.89
   5  -4   6   17.82    0.85
   5  -4   7   11.93    0.73
   5  -4   7   12.32    0.57
   5   4  -7   11.51    0.81
   5  -4  -7   13.33    0.84
  -5  -4   7   13.55    0.89
  -5  -4  -7   13.64    0.72
  -5  -4   7   13.45    0.57
   5  -4   7   12.85    0.55
   5  -4  -8   43.02    1.84
   5   4  -8   43.38    1.86
  -5  -4   8   48.59    1.93
  -5  -4   8   45.47    1.46
   5  -4   8   43.71    1.44
   5  -4   8   45.09    1.75
   5  -4   9    0.18    0.22
  -5  -4   9    0.16    0.24
   5  -4   9   -0.10    0.22
   5   4  -9    0.15    0.39
   5  -4  -9    0.48    0.41
  -5  -4   9    0.61    0.42
   5  -4   9   -0.12    0.29
  -5  -4   9    0.05    0.34
   5   4 -10    0.11    0.39
   5  -4 -10    0.59    0.43
  -5  -4  10    0.38    0.26
   5  -4  10    0.28    0.23
   5  -4  10    0.48    0.35
  -5  -4  10    0.05    0.36
   5  -4  10    0.28    0.24
   5  -4 -11   43.69    2.08
   5   4 -11   45.56    2.12
  -5  -4  11   46.08    1.58
   5  -4  11   46.93    1.59
  -5  -4  11   52.09    2.14
   5  -4  11   45.14    1.55
   5  -4 -12   -0.06    0.40
   5  -4  12   -0.04    0.21
  -5  -4  12   -0.06    0.39
  -5  -4  12    0.03    0.26
   5  -4  12    0.05    0.26
   5  -4  13    1.19    0.24
  -5  -4  13    1.41    0.29
   5  -4  13    1.01    0.29
  -5  -4  14    6.69    0.43
   5  -4  14    6.59    0.44
  -5  -4  15    1.82    0.26
   5  -4  15    2.12    0.28
   5  -4 -16    1.43    0.24
  -5  -4  16    1.95    0.24
   5  -4  16    2.10    0.24
   5  -4 -17    0.39    0.15
  -5   4  17    0.32    0.13
  -5  -4  17    0.35    0.14
  -5  -5   0    2.41    0.44
  -5  -5   1    0.07    0.33
  -5  -5  -2  240.98    7.54
  -5  -5   2  249.74    7.55
  -5  -5   3   16.86    0.95
  -5  -5  -3   16.00    0.93
  -5  -5   4    1.27    0.38
  -5  -5   4    1.11    0.36
  -5  -5  -4    1.52    0.37
  -5  -5  -5    6.46    0.37
   5  -5   5    4.62    0.34
  -5  -5   5    4.92    0.33
   5  -5   5    4.73    0.34
  -5  -5   5    3.90    0.55
  -5  -5   5    5.94    0.55
  -5  -5  -5    5.40    0.52
  -5  -5  -5    5.21    0.32
   5  -5   6  104.61    3.29
  -5  -5   6  109.43    3.30
   5  -5   6  103.98    3.29
   5  -5   6  107.79    3.24
  -5  -5   6  108.17    3.74
  -5  -5  -6  106.58    3.61
  -5  -5  -6  118.27    3.28
  -5  -5   7    8.25    0.45
   5  -5   7    8.40    0.47
   5  -5   7    7.88    0.46
  -5  -5   8  183.24    5.40
   5  -5   8  187.36    5.41
   5  -5   8  171.83    5.38
  -5  -5   8  194.13    5.91
  -5  -5   9   33.77    1.21
   5  -5   9   32.57    1.21
   5  -5   9   32.32    1.19
  -5  -5   9   36.52    1.64
   5  -5  10   10.94    0.58
  -5  -5  10   11.06    0.59
   5  -5  10   11.44    0.56
  -5  -5  10   12.31    0.93
  -5  -5  11   14.60    0.69
   5  -5  11   14.68    0.69
   5  -5  11   13.61    0.63
  -5  -5  11   14.02    1.01
   5  -5  12    5.11    0.35
  -5  -5  12    5.02    0.41
   5  -5  12    4.75    0.40
   5  -5  13    3.61    0.36
  -5  -5  13    4.13    0.37
  -5  -5  14   14.85    0.66
   5  -5  14   15.94    0.68
  -5  -5  15   18.95    0.72
   5  -5  15   19.28    0.74
  -5  -5  16    3.21    0.23
   5  -5  16    3.15    0.24
   5  -5  16    3.39    0.22
   5  -5 -16    3.27    0.26
   5  -5 -17    6.30    0.27
   5  -6   0    0.18    0.19
   5  -6   0    0.05    0.16
  -5  -6   0    0.16    0.16
  -5  -6   0    0.09    0.37
   5  -6   0    0.14    0.19
   5  -6   1   50.54    1.60
  -5  -6   1   49.01    1.60
   5  -6   1   51.73    1.64
   5  -6  -1   50.50    1.60
  -5  -6  -1   50.79    1.61
   5  -6  -1   50.90    1.63
  -5  -6   1   50.79    2.07
  -5  -6  -1   51.14    1.61
   5  -6   2    8.34    0.44
  -5  -6  -2    7.31    0.39
   5  -6  -2    8.18    0.39
   5  -6   2    8.10    0.41
   5  -6  -2    8.33    0.42
  -5  -6   2    7.78    0.42
   5  -6   2    7.59    0.43
  -5  -6  -2    8.12    0.73
  -5  -6   2    8.88    0.74
  -5  -6  -2    7.71    0.40
   5  -6   3   60.02    1.93
   5  -6  -3   59.07    1.90
  -5  -6  -3   62.38    1.89
   5  -6  -3   61.59    1.89
   5  -6  -3   60.58    1.90
  -5  -6   3   58.30    2.24
   5  -6   3   59.82    1.90
   5  -6   3   60.69    1.92
  -5  -6   3   60.00    1.92
  -5  -6  -3   56.51    2.32
  -5  -6   3   57.40    2.31
  -5  -6  -3   59.09    1.88
   5  -6  -4   13.14    0.55
   5  -6  -4   11.15    0.52
  -5  -6  -4   12.05    0.53
   5  -6   4   10.45    0.54
  -5  -6   4   11.70    0.55
   5  -6   4   11.34    0.55
  -5  -6   4   12.34    0.83
   5  -6   4   11.60    0.52
   5  -6  -4   11.20    0.52
   5  -6   4   11.30    0.47
  -5  -6  -4   12.49    0.84
  -5  -6  -4   11.48    0.52
  -5  -6  -5   42.39    1.34
   5  -6   5   37.95    1.33
  -5  -6   5   37.74    1.33
   5  -6   5   38.37    1.34
  -5  -6   5   37.23    1.69
   5  -6  -5   36.22    1.28
   5  -6   5   38.20    1.29
   5  -6   5   36.06    1.24
  -5  -6  -5   39.79    1.30
   5  -6   6    9.33    0.51
  -5  -6   6    9.25    0.52
   5  -6   6    9.21    0.51
   5  -6   6    9.05    0.44
  -5  -6   6   10.22    0.84
   5  -6  -6    9.60    0.45
   5  -6   6    9.76    0.44
  -5  -6  -6    9.26    0.46
  -5  -6   7   22.58    1.32
   5  -6   7   24.54    0.86
  -5  -6   7   23.96    0.94
   5  -6   7   24.85    0.95
   5  -6   7   22.53    0.92
  -5  -6   7   23.62    1.22
  -5  -6   8   23.58    1.32
  -5  -6   8   22.72    0.92
   5  -6   8   23.65    0.93
   5  -6   8   21.09    0.88
  -5  -6   8   20.77    1.18
  -5  -6   9  109.69    3.34
   5  -6   9  107.60    3.33
   5  -6   9  105.79    3.29
  -5  -6   9  104.11    3.74
  -5  -6  10   46.64    1.60
   5  -6  10   49.61    1.62
   5  -6  10   45.08    1.54
   5  -6  11    1.14    0.23
  -5  -6  11    1.37    0.31
   5  -6  11    1.39    0.30
  -5  -6  12   73.96    2.37
   5  -6  12   74.78    2.37
   5  -6  13    9.77    0.51
  -5  -6  13   10.01    0.51
   5  -6  13    9.32    0.44
  -5  -6  14   52.18    1.67
   5  -6  14   53.55    1.68
   5  -6 -14   54.51    1.69
   5  -6  14   50.25    1.62
  -5  -6  15    2.28    0.21
   5  -6  15    2.23    0.22
   5  -6 -15    2.06    0.23
  -5  -7   0    0.14    0.18
   5  -7   0    0.15    0.17
   5  -7   0    0.31    0.23
  -5  -7   0    0.35    0.21
   5  -7   0    0.33    0.21
  -5  -7   0    0.35    0.26
   5  -7   0    0.22    0.14
   5  -7  -1    0.34    0.19
  -5  -7  -1    0.30    0.18
   5  -7   1    0.25    0.19
  -5  -7   1    0.35    0.19
   5  -7  -1    0.10    0.22
   5  -7   1    0.32    0.22
   5  -7  -1    0.09    0.21
  -5  -7   1   -0.07    0.27
  -5  -7  -1    0.12    0.19
   5  -7  -1    0.40    0.15
   5  -7   1    0.02    0.13
  -5  -7   2   10.60    0.76
   5  -7   2   11.57    0.55
   5  -7  -2   11.86    0.56
   5  -7   2   12.35    0.53
  -5  -7   2   11.55    0.52
   5  -7   2   12.79    0.57
   5  -7  -2   10.88    0.52
  -5  -7  -2   10.12    0.51
   5  -7  -2   11.78    0.48
  -5  -7  -2   11.48    0.52
   5  -7   3    1.34    0.24
  -5  -7   3    1.26    0.22
   5  -7  -3    0.68    0.22
  -5  -7  -3    0.96    0.23
   5  -7   3    0.99    0.26
   5  -7  -3    1.29    0.26
   5  -7   3    1.30    0.23
  -5  -7   3    1.24    0.39
  -5  -7  -3    1.17    0.22
   5  -7   4  105.10    3.16
  -5  -7   4  101.26    3.15
   5  -7  -4  101.51    3.11
   5  -7   4  100.02    3.11
  -5  -7   4   95.10    3.52
  -5  -7  -4  104.74    3.11
   5  -7   4   99.60    3.13
   5  -7  -4  104.11    3.10
  -5  -7  -4  100.24    3.10
   5  -7   5    0.83    0.25
   5  -7   5    0.58    0.22
   5  -7  -5    0.76    0.23
  -5  -7   5    0.71    0.27
   5  -7   5    0.95    0.26
  -5  -7   5    0.89    0.41
   5  -7   5    0.75    0.18
   5  -7  -5    0.81    0.20
  -5  -7  -5    1.01    0.23
   5  -7   6    4.89    0.39
   5  -7  -6    4.85    0.33
   5  -7   6    4.93    0.34
   5  -7   6    4.79    0.41
  -5  -7   6    4.56    0.41
  -5  -7   6    4.52    0.60
   5  -7   6    4.42    0.29
   5  -7  -6    4.67    0.34
  -5  -7   7    8.61    0.52
   5  -7   7    7.74    0.50
  -5  -7   7    6.94    0.74
   5  -7   7    7.85    0.40
   5  -7   7    8.47    0.48
   5  -7   8    1.35    0.21
   5  -7   8    1.18    0.26
  -5  -7   8    1.38    0.31
   5  -7   8    1.05    0.29
   5  -7   9    0.80    0.20
   5  -7   9    0.67    0.22
  -5  -7   9    0.84    0.29
   5  -7   9    0.67    0.30
   5  -7  10    0.10    0.17
   5  -7  10    0.16    0.20
  -5  -7  10   -0.05    0.27
   5  -7  10    0.34    0.28
   5  -7 -11   18.40    0.75
  -5  -7  11   18.15    0.77
   5  -7  11   18.08    0.77
   5  -7 -12    0.21    0.21
  -5  -7  12    0.21    0.23
   5  -7  12    0.20    0.23
   5  -7 -13    9.82    0.46
  -5  -7  13    9.50    0.46
   5  -7  13    9.42    0.46
   5  -7 -14    0.02    0.16
  -5  -7  14   -0.02    0.15
   5  -7  14    0.03    0.16
   5  -7 -15    1.51    0.14
   5  -8   0    0.21    0.26
   5  -8   0   -0.15    0.27
   5  -8   0    0.23    0.16
  -5  -8   0   -0.11    0.22
   5  -8   0    0.21    0.22
  -5  -8   0    0.03    0.21
   5  -8  -1  169.21    5.04
   5  -8  -1  171.49    5.03
   5  -8   1  171.56    5.04
   5  -8  -1  169.50    5.00
  -5  -8  -1  169.43    4.99
   5  -8   1  173.43    5.01
  -5  -8   1  172.12    5.00
   5  -8  -1  162.38    4.94
   5  -8   1  164.73    4.93
  -5  -8  -1  166.29    5.01
  -5  -8   2    0.18    0.21
   5  -8  -2   -0.01    0.24
  -5  -8  -2    0.17    0.24
   5  -8   2    0.44    0.22
   5  -8   2    0.71    0.26
   5  -8  -2    0.50    0.27
   5  -8   2    0.25    0.27
  -5  -8   2    0.38    0.30
  -5  -8  -2    0.66    0.23
   5  -8  -3    0.78    0.25
  -5  -8  -3    0.24    0.24
   5  -8   3    0.64    0.23
  -5  -8   3    0.54    0.23
   5  -8   3    0.87    0.24
   5  -8  -3    0.55    0.26
  -5  -8   3    0.37    0.32
  -5  -8  -3    0.41    0.23
   5  -8   3    0.63    0.28
   5  -8   4    3.17    0.32
  -5  -8   4    3.57    0.33
   5  -8   4    4.21    0.38
  -5  -8   4    2.84    0.49
  -5  -8  -4    3.38    0.32
  -5  -8   5   25.94    1.35
  -5  -8  -5   26.85    0.98
   5  -8   5   26.85    1.01
   5  -8   5   26.88    1.00
  -5  -8   5   25.80    0.99
  -5  -8   6    0.12    0.28
   5  -8   6    0.14    0.28
   5  -8   6   -0.03    0.24
  -5  -8   7    3.98    0.38
   5  -8   7    3.53    0.37
   5  -8   7    3.39    0.33
  -5  -8   8    7.37    0.47
   5  -8   8    6.61    0.46
   5  -8   8    6.45    0.40
  -5  -8   9   17.12    0.75
   5  -8   9   17.37    0.75
   5  -8   9   16.85    0.66
  -5  -8  10    0.18    0.24
   5  -8  10    0.39    0.24
  -5  -8  11    5.58    0.36
   5  -8  11    5.02    0.36
  -5  -8  12    0.07    0.17
   5  -8  12   -0.03    0.17
  -5  -8  13    9.59    0.38
   5  -9   0  151.18    4.45
   5  -9   0  147.14    4.43
  -5  -9   0  146.27    4.42
  -5  -9  -1    0.03    0.23
   5  -9   1    0.55    0.29
   5  -9  -1   -0.23    0.27
  -5  -9  -1   -0.44    0.27
   5  -9   1    0.33    0.23
  -5  -9   1    0.36    0.22
   5  -9   2  136.89    4.13
  -5  -9  -2  133.08    4.10
   5  -9  -2  139.90    4.12
   5  -9   2  138.12    4.11
  -5  -9   2  136.49    4.11
  -5  -9  -2  137.46    4.12
  -5  -9  -3   15.13    0.66
   5  -9   3   13.94    0.67
   5  -9   3   13.86    0.64
  -5  -9   3   13.97    0.65
  -5  -9  -3   13.86    0.65
  -5  -9  -4   74.81    2.23
   5  -9   4   64.60    2.21
   5  -9   4   68.37    2.21
  -5  -9   4   67.74    2.21
  -5  -9   4   66.76    2.23
  -5  -9  -4   68.57    2.21
   5  -9   5    4.50    0.34
   5  -9   5    4.58    0.35
  -5  -9   5    4.65    0.35
  -5  -9   5    4.68    0.37
   5  -9   6   84.23    2.64
   5  -9   6   86.53    2.65
  -5  -9   6   87.81    2.66
  -5  -9   6   85.31    2.67
  -5  -9   7   23.92    0.88
   5  -9   7   23.04    0.85
   5  -9   7   23.82    0.87
  -5  -9   7   23.16    0.89
   5  -9   8   44.32    1.42
  -5  -9   8   46.47    1.44
   5  -9   8   42.80    1.38
  -5  -9   8   41.62    1.43
   5  -9   9   22.93    0.82
  -5  -9   9   23.72    0.83
  -5  -9   9   22.53    0.83
  -5  -9  10   52.48    1.58
   5  -9  10   50.04    1.56
  -5  -9  10   48.95    1.57
  -5  -9  11   18.40    0.63
  -5  -9  12   10.56    0.37
   5 -10   0   -0.24    0.22
  -5 -10   0   -0.09    0.22
  -5 -10  -1    0.32    0.22
   5 -10   1   -0.14    0.21
  -5 -10   1    0.08    0.22
  -5 -10   2    0.38    0.22
   5 -10   2    0.67    0.22
  -5 -10  -2    3.77    0.33
  -5 -10  -2    0.28    0.22
   5 -10   3    0.08    0.19
  -5 -10   3    0.25    0.19
  -5 -10  -3    0.07    0.20
  -5 -10   3    0.01    0.20
   5 -10   4    1.08    0.21
  -5 -10   4    1.20    0.22
  -5 -10   4    1.29    0.23
   5 -10   5    4.68    0.30
  -5 -10   5    4.64    0.31
  -5 -10   5    3.74    0.30
   5 -10   6    1.02    0.19
  -5 -10   6    0.96    0.20
  -5 -10   6    0.95    0.20
   5 -10   7    3.13    0.23
  -5 -10   7    3.39    0.24
  -5 -10   7    2.65    0.23
   5 -10   8    5.36    0.27
  -5 -10   8    4.91    0.27
  -5 -10   8    4.98    0.27
  -5 -10   9    2.96    0.20
  -5 -10  10    0.76    0.10
  -5 -11   0   76.30    2.34
   5 -11   0   78.66    2.35
  -5 -11   1    0.82    0.19
   5 -11   1    1.31    0.21
  -5 -11   2   36.02    1.13
   5 -11   2   35.37    1.13
  -5 -11   2   33.33    1.13
   5 -11   3   -0.19    0.17
  -5 -11   3   -0.25    0.18
  -5 -11   3    0.04    0.15
   5 -11   4   28.55    0.93
  -5 -11   4   29.77    0.94
  -5 -11   4   27.79    0.94
   5 -11   5   -0.02    0.13
  -5 -11   5    0.17    0.14
  -5 -11   5    0.30    0.13
  -5 -11   6   57.49    1.69
  -5 -11   6   55.48    1.69
  -5 -11   7    2.15    0.14
   6   0   0 9999.00  283.40
   6   0   1   -0.11    0.38
   6   0  -1    0.02    0.37
   6   0  -2  272.86    8.08
   6   0  -3    0.23    0.33
   6   0  -4  355.04   10.50
   6   0  -5   -0.33    0.41
  -6   0   5   -0.14    0.22
   6   0  -6  321.28    9.85
  -6   0   6  330.50    9.59
  -6   0   7    0.22    0.22
   6   0  -7   -0.32    0.50
  -6   0   8  240.48    7.11
   6   0  -8  228.96    7.45
  -6   0   9   -0.15    0.31
   6   0  -9    0.11    0.49
  -6   0  10   69.27    2.57
   6   0 -10   66.18    2.79
  -6   0  11   -0.28    0.38
   6   0 -11   -0.46    0.57
  -6   0  12   77.24    2.92
   6   0 -12   74.20    3.17
  -6   0  13    0.37    0.39
   6   0 -13    0.98    0.50
  -6   0  14   11.28    0.57
   6   0  14   12.26    0.59
   6   0 -15    0.06    0.19
  -6   0  15    0.12    0.24
   6   0  15   -0.01    0.23
  -6   0  16    7.52    0.43
   6   0  16    7.17    0.42
  -6   0  17    0.07    0.17
   6   0  17    0.05    0.18
   6   0  17    0.12    0.14
  -6   0  18    2.60    0.18
   6  -1   0   -0.02    0.32
   6   1   0    0.04    0.32
   6  -1   1  275.68    8.20
   6   1   1  283.70    8.21
   6  -1  -1  276.69    8.23
   6   1  -1  279.62    8.23
   6   1  -2    5.97    0.49
   6  -1  -2    5.11    0.50
   6  -1  -3    9.10    0.63
   6   1  -3    7.89    0.58
   6  -1  -4   20.75    1.02
   6   1  -4   21.68    1.03
  -6   1   5    0.53    0.19
   6  -1  -5    0.89    0.40
   6   1  -5    1.00    0.40
   6   1  -6   37.51    1.65
   6  -1  -6   40.58    1.67
  -6   1   6   41.46    1.37
  -6  -1   6   38.03    1.48
   6  -1  -7   24.37    1.27
   6   1  -7   24.04    1.26
  -6  -1   7   24.43    1.08
   6   1  -8   40.01    1.85
   6  -1  -8   40.67    1.87
  -6   1   8   42.61    1.67
  -6  -1   8   43.85    1.67
  -6   1   9    1.45    0.36
   6  -1  -9    0.75    0.50
   6   1  -9    1.80    0.57
  -6  -1  10   13.14    0.89
  -6   1  10   12.54    0.83
   6   1 -10   11.42    1.01
   6  -1 -10   11.20    0.99
   6   1 -11   25.10    1.51
   6  -1 -11   23.66    1.49
  -6  -1  11   26.69    1.37
  -6   1  11   24.69    1.28
  -6  -1  11   24.76    0.92
   6  -1  11   24.11    0.91
   6  -1 -12    1.51    0.52
   6   1 -12    1.87    0.56
  -6   1  12    0.71    0.36
  -6  -1  12    0.53    0.41
   6  -1  12    0.83    0.25
  -6  -1  12    0.74    0.24
   6  -1 -13    1.79    0.62
   6   1 -13    1.41    0.58
  -6  -1  13    1.63    0.28
   6  -1  13    1.30    0.28
  -6  -1  13    0.93    0.40
  -6   1  13    1.28    0.42
  -6  -1  14    0.92    0.27
   6  -1  14    0.93    0.26
  -6  -1  15    4.82    0.37
  -6   1  15    4.74    0.37
   6   1  15    4.47    0.36
   6  -1  15    4.11    0.36
   6  -1 -16    9.67    0.47
  -6  -1  16   10.87    0.51
   6  -1  16   11.12    0.51
  -6   1  16   11.00    0.51
   6   1  16   10.72    0.50
   6  -1  16    9.63    0.46
  -6  -1  17    0.40    0.18
   6  -1  17    0.29    0.17
  -6   1  17    0.47    0.19
   6   1  17    0.44    0.18
  -6   1  18    8.10    0.33
  -6  -1  18    8.35    0.33
   6  -1  18    8.66    0.32
   6  -2   0  503.93   14.47
   6   2   0  496.47   14.47
   6   2   1    2.29    0.35
   6   2  -1    2.99    0.38
   6  -2   1    2.21    0.34
   6  -2  -1    2.16    0.36
   6  -2  -2    0.36    0.31
   6   2  -2    0.61    0.31
   6   2  -3    7.72    0.59
   6  -2  -3    8.73    0.60
  -6   2   4  180.91    5.28
   6  -2  -4  194.62    5.68
   6   2  -4  191.94    5.67
   6   2  -5    2.35    0.42
   6  -2  -5    2.73    0.46
  -6  -2  -6    7.66    0.49
  -6  -2   6    7.71    0.48
  -6  -2   6    8.28    0.59
   6  -2  -6    7.76    0.67
   6   2  -6    7.01    0.65
  -6  -2   7   40.73    1.60
   6   2  -7   37.06    1.69
   6  -2  -7   38.96    1.72
  -6  -2  -7   39.92    1.42
   6  -2   7   37.96    1.56
  -6   2   7   40.86    1.50
   6   2  -8  121.55    4.32
   6  -2  -8  123.57    4.33
   6  -2   8  126.99    4.16
  -6   2   8  130.03    4.07
  -6  -2   8  132.03    4.19
   6   2  -9   31.93    1.60
   6  -2  -9   29.81    1.57
  -6  -2   9   30.09    1.06
   6  -2   9   30.80    1.06
  -6   2   9   32.95    1.36
  -6  -2   9   30.54    1.41
   6   2 -10   15.10    1.09
   6  -2 -10   15.50    1.13
  -6  -2  10   18.24    1.08
  -6   2  10   17.41    0.95
  -6  -2  10   15.21    0.64
   6  -2  10   14.72    0.64
   6   2 -11   56.51    2.49
   6  -2 -11   55.74    2.48
  -6  -2  11   57.11    2.34
  -6   2  11   57.37    2.18
  -6  -2  11   53.86    1.79
   6  -2  11   54.61    1.80
   6   2 -12   -0.07    0.51
   6  -2 -12    0.14    0.50
  -6  -2  12    0.83    0.42
  -6  -2  12    0.01    0.23
   6  -2  12    0.44    0.24
   6   2 -13   20.58    1.46
  -6  -2  13   22.48    0.89
   6  -2  13   23.49    0.90
  -6  -2  13   24.34    1.38
   6  -2  14    3.24    0.32
  -6  -2  14    3.89    0.35
   6  -2  14    3.03    0.33
   6  -2  15   75.21    2.35
  -6  -2  15   76.61    2.39
   6  -2  15   76.58    2.39
  -6  -2  16    3.91    0.31
   6  -2  16    3.70    0.32
  -6   2  16    4.28    0.32
   6   2  16    4.27    0.31
   6  -2 -16    4.12    0.32
  -6  -2  17   29.68    0.99
  -6   2  17   31.35    1.00
   6  -2 -17   29.28    0.98
   6  -2  18    0.16    0.10
   6   3   0   -0.09    0.23
   6  -3   0   -0.05    0.25
   6   3  -1    8.46    0.53
   6  -3  -1    8.57    0.53
   6   3  -2    0.06    0.27
   6  -3  -2    0.19    0.27
   6  -3  -3    3.09    0.41
   6   3  -3    4.02    0.44
  -6  -3   3    3.69    0.42
   6  -3  -4    0.30    0.32
   6   3  -4    0.03    0.31
  -6   3   4    0.04    0.13
  -6  -3  -4    0.28    0.31
  -6  -3   4    0.25    0.29
   6   3  -5   54.49    2.03
   6  -3  -5   53.23    2.02
  -6   3   5   52.84    1.75
  -6  -3  -5   57.78    1.98
  -6  -3   5   57.50    1.96
   6   3  -6    1.11    0.38
   6  -3  -6    1.13    0.38
  -6  -3   6    1.30    0.39
  -6   3   6    1.48    0.23
  -6  -3   6    1.13    0.27
  -6  -3  -6    2.22    0.34
  -6  -3   7  151.52    4.75
   6   3  -7  143.13    4.80
   6  -3  -7  143.86    4.79
  -6  -3  -7  146.91    4.53
   6  -3   7  145.81    4.63
   6   3  -8    8.15    0.72
   6  -3  -8    8.69    0.74
  -6  -3   8    6.53    0.38
   6  -3   8    6.92    0.39
   6  -3   8    7.18    0.60
  -6  -3   8    6.90    0.66
  -6  -3   9   24.03    1.23
  -6  -3   9   21.62    0.82
   6  -3   9   21.52    0.83
   6  -3  -9   21.59    1.28
   6   3  -9   21.24    1.27
  -6  -3  10    3.78    0.32
   6  -3  10    2.60    0.29
   6  -3 -10    3.01    0.62
   6   3 -10    3.26    0.62
   6  -3  11    0.22    0.25
  -6  -3  11    1.52    0.27
   6  -3  11    2.01    0.29
   6   3 -11    1.01    0.50
   6  -3 -11    0.38    0.45
   6  -3  12    0.12    0.23
  -6  -3  12    0.25    0.24
   6  -3  12    0.19    0.23
   6   3 -12   -0.20    0.46
   6  -3 -12    0.92    0.47
   6  -3  13    1.20    0.26
  -6  -3  13    0.64    0.26
   6  -3  13    0.86    0.27
   6  -3 -13    0.72    0.48
   6  -3  14    9.77    0.49
  -6  -3  14    9.56    0.52
   6  -3  14   10.28    0.53
   6  -3  15    0.55    0.19
  -6  -3  15    0.76    0.24
   6  -3  15    0.76    0.24
  -6  -3  16    6.79    0.38
   6  -3  16    7.08    0.39
  -6   3  16    8.56    0.41
   6   3  16    7.96    0.39
   6  -3 -16    7.41    0.41
   6  -3 -17    0.25    0.15
   6  -3  17    0.38    0.15
  -6   3  17    0.22    0.15
  -6  -3  17    0.22    0.14
  -6  -4   0   34.18    1.45
   6   4  -1    0.49    0.22
   6  -4  -1    0.29    0.20
  -6  -4   1    0.31    0.33
   6  -4  -2   42.01    1.52
   6   4  -2   43.68    1.54
  -6  -4   2   45.72    1.74
  -6  -4  -2   43.53    1.73
  -6  -4   3    3.21    0.45
  -6  -4  -3    4.09    0.50
   6   4  -3    4.16    0.42
   6  -4  -3    3.34    0.38
  -6  -4  -4   11.71    0.72
  -6  -4   4    9.39    0.68
   6   4  -4   12.33    0.70
   6  -4  -4   10.07    0.64
  -6  -4   5   12.97    0.76
  -6  -4  -5   12.75    0.77
   6  -4  -5   12.20    0.75
   6   4  -5   13.21    0.78
  -6  -4   6   29.11    1.36
   6   4  -6   28.60    1.31
   6  -4  -6   27.75    1.28
  -6  -4  -6   30.16    1.26
  -6  -4   6   30.16    1.24
   6  -4   6   26.79    1.00
   6  -4   7    5.09    0.36
   6   4  -7    4.25    0.56
   6  -4  -7    4.38    0.55
  -6  -4   7    5.29    0.60
  -6  -4   7    5.00    0.46
  -6  -4  -7    5.75    0.49
  -6  -4   7    5.26    0.33
   6  -4   7    5.17    0.34
  -6  -4   8   61.55    2.36
   6  -4  -8   55.07    2.27
   6   4  -8   60.43    2.35
  -6  -4   8   60.43    1.88
   6  -4   8   60.37    1.88
   6  -4   8   53.69    1.87
   6   4  -9    1.06    0.44
   6  -4  -9    0.54    0.38
  -6  -4   9    0.86    0.24
   6  -4   9    0.83    0.23
  -6  -4   9    0.44    0.39
   6  -4   9    0.84    0.23
   6   4 -10    0.22    0.41
   6  -4 -10    0.11    0.40
  -6  -4  10    0.10    0.39
  -6  -4  10    0.22    0.24
   6  -4  10    0.33    0.23
   6  -4  10    0.13    0.22
   6   4 -11   69.48    2.93
   6  -4 -11   69.65    2.91
  -6  -4  11   79.65    2.97
  -6  -4  11   73.71    2.37
   6  -4  11   73.92    2.37
   6  -4  11   76.12    2.37
   6  -4 -12    0.06    0.39
  -6  -4  12    0.73    0.40
  -6  -4  12    0.59    0.25
   6  -4  12    0.52    0.25
   6  -4  12    0.52    0.24
  -6  -4  13    7.72    0.47
   6  -4  13    8.56    0.49
   6  -4  13    7.65    0.44
  -6  -4  14    1.41    0.27
   6  -4  14    1.30    0.27
   6  -4  14    1.36    0.22
  -6  -4  15    4.11    0.32
   6  -4  15    4.68    0.33
   6  -4 -16    0.25    0.19
  -6  -4  16    0.15    0.16
   6  -4 -17    6.74    0.31
  -6   4  17    6.10    0.27
  -6  -5   0   -0.07    0.36
  -6  -5   1   85.05    3.01
  -6  -5  -2    0.33    0.32
  -6  -5   2    0.81    0.38
  -6  -5   3   75.39    2.71
  -6  -5  -3   75.04    2.72
   6  -5   4    0.79    0.22
   6  -5  -4    0.78    0.18
   6  -5   4    0.94    0.18
  -6  -5   4    0.66    0.36
  -6  -5  -4    1.28    0.40
  -6  -5   4    0.92    0.36
  -6  -5  -5   30.78    0.97
   6  -5   5   24.83    0.97
  -6  -5   5   26.00    0.95
   6  -5   5   25.04    0.95
  -6  -5   5   23.75    1.28
   6  -5   5   26.65    0.92
   6  -5  -5   26.52    0.92
  -6  -5   5   27.01    1.27
  -6  -5  -5   25.83    1.26
  -6  -5  -5   28.79    0.94
   6  -5   6   19.39    0.82
  -6  -5   6   19.91    0.79
   6  -5   6   20.93    0.81
   6  -5   6   21.18    0.75
  -6  -5  -6   21.23    1.08
  -6  -5   6   20.49    1.06
  -6  -5  -6   22.47    0.79
   6  -5   7   12.74    0.63
  -6  -5   7   14.14    0.62
   6  -5   7   14.53    0.63
   6  -5   8   31.18    1.19
  -6  -5   8   34.28    1.19
   6  -5   8   33.35    1.19
  -6  -5   8   36.04    1.68
  -6  -5   9   26.13    1.41
  -6  -5   9   25.74    0.98
   6  -5   9   26.60    0.99
   6  -5   9   23.43    0.97
  -6  -5   9   25.50    1.37
  -6  -5  10    1.91    0.31
   6  -5  10    1.64    0.30
   6  -5  10    1.75    0.29
  -6  -5  10    2.13    0.48
  -6  -5  11   14.11    0.65
   6  -5  11   12.54    0.63
   6  -5  11   13.18    0.62
  -6  -5  11   13.68    1.00
   6  -5  12    1.25    0.25
  -6  -5  12    1.58    0.29
   6  -5  12    1.55    0.29
   6  -5  13    5.11    0.35
  -6  -5  13    5.83    0.40
   6  -5  13    5.70    0.40
  -6  -5  14    9.21    0.47
   6  -5  14    8.75    0.46
  -6  -5  15    1.90    0.23
   6  -5  15    1.95    0.23
   6  -5 -15    1.86    0.26
   6  -5  15    2.13    0.22
  -6  -5  16    7.35    0.33
   6  -5  16    7.91    0.33
   6  -5 -16    7.47    0.36
   6  -6   0  521.11   14.93
  -6  -6   0  525.69   15.50
   6  -6   0  513.48   14.89
  -6  -6   0  525.25   14.90
   6  -6   1    0.27    0.21
   6  -6  -1    0.18    0.18
   6  -6  -1    0.05    0.16
  -6  -6  -1    0.03    0.15
   6  -6   1    0.18    0.15
  -6  -6   1    0.14    0.16
  -6  -6   1    0.09    0.35
  -6  -6  -1    0.13    0.17
   6  -6   2  216.88    6.42
  -6  -6   2  214.58    6.41
   6  -6   2  224.74    6.46
   6  -6  -2  216.41    6.44
   6  -6  -2  224.03    6.42
  -6  -6  -2  224.16    6.42
   6  -6  -2  227.63    6.45
   6  -6   2  222.04    6.44
  -6  -6  -2  224.48    7.01
   6  -6   2  216.59    6.38
  -6  -6   2  217.01    6.98
  -6  -6  -2  220.78    6.43
  -6  -6  -3    1.60    0.22
   6  -6  -3    1.02    0.21
  -6  -6  -3    1.10    0.21
   6  -6   3    1.28    0.27
   6  -6  -3    1.43    0.23
   6  -6   3    1.49    0.23
   6  -6  -3    1.49    0.24
  -6  -6  -3    1.09    0.43
  -6  -6   3    1.38    0.41
  -6  -6   3    1.55    0.41
   6  -6   3    1.37    0.19
  -6  -6   3    1.30    0.23
   6  -6   3    1.84    0.25
   6  -6  -4  199.03    5.95
   6  -6  -4  212.73    5.95
  -6  -6  -4  217.95    5.97
   6  -6   4  202.86    6.00
  -6  -6   4  196.93    5.97
   6  -6   4  201.32    5.98
   6  -6  -4  209.06    5.96
   6  -6   4  199.46    5.95
  -6  -6   4  193.90    6.41
   6  -6   4  195.50    5.91
  -6  -6  -4  202.09    6.48
  -6  -6   4  203.08    6.47
  -6  -6  -4  212.41    5.96
   6  -6  -4  195.16    5.94
  -6  -6  -5    3.47    0.29
   6  -6   5    2.76    0.33
  -6  -6   5    3.35    0.31
   6  -6   5    3.34    0.33
   6  -6  -5    3.20    0.28
   6  -6   5    2.68    0.28
   6  -6   5    2.75    0.26
  -6  -6   5    2.34    0.50
  -6  -6  -5    3.21    0.53
   6  -6   6  108.45    3.32
  -6  -6   6  113.02    3.32
   6  -6   6  110.79    3.32
   6  -6  -6  106.07    3.24
  -6  -6   6  105.79    3.80
   6  -6   6  106.22    3.25
   6  -6   6  103.00    3.23
  -6  -6  -6  111.53    3.27
   6  -6   7    3.14    0.27
  -6  -6   7    2.80    0.32
   6  -6   7    2.63    0.32
  -6  -6   7    3.08    0.56
   6  -6   7    2.75    0.26
   6  -6   7    2.99    0.34
   6  -6   8   92.69    3.03
  -6  -6   8   98.00    3.04
   6  -6   8  102.03    3.05
  -6  -6   8  102.26    3.61
   6  -6   8   97.39    2.95
  -6  -6   8   93.65    3.44
  -6  -6   9  100.63    3.07
   6  -6   9   96.40    3.06
  -6  -6   9   97.65    3.51
   6  -6   9   97.68    3.05
  -6  -6  10   46.54    1.53
   6  -6  10   43.12    1.52
  -6  -6  10   40.70    1.89
   6  -6  10   43.10    1.49
   6  -6  11   12.19    0.55
  -6  -6  11   12.53    0.61
   6  -6  11   12.63    0.61
   6  -6  11   12.67    0.58
   6  -6  12   39.08    1.27
   6  -6  12   37.65    1.27
  -6  -6  12   37.47    1.32
   6  -6  12   38.21    1.33
  -6  -6  13   36.91    1.28
   6  -6  13   37.50    1.29
   6  -6 -13   39.44    1.31
   6  -6  13   38.19    1.24
  -6  -6  14    8.13    0.41
   6  -6  14    8.02    0.42
   6  -6 -14    8.16    0.44
   6  -6  14    8.95    0.38
  -6  -6  15   10.92    0.43
   6  -7   0   -0.07    0.24
   6  -7   0   -0.17    0.21
  -6  -7   0    0.14    0.21
   6  -7   0   -0.07    0.17
  -6  -7   0   -0.09    0.18
  -6  -7   0   -0.21    0.38
  -6  -7   1   29.94    1.37
   6  -7  -1   30.22    1.10
   6  -7   1   30.56    1.10
   6  -7  -1   29.69    1.09
   6  -7  -1   31.37    1.06
  -6  -7  -1   30.82    1.05
   6  -7   1   30.03    1.05
  -6  -7   1   30.42    1.05
  -6  -7  -1   30.59    1.07
   6  -7  -1   29.03    0.99
   6  -7   2    1.02    0.26
   6  -7  -2    0.26    0.21
  -6  -7  -2    0.43    0.20
   6  -7   2    0.77    0.21
  -6  -7   2    1.00    0.21
   6  -7   2    1.20    0.25
   6  -7  -2    0.94    0.25
  -6  -7   2    0.67    0.34
  -6  -7  -2    0.77    0.21
   6  -7  -3    1.65    0.30
   6  -7   3    1.54    0.30
  -6  -7   3    1.25    0.22
   6  -7  -3    0.99    0.23
  -6  -7  -3    1.04    0.23
   6  -7   3    0.93    0.21
   6  -7  -3    1.38    0.26
   6  -7   3    1.04    0.23
  -6  -7   3    0.80    0.37
  -6  -7  -3    1.30    0.23
  -6  -7   4    1.61    0.28
   6  -7   4    1.44    0.28
   6  -7   4    1.80    0.30
  -6  -7  -4    2.55    0.31
   6  -7   4    1.58    0.27
   6  -7  -4    1.81    0.27
   6  -7   4    1.83    0.21
  -6  -7   4    2.12    0.47
  -6  -7  -4    1.80    0.25
   6  -7   5   -0.08    0.24
   6  -7  -5    0.19    0.19
  -6  -7  -5    0.32    0.19
   6  -7   5    0.23    0.21
   6  -7  -5    0.20    0.21
   6  -7   5    0.18    0.17
  -6  -7   5   -0.10    0.36
  -6  -7   5    0.16    0.24
   6  -7   5    0.18    0.24
   6  -7   6    1.04    0.30
   6  -7  -6    0.81    0.22
   6  -7   6    0.95    0.22
   6  -7  -6    0.72    0.22
   6  -7   6    0.84    0.19
  -6  -7   6    0.25    0.36
  -6  -7   6    1.25    0.29
   6  -7   6    0.83    0.28
   6  -7  -7    1.62    0.25
  -6  -7   7    0.73    0.42
   6  -7   7    1.26    0.21
  -6  -7   7    1.22    0.30
   6  -7   7    1.68    0.31
   6  -7   7    1.34    0.28
   6  -7  -8    0.27    0.23
   6  -7   8    0.23    0.19
  -6  -7   8    0.25    0.26
   6  -7   8    0.37    0.26
   6  -7   8    0.25    0.24
   6  -7  -9    0.16    0.23
   6  -7   9    0.33    0.19
  -6  -7   9    0.19    0.26
   6  -7   9    0.16    0.26
   6  -7   9    0.18    0.22
  -6  -7  10    4.24    0.36
   6  -7  10    4.08    0.36
   6  -7  10    3.87    0.28
   6  -7 -10    4.23    0.35
   6  -7  10    4.08    0.33
   6  -7  11    9.87    0.46
  -6  -7  11   10.87    0.53
   6  -7  11   10.51    0.53
   6  -7 -11   10.38    0.52
  -6  -7  12    2.77    0.28
   6  -7  12    2.93    0.29
   6  -7 -12    2.84    0.29
  -6  -7  13    9.03    0.41
   6  -7  13    8.22    0.42
   6  -7 -13    8.88    0.42
  -6  -7  14    3.29    0.21
   6  -7 -14    3.38    0.23
   6  -8   0    0.19    0.25
   6  -8   0    0.39    0.21
  -6  -8   0    0.51    0.20
   6  -8   0    0.02    0.28
  -6  -8   0    0.07    0.23
   6  -8  -1    4.15    0.40
  -6  -8   1    3.83    0.32
   6  -8  -1    4.11    0.40
   6  -8   1    4.36    0.34
   6  -8  -1    3.58    0.33
   6  -8   1    4.59    0.41
  -6  -8  -1    3.60    0.33
  -6  -8   1    3.96    0.37
  -6  -8  -1    3.86    0.35
  -6  -8   2    0.50    0.25
   6  -8   2    0.40    0.27
   6  -8   2    0.41    0.21
   6  -8  -2    0.41    0.23
  -6  -8  -2    0.04    0.24
  -6  -8   2    0.37    0.21
   6  -8  -2    0.11    0.26
   6  -8   2    0.72    0.27
  -6  -8   2    0.68    0.33
  -6  -8  -2    0.27    0.22
   6  -8   3    0.14    0.28
   6  -8  -3    0.59    0.27
   6  -8   3    0.17    0.25
   6  -8  -3    0.70    0.26
  -6  -8  -3    0.17    0.23
   6  -8   3    0.27    0.21
  -6  -8   3    0.08    0.21
  -6  -8   3    0.21    0.32
  -6  -8  -3    0.03    0.22
   6  -8   4   57.22    1.89
  -6  -8   4   56.98    1.90
   6  -8   4   57.46    1.94
   6  -8  -4   67.36    1.95
  -6  -8  -4   64.78    1.94
  -6  -8  -4   55.46    1.89
   6  -8   4   57.63    1.91
  -6  -8   4   54.29    2.30
   6  -8  -4   58.33    1.92
   6  -8   5   21.87    0.82
  -6  -8   5   20.10    0.82
   6  -8   5   21.14    0.87
  -6  -8  -5   20.05    0.81
  -6  -8   5   19.07    1.17
   6  -8   6   17.86    0.73
  -6  -8   6   18.33    0.75
   6  -8   6   17.27    0.76
   6  -8   7   26.38    0.99
   6  -8   7   23.41    0.94
  -6  -8   8   11.86    0.58
   6  -8   8   10.75    0.57
   6  -8   8   10.91    0.53
  -6  -8   9   48.02    1.59
   6  -8   9   49.97    1.60
   6  -8   9   45.56    1.53
  -6  -8  10    0.56    0.23
   6  -8  10    0.58    0.24
   6  -8  10    0.20    0.17
   6  -8  11   18.76    0.72
  -6  -8  12    0.08    0.14
  -6  -8  13   58.75    1.74
   6  -9   0   -0.10    0.25
  -6  -9   0   -0.19    0.25
  -6  -9   0   -0.11    0.22
   6  -9   1    8.30    0.49
   6  -9  -1    7.69    0.43
  -6  -9  -1    7.42    0.44
   6  -9   1    7.84    0.43
  -6  -9   1    6.95    0.42
  -6  -9   1    7.44    0.45
  -6  -9  -1    7.43    0.44
  -6  -9  -2    4.89    0.38
   6  -9   2    4.75    0.42
   6  -9  -2    6.04    0.39
   6  -9   2    5.23    0.36
  -6  -9   2    5.46    0.37
  -6  -9  -2    5.71    0.39
   6  -9   3   24.21    0.99
   6  -9   3   24.47    0.95
  -6  -9   3   24.53    0.95
  -6  -9  -3   23.38    0.95
   6  -9   4    3.75    0.31
  -6  -9   4    3.06    0.30
  -6  -9  -4    3.36    0.31
   6  -9   4    2.74    0.34
   6  -9   5    4.10    0.36
   6  -9   5    4.56    0.33
  -6  -9   5    4.71    0.34
   6  -9   6   12.73    0.58
   6  -9   6   14.06    0.58
  -6  -9   6   12.81    0.57
  -6  -9   6   12.30    0.60
   6  -9   7   14.23    0.59
   6  -9   7   14.04    0.58
  -6  -9   7   14.35    0.59
  -6  -9   7   13.52    0.61
   6  -9   8   14.35    0.57
   6  -9   8   15.26    0.58
  -6  -9   8   15.48    0.59
   6  -9   9    2.58    0.20
   6  -9   9    2.89    0.23
  -6  -9   9    2.98    0.24
  -6  -9   9    2.89    0.25
  -6  -9  10   30.38    0.97
  -6  -9  10   28.92    0.98
  -6  -9  11    0.43    0.12
  -6  -9  11    0.42    0.13
  -6 -10   0    9.84    0.49
   6 -10   0    9.83    0.47
  -6 -10   0   10.02    0.47
  -6 -10  -1    0.12    0.20
   6 -10   1   -0.25    0.22
  -6 -10   1   -0.04    0.22
  -6 -10  -2    0.20    0.21
   6 -10   2    0.06    0.21
  -6 -10   2   -0.15    0.22
  -6 -10  -3    0.14    0.18
   6 -10   3   -0.31    0.21
  -6 -10   3   -0.45    0.22
  -6 -10   4    6.16    0.35
   6 -10   4    6.01    0.35
  -6 -10   5    0.14    0.18
   6 -10   5    0.06    0.16
  -6 -10   5    0.33    0.17
  -6 -10   6    1.01    0.20
  -6 -10   6    0.78    0.18
   6 -10   6    0.77    0.17
  -6 -10   7    0.13    0.15
  -6 -10   7    0.10    0.15
  -6 -10   8    2.67    0.21
  -6 -10   8    2.97    0.19
  -6 -10   9    1.30    0.14
  -6 -10   9    1.43    0.13
  -6 -11   0    6.49    0.35
  -6 -11  -1    1.79    0.21
  -6 -11   1    4.40    0.26
  -6 -11   2    1.41    0.19
  -6 -11   3   -0.04    0.14
  -6 -11   3   -0.21    0.15
  -6 -11   4    2.13    0.19
  -6 -11   4    1.96    0.18
  -6 -11   5    0.01    0.12
  -6 -11   5   -0.20    0.13
  -6 -11   6   10.03    0.37
  -6 -11   6    9.55    0.35
  -6 -11   7    0.99    0.10
   7   0   0    0.89    0.44
   7   0  -1    0.16    0.35
   7   0   1   -0.08    0.36
   7   0  -2    1.40    0.43
   7   0  -3   -0.03    0.37
   7   0  -4   87.98    2.97
   7   0  -5   -0.13    0.45
   7   0  -6  268.04    8.38
  -7   0   6  276.77    8.10
   7   0  -7   -0.13    0.49
  -7   0   7   -0.23    0.29
  -7   0   8  235.13    7.07
   7   0  -8  233.01    7.45
   7   0  -9   -0.17    0.52
  -7   0  10  138.93    4.64
   7   0 -10  140.38    4.93
  -7   0  11   -0.28    0.36
   7   0 -11    0.48    0.50
  -7   0  12  211.02    6.69
   7   0 -12  200.31    6.96
  -7   0  13    0.43    0.23
   7   0  13    0.31    0.23
  -7   0  13   -0.47    0.34
   7   0 -13    0.52    0.50
  -7   0  14  127.01    3.76
   7   0  14  124.73    3.76
   7   0 -14  121.21    3.73
  -7   0  15   -0.10    0.22
   7   0  15   -0.06    0.22
  -7   0  16  196.24    5.64
   7   0  16  188.78    5.63
   7   0  17    0.07    0.14
  -7   0  17   -0.03    0.16
   7   1   0   70.22    2.34
   7  -1   0   68.93    2.34
   7   1  -1   54.72    1.96
   7  -1  -1   54.83    1.96
   7  -1   1   58.05    1.95
   7   1   1   55.35    1.94
   7   1  -2    9.39    0.64
   7  -1  -2   10.49    0.67
   7  -1  -3    4.71    0.53
   7   1  -3    4.83    0.54
   7  -1  -4   74.94    2.58
   7   1  -4   73.32    2.58
   7   1  -5    0.23    0.39
   7  -1  -5   -0.10    0.38
  -7   1   5    0.21    0.19
   7  -1  -6   22.95    1.24
   7   1  -6   24.47    1.24
  -7   1   6   24.96    0.94
  -7  -1   6   25.02    1.07
   7  -1  -7    1.69    0.50
   7   1  -7    2.49    0.52
  -7  -1   7    2.15    0.37
  -7   1   7    1.87    0.26
  -7  -1   8   18.15    0.92
   7   1  -8   17.73    1.12
   7  -1  -8   15.09    1.06
  -7  -1   9    3.37    0.47
  -7   1   9    4.26    0.51
   7   1  -9    4.26    0.67
   7  -1  -9    3.80    0.66
  -7  -1  10    0.78    0.19
   7  -1  10    0.88    0.20
  -7  -1  10    0.69    0.39
  -7   1  10    1.41    0.37
   7  -1 -10    1.31    0.52
   7   1 -10    0.74    0.51
  -7  -1  11    2.75    0.29
   7  -1  11    3.16    0.30
  -7   1  11    3.29    0.51
  -7  -1  11    2.41    0.51
   7  -1 -11    3.40    0.70
   7   1 -11    2.77    0.66
  -7  -1  12    3.53    0.32
   7  -1  12    3.59    0.32
  -7  -1  12    2.36    0.51
  -7   1  12    3.15    0.51
   7   1 -12    2.65    0.70
   7  -1 -12    2.31    0.63
  -7  -1  13   17.15    0.72
   7  -1  13   18.02    0.73
  -7   1  13   14.97    1.03
  -7  -1  13   16.73    1.15
   7   1 -13   14.97    1.26
   7  -1 -13   14.95    1.26
  -7  -1  14    2.38    0.29
   7  -1  14    2.25    0.30
   7  -1 -15    3.33    0.30
  -7   1  15    2.74    0.30
   7   1  15    2.58    0.29
  -7  -1  15    2.57    0.30
   7  -1  15    2.74    0.30
   7  -1 -16   -0.12    0.19
  -7   1  16    0.14    0.20
  -7  -1  16    0.04    0.20
   7   1  16    0.09    0.19
   7  -1  16    0.13    0.20
   7  -1  16    0.08    0.18
  -7   1  17    0.30    0.16
  -7  -1  17    0.44    0.16
   7   1  17    0.40    0.16
   7  -2   0    0.13    0.30
   7   2   0   -0.02    0.31
   7  -2   1   74.97    2.49
   7   2   1   75.72    2.49
   7   2  -1   75.22    2.51
   7  -2  -1   76.20    2.52
   7   2  -2    0.15    0.32
   7  -2  -2    0.17    0.34
   7   2  -3  127.56    4.06
   7  -2  -3  127.23    4.07
   7  -2  -4   11.67    0.73
   7   2  -4    9.83    0.72
   7  -2  -5   82.99    2.90
   7   2  -5   84.39    2.91
  -7  -2   6    0.09    0.30
  -7  -2   6    0.16    0.23
   7   2  -6    0.30    0.35
   7  -2  -6    0.15    0.41
  -7  -2   7  184.82    5.51
   7  -2  -7  168.40    5.63
   7   2  -7  166.45    5.61
  -7  -2  -7  173.75    5.31
  -7   2   7  175.64    5.36
   7   2  -8   52.54    2.25
   7  -2  -8   50.90    2.23
  -7   2   8   56.74    2.00
  -7  -2   8   55.31    2.11
   7   2  -9   56.11    2.37
   7  -2  -9   56.43    2.38
  -7  -2   9   56.38    1.77
   7  -2   9   53.77    1.76
  -7   2   9   58.38    2.10
  -7  -2   9   58.06    2.20
   7   2 -10   23.52    1.42
   7  -2 -10   24.90    1.47
  -7  -2  10   27.35    1.41
  -7   2  10   24.28    1.21
  -7  -2  10   24.61    0.91
   7  -2  10   25.50    0.92
   7   2 -11   35.33    1.85
   7  -2 -11   33.03    1.84
  -7  -2  11   37.32    1.75
  -7  -2  11   35.72    1.24
   7  -2  11   36.20    1.25
   7   2 -12    0.35    0.49
   7  -2 -12    0.63    0.49
  -7  -2  12    0.22    0.38
  -7  -2  12    0.58    0.23
   7  -2  12    0.51    0.24
   7   2 -13    1.05    0.53
   7  -2 -13    2.46    0.62
  -7  -2  13    2.52    0.30
   7  -2  13    1.86    0.29
  -7  -2  13    2.32    0.53
   7  -2  14   24.56    0.96
  -7  -2  14   26.05    0.96
   7  -2  14   25.44    0.96
   7  -2  15   13.44    0.59
  -7  -2  15   11.84    0.58
   7  -2  15   13.05    0.59
  -7   2  15   14.00    0.60
   7   2  15   14.37    0.59
   7  -2 -15   13.72    0.61
   7  -2  16   41.17    1.36
  -7  -2  16   41.64    1.39
  -7   2  16   45.87    1.40
   7  -2 -16   44.46    1.40
   7  -2 -17    3.08    0.22
   7  -2  17    3.51    0.23
  -7   2  17    3.17    0.22
  -7  -2  17    3.27    0.22
   7   3   0    4.46    0.42
   7  -3   0    2.81    0.37
   7  -3  -1    0.41    0.30
   7   3  -1    0.33    0.29
   7   3  -2    6.80    0.53
   7  -3  -2    6.35    0.52
   7   3  -3    5.18    0.52
   7  -3  -3    5.25    0.51
  -7  -3   4    7.02    0.56
  -7  -3  -4    6.47    0.55
   7   3  -4    7.05    0.59
   7  -3  -4    6.64    0.59
  -7  -3  -5    2.45    0.40
  -7  -3   5    3.04    0.39
   7   3  -5    2.54    0.45
   7  -3  -5    2.31    0.45
  -7  -3   6    0.89    0.37
  -7  -3  -6    1.16    0.31
  -7  -3   6    1.04    0.28
   7   3  -6    1.35    0.41
   7  -3  -6    1.29    0.40
  -7  -3   7    0.08    0.35
  -7  -3  -7   -0.03    0.23
   7   3  -7    0.13    0.38
   7  -3  -7   -0.21    0.39
   7  -3  -8    3.58    0.56
   7   3  -8    3.41    0.56
  -7  -3   8    3.29    0.27
   7  -3   8    2.83    0.27
  -7  -3   8    3.19    0.51
  -7  -3   9    0.01    0.19
   7  -3   9    0.15    0.19
  -7  -3   9   -0.36    0.45
   7   3 -10    0.95    0.45
   7  -3 -10    0.83    0.45
  -7  -3  10    0.57    0.22
   7  -3  10    0.66    0.23
   7  -3 -11   17.56    1.25
   7   3 -11   15.93    1.22
  -7  -3  11   19.75    0.78
   7  -3  11   19.93    0.79
   7  -3  11   18.11    0.80
   7   3 -12   -0.39    0.51
   7  -3 -12   -0.20    0.52
  -7  -3  12   -0.13    0.24
   7  -3  12   -0.11    0.23
  -7  -3  12    0.40    0.43
   7  -3  12   -0.02    0.25
  -7  -3  13    9.39    0.50
   7  -3  13    9.60    0.51
   7  -3  13    8.74    0.51
   7  -3  14    1.11    0.25
  -7  -3  14    0.98    0.24
   7  -3  14    1.14    0.25
   7  -3 -15    9.21    0.48
  -7  -3  15    8.25    0.43
   7  -3  15    7.75    0.43
   7  -3  15    7.78    0.41
  -7  -3  16    0.11    0.17
   7  -3 -16   -0.34    0.22
   7  -3  17    0.63    0.14
  -7   3  17    0.63    0.12
  -7  -3  17    0.36    0.12
   7  -3 -17    0.71    0.16
  -7  -4   1   21.91    1.11
   7  -4  -1   21.77    0.91
   7   4  -1   21.45    0.92
  -7  -4   2    2.41    0.46
  -7  -4  -2    2.59    0.50
   7  -4  -2    2.28    0.33
   7   4  -2    2.14    0.35
  -7  -4  -3   17.40    0.98
  -7  -4   3   17.19    0.95
   7   4  -3   18.50    0.88
   7  -4  -3   17.27    0.85
  -7  -4  -4    1.14    0.37
  -7  -4   4    1.10    0.35
   7   4  -4    0.55    0.33
   7  -4  -4    0.96    0.32
  -7  -4   5   95.68    3.23
  -7  -4  -5   95.09    3.24
   7   4  -5   96.01    3.26
   7  -4  -5   95.05    3.22
   7  -4   6    2.55    0.29
   7  -4  -6    2.47    0.45
   7   4  -6    2.97    0.49
  -7  -4   6    2.61    0.47
  -7  -4  -6    2.49    0.42
  -7  -4   6    2.83    0.39
   7  -4   7    9.62    0.52
   7  -4  -7    8.71    0.75
   7   4  -7   10.17    0.81
  -7  -4   7   10.42    0.81
  -7  -4  -7   12.11    0.70
  -7  -4   7   11.19    0.49
   7  -4   7    9.63    0.48
  -7  -4   8   44.75    1.91
   7  -4  -8   39.34    1.82
   7   4  -8   42.64    1.89
  -7  -4   8   43.45    1.41
   7  -4   8   42.82    1.41
   7  -4   8   39.05    1.44
   7  -4  -9    2.47    0.52
   7   4  -9    2.13    0.51
  -7  -4   9    1.88    0.27
   7  -4   9    2.32    0.28
  -7  -4   9    3.23    0.54
   7  -4   9    2.05    0.30
   7   4 -10    3.37    0.61
   7  -4 -10    5.09    0.69
  -7  -4  10    4.53    0.62
  -7  -4  10    4.63    0.36
   7  -4  10    4.79    0.36
   7  -4  10    4.08    0.38
   7   4 -11   21.92    1.41
   7  -4 -11   20.51    1.36
  -7  -4  11   23.77    1.40
  -7  -4  11   25.42    0.95
   7  -4  11   25.22    0.95
   7  -4  11   24.50    0.96
   7  -4  12   13.81    0.65
  -7  -4  12   14.74    0.65
   7  -4  12   14.43    0.66
   7  -4  13    8.10    0.45
  -7  -4  13    7.89    0.45
   7  -4  13    7.69    0.46
   7  -4  14   44.78    1.47
  -7  -4  14   46.08    1.50
   7  -4  14   44.73    1.50
   7  -4  15   -0.03    0.16
   7  -4 -15   -0.02    0.23
  -7  -4  15    0.13    0.18
   7  -4 -16    6.46    0.36
  -7  -4  16    7.12    0.33
  -7   4  16    7.63    0.34
   7  -4  17    0.40    0.11
   7  -4 -17    0.39    0.12
   7  -5   0   28.02    0.98
  -7  -5   0   28.46    1.37
  -7  -5   1    2.79    0.49
   7  -5  -1    2.32    0.24
  -7  -5  -2   30.24    1.43
  -7  -5   2   27.95    1.37
   7  -5  -2   29.63    1.00
   7  -5   2   28.74    1.00
   7  -5   3    0.79    0.19
   7  -5  -3    0.54    0.18
  -7  -5  -3    0.84    0.36
  -7  -5   3    0.59    0.37
   7  -5   3    0.61    0.22
   7  -5  -4    8.49    0.42
   7  -5   4    8.75    0.48
   7  -5  -4    8.90    0.42
   7  -5   4    8.92    0.42
  -7  -5  -4    9.02    0.72
   7  -5   4    8.86    0.41
  -7  -5   4    9.21    0.72
   7  -5  -4    8.69    0.43
  -7  -5  -4    9.35    0.42
  -7  -5  -5    3.47    0.50
  -7  -5   5    3.91    0.50
   7  -5   5    3.44    0.34
  -7  -5   5    3.66    0.29
   7  -5   5    4.24    0.30
   7  -5   5    3.91    0.27
   7  -5  -5    3.55    0.27
   7  -5   5    3.45    0.26
  -7  -5  -5    3.85    0.28
   7  -5   6   15.54    0.70
  -7  -5   6   16.38    0.67
   7  -5   6   15.88    0.67
   7  -5   6   15.91    0.62
   7  -5  -6   15.95    0.62
  -7  -5   6   16.13    0.94
  -7  -5  -6   15.10    0.93
  -7  -5  -6   18.14    0.65
   7  -5   7    1.14    0.28
  -7  -5  -7    1.27    0.34
  -7  -5   7    1.62    0.25
   7  -5   7    1.62    0.26
  -7  -5   8    4.62    0.35
   7  -5   8    4.26    0.35
  -7  -5   8    4.68    0.63
   7  -5   8    3.58    0.38
  -7  -5   9   15.34    1.09
  -7  -5   9   15.00    0.66
   7  -5   9   14.84    0.66
  -7  -5   9   14.20    1.02
   7  -5   9   13.27    0.67
  -7  -5  10    3.81    0.36
   7  -5  10    3.66    0.35
  -7  -5  10    3.78    0.59
   7  -5  10    3.38    0.35
  -7  -5  11    9.14    0.51
   7  -5  11    8.25    0.49
  -7  -5  11    7.66    0.79
   7  -5  11    9.29    0.51
  -7  -5  12    1.08    0.26
   7  -5  12    0.96    0.26
   7  -5  12    1.27    0.25
  -7  -5  13   16.86    0.69
   7  -5  13   17.02    0.69
   7  -5  13   15.25    0.66
  -7  -5  14    3.17    0.28
   7  -5  14    3.19    0.29
   7  -5  14    3.56    0.28
   7  -5 -14    3.20    0.33
   7  -5  14    2.96    0.24
   7  -5 -15    9.82    0.48
  -7  -5  15   10.28    0.44
   7  -5  15   10.88    0.44
   7  -5  16   -0.02    0.12
   7  -5 -16    0.10    0.15
   7  -6   0    0.17    0.20
  -7  -6   0    0.18    0.17
   7  -6   0    0.32    0.16
   7  -6   0    0.07    0.15
  -7  -6   0    0.28    0.40
   7  -6  -1  143.05    4.13
   7  -6  -1  135.44    4.12
   7  -6  -1  139.32    4.08
  -7  -6  -1  145.03    4.09
   7  -6   1  138.37    4.15
   7  -6   1  138.51    4.08
  -7  -6   1  138.28    4.09
   7  -6   1  130.70    4.05
  -7  -6   1  143.80    4.70
  -7  -6  -1  137.36    4.10
  -7  -6  -2    3.46    0.27
   7  -6   2    3.47    0.26
  -7  -6   2    2.80    0.25
   7  -6   2    3.27    0.31
   7  -6  -2    3.20    0.26
  -7  -6  -2    3.05    0.26
   7  -6  -2    3.60    0.30
   7  -6   2    3.81    0.31
   7  -6  -2    3.18    0.29
   7  -6   2    3.15    0.25
  -7  -6   2    3.51    0.56
  -7  -6  -2    2.77    0.55
   7  -6   3  123.02    3.66
   7  -6  -3  119.30    3.62
   7  -6  -3  120.04    3.59
  -7  -6  -3  130.09    3.61
   7  -6   3  118.20    3.61
   7  -6  -3  122.74    3.63
  -7  -6   3  118.82    3.62
   7  -6   3  119.11    3.62
  -7  -6   3  117.86    4.13
  -7  -6  -3  118.04    4.16
   7  -6   3  116.19    3.57
   7  -6  -3  118.78    3.59
  -7  -6  -3  121.54    3.60
   7  -6  -4   28.55    1.03
   7  -6   4   29.07    1.08
   7  -6  -4   32.35    1.04
  -7  -6  -4   30.32    1.03
  -7  -6   4   28.70    1.04
   7  -6   4   28.05    1.03
   7  -6  -4   29.43    1.03
   7  -6   4   28.54    1.02
  -7  -6   4   27.69    1.42
   7  -6   4   27.86    0.99
  -7  -6   4   30.06    1.47
  -7  -6  -4   28.28    1.45
  -7  -6  -4   28.06    1.01
   7  -6  -4   27.73    1.02
   7  -6   5   47.37    1.58
  -7  -6   5   46.58    1.53
   7  -6   5   45.18    1.53
  -7  -6   5   44.43    1.96
   7  -6   5   45.92    1.51
   7  -6  -5   46.27    1.51
  -7  -6  -5   49.96    2.01
   7  -6   5   43.21    1.47
  -7  -6   5   48.16    1.97
   7  -6  -5   44.02    1.51
  -7  -6  -5   48.95    1.51
   7  -6   6   52.82    1.75
  -7  -6   6   51.35    1.70
   7  -6   6   52.60    1.71
   7  -6  -6   51.80    1.66
  -7  -6   6   48.43    2.15
   7  -6   6   53.18    1.67
   7  -6   6   48.75    1.64
   7  -6  -6   50.02    1.69
  -7  -6  -6   52.81    1.67
   7  -6   7   24.01    0.87
  -7  -6   7   25.31    1.39
  -7  -6   7   23.98    0.93
   7  -6   7   23.99    0.93
   7  -6   7   23.76    0.87
   7  -6   7   23.68    0.96
  -7  -6   8   70.86    2.21
   7  -6   8   67.89    2.20
  -7  -6   8   65.87    2.63
   7  -6   8   69.18    2.14
   7  -6   8   65.16    2.20
  -7  -6   9  180.43    5.36
   7  -6   9  184.49    5.37
  -7  -6   9  175.91    5.86
   7  -6   9  181.23    5.30
   7  -6   9  174.08    5.37
   7  -6  10   68.03    2.17
  -7  -6  10   72.77    2.24
   7  -6  10   70.65    2.23
   7  -6  10   66.45    2.22
  -7  -6  11    1.54    0.27
   7  -6  11    0.88    0.25
   7  -6  11    0.82    0.25
   7  -6  11    0.96    0.22
   7  -6 -11    0.91    0.28
   7  -6  12   72.06    2.30
   7  -6  12   76.19    2.30
   7  -6 -12   78.29    2.38
  -7  -6  12   74.19    2.34
   7  -6  12   74.15    2.35
  -7  -6  13   18.37    0.71
   7  -6  13   18.67    0.72
   7  -6 -13   20.18    0.76
   7  -6  13   19.53    0.69
  -7  -6  14   54.64    1.74
   7  -6 -14   57.27    1.79
   7  -6  14   58.08    1.73
  -7  -6  15    2.94    0.18
  -7  -7   0   60.75    1.89
   7  -7   0   60.32    1.89
   7  -7   0   59.59    1.95
   7  -7   0   60.28    1.95
  -7  -7   0   57.64    2.46
  -7  -7   0   59.75    1.92
   7  -7  -1   -0.41    0.21
  -7  -7  -1    0.11    0.18
   7  -7   1    0.06    0.17
  -7  -7   1   -0.08    0.18
   7  -7   1   -0.09    0.25
   7  -7  -1    0.03    0.23
  -7  -7   1    0.16    0.37
  -7  -7  -1    0.03    0.17
  -7  -7   1    0.04    0.19
  -7  -7  -2    7.18    0.41
   7  -7  -2    6.23    0.43
   7  -7   2    7.18    0.46
   7  -7  -2    6.60    0.39
  -7  -7  -2    6.30    0.38
   7  -7   2    6.98    0.39
  -7  -7   2    7.28    0.39
   7  -7  -2    7.19    0.44
  -7  -7   2    5.45    0.61
   7  -7   2    6.69    0.43
  -7  -7  -2    7.16    0.78
   7  -7   2    6.68    0.34
  -7  -7   2    5.55    0.71
   7  -7  -3    1.02    0.24
  -7  -7  -3    1.05    0.23
   7  -7   3    0.73    0.20
  -7  -7   3    0.88    0.20
   7  -7   3    1.43    0.27
   7  -7  -3    1.36    0.27
   7  -7   3    1.00    0.27
   7  -7  -3    1.80    0.28
   7  -7   3    1.01    0.19
  -7  -7   3    0.84    0.36
  -7  -7  -3    0.79    0.22
   7  -7   4    2.65    0.28
  -7  -7   4    2.75    0.29
   7  -7   4    2.61    0.34
   7  -7   4    3.02    0.30
   7  -7  -4    2.71    0.31
   7  -7   4    2.65    0.25
  -7  -7   4    3.07    0.53
  -7  -7  -4    2.94    0.28
   7  -7   5    0.13    0.27
  -7  -7   5   -0.14    0.23
   7  -7   5    0.02    0.24
   7  -7  -5    0.23    0.22
   7  -7   5    0.12    0.21
  -7  -7   5   -0.10    0.36
   7  -7   5    0.01    0.18
   7  -7  -5    0.18    0.20
  -7  -7  -5    0.05    0.20
   7  -7   6    1.22    0.29
   7  -7  -6    1.08    0.23
   7  -7   6    1.15    0.23
   7  -7   6    1.02    0.27
  -7  -7   6    1.09    0.28
   7  -7   6    1.03    0.21
  -7  -7   6    1.31    0.47
   7  -7  -6    1.47    0.25
   7  -7   7    7.90    0.51
  -7  -7   7    9.40    0.53
   7  -7   7    8.94    0.52
  -7  -7   7    8.61    0.81
   7  -7   7    9.17    0.44
   7  -7  -7    9.04    0.48
  -7  -7   8    0.99    0.26
   7  -7   8    1.06    0.27
   7  -7   8    0.83    0.28
  -7  -7   8    0.64    0.42
   7  -7   8    1.40    0.22
   7  -7  -8    0.96    0.25
  -7  -7   9    0.50    0.26
   7  -7   9    0.49    0.25
   7  -7   9    0.40    0.25
   7  -7   9    0.35    0.19
   7  -7  -9    1.06    0.26
  -7  -7  10    0.18    0.23
   7  -7  10    0.23    0.24
   7  -7  10    0.37    0.21
   7  -7  10    0.38    0.19
   7  -7 -10    0.07    0.22
   7  -7 -11    0.60    0.24
   7  -7  11    0.49    0.19
  -7  -7  11    0.49    0.22
   7  -7  11    1.08    0.24
  -7  -7  12    4.55    0.31
   7  -7  12    4.16    0.30
   7  -7 -12    4.00    0.32
   7  -7  12    3.92    0.25
  -7  -7  13    1.57    0.19
   7  -7 -13    1.93    0.22
  -7  -7  14   -0.08    0.09
   7  -7 -14    0.13    0.15
   7  -8   0    0.02    0.26
   7  -8   0    0.07    0.26
  -7  -8   0   -0.20    0.25
   7  -8   0   -0.27    0.24
  -7  -8   0    0.09    0.19
   7  -8  -1  397.32   11.39
   7  -8  -1  391.49   11.37
   7  -8  -1  394.47   11.32
  -7  -8  -1  394.23   11.32
   7  -8   1  409.20   11.39
   7  -8   1  394.59   11.32
  -7  -8   1  389.03   11.32
  -7  -8   1  393.55   11.36
  -7  -8  -1  391.30   11.34
   7  -8  -2   -0.38    0.27
  -7  -8  -2   -0.33    0.25
   7  -8   2   -0.01    0.19
  -7  -8   2   -0.01    0.21
   7  -8   2   -0.20    0.31
   7  -8  -2    0.03    0.27
   7  -8   2    0.44    0.27
  -7  -8   2    0.11    0.23
  -7  -8   2    0.04    0.33
  -7  -8  -2    0.01    0.23
  -7  -8   3   43.11    1.97
   7  -8   3   47.99    1.64
   7  -8  -3   50.08    1.66
   7  -8  -3   52.86    1.62
  -7  -8  -3   47.60    1.60
   7  -8   3   50.09    1.61
  -7  -8   3   47.10    1.60
   7  -8   3   50.17    1.68
  -7  -8  -3   48.75    1.62
   7  -8   4    0.10    0.20
  -7  -8   4    0.18    0.21
   7  -8   4    0.09    0.24
   7  -8  -4    0.26    0.24
   7  -8   4   -0.05    0.29
  -7  -8   4    0.09    0.33
  -7  -8  -4    0.16    0.22
   7  -8   5  318.35    9.24
   7  -8  -5  318.83    9.25
  -7  -8   5  293.07    9.75
   7  -8   5  312.55    9.22
  -7  -8   5  323.78    9.24
   7  -8   5  318.62    9.29
  -7  -8  -5  324.93    9.23
   7  -8   6   20.61    0.79
  -7  -8   6   19.81    0.79
   7  -8   6   19.82    0.83
   7  -8   7  156.78    4.67
  -7  -8   7  160.72    4.68
   7  -8   7  154.70    4.71
   7  -8   8   -0.05    0.18
  -7  -8   8    0.22    0.20
   7  -8   8    0.16    0.23
   7  -8   9  106.88    3.18
   7  -8   9  105.15    3.19
   7  -8  10    3.81    0.27
  -7  -8  10    4.13    0.28
  -7  -8  11   20.55    0.70
   7  -8  11   19.40    0.67
  -7  -8  12    2.80    0.18
   7  -9   0   29.62    1.09
  -7  -9   0   29.74    1.06
   7  -9   0   31.22    1.09
   7  -9   0   27.52    1.01
  -7  -9   0   26.57    1.01
   7  -9  -1    0.35    0.28
  -7  -9   1    0.13    0.24
  -7  -9  -1    0.11    0.23
   7  -9  -1   -0.11    0.24
  -7  -9  -1   -0.10    0.23
   7  -9   1   -0.40    0.24
  -7  -9   1   -0.51    0.25
   7  -9   1    0.29    0.27
  -7  -9   2   14.82    0.69
  -7  -9  -2   15.89    0.68
   7  -9   2   15.20    0.71
   7  -9  -2   18.22    0.69
  -7  -9  -2   15.97    0.67
   7  -9   2   16.14    0.65
  -7  -9   2   16.17    0.66
  -7  -9   3    0.79    0.26
  -7  -9  -3    0.68    0.22
   7  -9   3    0.61    0.20
  -7  -9   3    0.68    0.22
   7  -9   3    0.42    0.28
  -7  -9  -4   14.21    0.61
   7  -9   4   14.04    0.65
   7  -9   4   14.51    0.60
  -7  -9   4   14.04    0.60
   7  -9   5    0.87    0.20
  -7  -9   5    0.99    0.21
   7  -9   5    0.32    0.25
   7  -9   6    1.17    0.20
  -7  -9   6    1.12    0.21
   7  -9   6    0.98    0.25
   7  -9   7    0.08    0.17
  -7  -9   7    0.12    0.17
   7  -9   7   -0.36    0.22
  -7  -9   8    2.67    0.27
   7  -9   8    2.63    0.25
  -7  -9   8    2.59    0.23
  -7  -9   9   -0.08    0.14
  -7  -9   9    0.13    0.17
   7  -9   9   -0.08    0.15
  -7  -9  10    0.88    0.14
  -7  -9  10    0.93    0.17
  -7  -9  11    2.54    0.17
  -7  -9  11    1.99    0.13
  -7 -10   0   -0.02    0.20
  -7 -10   0    0.18    0.19
  -7 -10  -1   19.15    0.78
  -7 -10   1   19.69    0.79
   7 -10   1   19.03    0.75
  -7 -10   1   19.66    0.75
  -7 -10   2    0.04    0.21
  -7 -10  -2   -0.01    0.19
   7 -10   2   -0.28    0.19
  -7 -10   2   -0.45    0.21
  -7 -10  -3    2.37    0.25
   7 -10   3    1.87    0.22
  -7 -10   3    2.29    0.23
   7 -10   4    1.80    0.26
  -7 -10   4   -0.26    0.19
   7 -10   5    3.08    0.26
  -7 -10   5    1.99    0.20
  -7 -10   6    3.88    0.29
  -7 -10   6    3.97    0.25
  -7 -10   7    0.53    0.16
  -7 -10   7    0.81    0.14
  -7 -10   8    0.05    0.13
  -7 -10   8    0.05    0.10
  -7 -10   9    3.29    0.19
  -7 -11   0    2.15    0.21
  -7 -11   1    0.06    0.16
  -7 -11   1    6.20    0.25
  -7 -11   2    2.57    0.20
  -7 -11   3    0.59    0.14
  -7 -11   4    2.80    0.18
  -7 -11   5    0.24    0.11
  -7 -11   5    0.04    0.09
  -7 -11   6    2.09    0.15
   8   0   0 3143.22   89.42
   8   0  -1   -0.08    0.36
   8   0   1   -0.02    0.34
   8   0  -2  181.59    5.63
   8   0  -3    0.36    0.41
   8   0  -4  824.48   23.91
   8   0  -5   -0.04    0.45
   8   0  -6 1462.21   42.70
  -8   0   6 1495.20   42.38
   8   0  -7   -0.32    0.50
  -8   0   7   -0.14    0.29
  -8   0   8  450.11   12.99
   8   0  -8  428.37   13.37
   8   0  -9   -0.17    0.51
  -8   0  10  187.31    5.88
   8   0 -10  172.98    6.10
  -8   0  11    0.05    0.36
   8   0 -11    0.21    0.46
  -8   0  12   70.50    2.74
  -8   0  12   69.33    2.20
   8   0  12   70.50    2.21
   8   0 -12   70.72    2.22
   8   0 -12   67.02    2.98
  -8   0  13    0.31    0.36
   8   0 -13   -0.15    0.46
  -8   0  13    0.09    0.21
   8   0  13    0.13    0.21
   8   0 -13   -0.05    0.21
  -8   0  14   36.78    1.24
   8   0  14   36.04    1.24
   8   0 -14   35.52    1.23
   8   0  15    0.17    0.21
  -8   0  15    0.09    0.21
  -8   0  16   13.71    0.56
   8   0  17    0.01    0.14
   8   0  17   -0.13    0.11
  -8   0  17   -0.01    0.12
   8  -1   0   -0.30    0.35
   8   1   0    0.02    0.35
   8  -1   1    7.02    0.58
   8   1   1    7.14    0.57
   8   1  -1    6.86    0.57
   8  -1  -1    6.49    0.58
   8  -1  -2    0.56    0.41
   8   1  -2    0.42    0.38
   8  -1  -3    9.69    0.73
   8   1  -3    9.76    0.72
   8  -1  -4    1.29    0.43
   8   1  -4    1.11    0.44
   8   1  -5    4.11    0.53
   8  -1  -5    4.17    0.57
  -8   1   5    4.56    0.34
   8   1  -6    1.90    0.49
   8  -1  -6    2.60    0.54
  -8   1   6    1.92    0.27
  -8  -1   6    1.79    0.36
   8  -1  -7   50.85    2.16
   8   1  -7   52.28    2.16
  -8   1   7   51.54    1.76
  -8  -1   7   53.29    1.94
  -8  -1   8    1.93    0.40
   8   1  -8    2.01    0.57
   8  -1  -8    2.39    0.59
   8  -1  -9    1.28    0.53
   8   1  -9    2.36    0.59
  -8   1   9    1.60    0.39
  -8  -1   9    2.69    0.40
   8  -1   9    1.69    0.20
  -8  -1  10    4.08    0.29
   8  -1  10    4.46    0.30
  -8  -1  10    3.16    0.51
  -8   1  10    4.25    0.55
   8  -1 -10    4.10    0.66
  -8  -1  11    9.47    0.47
   8  -1  11    9.77    0.48
  -8  -1  11    9.88    0.85
  -8   1  11    8.75    0.74
   8  -1 -11    8.27    0.95
   8   1 -11    8.97    0.97
  -8  -1  12    3.15    0.30
   8  -1  12    3.50    0.31
  -8  -1  12    3.20    0.54
  -8   1  12    3.55    0.54
   8   1 -12    1.22    0.58
   8  -1 -12    1.66    0.62
  -8  -1  13    2.02    0.27
   8  -1  13    2.21    0.29
  -8  -1  13    2.84    0.55
   8   1 -13    1.52    0.64
   8  -1 -13    1.52    0.62
   8  -1 -14    1.43    0.26
  -8   1  14    1.23    0.24
   8   1  14    1.37    0.24
  -8  -1  14    1.04    0.24
   8  -1  14    0.92    0.24
   8  -1 -15    2.98    0.29
   8  -1  15    3.06    0.29
  -8  -1  15    2.54    0.27
  -8   1  15    2.95    0.28
   8   1  15    2.62    0.27
   8  -1 -16    1.58    0.21
  -8  -1  16    1.70    0.21
  -8   1  16    1.54    0.21
   8  -1  16    1.61    0.23
   8   1  17    0.26    0.15
   8  -1  17    0.23    0.13
   8  -1  17    0.40    0.13
   8  -2   0  448.56   13.05
   8   2   0  443.20   13.05
   8   2   1    0.64    0.34
   8  -2   1    0.58    0.34
   8  -2  -1    0.82    0.35
   8   2  -1    0.69    0.35
   8   2  -2   30.50    1.30
   8  -2  -2   29.92    1.30
   8   2  -3    6.25    0.60
   8  -2  -3    6.05    0.59
   8   2  -4   68.94    2.54
   8  -2  -4   73.36    2.57
   8   2  -5   23.10    1.19
   8  -2  -5   23.18    1.20
  -8  -2   6    0.34    0.31
   8   2  -6    0.45    0.41
   8  -2  -6    0.29    0.40
  -8  -2  -7   66.44    2.30
   8   2  -7   63.85    2.57
   8  -2  -7   67.70    2.61
  -8  -2   7   68.81    2.45
   8   2  -8   60.29    2.48
   8  -2  -8   59.35    2.47
  -8   2   8   61.23    2.19
  -8  -2   8   62.37    2.32
   8   2  -9   31.09    1.65
   8  -2  -9   28.44    1.59
  -8  -2   9   31.70    1.08
   8  -2   9   31.51    1.08
  -8   2   9   31.43    1.38
  -8  -2   9   34.08    1.51
   8   2 -10   27.92    1.56
   8  -2 -10   27.04    1.56
  -8   2  10   27.11    1.29
  -8  -2  10   26.35    0.97
   8  -2  10   27.96    0.98
   8   2 -11   26.61    1.56
   8  -2 -11   24.20    1.51
  -8  -2  11   26.69    1.44
  -8  -2  11   25.16    0.93
   8  -2  11   24.93    0.94
   8   2 -12    0.14    0.52
   8  -2 -12    0.07    0.51
  -8  -2  12    0.34    0.22
   8  -2  12    0.29    0.22
  -8  -2  12    0.23    0.37
  -8  -2  13    0.04    0.22
   8  -2  13    0.22    0.23
   8  -2  14    7.35    0.45
  -8  -2  14    6.17    0.39
   8  -2  14    6.37    0.40
   8  -2 -14    7.26    0.45
   8  -2  15   59.07    1.84
  -8  -2  15   55.51    1.82
  -8   2  15   58.48    1.82
   8  -2 -15   58.22    1.85
   8  -2  16    1.55    0.21
  -8   2  16    1.30    0.20
  -8  -2  16    1.09    0.18
   8  -2 -16    1.47    0.22
   8  -2  17   42.29    1.26
   8  -2 -17   39.26    1.24
   8   3   0    0.10    0.30
   8  -3   0   -0.17    0.30
   8  -3  -1  253.67    7.80
   8   3  -1  268.04    7.83
   8   3  -2    0.08    0.30
   8  -3  -2   -0.27    0.30
   8  -3  -3  107.43    3.55
   8   3  -3  107.95    3.56
   8   3  -4    0.24    0.36
   8  -3  -4   -0.20    0.34
   8   3  -5   24.97    1.26
   8  -3  -5   23.69    1.24
  -8  -3  -5   25.56    1.19
  -8  -3   5   26.75    1.18
  -8  -3   6   -0.04    0.36
  -8  -3   6    0.54    0.29
  -8  -3  -6    0.25    0.27
   8  -3  -6    0.46    0.40
   8   3  -6    0.17    0.37
  -8  -3  -7   69.73    2.45
   8  -3  -7   68.28    2.68
   8   3  -7   70.07    2.69
  -8  -3   7   72.75    2.63
   8  -3  -8    3.79    0.62
   8   3  -8    4.15    0.62
  -8  -3   8    4.94    0.62
   8  -3   8    4.23    0.30
  -8  -3   9   32.76    1.59
   8   3  -9   30.22    1.64
   8  -3  -9   31.33    1.66
  -8  -3   9   34.39    1.15
   8  -3   9   33.57    1.15
   8   3 -10    0.25    0.43
   8  -3 -10    0.12    0.44
  -8  -3  10    0.20    0.21
   8  -3  10    0.29    0.21
  -8  -3  10   -0.05    0.40
   8  -3  10   -0.11    0.25
   8  -3 -11   28.61    1.67
   8   3 -11   28.06    1.66
  -8  -3  11   30.72    1.60
  -8  -3  11   29.77    1.09
   8  -3  11   31.22    1.10
   8  -3  11   31.50    1.14
   8  -3 -12    0.59    0.52
   8   3 -12    0.66    0.53
  -8  -3  12    0.86    0.24
   8  -3  12    1.16    0.25
  -8  -3  12    1.04    0.44
   8  -3  12    0.57    0.27
   8  -3  13   15.28    0.68
  -8  -3  13   14.11    0.63
   8  -3  13   14.13    0.63
   8  -3  14    2.74    0.30
  -8  -3  14    2.21    0.27
   8  -3  14    2.58    0.28
   8  -3 -14    2.54    0.32
   8  -3  15    5.22    0.33
  -8   3  15    5.76    0.33
  -8  -3  15    5.26    0.33
   8  -3 -15    5.37    0.38
   8  -3  16    0.10    0.13
   8  -3 -16    0.25    0.19
  -8  -3  16    0.06    0.14
  -8   3  16    0.19    0.15
   8  -3  16    0.12    0.17
   8  -3  17    1.24    0.15
   8  -3 -17    1.07    0.14
  -8  -4   0  272.30    8.35
  -8  -4   1    0.59    0.42
   8   4  -1    0.52    0.26
   8  -4  -1    0.94    0.26
  -8  -4  -2  214.57    6.69
  -8  -4   2  206.06    6.65
   8  -4  -2  213.10    6.46
   8   4  -2  217.99    6.50
  -8  -4   3    0.33    0.36
  -8  -4  -3    0.19    0.34
   8  -4  -3    0.25    0.27
   8   4  -3    0.35    0.28
   8   4  -4   22.71    1.11
   8  -4  -4   21.63    1.07
  -8  -4  -4   21.69    1.15
  -8  -4   4   24.39    1.17
   8  -4   4   22.48    0.79
   8  -4   5    8.50    0.47
  -8  -4  -5    9.81    0.73
  -8  -4   5    8.90    0.69
   8   4  -5    7.78    0.69
   8  -4  -5    7.77    0.66
   8  -4   6   31.72    1.17
   8  -4   6   33.56    1.08
  -8  -4   6   35.03    1.57
  -8  -4  -6   34.29    1.46
  -8  -4   6   31.77    1.41
   8  -4  -6   32.45    1.50
   8   4  -6   33.19    1.54
   8  -4   7    4.51    0.38
   8   4  -7    5.05    0.61
   8  -4  -7    4.48    0.59
  -8  -4  -7    4.46    0.49
  -8  -4   7    5.40    0.64
  -8  -4   7    4.82    0.32
   8  -4   7    4.67    0.31
   8  -4   8   72.11    2.30
  -8  -4   8   78.11    2.83
   8   4  -8   75.00    2.83
   8  -4  -8   66.49    2.73
  -8  -4   8   71.63    2.24
   8  -4   8   70.77    2.24
  -8  -4   9    5.44    0.68
   8   4  -9    4.32    0.63
   8  -4  -9    4.44    0.64
   8  -4   9    4.74    0.40
  -8  -4   9    5.00    0.36
   8  -4   9    4.94    0.35
   8  -4  10   13.96    0.68
   8  -4 -10   12.77    1.03
  -8  -4  10   14.52    1.06
   8   4 -10   12.42    1.03
  -8  -4  10   14.33    1.04
  -8  -4  10   15.13    0.64
   8  -4  10   15.07    0.65
   8  -4 -11    6.42    0.76
  -8  -4  11    8.54    0.83
   8  -4  11    6.81    0.47
  -8  -4  11    7.28    0.44
   8  -4  11    6.74    0.43
   8  -4  12   18.89    0.78
   8  -4  12   16.92    0.73
  -8  -4  12   17.48    0.73
   8  -4  13   38.45    1.34
   8  -4 -13   39.39    1.38
  -8  -4  13   38.70    1.31
   8  -4  13   38.84    1.32
   8  -4  14   15.17    0.63
   8  -4 -14   16.49    0.69
  -8  -4  14   14.87    0.62
   8  -4  15    1.55    0.20
  -8  -4  15    1.63    0.20
   8  -4  15    2.13    0.23
   8  -4 -15    2.03    0.26
   8  -4  16    1.13    0.17
   8  -4 -16    1.13    0.20
   8  -4  17    5.72    0.24
   8  -5   0   -0.11    0.18
   8  -5   0    0.09    0.19
  -8  -5   0    0.09    0.37
   8  -5  -1   27.18    0.94
   8  -5   1   27.02    0.96
  -8  -5   1   25.06    1.33
   8  -5  -1   26.18    0.94
   8  -5  -2    4.31    0.31
   8  -5   2    4.92    0.32
   8  -5  -2    4.47    0.33
   8  -5   2    5.03    0.29
  -8  -5  -2    5.03    0.61
  -8  -5   2    4.80    0.58
   8  -5   3    7.45    0.45
   8  -5  -3    7.14    0.38
   8  -5  -3    7.05    0.38
   8  -5   3    7.14    0.38
  -8  -5  -3    7.15    0.69
  -8  -5   3    7.08    0.65
   8  -5   3    7.36    0.37
  -8  -5  -3    7.80    0.37
  -8  -5  -4   -0.13    0.34
  -8  -5   4   -0.04    0.33
   8  -5  -4   -0.10    0.19
   8  -5   4    0.19    0.23
   8  -5  -4    0.13    0.16
   8  -5   4   -0.08    0.16
   8  -5   4   -0.16    0.18
   8  -5  -4   -0.12    0.19
  -8  -5  -4   -0.08    0.17
   8  -5   5   11.10    0.59
   8  -5   5   12.57    0.55
   8  -5   5   12.10    0.53
   8  -5  -5   13.03    0.53
  -8  -5   5   12.33    0.85
   8  -5   5   12.14    0.53
  -8  -5  -5   13.57    0.89
  -8  -5  -5   12.80    0.53
   8  -5  -5   12.79    0.57
  -8  -5  -6    3.77    0.51
  -8  -5   6    3.74    0.51
   8  -5   6    3.66    0.37
  -8  -5   6    3.23    0.29
   8  -5   6    3.61    0.30
   8  -5  -6    3.85    0.28
   8  -5   6    3.76    0.28
   8  -5   6    3.40    0.28
   8  -5  -6    3.97    0.34
  -8  -5  -6    4.53    0.30
   8  -5   7    1.71    0.31
  -8  -5   7    1.95    0.26
   8  -5   7    1.40    0.25
   8  -5   7    1.25    0.24
  -8  -5   7    1.78    0.50
  -8  -5  -7    2.02    0.40
  -8  -5   8   22.94    0.89
   8  -5   8   23.79    0.90
   8  -5   8   22.81    0.95
  -8  -5   9   -0.39    0.47
  -8  -5   9    0.17    0.22
   8  -5   9   -0.15    0.22
   8  -5   9    0.47    0.27
  -8  -5  10    4.79    0.37
   8  -5  10    4.75    0.37
   8  -5  10    4.82    0.40
  -8  -5  10    4.52    0.64
   8  -5  11    1.54    0.30
  -8  -5  11    1.51    0.27
   8  -5  11    1.57    0.27
   8  -5  12   15.54    0.65
   8  -5  12   15.76    0.68
  -8  -5  12   15.81    0.67
   8  -5  12   15.46    0.67
   8  -5  13    0.24    0.21
   8  -5  13    0.29    0.21
  -8  -5  13    0.43    0.20
   8  -5  13    0.26    0.21
   8  -5  14   35.26    1.16
  -8  -5  14   34.10    1.17
   8  -5 -14   37.93    1.24
   8  -5  14   37.00    1.18
  -8  -5  15    0.59    0.14
   8  -5  15    0.72    0.17
   8  -5 -15    0.65    0.21
   8  -5  16    6.77    0.28
   8  -5 -16    6.30    0.31
   8  -6   0  158.89    4.69
  -8  -6   0  162.10    5.31
   8  -6   0  152.27    4.62
   8  -6   0  162.69    4.70
   8  -6   0  158.70    4.63
  -8  -6   0  157.61    4.63
   8  -6  -1   -0.30    0.19
  -8  -6  -1    0.30    0.15
   8  -6   1    0.20    0.14
  -8  -6   1    0.45    0.16
   8  -6  -1    0.14    0.20
   8  -6  -1    0.49    0.21
  -8  -6   1    0.70    0.41
   8  -6   1    0.09    0.17
  -8  -6  -1    0.13    0.18
  -8  -6   2   94.83    2.91
   8  -6  -2   97.47    2.91
   8  -6   2   97.02    2.99
  -8  -6  -2   98.71    2.92
   8  -6  -2   98.09    2.96
   8  -6   2   94.47    2.91
   8  -6   2   94.41    2.91
  -8  -6  -2   97.47    3.54
  -8  -6   2   92.95    3.48
  -8  -6  -2   98.23    2.94
   8  -6  -2   99.68    2.97
   8  -6   2   98.70    2.97
   8  -6   3   12.42    0.55
  -8  -6   3   13.37    0.56
   8  -6  -3   14.36    0.61
   8  -6   3   13.62    0.65
   8  -6  -3   14.42    0.57
  -8  -6  -3   14.65    0.58
   8  -6   3   13.30    0.60
   8  -6  -3   14.35    0.61
  -8  -6  -3   14.84    1.02
  -8  -6   3   14.04    0.96
   8  -6   3   13.38    0.56
   8  -6  -3   13.01    0.57
  -8  -6  -3   13.94    0.58
   8  -6   4  229.49    6.68
   8  -6  -4  224.71    6.61
   8  -6  -4  228.10    6.59
  -8  -6  -4  243.71    6.62
  -8  -6   4  223.31    6.62
   8  -6   4  222.92    6.62
   8  -6   4  222.16    6.62
   8  -6  -4  225.10    6.62
  -8  -6   4  212.33    7.12
   8  -6   4  220.96    6.58
  -8  -6   4  229.66    7.21
  -8  -6  -4  219.25    7.21
  -8  -6  -4  230.31    6.61
   8  -6  -4  222.89    6.62
   8  -6   5    8.38    0.50
  -8  -6   5    8.19    0.44
   8  -6   5    7.75    0.44
  -8  -6   5    8.82    0.81
   8  -6  -5    7.99    0.43
   8  -6   5    7.41    0.42
  -8  -6  -5    8.14    0.75
   8  -6   5    7.66    0.41
  -8  -6   5    8.28    0.74
  -8  -6  -5    8.41    0.43
   8  -6  -5    7.33    0.44
   8  -6   6  253.77    7.47
  -8  -6   6  255.83    7.41
   8  -6   6  257.26    7.42
   8  -6   6  248.58    7.38
  -8  -6   6  262.29    8.05
   8  -6  -6  255.35    7.38
  -8  -6  -6  249.61    7.92
   8  -6   6  252.00    7.37
   8  -6  -6  250.46    7.42
   8  -6   7   14.01    0.71
  -8  -6   7   14.48    0.65
   8  -6   7   14.18    0.65
   8  -6   7   15.21    0.61
   8  -6   7   14.42    0.62
   8  -6  -7   14.70    0.67
  -8  -6   8  127.40    3.87
   8  -6   8  132.73    3.88
   8  -6  -8  127.63    3.89
   8  -6   8  130.94    3.83
   8  -6   8  118.79    3.90
   8  -6   9  123.86    3.95
  -8  -6   9  124.11    4.43
  -8  -6   9  126.09    3.91
   8  -6   9  129.27    3.92
   8  -6   9  132.35    3.88
   8  -6  -9  138.00    3.96
  -8  -6  10   51.07    1.70
   8  -6  10   53.17    1.71
   8  -6  10   50.07    1.72
   8  -6  10   50.53    1.66
   8  -6 -10   53.26    1.74
  -8  -6  11    0.85    0.24
   8  -6  11    1.00    0.24
   8  -6  11    0.85    0.25
   8  -6  11    0.86    0.22
   8  -6 -11    1.08    0.29
  -8  -6  12   26.46    0.96
   8  -6  12   28.24    0.96
   8  -6 -12   27.94    1.02
   8  -6  12   26.86    0.97
  -8  -6  13   59.99    1.94
   8  -6  13   66.76    1.96
   8  -6 -13   66.43    2.01
   8  -6  13   61.85    1.94
   8  -6 -14   10.52    0.46
   8  -6  14   10.44    0.41
  -8  -6  14    9.15    0.39
   8  -7   0    0.15    0.23
  -8  -7   0   -0.12    0.20
  -8  -7   0    0.01    0.17
   8  -7   0    0.05    0.17
  -8  -7   0    0.23    0.41
   8  -7   1    3.98    0.38
   8  -7  -1    3.93    0.31
  -8  -7  -1    3.89    0.30
   8  -7  -1    3.60    0.37
   8  -7   1    4.74    0.30
  -8  -7   1    4.37    0.30
   8  -7  -1    4.42    0.39
  -8  -7   1    3.89    0.64
  -8  -7  -1    5.16    0.34
  -8  -7   1    4.09    0.34
  -8  -7  -2    0.67    0.20
   8  -7   2    0.65    0.26
   8  -7  -2    0.66    0.26
   8  -7  -2    0.10    0.21
  -8  -7  -2   -0.03    0.19
   8  -7   2    0.49    0.19
  -8  -7   2    0.52    0.19
   8  -7  -2    0.47    0.26
   8  -7   2    0.65    0.26
  -8  -7   2    0.80    0.38
   8  -7   2    0.34    0.18
  -8  -7  -2    0.63    0.47
  -8  -7   2    0.39    0.44
  -8  -7  -3    0.60    0.21
   8  -7  -3    1.01    0.29
   8  -7   3    0.67    0.29
   8  -7  -3    1.53    0.26
  -8  -7  -3    0.45    0.22
   8  -7   3    0.40    0.18
  -8  -7   3    0.29    0.17
   8  -7  -3    0.87    0.26
   8  -7   3    0.23    0.23
  -8  -7   3    0.55    0.35
   8  -7   3    0.59    0.19
  -8  -7  -3    0.62    0.42
  -8  -7   3    0.49    0.36
   8  -7   4    0.90    0.31
   8  -7   4    0.86    0.20
  -8  -7   4    0.83    0.21
   8  -7  -4    0.96    0.25
   8  -7   4    0.77    0.24
  -8  -7   4    0.68    0.41
   8  -7   4    0.89    0.21
   8  -7  -4    0.71    0.21
  -8  -7  -4    1.29    0.24
   8  -7   5   -0.08    0.26
   8  -7  -5    0.11    0.21
   8  -7   5    0.10    0.21
   8  -7   5    0.19    0.19
  -8  -7   5   -0.01    0.19
  -8  -7   5    0.26    0.37
   8  -7   5    0.12    0.19
   8  -7  -5    0.13    0.20
  -8  -7  -5    0.16    0.20
  -8  -7   6    4.70    0.38
   8  -7   6    5.13    0.38
   8  -7   6    4.77    0.35
  -8  -7   6    6.01    0.71
   8  -7  -6    4.99    0.36
   8  -7   6    4.48    0.42
   8  -7   6    5.00    0.34
   8  -7  -6    4.54    0.35
  -8  -7   7    6.55    0.42
   8  -7   7    6.49    0.42
   8  -7   7    5.61    0.44
   8  -7   7    6.31    0.37
  -8  -7   7    6.29    0.72
   8  -7  -7    5.80    0.35
   8  -7   7    6.67    0.37
   8  -7  -7    6.45    0.40
   8  -7   8    1.50    0.30
   8  -7   8    2.28    0.25
   8  -7   8    1.68    0.27
  -8  -7   8    1.57    0.27
   8  -7  -8    1.75    0.27
   8  -7   9    0.33    0.24
   8  -7   9    0.49    0.20
  -8  -7   9    0.52    0.22
   8  -7   9    0.53    0.24
   8  -7  -9    0.39    0.23
   8  -7  10    0.15    0.22
   8  -7  10    0.23    0.18
   8  -7 -10    0.11    0.22
  -8  -7  10   -0.14    0.21
   8  -7  10   -0.04    0.21
   8  -7 -11    1.43    0.24
   8  -7  11    0.82    0.20
  -8  -7  11    1.00    0.21
   8  -7 -12    0.27    0.20
   8  -7  12    0.01    0.15
  -8  -7  12   -0.10    0.17
   8  -7 -13    0.18    0.17
   8  -7 -14    0.05    0.12
   8  -8   0   25.96    0.99
   8  -8   0   26.44    1.00
   8  -8   0   24.18    0.91
  -8  -8   0   24.59    0.91
  -8  -8   0   24.87    0.95
  -8  -8   1    1.15    0.28
   8  -8   1    0.80    0.33
   8  -8  -1    0.29    0.22
  -8  -8  -1    0.41    0.22
   8  -8   1    1.11    0.22
  -8  -8   1    1.13    0.22
  -8  -8   1    0.53    0.34
   8  -8  -1    1.33    0.33
  -8  -8  -1    1.18    0.26
   8  -8   2   15.25    0.68
  -8  -8   2   12.01    0.89
   8  -8  -2   14.55    0.68
  -8  -8   2   14.07    0.66
  -8  -8  -2   13.42    0.62
   8  -8  -2   15.02    0.61
  -8  -8  -2   13.74    0.60
   8  -8   2   14.80    0.60
  -8  -8   2   13.58    0.59
   8  -8   2   13.98    0.69
  -8  -8   3    7.00    0.69
   8  -8  -3    8.31    0.50
   8  -8   3    8.22    0.49
   8  -8   3    6.80    0.51
   8  -8   3    7.80    0.43
  -8  -8   3    7.93    0.43
  -8  -8  -3    7.43    0.45
  -8  -8   3    7.65    0.49
   8  -8   4    1.96    0.32
   8  -8   4    1.27    0.21
  -8  -8   4    1.65    0.24
  -8  -8   4    0.99    0.41
   8  -8   4    1.71    0.27
   8  -8  -4    1.79    0.29
  -8  -8  -4    1.69    0.25
   8  -8  -5   51.43    1.68
   8  -8   5   50.44    1.66
   8  -8   5   49.46    1.71
   8  -8   5   49.12    1.62
  -8  -8   5   51.41    1.64
  -8  -8  -5   50.55    1.64
  -8  -8   6   46.59    1.54
   8  -8   6   46.88    1.61
   8  -8   6   48.41    1.54
   8  -8   7   84.10    2.57
  -8  -8   7   84.53    2.58
   8  -8   7   83.82    2.63
   8  -8   8    0.50    0.17
  -8  -8   8    0.29    0.19
   8  -8   8    0.70    0.24
  -8  -8   9   71.22    2.21
   8  -8   9   73.72    2.25
  -8  -8  10    1.63    0.18
   8  -8  10    1.37    0.21
  -8  -8  11   25.70    0.85
   8  -8  11   26.99    0.86
  -8  -8  12    0.16    0.09
  -8  -8  13   48.73    1.46
   8  -9   0    0.14    0.27
   8  -9   0    0.53    0.29
  -8  -9   0    0.26    0.22
   8  -9   0   -0.02    0.20
  -8  -9   0   -0.28    0.21
   8  -9  -1    0.73    0.29
   8  -9   1    0.29    0.28
  -8  -9   1    0.15    0.23
  -8  -9  -1    0.29    0.21
   8  -9  -1    0.95    0.23
  -8  -9  -1    0.30    0.20
   8  -9   1   -0.19    0.20
  -8  -9   1   -0.33    0.22
   8  -9  -2    0.37    0.27
   8  -9   2    0.60    0.28
  -8  -9   2    0.42    0.24
  -8  -9  -2    0.12    0.21
   8  -9   2    0.02    0.27
   8  -9   2   -0.42    0.21
  -8  -9   2   -0.25    0.21
  -8  -9   3   23.10    0.91
  -8  -9  -3   24.14    0.88
   8  -9   3   23.94    0.93
   8  -9   3   22.90    0.84
  -8  -9   3   23.04    0.85
   8  -9   4    0.14    0.27
  -8  -9  -4    0.25    0.19
  -8  -9   4    0.46    0.24
   8  -9   4    0.44    0.18
  -8  -9   4    0.33    0.18
   8  -9   5    2.40    0.31
   8  -9   5    2.88    0.25
  -8  -9   5    2.80    0.25
  -8  -9   5    3.08    0.32
   8  -9   6    3.51    0.32
  -8  -9   6    3.52    0.26
  -8  -9   7    0.52    0.16
   8  -9   7    0.25    0.21
  -8  -9   8    0.36    0.14
   8  -9   8    0.39    0.19
  -8  -9   9    1.61    0.16
   8  -9   9    1.77    0.18
  -8  -9  10    2.32    0.15
  -8  -9  10    2.81    0.20
  -8  -9  11    1.35    0.13
  -8 -10   0    3.16    0.26
  -8 -10   0    2.11    0.25
  -8 -10   1    0.47    0.18
  -8 -10  -1    0.54    0.21
  -8 -10   2   -0.20    0.18
  -8 -10  -2    0.27    0.18
  -8 -10   2    0.18    0.20
  -8 -10   3    1.16    0.19
  -8 -10   3    1.83    0.25
  -8 -10   4   -0.32    0.17
  -8 -10   4    0.11    0.19
  -8 -10   5   -0.08    0.15
   8 -10   5    1.05    0.21
   8 -10   6   12.20    0.46
  -8 -10   6   10.67    0.42
  -8 -10   7    2.46    0.17
  -8 -10   8    0.25    0.12
  -8 -10   9    4.83    0.22
  -8 -11   0    0.23    0.14
  -8 -11   1   13.27    0.50
  -8 -11   2    0.88    0.16
  -8 -11   3    4.09    0.24
  -8 -11   6    2.32    0.14
   9   0   0    0.20    0.40
   9   0   1    0.03    0.40
   9   0  -1   -0.03    0.38
   9   0  -2    9.05    0.73
   9   0  -3   -0.03    0.39
   9   0  -4   77.01    2.79
   9   0  -5   -0.08    0.47
   9   0  -6  248.31    7.87
  -9   0   6  253.11    7.52
  -9   0   7   -0.23    0.29
   9   0  -7   -0.34    0.49
   9   0  -8  254.94    7.58
   9   0  -8  255.66    8.27
   9   0  -9   -0.09    0.20
   9   0  -9    0.30    0.48
  -9   0  10  104.75    3.60
   9   0 -10  100.02    3.07
   9   0 -10   97.36    3.81
  -9   0  11   -0.10    0.38
  -9   0  11    0.29    0.19
   9   0  11    0.31    0.18
   9   0 -11   -0.03    0.20
   9   0 -11    0.77    0.48
  -9   0  12  104.75    3.61
   9   0 -12   93.78    3.82
   9   0 -12   98.77    3.02
  -9   0  12   98.63    2.99
   9   0  12   96.46    2.99
   9   0 -13   -0.03    0.21
  -9   0  13    0.05    0.19
   9   0  13    0.16    0.20
   9   0 -14   64.09    2.02
  -9   0  14   64.53    2.02
  -9   0  15   -0.03    0.18
   9   0  16  122.01    3.36
   9   0  16  106.69    3.28
   9   0  17   -0.02    0.13
   9  -1   0  144.44    4.59
   9   1   0  145.17    4.60
   9   1   1    2.35    0.47
   9  -1   1    2.33    0.47
   9  -1  -1    2.47    0.47
   9   1  -1    2.75    0.47
   9  -1  -2    1.30    0.43
   9   1  -2    1.38    0.47
   9   1  -3    1.06    0.43
   9  -1  -3    0.65    0.44
   9   1  -4   11.97    0.87
   9  -1  -4   13.53    0.90
   9   1  -5    7.09    0.68
   9  -1  -5    6.42    0.71
   9   1  -6    5.39    0.65
   9  -1  -6    5.52    0.67
  -9   1   6    5.04    0.39
   9   1  -7   69.66    2.78
   9  -1  -7   71.78    2.79
  -9  -1   7   73.24    2.53
  -9  -1   8    0.17    0.31
   9   1  -8   -0.22    0.48
   9  -1  -8    0.05    0.50
   9   1  -9    0.48    0.48
   9  -1  -9    0.24    0.46
  -9   1   9   -0.08    0.30
  -9  -1   9    0.73    0.27
   9  -1   9    0.49    0.16
   9  -1  10    0.10    0.17
  -9   1  10    0.04    0.32
   9   1 -10    0.72    0.49
   9  -1 -10    0.26    0.48
  -9  -1  11   93.17    2.83
   9  -1  11   89.97    2.83
  -9  -1  11  100.90    3.49
  -9   1  11   95.99    3.34
   9   1 -11   91.95    3.64
   9  -1 -11   92.62    3.66
  -9  -1  12    3.22    0.57
  -9   1  12    2.36    0.46
   9   1 -12    2.31    0.63
   9  -1 -12    2.69    0.68
   9  -1  12    2.05    0.27
  -9  -1  12    2.66    0.28
   9  -1 -12    2.51    0.33
  -9  -1  13    5.17    0.35
   9  -1  13    4.89    0.35
  -9   1  13    4.99    0.34
   9   1  13    5.00    0.34
   9  -1 -13    5.18    0.38
  -9   1  14    0.13    0.19
  -9  -1  14    0.06    0.19
   9  -1 -14    0.13    0.22
  -9  -1  15   79.03    2.46
  -9   1  15   78.96    2.46
   9  -1 -15   79.91    2.48
   9  -1 -16    0.59    0.16
   9  -1  16    0.62    0.16
   9  -1  17    4.72    0.23
   9  -1  17    4.95    0.24
   9   1  17    5.22    0.26
   9  -2   0    0.03    0.33
   9   2   0   -0.20    0.34
   9   2  -1    1.26    0.40
   9  -2  -1    2.21    0.43
   9   2  -2   10.57    0.76
   9  -2  -2   10.42    0.75
   9   2  -3   38.19    1.60
   9  -2  -3   36.72    1.60
   9  -2  -4   17.60    1.05
   9   2  -4   18.33    1.06
   9   2  -5   92.21    3.25
   9  -2  -5   89.83    3.24
   9   2  -6    4.46    0.61
   9  -2  -6    3.76    0.60
  -9  -2   7  128.80    4.17
   9  -2  -7  124.20    4.35
   9   2  -7  124.03    4.35
  -9  -2   8   71.40    2.61
   9   2  -8   68.55    2.79
   9  -2  -8   70.86    2.81
  -9   2   8   69.27    2.47
  -9  -2   9   13.87    0.89
   9   2  -9   13.49    1.05
   9  -2  -9   12.66    1.01
   9  -2   9   12.62    0.53
  -9   2   9   12.02    0.78
   9  -2  10   36.36    1.24
  -9  -2  10   40.23    1.70
   9   2 -10   36.81    1.91
   9  -2 -10   34.64    1.87
  -9  -2  11    3.75    0.30
   9  -2  11    4.29    0.32
  -9  -2  11    3.41    0.61
   9   2 -11    3.01    0.66
   9  -2 -11    3.58    0.69
  -9  -2  12   24.61    1.40
   9   2 -12   22.04    1.50
   9  -2 -12   24.48    0.95
  -9  -2  12   22.37    0.87
   9  -2  12   23.81    0.88
   9  -2 -13    0.77    0.28
  -9  -2  13    0.51    0.21
   9  -2  13    0.48    0.21
   9  -2  13    0.56    0.28
   9  -2 -14   43.82    1.47
  -9  -2  14   41.44    1.41
  -9   2  14   43.28    1.41
   9  -2  14   44.76    1.47
   9  -2 -15    0.76    0.23
  -9   2  15    0.21    0.18
  -9  -2  15    0.63    0.18
   9  -2  15    0.76    0.23
   9  -2  16   34.27    1.10
   9  -2 -16   34.45    1.12
   9  -2  16   33.83    1.11
   9  -2  17    0.68    0.13
   9  -3   0   10.61    0.69
   9   3   0   10.85    0.70
   9   3  -1    2.44    0.42
   9  -3  -1    3.19    0.45
   9  -3  -2   46.21    1.80
   9   3  -2   46.77    1.81
   9   3  -3   24.79    1.21
   9  -3  -3   25.29    1.21
   9   3  -4    9.05    0.74
   9  -3  -4    8.55    0.72
  -9  -3   5   32.12    1.41
   9   3  -5   32.34    1.51
   9  -3  -5   31.49    1.50
   9   3  -6   -0.09    0.44
   9  -3  -6    0.27    0.40
  -9  -3   6    0.04    0.38
  -9  -3  -6    0.11    0.31
  -9  -3   6   -0.10    0.28
   9  -3   6   -0.08    0.20
   9  -3   7  141.55    4.28
  -9  -3   7  153.92    4.78
  -9  -3  -7  141.06    4.58
   9  -3  -7  137.52    4.82
   9   3  -7  142.38    4.85
  -9  -3   8   64.12    2.38
   9   3  -8   59.92    2.44
   9  -3  -8   57.33    2.42
   9  -3   8   55.83    1.80
  -9  -3   9  103.71    3.58
   9   3  -9   98.39    3.68
   9  -3  -9   96.19    3.66
   9  -3   9   98.23    2.98
   9  -3   9   97.44    3.06
   9   3 -10    3.73    0.69
   9  -3 -10    4.96    0.72
  -9  -3  10    4.08    0.32
   9  -3  10    3.76    0.31
  -9  -3  10    3.55    0.60
   9  -3  10    4.10    0.39
   9   3 -11   57.16    2.62
   9  -3 -11   59.55    2.64
  -9  -3  11   60.51    1.95
   9  -3  11   60.41    1.95
   9  -3  11   62.00    2.02
   9  -3  12    0.21    0.28
  -9  -3  12   -0.06    0.36
   9  -3 -12    0.33    0.45
   9   3 -12   -0.26    0.48
   9  -3 -12   -0.03    0.28
  -9  -3  12    0.24    0.20
   9  -3  12   -0.04    0.20
   9  -3 -13   92.47    2.80
  -9  -3  13   85.13    2.71
   9  -3  13   84.76    2.72
   9  -3  13   96.77    2.80
   9  -3 -14    3.94    0.36
  -9  -3  14    3.56    0.28
   9  -3  14    4.01    0.34
   9  -3 -15  109.03    3.24
   9  -3  15  112.77    3.21
  -9   3  15  102.30    3.17
   9  -3  15  106.55    3.21
   9  -3  16    1.61    0.19
   9  -3 -16    1.06    0.21
   9  -3  16    1.01    0.16
   9  -3  17   38.71    1.18
  -9  -4   0   -0.04    0.38
   9  -4  -1  241.46    7.34
   9   4  -1  244.86    7.37
  -9  -4   1  246.01    7.61
   9  -4  -2    5.35    0.51
   9   4  -2    5.04    0.52
  -9  -4  -2    4.98    0.61
  -9  -4   2    5.12    0.61
   9  -4   3   51.95    1.62
   9  -4  -3   51.03    1.63
  -9  -4  -3   51.34    2.09
  -9  -4   3   53.03    2.09
   9  -4   3   51.22    1.61
   9  -4  -3   50.22    1.93
   9   4  -3   51.02    1.96
   9  -4  -4    5.73    0.57
   9  -4  -4    6.12    0.33
   9  -4   4    6.16    0.33
   9   4  -4    4.53    0.55
  -9  -4  -4    5.57    0.62
  -9  -4   4    5.54    0.60
   9  -4   4    5.12    0.31
   9  -4  -4    5.46    0.35
  -9  -4   5    0.27    0.32
   9  -4   5    0.64    0.24
   9   4  -5    0.12    0.37
   9  -4  -5    0.43    0.36
   9  -4   5    0.13    0.15
   9  -4  -5    0.14    0.16
  -9  -4  -5    0.04    0.35
   9  -4   5    0.35    0.18
   9  -4  -5    0.64    0.22
   9  -4   6    7.01    0.45
   9   4  -6    7.37    0.74
   9  -4  -6    7.41    0.70
   9  -4   6    7.52    0.38
  -9  -4   6    8.48    0.77
  -9  -4  -6    7.80    0.67
  -9  -4   6    6.85    0.62
   9  -4   6    8.10    0.41
   9  -4  -6    7.90    0.46
   9   4  -7   31.68    1.57
   9  -4  -7   28.35    1.51
  -9  -4   7   34.28    1.60
   9  -4   7   31.38    1.16
  -9  -4  -7   33.62    1.44
   9  -4   7   32.24    1.09
   9  -4   8   26.29    1.02
   9  -4   8   25.91    0.93
   9   4  -8   24.82    1.42
   9  -4  -8   25.30    1.41
  -9  -4   8   27.97    1.44
   9  -4   9   16.77    0.76
   9  -4   9   16.97    0.69
   9   4  -9   14.60    1.13
   9  -4  -9   17.13    1.17
  -9  -4   9   18.05    1.16
   9  -4  10   16.30    0.76
  -9  -4  10   17.76    1.15
  -9  -4  10   15.87    1.12
   9   4 -10   15.01    1.15
   9  -4 -10   13.20    1.08
  -9  -4  10   16.24    0.68
   9  -4  10   17.03    0.68
   9  -4  11    1.62    0.32
  -9  -4  11    1.63    0.24
   9  -4  11    2.11    0.26
   9  -4 -11    1.64    0.53
  -9  -4  11    1.83    0.50
   9  -4 -11    1.56    0.33
  -9  -4  12   33.45    1.16
   9  -4  12   32.17    1.15
   9  -4  12   34.07    1.22
   9  -4 -12   34.29    1.24
   9  -4  13   18.54    0.74
   9  -4 -13   18.46    0.77
   9  -4  14   39.80    1.29
   9  -4 -14   41.16    1.34
   9  -4  14   40.62    1.30
   9  -4  15    0.95    0.19
   9  -4 -15    1.16    0.23
   9  -4  15    0.93    0.18
   9  -4  16    6.72    0.31
   9  -4 -16    6.63    0.32
   9  -5   0   28.41    1.00
   9  -5   0   26.92    0.94
  -9  -5   0   26.33    1.44
   9  -5   0   29.11    1.00
   9  -5  -1    0.72    0.20
   9  -5   1    0.46    0.22
  -9  -5  -1    0.44    0.16
   9  -5  -1    0.54    0.20
   9  -5   1    0.45    0.18
  -9  -5   1    0.28    0.40
   9  -5   2  421.81   12.22
   9  -5  -2  438.32   12.20
   9  -5   2  424.94   12.19
   9  -5  -2  422.78   12.17
   9  -5   2  418.72   12.15
  -9  -5  -2  417.80   12.80
  -9  -5   2  399.24   12.73
  -9  -5  -2  431.35   12.15
   9  -5  -2  413.54   12.18
  -9  -5  -3   -0.05    0.37
  -9  -5   3    0.14    0.39
   9  -5  -3   -0.10    0.20
   9  -5  -3   -0.11    0.19
   9  -5   3    0.07    0.18
   9  -5   3    0.04    0.17
   9  -5  -3    0.05    0.18
  -9  -5  -3   -0.06    0.15
   9  -5  -3   -0.06    0.20
   9  -5  -4   41.54    1.35
   9  -5   4   41.62    1.41
   9  -5  -4   39.62    1.36
   9  -5  -4   42.26    1.36
   9  -5   4   39.86    1.34
  -9  -5  -4   41.12    1.83
  -9  -5   4   39.06    1.77
   9  -5   4   40.02    1.34
   9  -5  -4   39.52    1.37
  -9  -5  -4   42.47    1.33
  -9  -5   5    1.10    0.39
  -9  -5  -5    1.01    0.41
   9  -5   5    0.95    0.29
   9  -5   5    0.81    0.20
   9  -5   5    0.77    0.20
   9  -5  -5    0.79    0.20
   9  -5   5    0.67    0.21
   9  -5  -5    0.60    0.24
  -9  -5  -5    0.88    0.20
   9  -5   6  128.98    3.89
   9  -5   6  123.65    3.80
   9  -5   6  130.00    3.79
  -9  -5   6  126.94    4.39
   9  -5  -6  126.28    3.79
  -9  -5  -6  122.36    4.29
   9  -5   6  127.70    3.80
  -9  -5   6  130.33    4.29
   9  -5  -6  127.93    3.85
  -9  -5  -7    1.07    0.38
   9  -5   7    1.76    0.32
   9  -5   7    1.34    0.23
   9  -5   7    1.16    0.20
   9  -5   7    1.27    0.24
  -9  -5   7    0.69    0.45
   9  -5  -7    2.20    0.31
   9  -5   8  157.66    5.02
  -9  -5   8  169.41    4.96
   9  -5   8  161.53    4.96
  -9  -5   8  171.76    5.64
   9  -5   8  175.09    4.97
   9  -5  -8  170.95    5.03
  -9  -5   9    1.11    0.24
   9  -5   9    1.35    0.25
   9  -5   9    1.52    0.33
   9  -5   9    1.13    0.25
  -9  -5   9    0.57    0.48
   9  -5  -9    1.19    0.31
  -9  -5  10   22.19    1.35
   9  -5  10   22.99    0.95
   9  -5  10   22.87    0.88
   9  -5 -10   23.54    0.95
  -9  -5  10   23.69    0.88
   9  -5  10   22.91    0.88
   9  -5  11    0.45    0.23
   9  -5  11    0.90    0.28
  -9  -5  11    0.47    0.22
   9  -5  11    0.48    0.21
   9  -5  12    7.46    0.42
   9  -5  12    7.57    0.45
  -9  -5  12    7.33    0.40
   9  -5  13    0.80    0.22
   9  -5  13    0.60    0.22
  -9  -5  13    0.58    0.18
   9  -5  14   13.97    0.56
   9  -5  14   15.29    0.58
   9  -5 -14   14.73    0.62
   9  -5 -15    1.85    0.22
   9  -5  16    1.54    0.13
   9  -5 -16    1.57    0.15
   9  -6   0   -0.01    0.23
   9  -6   0    0.14    0.21
   9  -6   0    0.58    0.14
  -9  -6   0    0.21    0.39
  -9  -6   0   -0.21    0.19
   9  -6  -1   63.68    2.03
   9  -6  -1   61.82    1.95
   9  -6   1   62.93    1.95
   9  -6   1   64.95    2.05
   9  -6  -1   64.67    2.04
  -9  -6   1   58.19    2.53
   9  -6   1   63.39    1.98
  -9  -6  -1   65.99    2.00
  -9  -6  -2    1.09    0.20
   9  -6  -2    1.31    0.25
   9  -6  -2    1.33    0.26
   9  -6   2    0.91    0.23
   9  -6  -2    0.64    0.19
   9  -6   2    1.02    0.18
   9  -6   2    0.95    0.20
  -9  -6  -2    1.40    0.48
  -9  -6   2    0.63    0.40
   9  -6   3   37.50    1.28
   9  -6   3   40.05    1.39
   9  -6  -3   39.22    1.34
   9  -6  -3   44.89    1.32
   9  -6   3   39.17    1.31
  -9  -6  -3   41.52    1.88
  -9  -6   3   37.47    1.81
  -9  -6  -3   37.64    1.31
   9  -6  -3   39.60    1.34
   9  -6   3   39.56    1.35
   9  -6  -3   40.49    1.36
   9  -6   4   19.47    0.74
   9  -6  -4   21.14    0.79
   9  -6   4   21.18    0.87
   9  -6   4   20.64    0.79
  -9  -6   4   19.43    1.18
   9  -6  -4   20.62    0.81
  -9  -6  -4   19.31    1.23
  -9  -6   4   18.59    1.19
   9  -6   4   20.14    0.77
  -9  -6  -4   20.51    0.77
   9  -6  -4   19.28    0.79
  -9  -6  -5   12.69    0.55
   9  -6  -5   12.01    0.59
   9  -6   5   12.83    0.65
   9  -6  -5   12.73    0.56
  -9  -6   5   12.19    0.95
   9  -6  -5   12.36    0.57
   9  -6   5   13.10    0.57
   9  -6   5   12.63    0.55
  -9  -6  -5   12.06    0.93
  -9  -6   5   12.18    0.91
   9  -6   5   12.12    0.56
   9  -6  -6   42.63    1.49
   9  -6   6   43.39    1.54
   9  -6  -6   43.04    1.45
   9  -6   6   45.92    1.46
  -9  -6   6   41.22    1.96
   9  -6  -6   46.07    1.46
  -9  -6   6   42.33    1.88
   9  -6   6   45.33    1.46
  -9  -6  -6   40.15    1.88
  -9  -6   6   43.62    1.46
   9  -6   6   42.07    1.46
   9  -6   7    5.55    0.45
  -9  -6   7    5.24    0.37
   9  -6   7    5.33    0.37
   9  -6   7    5.49    0.34
   9  -6   7    5.36    0.37
   9  -6  -7    5.52    0.41
  -9  -6   8   40.37    1.41
   9  -6   8   41.00    1.42
   9  -6   8   40.04    1.49
   9  -6   8   43.65    1.41
   9  -6  -8   45.03    1.48
  -9  -6   9   42.47    1.43
   9  -6   9   42.00    1.43
   9  -6   9   42.23    1.50
   9  -6   9   44.43    1.43
   9  -6  -9   41.74    1.48
  -9  -6  10   25.64    0.96
   9  -6  10   27.33    0.97
   9  -6  10   26.44    1.03
   9  -6  10   26.72    0.96
   9  -6 -10   27.60    1.03
  -9  -6  11    0.20    0.19
   9  -6  11    0.09    0.23
   9  -6  11    0.23    0.21
   9  -6 -11   -0.01    0.25
   9  -6  12   13.58    0.57
   9  -6  12   13.74    0.55
   9  -6 -12   13.13    0.60
  -9  -6  12   11.80    0.52
   9  -6  13    4.31    0.28
   9  -6  13    5.01    0.29
   9  -6 -13    4.89    0.34
   9  -6  14    7.54    0.33
   9  -6 -14    7.86    0.38
   9  -7   0   18.16    0.71
  -9  -7   0   18.85    0.72
   9  -7   0   19.59    0.80
  -9  -7   0   19.51    1.25
  -9  -7   0   20.00    0.77
   9  -7  -1   -0.47    0.22
  -9  -7  -1   -0.17    0.18
   9  -7   1   -0.19    0.16
  -9  -7   1   -0.04    0.17
   9  -7  -1   -0.04    0.25
   9  -7  -1   -0.05    0.26
  -9  -7   1   -0.23    0.40
  -9  -7   1    0.04    0.21
  -9  -7  -1   -0.04    0.19
   9  -7  -2   76.71    2.42
   9  -7   2   77.35    2.45
   9  -7  -2   74.95    2.34
  -9  -7  -2   77.05    2.35
   9  -7   2   73.03    2.33
  -9  -7   2   77.11    2.35
   9  -7   2   79.42    2.43
  -9  -7   2   73.56    2.85
   9  -7  -2   82.03    2.45
  -9  -7  -2   75.79    3.04
   9  -7   2   75.43    2.35
  -9  -7   2   76.72    3.01
  -9  -7  -2   75.62    2.38
  -9  -7  -3    0.05    0.18
   9  -7   3    0.08    0.28
   9  -7  -3    0.23    0.24
   9  -7  -3    0.02    0.24
   9  -7   3    0.12    0.23
  -9  -7  -3    0.48    0.22
   9  -7   3    0.12    0.16
  -9  -7   3   -0.09    0.17
  -9  -7   3    0.39    0.39
   9  -7   3    0.18    0.18
  -9  -7  -3   -0.12    0.41
  -9  -7   3    0.50    0.40
   9  -7   4   11.94    0.63
   9  -7   4   11.09    0.50
  -9  -7   4   10.69    0.50
   9  -7   4   12.96    0.58
   9  -7  -4   12.69    0.59
  -9  -7   4   11.55    0.90
   9  -7   4   11.03    0.51
  -9  -7  -4   10.03    0.91
  -9  -7   4    9.59    0.88
   9  -7  -4   11.54    0.53
  -9  -7  -4   12.26    0.54
   9  -7   5    2.93    0.26
  -9  -7   5    2.90    0.26
   9  -7  -5    3.20    0.32
   9  -7   5    3.15    0.31
   9  -7   5    3.00    0.36
   9  -7   5    3.08    0.29
  -9  -7   5    1.93    0.49
   9  -7  -5    3.15    0.30
  -9  -7  -5    3.55    0.30
   9  -7   6   37.74    1.28
  -9  -7   6   38.48    1.29
   9  -7   6   37.49    1.39
  -9  -7   6   35.50    1.78
   9  -7  -6   39.54    1.32
   9  -7   6   38.46    1.31
   9  -7   6   40.69    1.30
   9  -7  -6   38.82    1.33
   9  -7   7    2.87    0.26
   9  -7   7    2.56    0.36
   9  -7   7    3.36    0.31
   9  -7  -7    3.03    0.26
   9  -7   7    2.84    0.28
   9  -7  -7    3.04    0.31
  -9  -7   8    2.58    0.28
   9  -7   8    2.34    0.28
   9  -7   8    2.70    0.34
   9  -7   8    3.03    0.28
   9  -7  -8    2.78    0.31
   9  -7   9    6.30    0.43
   9  -7   9    6.67    0.37
   9  -7  -9    6.62    0.41
  -9  -7   9    6.46    0.39
   9  -7  10    4.71    0.34
   9  -7  10    4.96    0.31
   9  -7 -10    5.10    0.36
  -9  -7  10    4.22    0.31
   9  -7 -11    2.75    0.28
   9  -7  11    2.64    0.26
   9  -7  12    0.43    0.16
   9  -7 -12    0.44    0.19
  -9  -7  12    0.33    0.12
   9  -7 -13    1.17    0.18
   9  -8   0   -0.08    0.26
  -9  -8   0   -0.08    0.22
   9  -8  -1   95.97    2.95
   9  -8  -1   94.75    2.85
  -9  -8  -1   92.67    2.85
   9  -8   1   91.52    2.84
  -9  -8   1   92.68    2.85
   9  -8   1   97.94    2.96
  -9  -8   1   97.96    2.92
  -9  -8  -1   96.56    2.90
  -9  -8  -2    0.12    0.20
   9  -8   2   -0.09    0.17
  -9  -8   2    0.06    0.17
   9  -8   2    0.03    0.30
   9  -8  -2    0.80    0.30
   9  -8  -2   -0.05    0.27
   9  -8   2   -0.11    0.26
  -9  -8   2    0.15    0.24
  -9  -8   2    0.13    0.32
  -9  -8  -2    0.12    0.20
  -9  -8   3   15.74    1.06
   9  -8  -3   19.36    0.79
   9  -8   3   17.48    0.76
  -9  -8   3   19.24    0.77
  -9  -8  -3   17.73    0.72
   9  -8   3   17.05    0.79
   9  -8   3   17.76    0.68
  -9  -8   3   17.46    0.69
   9  -8  -4    2.40    0.30
   9  -8   4    2.53    0.30
   9  -8   4    1.72    0.22
  -9  -8   4    2.07    0.24
  -9  -8  -4    2.02    0.26
   9  -8   4    2.06    0.35
   9  -8  -5  157.85    4.60
   9  -8   5  153.36    4.58
   9  -8   5  150.95    4.63
   9  -8   5  151.14    4.53
  -9  -8   5  155.40    4.54
   9  -8   6    3.63    0.36
  -9  -8   6    3.84    0.28
   9  -8   7   92.19    2.85
  -9  -8   7   91.77    2.77
  -9  -8   8    0.71    0.17
   9  -8   8    0.88    0.24
   9  -8   9   41.88    1.34
  -9  -8   9   39.63    1.28
  -9  -8  10   -0.04    0.12
   9  -8  10   -0.25    0.18
   9  -8  11    5.63    0.27
   9  -9   0   42.21    1.45
  -9  -9   0   43.13    1.42
  -9  -9   0   40.85    1.35
   9  -9  -1    0.23    0.28
  -9  -9   1   -0.33    0.20
  -9  -9  -1    0.02    0.20
  -9  -9   1    0.17    0.22
   9  -9   1    0.06    0.27
   9  -9   2   40.06    1.42
   9  -9  -2   43.06    1.44
   9  -9   2   41.57    1.43
  -9  -9   2   40.00    1.34
  -9  -9   2   42.86    1.41
  -9  -9  -2   42.28    1.39
   9  -9  -3    7.03    0.43
   9  -9   3    6.44    0.41
  -9  -9   3    6.35    0.41
  -9  -9  -3    5.71    0.36
   9  -9   3    6.14    0.43
  -9  -9   3    5.27    0.33
  -9  -9   4    9.23    0.48
  -9  -9  -4    8.69    0.43
   9  -9   4    9.18    0.50
  -9  -9   4    8.36    0.40
  -9  -9   5    0.50    0.16
  -9  -9   5    0.52    0.21
   9  -9   5    0.42    0.25
   9  -9   6   28.41    1.02
  -9  -9   6   28.19    0.95
  -9  -9   6   30.32    1.03
   9  -9   7    4.55    0.32
  -9  -9   7    4.35    0.25
  -9  -9   7    5.33    0.34
   9  -9   8    5.36    0.31
  -9  -9   8    4.92    0.25
  -9  -9   8    5.60    0.33
   9  -9   9    2.26    0.19
   9  -9  10   10.54    0.37
  -9  -9  11    3.66    0.18
  -9 -10   0    0.01    0.18
  -9 -10   1   24.66    0.82
  -9 -10   1   24.65    0.87
  -9 -10  -1   24.09    0.86
  -9 -10   2    0.39    0.15
  -9 -10   2    0.08    0.18
  -9 -10  -2    0.19    0.17
  -9 -10   3    9.12    0.40
  -9 -10   3   10.96    0.48
  -9 -10   4   -0.14    0.14
  -9 -10   4    0.20    0.18
   9 -10   5    3.45    0.26
  -9 -10   5    2.45    0.23
   9 -10   6    2.65    0.22
  -9 -10   6    2.10    0.21
  -9 -11   0   62.03    1.87
  -9 -11   1    0.19    0.14
  -9 -11   2   33.55    1.06
  -9 -11   3    0.67    0.13
  -9 -11   4   20.45    0.67
  -9 -11   5    2.66    0.16
  10   0   0  325.71    9.77
  10   0   1   -0.13    0.37
  10   0  -1    0.03    0.40
  10   0  -2    6.42    0.64
  10   0  -3   -0.23    0.46
  10   0  -4  102.19    3.58
  10   0  -5    0.23    0.47
  10   0  -6  141.79    4.63
 -10   0   6  130.35    4.21
  10   0  -7   -0.53    0.56
  10   0  -7   -0.16    0.18
  10   0  -8   77.01    3.04
  10   0  -8   74.75    2.35
 -10   0   8   77.77    2.62
  10   0  -9    1.21    0.49
  10   0  -9   -0.10    0.20
  10   0 -10   16.39    1.27
 -10   0  10   19.14    1.13
  10   0 -10   18.21    0.74
  10   0 -11   -0.50    0.60
 -10   0  11   -0.05    0.35
  10   0  11   -0.11    0.17
  10   0 -11    0.07    0.22
  10   0 -12   -0.15    0.52
  10   0  12    0.35    0.18
  10   0 -12    0.63    0.23
 -10   0  12    0.66    0.38
  10   0 -13   -0.08    0.21
  10   0 -14    6.74    0.38
  10   0  15    0.05    0.14
  10   0  16    0.48    0.13
  10   0  16    0.79    0.20
  10   0  17   -0.04    0.11
  10  -1   0   -0.45    0.53
  10   1   0   -0.39    0.49
  10  -1   1  856.70   24.65
  10   1   1  851.40   24.64
  10  -1  -1  841.19   24.65
  10   1  -1  853.71   24.66
  10  -1  -2    0.49    0.43
  10   1  -2    0.42    0.44
  10   1  -3  188.59    6.03
  10  -1  -3  192.09    6.04
  10   1  -4    4.79    0.64
  10  -1  -4    5.13    0.67
  10   1  -5  103.01    3.67
  10  -1  -5  105.81    3.70
  10  -1  -6    1.48    0.49
  10   1  -6    1.81    0.55
  10  -1  -7  239.97    7.64
  10   1  -7  236.58    7.63
  10  -1  -7  235.48    6.96
 -10  -1   7  248.54    7.33
  10   1  -8    6.89    0.80
  10  -1  -8    6.52    0.78
  10  -1  -8    7.27    0.42
  10   1  -8    7.27    0.39
 -10  -1   8    6.91    0.63
 -10  -1   9   13.86    0.89
  10   1  -9   16.05    1.16
  10  -1  -9   13.15    1.07
 -10   1   9   14.55    0.91
  10  -1  -9   14.62    0.65
  10   1 -10    5.03    0.80
  10  -1 -10    5.41    0.82
 -10   1  10    5.84    0.63
  10  -1 -10    5.83    0.41
  10  -1 -11   86.18    3.56
  10   1 -11   84.91    3.53
 -10  -1  11   94.02    3.39
 -10   1  11   88.66    3.22
  10  -1  11   87.98    2.72
  10  -1 -11   92.30    2.80
  10   1 -12    3.11    0.68
  10  -1 -12    3.93    0.74
  10  -1  12    2.58    0.26
  10   1  12    3.24    0.27
  10  -1 -12    3.52    0.35
 -10  -1  12    2.89    0.56
  10  -1 -13    0.24    0.23
  10   1  14    0.08    0.14
  10  -1 -14    0.11    0.22
  10  -1  15   14.04    0.56
  10  -1 -15   14.57    0.58
  10  -1  15   14.65    0.63
  10  -1  16   11.71    0.49
  10  -1  16   10.86    0.43
  10   1  17    0.34    0.13
  10  -2   0   54.49    2.09
  10   2   0   56.34    2.09
  10  -2  -1    0.17    0.38
  10   2  -1    0.30    0.37
  10  -2  -2   83.52    2.92
  10   2  -2   82.32    2.91
  10   2  -3    0.72    0.40
  10  -2  -3    1.00    0.43
  10   2  -4   28.63    1.42
  10  -2  -4   28.89    1.43
  10  -2   5    6.77    0.35
  10   2  -5    7.37    0.71
  10  -2  -5    6.10    0.69
  10  -2  -6   16.34    0.67
  10   2  -6   16.62    1.12
  10  -2  -6   15.77    1.06
 -10  -2   7    7.59    0.68
  10   2  -7    8.46    0.82
  10  -2  -7    7.97    0.85
  10  -2  -7    6.99    0.42
 -10  -2   8   14.76    0.95
  10  -2  -8   14.95    1.11
  10  -2  -8   15.16    0.66
  10   2  -8   13.64    1.06
 -10   2   8   13.97    0.83
  10  -2  -9    5.05    0.39
 -10  -2   9    4.14    0.58
  10   2  -9    4.91    0.72
  10  -2  -9    5.63    0.74
 -10  -2  10   17.02    1.08
  10  -2 -10   19.07    0.79
  10   2 -10   15.26    1.21
  10  -2 -10   18.82    1.31
 -10  -2  11    0.23    0.43
  10  -2  11    0.05    0.18
  10  -2 -11    0.23    0.28
  10   2 -11    0.14    0.50
  10  -2 -11   -0.21    0.48
 -10  -2  12    2.27    0.52
  10  -2 -12    1.75    0.60
  10   2 -12    1.61    0.57
  10  -2  12    2.01    0.25
  10  -2 -12    2.02    0.32
  10  -2 -13    1.70    0.30
  10  -2  13    1.48    0.32
  10  -2 -14    5.06    0.38
  10  -2  14    5.94    0.41
  10  -2  15    0.85    0.23
  10  -2 -15    0.91    0.22
  10  -2  15    0.93    0.20
  10  -2  16    0.29    0.17
  10  -2 -16    0.22    0.15
  10  -2  16    0.60    0.15
  10   2  17    1.77    0.15
  10  -3   0   -0.06    0.34
  10   3   0   -0.22    0.39
  10  -3  -1  703.42   20.53
  10   3  -1  706.52   20.54
  10  -3  -2    3.41    0.52
  10   3  -2    2.92    0.50
  10   3  -3  539.89   15.99
  10  -3  -3  544.42   15.98
  10  -3  -4    9.39    0.46
  10   3  -4    9.30    0.78
  10  -3  -4    8.34    0.75
  10   3  -5  467.54   14.29
  10  -3  -5  461.71   14.27
  10  -3   5  481.34   13.68
  10  -3   5  473.43   13.74
  10  -3  -5  488.44   13.69
  10  -3   5  471.08   13.69
  10   3  -6    7.04    0.72
  10  -3  -6    7.70    0.74
 -10  -3  -6    6.24    0.63
 -10  -3   6    6.22    0.60
  10  -3   6    6.30    0.36
  10  -3   6    6.07    0.33
  10  -3   7  694.90   20.08
  10   3  -7  721.12   20.77
  10  -3  -7  694.89   20.73
 -10  -3   7  726.12   20.61
 -10  -3  -7  691.58   20.44
  10  -3  -7  696.99   20.07
 -10  -3   8   65.51    2.52
  10   3  -8   60.47    2.59
  10  -3  -8   61.52    2.61
  10  -3   8   62.73    2.04
  10  -3  -8   61.25    2.03
 -10  -3   9  232.62    6.98
  10   3  -9  204.13    7.06
  10  -3  -9  198.14    7.03
  10  -3  -9  217.39    6.39
  10  -3   9  216.47    6.39
  10  -3  10   23.89    0.97
  10   3 -10   21.93    1.45
  10  -3 -10   21.64    1.43
 -10  -3  10   22.65    1.32
  10  -3  10   23.07    0.86
  10  -3 -10   25.57    0.97
  10  -3 -11   42.88    2.22
  10   3 -11   46.34    2.28
 -10  -3  11   48.64    2.19
  10  -3 -11   49.68    1.67
  10  -3  11   47.24    1.57
  10  -3  11   51.78    1.69
  10  -3 -12    7.42    0.50
  10  -3  12    6.47    0.47
  10  -3 -13   32.55    1.20
  10  -3  13   33.55    1.20
  10  -3  14   50.36    1.60
  10  -3 -14   48.53    1.60
  10  -3  14   47.08    1.55
  10  -3  15   15.75    0.61
  10  -3 -15   14.66    0.63
  10  -3  15   16.14    0.60
  10  -3  16   20.39    0.70
  10  -3  16   21.81    0.72
  10  -3 -16   21.80    0.73
  10  -3 -17    2.20    0.17
  10  -4   0   75.99    2.32
  10  -4   0   76.09    2.34
  10  -4  -1   -0.12    0.18
  10  -4  -1   -0.03    0.18
  10  -4   1   -0.12    0.17
 -10  -4   1    0.66    0.40
  10  -4  -1   -0.18    0.29
  10   4  -1   -0.22    0.31
  10  -4   2   87.04    2.61
  10  -4  -2   85.66    2.60
  10  -4   2   85.56    2.58
 -10  -4  -2   84.23    3.13
 -10  -4   2   78.12    3.06
  10  -4   2   85.84    2.57
  10  -4  -2   79.71    2.90
  10   4  -2   82.42    2.93
  10  -4  -3    9.80    0.75
  10   4  -3   10.56    0.76
  10  -4  -3   10.83    0.52
 -10  -4  -3   10.02    0.86
 -10  -4   3   10.06    0.80
  10  -4   3   10.54    0.48
  10  -4  -3   11.76    0.52
  10  -4   3   11.05    0.49
  10  -4  -3   11.90    0.50
  10  -4   3   10.46    0.52
  10  -4  -4   13.12    0.84
  10   4  -4   11.07    0.81
 -10  -4  -4   14.20    0.95
 -10  -4   4   13.04    0.90
  10  -4   4   12.54    0.53
  10  -4  -4   12.32    0.57
  10  -4  -4   13.70    0.55
  10  -4   4   12.78    0.53
  10  -4   4   12.46    0.59
  10   4  -5    8.48    0.76
  10  -4  -5    7.48    0.69
  10  -4   5    8.57    0.41
  10  -4  -5    8.69    0.42
 -10  -4  -5    7.96    0.75
  10  -4   5    8.26    0.42
 -10  -4   5    9.30    0.75
  10  -4  -5    8.02    0.46
  10   4  -6   17.14    1.09
  10  -4  -6   14.67    1.00
 -10  -4   6   16.37    1.04
  10  -4  -6   16.59    0.64
  10  -4   6   16.99    0.64
  10  -4   6   15.65    0.71
 -10  -4  -6   16.56    1.01
 -10  -4   6   14.97    0.95
  10  -4  -6   16.45    0.71
  10   4  -7   12.00    0.96
  10  -4  -7    9.82    0.90
  10  -4   7   11.80    0.60
 -10  -4   7   12.68    0.95
 -10  -4  -7   12.19    0.83
  10  -4  -7   12.14    0.60
  10  -4  -8    6.17    0.74
  10   4  -8    7.16    0.79
  10  -4   8    7.85    0.51
  10  -4   9   21.46    0.91
  10  -4  -9   20.20    1.31
  10   4  -9   19.30    1.31
  10  -4   9   21.83    0.81
  10  -4 -10    4.29    0.40
  10  -4 -10    4.03    0.66
 -10  -4  10    5.56    0.69
  10  -4  10    4.28    0.32
  10  -4  10    4.55    0.42
  10  -4 -11   22.39    0.91
  10  -4  11   22.67    0.86
  10  -4  11   21.29    0.81
  10  -4  11   21.15    0.91
  10  -4  12    3.40    0.36
  10  -4 -12    4.09    0.40
  10  -4  12    4.37    0.34
  10  -4  13   31.02    1.09
  10  -4 -13   28.77    1.10
  10  -4  13   30.06    1.05
  10  -4  14    2.86    0.28
  10  -4 -14    3.05    0.31
  10  -4  14    2.78    0.26
  10  -4  15   12.84    0.51
  10  -4  15   14.09    0.52
  10  -4 -15   13.57    0.55
  10  -4  16    0.16    0.12
  10  -4 -16    0.21    0.14
  10  -4 -16   -0.03    0.13
  10  -5   0    0.16    0.20
  10  -5   0   -0.21    0.19
 -10  -5   0   -0.10    0.40
  10  -5   0   -0.02    0.19
  10  -5   0    0.01    0.19
  10  -5   1    3.43    0.32
  10  -5  -1    3.60    0.30
  10  -5   1    3.71    0.29
  10  -5  -1    3.53    0.29
  10  -5  -1    3.84    0.32
  10  -5   1    3.74    0.27
 -10  -5   1    4.13    0.61
 -10  -5  -1    3.86    0.27
  10  -5  -2   15.31    0.64
  10  -5  -2   16.44    0.65
  10  -5   2   16.44    0.70
  10  -5  -2   16.53    0.68
  10  -5   2   15.79    0.66
  10  -5   2   16.58    0.65
 -10  -5  -2   14.38    1.04
 -10  -5   2   16.02    1.06
 -10  -5  -2   15.16    0.61
  10  -5  -2   15.22    0.65
  10  -5  -3   14.79    0.63
  10  -5  -3   16.23    0.66
  10  -5   3   15.68    0.69
  10  -5   3   15.69    0.64
  10  -5  -3   15.47    0.65
 -10  -5  -3   14.42    1.02
 -10  -5   3   14.95    1.03
  10  -5   3   15.50    0.63
  10  -5  -3   14.83    0.66
 -10  -5  -3   16.11    0.61
  10  -5  -4   10.98    0.49
  10  -5  -4    9.26    0.51
  10  -5  -4   10.85    0.52
  10  -5   4   10.61    0.49
 -10  -5  -4   10.43    0.87
 -10  -5   4    9.97    0.83
  10  -5   4   10.23    0.50
 -10  -5  -4   10.56    0.47
  10  -5  -4   10.02    0.51
 -10  -5   5    2.78    0.48
 -10  -5  -5    2.19    0.48
  10  -5  -5    1.64    0.25
  10  -5   5    1.53    0.24
  10  -5   5    1.91    0.30
  10  -5   5    1.73    0.24
 -10  -5  -5    2.02    0.23
  10  -5  -5    2.31    0.29
 -10  -5   6   73.20    2.82
  10  -5   6   70.54    2.21
  10  -5  -6   69.86    2.21
  10  -5   6   71.89    2.31
  10  -5   6   71.06    2.23
 -10  -5  -6   72.81    2.74
 -10  -5   6   66.79    2.66
  10  -5  -6   74.36    2.29
 -10  -5  -7    1.47    0.38
  10  -5   7    1.57    0.31
  10  -5   7    2.07    0.22
  10  -5   7    1.18    0.25
 -10  -5   7    1.80    0.53
  10  -5  -7    1.25    0.31
  10  -5   8  177.42    5.33
  10  -5   8  167.78    5.21
 -10  -5   8  188.14    5.97
  10  -5   8  179.51    5.24
  10  -5  -8  185.35    5.32
  10  -5   9    2.47    0.27
  10  -5   9    2.34    0.29
 -10  -5   9    2.06    0.55
  10  -5   9    2.05    0.35
  10  -5  -9    2.74    0.36
  10  -5  10   35.16    1.23
  10  -5  10   35.30    1.30
  10  -5 -10   36.01    1.30
  10  -5  11    0.59    0.25
  10  -5  11    0.90    0.29
  10  -5  12   19.01    0.74
  10  -5  12   19.02    0.77
  10  -5  13    1.10    0.23
  10  -5 -13    1.13    0.27
  10  -5 -14  102.03    3.02
  10  -5  14   98.98    2.97
  10  -5 -15    0.35    0.17
  10  -6   0    3.73    0.34
  10  -6   0    3.97    0.34
 -10  -6   0    3.27    0.28
  10  -6  -1    0.46    0.23
  10  -6   1    0.49    0.25
  10  -6  -1    0.53    0.24
 -10  -6   1    0.84    0.42
  10  -6   1    0.52    0.20
 -10  -6  -1    0.45    0.19
 -10  -6  -2    3.26    0.27
  10  -6  -2    3.28    0.31
  10  -6   2    2.67    0.30
  10  -6  -2    3.39    0.32
  10  -6   2    3.20    0.28
 -10  -6  -2    2.81    0.60
 -10  -6   2    2.42    0.54
  10  -6  -3    6.12    0.40
  10  -6  -3    7.10    0.43
  10  -6   3    6.73    0.42
  10  -6  -3    6.42    0.38
 -10  -6  -3    6.87    0.78
 -10  -6   3    6.54    0.72
  10  -6   3    6.33    0.39
  10  -6  -3    6.45    0.40
 -10  -6  -3    7.07    0.37
  10  -6  -4    9.43    0.47
  10  -6   4    8.78    0.54
  10  -6  -4    8.64    0.45
  10  -6  -4    8.83    0.49
  10  -6   4    8.35    0.46
 -10  -6   4    8.97    0.82
  10  -6   4    9.25    0.46
 -10  -6  -4    7.98    0.82
 -10  -6   4    8.39    0.79
 -10  -6  -4    8.74    0.44
  10  -6  -4    9.12    0.49
 -10  -6  -5    0.11    0.39
 -10  -6   5   -0.25    0.35
  10  -6   5    0.14    0.29
  10  -6  -5    0.05    0.22
  10  -6   5    0.30    0.21
 -10  -6   5   -0.26    0.45
  10  -6   5    0.31    0.21
  10  -6  -5    0.47    0.23
  10  -6  -5    0.24    0.21
 -10  -6  -5    0.12    0.18
  10  -6  -6   23.09    0.90
  10  -6   6   23.63    0.96
  10  -6  -6   21.95    0.86
  10  -6  -6   23.82    0.86
  10  -6   6   23.82    0.86
 -10  -6   6   20.79    1.24
  10  -6   6   21.62    0.85
 -10  -6  -6   20.85    1.25
  10  -6   6   21.86    0.84
  10  -6  -7    4.18    0.37
  10  -6   7    4.39    0.42
  10  -6  -7    3.97    0.34
  10  -6   7    4.16    0.31
  10  -6   7    3.40    0.32
  10  -6   7    4.04    0.31
  10  -6   8    1.71    0.24
  10  -6   8    1.78    0.26
 -10  -6   8    1.32    0.47
  10  -6   8    1.95    0.35
  10  -6  -8    1.49    0.29
  10  -6  -8    1.76    0.28
  10  -6   9    9.65    0.48
  10  -6   9    9.19    0.55
  10  -6  -9    8.21    0.51
  10  -6  10    0.37    0.22
  10  -6  10    0.08    0.26
  10  -6 -10    0.06    0.25
  10  -6  11    2.51    0.27
  10  -6  11    2.74    0.31
  10  -6  12    0.21    0.19
  10  -6  12    0.08    0.20
  10  -6 -12    0.10    0.23
  10  -6  13    3.35    0.24
  10  -6 -13    3.15    0.28
  10  -6  13    2.52    0.22
  10  -6  14    0.46    0.14
  10  -6  14    0.30    0.10
  10  -7   0   -0.16    0.27
 -10  -7   0   -0.06    0.41
 -10  -7   0    0.04    0.19
  10  -7   0   -0.17    0.27
  10  -7  -1   42.55    1.43
  10  -7  -1   40.22    1.43
 -10  -7   1   36.84    1.91
 -10  -7  -1   40.46    1.38
 -10  -7   1   42.36    1.40
 -10  -7  -2    1.71    0.24
  10  -7  -2    1.61    0.29
  10  -7  -2    1.78    0.31
  10  -7   2    1.95    0.30
  10  -7   2    1.86    0.25
 -10  -7  -2    0.86    0.47
 -10  -7   2    1.84    0.50
  10  -7  -3    7.42    0.47
  10  -7   3    7.54    0.45
 -10  -7   3    7.04    0.73
  10  -7  -3    8.08    0.45
  10  -7   3    7.81    0.51
  10  -7   3    7.37    0.37
  10  -7   3    7.14    0.40
 -10  -7  -3    7.57    0.82
 -10  -7   3    7.74    0.80
 -10  -7  -3    7.74    0.42
 -10  -7  -4    4.12    0.31
  10  -7   4    3.43    0.26
  10  -7   4    3.47    0.39
  10  -7  -4    4.54    0.37
  10  -7   4    3.83    0.35
  10  -7   4    3.33    0.30
 -10  -7   4    3.23    0.58
 -10  -7  -4    4.35    0.65
 -10  -7   4    3.77    0.59
  10  -7   5    1.26    0.33
  10  -7   5    0.86    0.18
 -10  -7   5    1.75    0.50
  10  -7   5    1.05    0.23
  10  -7  -5    1.20    0.25
 -10  -7  -5    1.28    0.22
  10  -7   5    1.04    0.26
  10  -7  -5    1.46    0.27
  10  -7   6    6.68    0.49
  10  -7   6    8.06    0.43
  10  -7  -6    7.69    0.44
 -10  -7   6    7.44    0.77
  10  -7  -6    7.29    0.42
  10  -7   6    7.49    0.43
  10  -7   7   11.26    0.61
  10  -7  -7   12.52    0.53
  10  -7   7   11.90    0.54
  10  -7  -7   11.69    0.57
  10  -7   8    0.16    0.20
  10  -7   8    0.22    0.26
  10  -7  -8    0.32    0.23
  10  -7   9    2.99    0.33
  10  -7  -9    3.52    0.32
  10  -7   9    3.93    0.29
  10  -7  10    3.79    0.32
  10  -7 -10    3.78    0.32
  10  -7  10    3.68    0.27
  10  -7 -11    9.74    0.46
  10  -7  11    9.53    0.45
  10  -7 -12    2.46    0.24
  10  -7  12    2.38    0.21
  10  -8   0    0.13    0.26
  10  -8   0   -0.07    0.18
 -10  -8   0    0.32    0.21
  10  -8  -1    0.27    0.29
  10  -8  -1    0.35    0.27
 -10  -8  -1    0.35    0.20
 -10  -8   1    0.27    0.21
  10  -8  -2    0.23    0.28
  10  -8   2    0.02    0.26
  10  -8   2   -0.23    0.28
 -10  -8   2    0.17    0.22
 -10  -8  -2    0.55    0.21
  10  -8  -3    1.38    0.30
  10  -8   3    1.70    0.29
  10  -8   3    1.47    0.32
 -10  -8   3    1.66    0.28
 -10  -8  -3    1.56    0.24
 -10  -8  -4    0.49    0.20
  10  -8   4    0.47    0.31
  10  -8  -4    0.99    0.27
  10  -8   4    0.73    0.25
  10  -8   5    2.98    0.37
  10  -8  -5    3.47    0.32
  10  -8   5    3.25    0.31
  10  -8   6    0.44    0.28
  10  -8  -6    0.23    0.20
  10  -8   7   11.76    0.57
  10  -8   8    1.32    0.26
  10  -8   9    3.01    0.28
  10  -8  10   -0.28    0.18
  10  -8  11    3.25    0.21
 -10  -9   0    0.19    0.21
  10  -9   0    0.61    0.28
 -10  -9   1    0.61    0.21
 -10  -9  -1    0.48    0.20
  10  -9   1    0.31    0.29
  10  -9  -1    0.49    0.28
 -10  -9   2    2.57    0.28
 -10  -9  -2    2.55    0.26
  10  -9   2    2.36    0.34
  10  -9  -2    2.98    0.33
  10  -9   2    2.82    0.32
  10  -9   3  126.24    3.74
 -10  -9   3  125.53    3.71
 -10  -9  -3  121.86    3.67
  10  -9  -3  126.26    3.73
  10  -9   3  117.30    3.70
  10  -9   4    0.96    0.28
 -10  -9   4    1.32    0.25
 -10  -9   5    4.43    0.33
  10  -9   5    4.25    0.35
 -10  -9   6   14.49    0.60
  10  -9   6   13.97    0.60
 -10  -9   7   31.28    1.03
  10  -9   7   28.79    1.02
 -10  -9   8    7.67    0.37
  10  -9   8    7.63    0.37
 -10  -9   9    9.65    0.39
  10  -9   9    8.63    0.37
 -10 -10   0    3.75    0.27
 -10 -10   1    0.38    0.18
 -10 -10  -1    0.31    0.17
 -10 -10   2    2.65    0.24
 -10 -10  -2    2.37    0.21
 -10 -10   3    0.67    0.18
 -10 -10   4    0.05    0.16
  10 -10   4    1.40    0.23
  10 -10   5    1.29    0.20
 -10 -10   5    0.13    0.15
 -10 -10   6    0.13    0.13
  10 -10   6    1.20    0.17
 -10 -10   7    2.32    0.17
 -10 -10   8    0.03    0.09
 -10 -11   1   42.36    1.29
 -10 -11   2    1.70    0.15
 -10 -11   3   11.42    0.41
 -10 -11   4    2.58    0.15
  11   0   0    0.18    0.39
  11   0   1    0.04    0.39
  11   0  -1   -0.07    0.39
  11   0  -2    1.66    0.50
  11   0  -3    0.04    0.45
  11   0  -4    1.88    0.53
  11   0  -5   -0.25    0.49
  11   0  -6   11.55    0.99
 -11   0   6   11.69    0.70
  11   0   6   11.67    0.47
  11   0  -6   11.88    0.52
 -11   0   7   -0.15    0.28
  11   0  -7   -0.23    0.22
  11   0  -8    3.34    0.31
  11   0  -8    3.89    0.73
  11   0  -9   -0.04    0.22
  11   0  -9    0.47    0.49
  11   0 -10    7.88    0.94
 -11   0  10    8.00    0.76
  11   0 -10    8.53    0.47
 -11   0  11    0.05    0.34
  11   0 -11   -0.32    0.23
  11   0 -12    0.24    0.21
  11   0 -12   -0.07    0.48
  11   0  13   -0.12    0.18
  11   0 -13   -0.20    0.20
  11   0  14    2.86    0.24
  11   0  15   -0.10    0.13
  11   0  16    2.40    0.24
  11  -1   0  258.51    8.02
  11   1   0  263.75    8.02
  11  -1  -1    5.76    0.64
  11  -1   1    4.13    0.60
  11   1   1    4.97    0.60
  11   1  -1    5.16    0.62
  11  -1  -2   19.69    1.13
  11   1  -2   21.91    1.16
  11  -1  -3    5.23    0.63
  11   1  -3    4.10    0.63
  11   1  -4   25.91    1.37
  11  -1  -4   24.16    1.33
  11  -1  -5   13.44    1.02
  11  -1  -5   13.56    0.59
  11  -1   5   13.57    0.54
  11   1  -6   17.18    1.14
  11  -1  -6   17.90    1.15
  11  -1   6   15.39    0.60
  11  -1  -6   16.07    0.66
  11   1  -7   76.31    3.05
  11  -1  -7   70.74    2.99
  11   1  -7   78.37    2.37
  11  -1  -7   76.04    2.39
 -11  -1   7   76.26    2.73
  11   1  -8   13.11    1.07
  11  -1  -8   14.70    1.14
  11   1  -8   15.75    0.63
  11  -1  -8   15.08    0.66
 -11  -1   8   15.76    0.92
  11   1  -9   17.86    1.31
  11  -1  -9   15.08    1.23
  11   1  -9   18.51    0.71
  11  -1  -9   17.40    0.74
 -11  -1   9   18.31    1.03
  11  -1 -10    9.93    0.52
  11   1 -10    8.89    0.95
  11  -1 -10    9.73    0.97
 -11   1  10    9.12    0.76
  11   1 -11  135.20    5.08
  11  -1 -11  136.49    5.10
  11  -1 -11  144.08    4.27
  11   1  11  139.18    4.17
  11   1 -12    0.07    0.55
  11  -1 -12    0.51    0.53
  11  -1 -12    0.92    0.27
  11   1  12    1.04    0.18
  11  -1 -13    6.39    0.41
  11  -1  13    6.49    0.37
  11  -1  14    0.91    0.28
  11  -1 -14    0.62    0.22
  11  -1  14    0.86    0.19
  11  -1 -15  127.33    3.86
  11  -1  15  128.46    3.84
  11  -1  16    1.70    0.16
  11   1  16    1.92    0.22
  11  -1  16    1.30    0.21
  11   1  17   17.32    0.57
  11  -2   0   -0.11    0.38
  11   2   0   -0.04    0.35
  11  -2  -1   18.94    1.07
  11   2  -1   19.16    1.07
  11  -2  -2    0.71    0.41
  11   2  -2    1.17    0.42
  11   2  -3   25.94    1.34
  11  -2  -3   28.17    1.39
  11  -2   4    5.37    0.31
  11  -2  -4    4.87    0.33
  11   2  -4    5.23    0.66
  11  -2  -4    3.89    0.61
  11   2  -5   10.02    0.89
  11  -2  -5   10.63    0.90
  11  -2   5   10.79    0.47
  11  -2  -5   10.73    0.51
  11  -2   6    2.85    0.23
  11   2  -6    2.41    0.58
  11  -2  -6    1.57    0.52
  11  -2   6    2.93    0.26
  11  -2  -6    2.43    0.28
  11   2  -7   20.86    1.31
  11  -2  -7   20.74    1.32
 -11  -2   7   21.33    1.15
  11  -2  -7   21.08    0.83
  11  -2   7   21.34    0.79
  11  -2  -8    1.12    0.55
  11   2  -8    0.37    0.50
 -11  -2   8    1.05    0.42
  11  -2  -8    0.69    0.26
 -11  -2   9   11.06    0.86
  11   2  -9    9.29    0.98
  11  -2  -9    9.94    1.00
  11  -2  -9   11.03    0.57
 -11  -2  10    3.61    0.55
  11   2 -10    4.37    0.75
  11  -2 -10    3.00    0.71
  11  -2 -10    4.99    0.41
  11   2 -11    1.48    0.62
  11  -2 -11    2.34    0.67
 -11  -2  11    2.82    0.57
  11  -2 -11    2.67    0.35
  11  -2 -12    0.28    0.25
  11  -2  12    0.05    0.27
  11  -2  13    0.50    0.22
  11  -2 -13    0.57    0.26
  11  -2  13    0.41    0.27
  11  -2  14    0.90    0.21
  11  -2 -14    0.91    0.24
  11  -2  14    1.03    0.26
  11  -2  15    1.46    0.20
  11  -2 -15    1.52    0.22
  11  -2  15    1.22    0.23
  11  -2  16    0.39    0.13
  11  -2  16    0.49    0.16
  11  -2 -17    0.03    0.11
  11  -3   0  143.29    4.24
  11  -3  -1    6.30    0.36
  11  -3  -1    6.04    0.64
  11   3  -1    5.93    0.65
  11  -3   2  182.98    5.51
  11  -3  -2  196.16    5.53
  11  -3  -2  185.82    5.99
  11   3  -2  187.17    5.99
  11  -3  -3   22.30    1.23
  11   3  -3   22.76    1.23
  11  -3   3   24.88    0.88
  11  -3   3   23.44    0.84
  11  -3  -3   22.81    0.87
  11  -3  -3   24.83    0.86
  11  -3   3   23.72    0.84
  11  -3   3   22.97    0.87
  11   3  -4  102.79    3.70
  11  -3  -4  106.97    3.72
  11  -3   4  107.72    3.19
  11  -3  -4  105.55    3.23
  11  -3  -4  109.47    3.19
  11  -3   4  103.48    3.17
  11  -3   4  105.35    3.22
  11  -3  -5   98.67    2.84
  11  -3   5   91.85    2.89
  11  -3   5   93.04    2.82
  11   3  -5   95.74    3.44
  11  -3  -5   89.86    3.39
  11  -3   5   91.80    2.83
  11  -3  -6   18.88    0.67
  11  -3   6   17.35    0.66
 -11  -3  -6   16.77    1.04
 -11  -3   6   17.52    1.01
  11  -3   6   17.36    0.69
  11   3  -6   15.85    1.13
  11  -3  -6   17.63    1.15
  11   3  -7  257.15    8.24
  11  -3  -7  253.83    8.22
 -11  -3   7  267.23    8.11
 -11  -3  -7  243.77    7.93
  11  -3   7  262.82    7.50
  11  -3  -7  254.55    7.55
  11   3  -8   80.11    3.31
  11  -3  -8   82.68    3.34
 -11  -3   8   89.51    3.25
  11  -3   8   84.75    2.74
  11  -3   8   90.09    2.68
  11  -3  -8   86.76    2.74
  11   3  -9  158.99    5.78
  11  -3  -9  168.57    5.82
 -11  -3   9  185.80    5.71
  11  -3   9  172.12    5.12
  11  -3   9  177.21    5.05
  11  -3  -9  159.29    5.10
  11   3 -10   12.55    1.10
  11  -3 -10   13.57    1.14
 -11  -3  10   14.52    1.03
  11  -3  10   15.14    0.64
  11  -3 -10   14.53    0.71
  11  -3  10   14.78    0.72
  11   3 -11   67.04    3.00
  11  -3 -11   63.00    2.96
 -11  -3  11   73.40    2.96
  11  -3  11   76.26    2.41
  11  -3 -11   76.85    2.40
  11  -3  11   75.76    2.33
  11  -3  12    1.51    0.32
  11  -3 -12    1.42    0.31
  11  -3  12    1.32    0.26
  11  -3  13  112.71    3.42
  11  -3 -13  109.67    3.41
  11  -3  13  112.58    3.37
  11  -3  14    4.97    0.35
  11  -3 -14    4.22    0.35
  11  -3  14    3.98    0.30
  11  -3  15  143.45    4.09
  11  -3 -15  135.87    4.09
  11  -3  15  137.60    4.07
  11  -3  16    0.61    0.13
  11  -3  16    0.54    0.12
  11  -4   0   -0.08    0.19
  11  -4   0    0.22    0.19
  11  -4   0   -0.03    0.17
  11  -4   0    0.10    0.22
  11  -4   1   39.30    1.31
  11  -4  -1   39.24    1.30
  11  -4  -1   39.33    1.31
  11  -4   1   40.53    1.31
  11  -4   1   38.43    1.28
  11  -4  -1   36.94    1.27
  11  -4  -2    0.11    0.15
  11  -4   2    0.06    0.21
  11   4  -2    0.19    0.33
  11  -4   2   -0.06    0.21
  11  -4  -2    0.29    0.32
  11  -4  -2   -0.09    0.19
  11  -4   2   -0.01    0.20
 -11  -4  -2    0.10    0.41
 -11  -4   2   -0.19    0.40
  11  -4   2    0.06    0.20
  11  -4  -2    0.02    0.20
  11  -4  -2    0.04    0.22
  11  -4  -3   25.99    0.94
  11  -4  -3   24.92    0.87
  11  -4   3   25.90    0.95
  11  -4  -3   26.65    0.92
  11  -4   3   24.51    0.90
  11  -4  -3   23.95    0.93
 -11  -4  -3   24.96    1.37
 -11  -4   3   24.47    1.33
  11  -4   3   24.96    0.90
  11  -4  -3   24.53    1.24
  11   4  -3   24.36    1.26
  11  -4   4    0.20    0.24
  11  -4  -4    0.18    0.16
  11  -4  -4    0.79    0.33
  11   4  -4    0.95    0.33
  11  -4  -4    0.25    0.19
  11  -4   4    0.27    0.18
 -11  -4  -4    0.60    0.39
  11  -4   4    0.22    0.19
 -11  -4   4    0.98    0.38
  11  -4  -4    0.22    0.21
  11   4  -5   38.69    1.80
  11  -4  -5   37.83    1.77
  11  -4  -5   44.02    1.38
  11  -4   5   41.46    1.37
 -11  -4  -5   41.09    1.87
 -11  -4   5   40.61    1.81
  11  -4  -5   41.20    1.42
 -11  -4  -6    1.26    0.34
 -11  -4   6    1.57    0.32
  11   4  -6   -0.20    0.46
  11  -4  -6   -0.05    0.44
  11  -4   6    0.22    0.16
  11  -4  -6    0.27    0.17
 -11  -4   6    0.05    0.39
  11  -4  -6    0.41    0.25
  11  -4   7   21.20    0.89
  11  -4   7   21.85    0.77
 -11  -4   7   22.13    1.28
 -11  -4  -7   19.03    1.12
  11   4  -7   20.85    1.28
  11  -4  -7   18.04    1.21
 -11  -4   8   -0.27    0.41
  11   4  -8    0.46    0.45
  11  -4  -8    0.11    0.38
  11  -4   8    0.10    0.28
 -11  -4   9    3.29    0.59
  11   4  -9    3.26    0.61
  11  -4  -9    2.68    0.55
  11  -4   9    3.17    0.40
  11  -4 -10    0.80    0.44
  11  -4  10    1.32    0.33
  11  -4 -10    1.67    0.33
  11  -4  10    1.30    0.27
 -11  -4  10    1.14    0.45
  11  -4  11    6.72    0.49
  11  -4 -11    8.06    0.51
  11  -4  11    7.76    0.44
  11  -4  12    1.13    0.29
  11  -4 -12    1.08    0.32
  11  -4  12    0.98    0.25
  11  -4  13    0.41    0.25
  11  -4 -13    0.82    0.27
  11  -4  13    0.51    0.22
  11  -4  14    0.01    0.20
  11  -4 -14    0.36    0.22
  11  -4  14    0.29    0.19
  11  -4  15    0.10    0.14
  11  -4  15    0.25    0.15
  11  -4 -15    0.32    0.17
  11  -4  16    1.36    0.13
  11  -5   0   91.07    2.73
  11  -5   0   84.83    2.68
  11  -5   0   85.95    2.67
 -11  -5   0   92.64    3.37
  11  -5   0   89.03    2.71
  11  -5  -1   -0.13    0.23
  11  -5  -1   -0.07    0.20
  11  -5   1    0.03    0.22
  11  -5   1   -0.14    0.25
  11  -5  -1    0.07    0.21
 -11  -5   1   -0.05    0.42
  11  -5   1   -0.16    0.23
 -11  -5  -1   -0.08    0.18
  11  -5   2  519.40   15.05
  11  -5   2  535.40   15.08
  11  -5  -2  539.15   15.07
  11  -5  -2  524.40   15.02
  11  -5  -2  524.15   15.04
  11  -5   2  524.18   15.02
 -11  -5  -2  492.34   15.73
 -11  -5   2  496.81   15.69
 -11  -5  -2  516.70   14.99
  11  -5  -3    6.23    0.40
 -11  -5  -3    5.39    0.32
  11  -5  -3    5.67    0.36
  11  -5   3    5.13    0.37
  11  -5   3    5.90    0.42
  11  -5  -3    6.43    0.41
  11  -5  -3    5.63    0.39
  11  -5   3    6.22    0.38
 -11  -5  -3    5.89    0.73
 -11  -5   3    4.94    0.68
  11  -5  -4  154.06    4.48
  11  -5  -4  157.16    4.53
  11  -5   4  149.19    4.51
  11  -5  -4  149.50    4.53
 -11  -5  -4  150.81    5.16
 -11  -5   4  140.61    5.06
  11  -5   4  152.16    4.50
  11  -5  -4  150.38    4.54
 -11  -5  -5    0.52    0.39
 -11  -5   5    0.77    0.38
  11  -5   5    0.88    0.22
  11  -5  -5    0.86    0.23
  11  -5   5    0.91    0.25
  11  -5  -5    1.06    0.27
  11  -5  -5    0.95    0.27
  11  -5  -6  294.71    8.60
  11  -5   6  296.65    8.59
 -11  -5   6  292.92    9.27
  11  -5  -6  303.45    8.67
 -11  -5   6  269.58    9.09
  11  -5   6  302.33    8.62
 -11  -5  -6  273.70    9.15
  11  -5   6  303.70    8.69
  11  -5   7    0.68    0.30
 -11  -5  -7    0.72    0.35
  11  -5   7    0.30    0.18
 -11  -5   7   -0.11    0.55
  11  -5   7    0.21    0.24
  11  -5  -7    0.30    0.30
 -11  -5   8  305.18    9.79
  11  -5   8  313.10    9.19
  11  -5   8  313.37    9.10
  11  -5  -8  316.52    9.17
 -11  -5   9   16.21    1.15
  11  -5   9   15.68    0.67
  11  -5  -9   15.73    0.73
  11  -5   9   14.73    0.73
  11  -5  10   35.56    1.23
  11  -5  10   35.84    1.30
  11  -5  11    3.88    0.38
  11  -5  12   10.49    0.53
  11  -5  13    1.46    0.24
  11  -5 -13    1.08    0.25
  11  -5 -14   15.11    0.59
  11  -5  14   14.10    0.54
  11  -6   0    0.25    0.23
  11  -6   0   -0.04    0.20
  11  -6   0    0.06    0.24
 -11  -6   0    0.06    0.41
 -11  -6   0   -0.07    0.17
 -11  -6   1    0.76    0.49
  11  -6  -1    1.17    0.27
  11  -6   1    0.99    0.28
  11  -6  -1    0.78    0.22
  11  -6  -1    0.62    0.26
  11  -6   1    1.09    0.23
 -11  -6  -1    0.76    0.20
 -11  -6  -2    1.56    0.55
 -11  -6   2    1.38    0.50
  11  -6  -2    1.49    0.26
  11  -6   2    1.66    0.30
  11  -6  -2    1.51    0.24
  11  -6  -2    1.69    0.29
  11  -6   2    1.56    0.29
  11  -6   2    1.46    0.25
 -11  -6  -2    1.39    0.22
  11  -6  -3    0.44    0.22
  11  -6  -3    0.82    0.24
  11  -6   3    0.81    0.25
 -11  -6  -3    0.60    0.43
 -11  -6   3    0.68    0.44
  11  -6   3    0.74    0.23
  11  -6  -3    0.68    0.22
 -11  -6  -3    0.55    0.18
 -11  -6  -4    1.44    0.21
  11  -6  -4    1.50    0.27
  11  -6  -4    1.39    0.26
  11  -6  -4    1.68    0.28
  11  -6   4    1.26    0.24
 -11  -6   4    1.59    0.49
  11  -6   4    1.41    0.26
 -11  -6  -4    1.04    0.46
 -11  -6   4    0.81    0.45
 -11  -6  -5    1.44    0.47
 -11  -6   5    1.77    0.45
  11  -6   5    2.27    0.34
  11  -6  -5    2.00    0.27
  11  -6   5    2.30    0.27
  11  -6   5    2.08    0.28
  11  -6  -5    1.95    0.29
  11  -6  -5    1.91    0.28
 -11  -6  -5    1.71    0.22
 -11  -6  -6    3.09    0.56
  11  -6   6    4.62    0.42
  11  -6  -6    3.95    0.34
  11  -6   6    3.86    0.34
  11  -6  -6    4.28    0.38
  11  -6  -6    3.95    0.32
  11  -6   6    3.85    0.32
  11  -6   7    1.61    0.35
  11  -6  -7    1.40    0.22
  11  -6   7    1.73    0.23
  11  -6   7    1.49    0.28
  11  -6  -7    1.64    0.29
  11  -6  -7    1.25    0.26
  11  -6  -8    7.52    0.44
  11  -6   8    7.48    0.43
  11  -6  -8    6.75    0.46
  11  -6   8    6.85    0.49
  11  -6   9    2.53    0.29
  11  -6  -9    2.69    0.34
  11  -6  -9    2.71    0.31
  11  -6   9    3.41    0.38
  11  -6  10    2.92    0.30
  11  -6 -10    3.28    0.34
  11  -6  10    3.11    0.35
  11  -6  11    4.72    0.35
  11  -6 -11    4.01    0.35
  11  -6  11    4.68    0.32
  11  -6  12    2.49    0.26
  11  -6 -12    2.50    0.28
  11  -6  12    2.47    0.24
  11  -6  13    0.50    0.15
  11  -6  13    0.33    0.15
  11  -6 -13    0.34    0.19
  11  -6  14    3.28    0.19
  11  -7   0   57.72    1.88
  11  -7   0   57.31    1.89
 -11  -7   0   55.35    2.48
 -11  -7   0   56.31    1.83
  11  -7   1   -0.05    0.28
  11  -7  -1    0.20    0.26
  11  -7  -1    0.08    0.29
 -11  -7   1   -0.12    0.46
 -11  -7   1    0.21    0.21
 -11  -7  -1    0.05    0.19
  11  -7  -2   92.71    2.87
  11  -7  -2   93.86    2.90
  11  -7   2   93.50    2.89
 -11  -7  -2   90.13    3.54
 -11  -7   2   86.19    3.47
 -11  -7   2   95.87    2.87
 -11  -7  -2   89.82    2.82
  11  -7  -3    1.25    0.27
  11  -7  -3    0.48    0.26
  11  -7   3    0.46    0.26
 -11  -7  -3   -0.12    0.44
 -11  -7   3    0.17    0.39
  11  -7   3    0.33    0.21
 -11  -7   3    0.92    0.44
 -11  -7  -3    0.52    0.19
  11  -7   4   10.06    0.58
 -11  -7   4    8.36    0.82
  11  -7  -4    9.99    0.54
  11  -7   4   10.91    0.54
 -11  -7   4    7.53    0.80
  11  -7   4    9.98    0.49
 -11  -7  -4    8.65    0.87
 -11  -7  -4   10.93    0.48
 -11  -7   5    0.05    0.40
  11  -7   5    0.18    0.21
  11  -7  -5   -0.19    0.26
  11  -7   5   -0.08    0.23
  11  -7   5    0.19    0.27
  11  -7   6   32.60    1.21
  11  -7  -6   32.65    1.12
  11  -7   6   31.48    1.11
  11  -7   6   32.11    1.11
  11  -7  -6   30.87    1.13
  11  -7  -7    2.80    0.25
  11  -7   7    2.51    0.27
  11  -7  -7    2.57    0.29
  11  -7   7    2.59    0.36
  11  -7   8    3.37    0.36
  11  -7   8    3.38    0.28
  11  -7  -8    3.25    0.31
  11  -7   9    1.61    0.23
  11  -7  -9    1.49    0.27
  11  -7   9    1.84    0.29
  11  -7  10    2.89    0.28
  11  -7 -10    3.10    0.29
  11  -7  10    2.61    0.24
  11  -7 -11   12.68    0.53
  11  -7  11   12.65    0.52
  11  -7  12    2.24    0.20
  11  -8   0    0.07    0.27
  11  -8   0   -0.26    0.27
 -11  -8   0    0.37    0.21
  11  -8  -1    1.22    0.28
 -11  -8  -1    1.18    0.23
 -11  -8   1    1.00    0.24
  11  -8  -1    1.32    0.29
  11  -8  -2    0.73    0.28
  11  -8   2    0.30    0.25
 -11  -8  -2    0.49    0.21
 -11  -8   2    0.08    0.20
  11  -8  -3    0.90    0.27
  11  -8   3    0.51    0.26
 -11  -8   3    0.52    0.22
 -11  -8  -3    0.72    0.20
  11  -8   3    0.57    0.30
  11  -8  -4    0.06    0.24
  11  -8   4    0.72    0.24
 -11  -8   4    0.30    0.23
  11  -8   4   -0.20    0.30
 -11  -8  -4    0.28    0.17
  11  -8   5    2.95    0.36
  11  -8  -5    3.99    0.32
  11  -8   5    3.01    0.29
  11  -8   6    0.42    0.27
  11  -8  -6    0.58    0.21
  11  -8   7    0.93    0.27
  11  -8   8    1.33    0.25
  11  -8   9    3.13    0.27
  11  -8  10    0.49    0.17
  11  -8  11    0.25    0.12
 -11  -8  12    0.43    0.09
  11  -9   0   84.80    2.66
 -11  -9   0   86.39    2.62
  11  -9  -1    0.13    0.25
 -11  -9   1    0.08    0.19
 -11  -9  -1   -0.21    0.20
  11  -9  -2   70.46    2.23
  11  -9   2   67.89    2.21
  11  -9   2   73.04    2.23
 -11  -9  -2   68.63    2.16
 -11  -9   2   72.20    2.19
  11  -9  -3    8.79    0.47
  11  -9   3    8.48    0.45
 -11  -9   3    8.49    0.44
 -11  -9  -3    8.14    0.40
  11  -9   3    7.98    0.48
 -11  -9   4   26.83    0.96
  11  -9   4   27.11    0.99
 -11  -9   5    2.08    0.24
  11  -9   5    1.80    0.27
  11  -9   6   35.20    1.21
 -11  -9   6   36.89    1.20
  11  -9   7   13.40    0.55
 -11  -9   7   14.14    0.55
  11  -9   8   16.99    0.63
 -11  -9   8   18.31    0.64
  11  -9   9    9.04    0.37
 -11  -9   9   10.16    0.38
 -11  -9  10   18.63    0.60
 -11 -10   0    0.14    0.14
 -11 -10   1    4.60    0.27
 -11 -10  -1    4.36    0.26
 -11 -10   2    0.58    0.16
 -11 -10   3   10.63    0.44
  11 -10   4    2.60    0.23
 -11 -10   4    0.36    0.15
  11 -10   5    5.23    0.28
 -11 -10   5    3.71    0.24
 -11 -10   6    0.43    0.13
 -11 -10   7    3.92    0.20
 -11 -11   2   26.47    0.82
  12   0   0  777.12   22.71
  12   0  -1   -0.21    0.48
  12   0  -2   83.94    3.08
  12   0  -3    0.05    0.44
  12   0  -4  141.43    4.82
  12   0  -5    0.11    0.46
  12   0   5   -0.04    0.16
  12   0  -5    0.06    0.18
  12   0  -6  125.52    4.39
 -12   0   6  122.70    3.94
  12   0   6  118.54    3.59
  12   0  -6  124.88    3.66
  12   0   7   -0.05    0.17
  12   0  -7   -0.09    0.21
  12   0  -7    0.44    0.45
  12   0  -8   96.48    3.68
  12   0   8   91.74    2.82
  12   0  -8   96.15    2.89
  12   0   9   -0.06    0.18
  12   0  -9   -0.10    0.22
 -12   0  10    9.22    0.81
  12   0 -10    9.40    1.05
  12   0  10    9.17    0.44
  12   0 -10    9.28    0.50
 -12   0  11   -0.15    0.35
  12   0 -11   -0.37    0.50
  12   0 -11    0.04    0.22
  12   0  11    0.12    0.18
  12   0 -12   11.80    0.54
  12   0  12   10.58    0.48
  12   0 -13    0.09    0.18
  12   0  13   -0.01    0.17
  12   0  14    0.28    0.16
  12   0  15    0.03    0.21
  12   0  16    3.55    0.25
  12   1   0   -0.28    0.46
  12  -1   0   -0.12    0.44
  12  -1  -1  222.70    6.96
  12   1  -1  218.51    6.95
  12  -1  -2    0.39    0.45
  12   1  -2    0.39    0.43
  12   1  -3   33.36    1.61
  12  -1  -3   34.44    1.63
  12  -1   4    1.03    0.18
  12  -1  -4    0.78    0.22
  12   1  -4    0.69    0.46
  12  -1  -4    0.50    0.45
  12   1  -5   38.11    1.81
  12  -1  -5   35.49    1.78
  12  -1   5   36.73    1.20
  12  -1  -5   36.63    1.26
  12  -1   6    0.67    0.16
  12  -1  -6    0.64    0.48
  12   1  -6    1.10    0.52
  12  -1   6    0.60    0.19
  12  -1  -6    0.59    0.23
  12   1  -7   90.52    3.54
  12  -1  -7   94.00    3.58
 -12  -1   7   95.57    3.23
  12  -1   7   89.28    2.79
  12   1  -7   95.25    2.83
  12  -1  -7   92.69    2.86
 -12  -1   8    3.59    0.51
  12  -1   8    3.81    0.29
  12   1  -8    3.58    0.30
  12  -1  -8    3.11    0.33
  12   1  -8    2.90    0.65
  12  -1  -8    2.39    0.65
  12   1  -9   17.54    1.30
  12  -1  -9   15.28    1.24
  12  -1   9   17.03    0.68
  12   1  -9   18.20    0.70
  12  -1  -9   15.88    0.72
  12  -1  10    2.16    0.26
  12  -1 -10    2.40    0.31
  12   1 -10    1.94    0.63
  12  -1 -10    1.08    0.56
  12   1 -11   42.47    2.20
 -12  -1  11   42.28    1.99
  12  -1 -11   38.58    2.14
  12  -1 -11   43.74    1.50
  12  -1  11   45.38    1.45
  12  -1 -12    1.78    0.28
  12  -1  12    1.75    0.25
  12  -1 -13    3.12    0.30
  12  -1  13    2.87    0.26
  12  -1  14    0.53    0.26
  12  -1 -14    0.40    0.20
  12  -1  14    0.75    0.18
  12  -1  15    9.63    0.41
  12  -1  15   11.27    0.49
  12  -1  16    3.82    0.19
  12  -1  16    4.30    0.26
  12   1  16    4.37    0.27
  12   1 -16    4.03    0.23
  12  -2   0  201.44    5.96
  12  -2   0  207.78    5.96
  12  -2   0  200.71    6.46
  12   2   0  208.62    6.48
  12  -2  -1    0.12    0.16
  12  -2   1   -0.03    0.18
  12  -2  -1    0.08    0.38
  12   2  -1   -0.04    0.39
  12  -2   2    9.25    0.42
  12  -2  -2    7.62    0.73
  12   2  -2    9.21    0.80
  12  -2  -2    8.28    0.41
  12  -2   2    8.02    0.40
  12  -2  -3    6.57    0.71
  12   2  -3    6.34    0.71
  12  -2   3    6.49    0.35
  12  -2  -3    6.51    0.39
  12  -2  -3    6.67    0.35
  12  -2   3    6.64    0.35
  12   2  -4   39.30    1.89
  12  -2  -4   43.43    1.93
  12  -2   4   41.95    1.38
  12  -2  -4   42.82    1.44
  12  -2   4   42.49    1.38
  12  -2  -4   46.08    1.40
  12  -2   4   42.42    1.42
  12   2  -5   17.02    1.15
  12  -2  -5   14.29    1.10
  12  -2  -5   18.31    0.66
  12  -2   5   18.02    0.65
  12  -2   5   16.00    0.65
  12  -2  -5   15.91    0.72
  12  -2  -6    0.58    0.16
  12  -2   6    0.43    0.16
  12   2  -6    0.57    0.45
  12  -2  -6    0.40    0.44
  12  -2   6    0.39    0.21
  12  -2  -6    0.34    0.22
  12   2  -7   50.91    2.35
  12  -2  -7   52.34    2.37
  12  -2   7   54.01    1.71
  12  -2  -7   51.48    1.75
 -12  -2   7   57.87    2.20
  12   2  -8   24.62    1.51
  12  -2  -8   23.88    1.50
  12  -2   8   25.46    0.91
  12  -2  -8   23.79    0.96
 -12  -2   8   25.31    1.31
  12   2  -9   21.78    1.45
  12  -2  -9   19.62    1.41
  12  -2   9   22.16    0.83
  12  -2  -9   21.29    0.89
 -12  -2   9   22.22    1.26
  12   2 -10    4.06    0.76
  12  -2 -10    4.79    0.74
  12  -2  10    4.05    0.34
  12  -2 -10    4.87    0.40
  12   2 -11   10.96    1.08
  12  -2 -11    9.96    1.04
 -12  -2  11   11.77    0.98
  12  -2  11   12.33    0.65
  12  -2 -11   13.67    0.64
  12  -2  11   13.24    0.58
  12  -2  12    2.81    0.35
  12  -2 -12    2.29    0.32
  12  -2  12    2.79    0.29
  12  -2  13    2.28    0.33
  12  -2 -13    2.82    0.32
  12  -2  13    3.15    0.28
  12  -2  14    1.21    0.26
  12  -2 -14    1.22    0.24
  12  -2  14    1.41    0.21
  12  -2  15   17.39    0.62
  12  -2  15   17.64    0.67
  12  -2  16    0.93    0.12
  12  -2  16    1.07    0.16
  12  -3   0   -0.02    0.18
  12  -3   0   -0.44    0.25
  12  -3  -1  203.23    6.00
  12  -3   1  206.71    6.00
  12  -3  -1  202.48    5.98
  12  -3   1  207.94    5.97
  12  -3  -1  198.16    6.44
  12   3  -1  199.08    6.45
  12  -3   2    1.67    0.28
  12  -3  -2    2.18    0.46
  12   3  -2    2.16    0.45
  12  -3   2    1.81    0.24
  12  -3  -2    2.08    0.24
  12  -3   2    2.12    0.24
  12  -3   2    2.28    0.25
  12  -3  -2    2.10    0.30
  12  -3  -3  181.91    6.05
  12   3  -3  185.81    6.07
  12  -3   3  194.77    5.55
  12  -3  -3  185.23    5.55
  12  -3   3  185.93    5.50
  12  -3  -3  184.91    5.55
  12  -3   3  188.94    5.54
  12  -3  -3  189.97    5.53
  12  -3   3  188.59    5.51
  12  -3  -4    8.70    0.44
  12  -3   4    8.51    0.43
  12  -3   4    8.46    0.47
  12  -3  -4    7.41    0.73
  12   3  -4    8.88    0.80
  12  -3   4    8.12    0.42
  12  -3  -5  180.24    5.21
  12  -3   5  174.34    5.20
  12  -3   5  176.17    5.27
  12  -3   5  181.29    5.22
  12   3  -5  172.55    5.85
  12  -3  -5  171.91    5.84
  12  -3   6    2.72    0.33
  12  -3  -6    3.09    0.27
  12  -3   6    2.40    0.24
  12  -3  -6    3.55    0.61
  12  -3   6    2.40    0.28
 -12  -3  -6    2.90    0.51
 -12  -3   6    2.55    0.47
  12   3  -7  258.32    8.50
  12  -3  -7  259.28    8.50
 -12  -3   7  281.13    8.41
  12  -3   7  261.51    7.72
 -12  -3  -7  249.72    8.23
  12  -3   7  277.57    7.77
  12  -3  -7  268.28    7.83
  12   3  -8   29.76    1.71
  12  -3  -8   28.19    1.68
 -12  -3   8   32.15    1.61
  12  -3   8   32.81    1.13
  12  -3  -8   31.98    1.19
  12   3  -9   89.09    3.62
  12  -3  -9   93.95    3.66
 -12  -3   9   95.64    3.49
  12  -3   9   94.33    2.99
  12  -3   9   96.22    2.92
  12  -3  -9   95.49    2.99
  12   3 -10   16.03    1.24
  12  -3  10   16.28    0.77
  12  -3  10   16.47    0.69
  12  -3 -10   17.16    0.76
 -12  -3  10   14.69    1.04
  12  -3 -11   20.34    0.86
  12  -3  11   20.22    0.88
  12  -3  11   20.30    0.80
  12  -3 -12    2.55    0.34
  12  -3  12    3.25    0.37
  12  -3  12    3.45    0.31
  12  -3 -13   26.64    0.99
  12  -3  13   27.74    1.00
  12  -3  13   25.73    0.94
  12  -3 -14   19.06    0.75
  12  -3  14   19.97    0.75
  12  -3  14   19.40    0.71
  12  -3 -15    9.33    0.42
  12  -3  15    9.83    0.40
  12  -3  15    9.08    0.41
  12  -3  16    9.80    0.35
  12  -4   0   47.02    1.55
  12  -4   0   47.18    1.53
  12  -4   0   48.11    1.53
  12  -4   0   46.00    1.54
  12  -4   1    1.87    0.26
  12  -4  -1    1.92    0.27
  12  -4   1    2.11    0.25
  12  -4  -1    2.23    0.25
  12  -4  -1    2.41    0.27
  12  -4   1    2.06    0.27
  12  -4  -2   31.02    1.06
  12  -4   2   31.24    1.12
  12  -4  -2   32.83    1.12
  12  -4   2   30.11    1.10
  12  -4  -2   32.25    1.13
  12  -4   2   33.06    1.12
  12  -4   2   32.63    1.10
 -12  -4   2   27.45    1.52
  12  -4  -2   28.40    1.41
  12   4  -2   31.76    1.47
  12  -4  -3    0.32    0.17
  12  -4   3    0.46    0.24
  12  -4  -3    0.59    0.38
  12   4  -3    0.39    0.35
  12  -4  -3    0.72    0.23
  12  -4   3    0.45    0.20
 -12  -4  -3    0.54    0.41
 -12  -4   3    0.66    0.44
  12  -4  -3    0.59    0.22
  12  -4  -3    0.54    0.25
  12  -4  -4    2.52    0.27
  12  -4   4    2.28    0.31
  12  -4  -4    2.20    0.47
  12   4  -4    2.21    0.51
  12  -4   4    2.21    0.25
 -12  -4  -4    3.11    0.58
 -12  -4   4    2.15    0.53
  12  -4  -4    2.75    0.33
  12  -4  -4    2.87    0.31
  12  -4  -5    8.28    0.80
  12   4  -5   10.75    0.89
  12  -4   5   11.07    0.52
  12  -4   5   10.70    0.57
  12  -4  -5   11.45    0.53
 -12  -4  -5    9.81    0.89
 -12  -4   5    9.32    0.82
  12  -4  -5   11.62    0.58
 -12  -4   6   -0.09    0.36
  12  -4   6    0.23    0.19
  12  -4  -6    0.02    0.20
  12   4  -6    0.05    0.43
  12  -4  -6   -0.15    0.42
 -12  -4   6   -0.21    0.45
 -12  -4  -6    0.50    0.37
  12  -4  -6    0.11    0.25
  12   4  -7    0.61    0.43
  12  -4  -7    0.26    0.40
  12  -4   7    0.49    0.19
 -12  -4   7    0.65    0.44
 -12  -4  -7    0.71    0.37
 -12  -4   8    5.60    0.71
  12  -4   8    6.67    0.42
  12  -4   8    6.81    0.49
  12  -4  -8    4.48    0.67
  12   4  -8    5.64    0.76
  12  -4   9   -0.03    0.22
  12  -4   9    0.03    0.28
  12  -4  -9    0.39    0.42
  12  -4  10    0.17    0.29
  12  -4 -10    0.66    0.30
  12  -4  10    0.83    0.25
  12  -4  11   22.07    0.90
  12  -4 -11   21.68    0.90
  12  -4  11   21.43    0.83
  12  -4  12    2.74    0.33
  12  -4 -12    3.24    0.35
  12  -4  12    2.49    0.29
  12  -4  13    4.19    0.35
  12  -4 -13    4.44    0.36
  12  -4  13    4.71    0.32
  12  -4  14    1.25    0.22
  12  -4  14    1.47    0.20
  12  -4 -14    1.13    0.22
  12  -4 -15    3.58    0.25
  12  -4  15    4.17    0.23
  12  -4  15    3.85    0.23
  12  -5   0    0.04    0.20
  12  -5   0    0.01    0.21
  12  -5   0    0.29    0.23
 -12  -5   0    0.18    0.40
 -12  -5   0   -0.08    0.16
  12  -5   1   22.05    0.85
  12  -5  -1   20.97    0.82
  12  -5  -1   20.13    0.82
  12  -5   1   22.25    0.83
  12  -5  -1   22.69    0.87
  12  -5   1   21.58    0.82
 -12  -5  -1   21.62    0.78
  12  -5  -2    9.73    0.50
  12  -5  -2    8.95    0.50
  12  -5   2    8.75    0.49
 -12  -5   2    9.15    0.87
  12  -5   2    8.83    0.47
 -12  -5  -2    7.00    0.80
  12  -5   2    9.03    0.52
  12  -5  -2    8.98    0.46
  12  -5  -3   30.99    1.13
  12  -5   3   33.99    1.19
  12  -5   3   31.78    1.13
  12  -5  -3   32.60    1.15
  12  -5   3   31.11    1.11
 -12  -5  -3   31.10    1.66
 -12  -5   3   27.56    1.57
  12  -5  -3   31.39    1.09
  12  -5  -4   13.59    0.58
  12  -5   4   13.51    0.63
  12  -5   4   14.86    0.69
  12  -5  -4   14.94    0.64
  12  -5  -4   13.97    0.65
  12  -5   4   14.46    0.63
 -12  -5  -4   15.51    1.12
 -12  -5   4   12.17    1.00
  12  -5  -4   14.62    0.67
  12  -5  -5   11.22    0.57
 -12  -5  -5   10.00    0.88
 -12  -5   5    9.79    0.85
  12  -5   5   10.94    0.53
  12  -5  -5   11.29    0.59
  12  -5   5   10.22    0.51
  12  -5  -5   11.19    0.53
  12  -5  -6   56.35    1.88
  12  -5  -6   56.96    1.83
  12  -5   6   56.39    1.83
 -12  -5   6   57.99    2.43
  12  -5   6   60.21    1.86
 -12  -5  -6   53.99    2.34
  12  -5  -6   60.42    1.92
  12  -5   7    5.56    0.46
  12  -5  -7    6.02    0.44
  12  -5   7    5.89    0.41
 -12  -5   7    5.92    0.77
  12  -5  -7    6.48    0.46
  12  -5   7    6.39    0.36
  12  -5   8  111.57    3.44
  12  -5   8  110.87    3.36
 -12  -5   8  107.37    3.98
  12  -5  -8  109.62    3.42
  12  -5  -9   18.14    0.81
  12  -5   9   19.09    0.84
  12  -5  10   43.18    1.51
  12  -5  11    6.10    0.43
  12  -5  12   20.39    0.79
  12  -5 -12   19.91    0.77
  12  -5 -13    3.30    0.30
  12  -5  13    2.82    0.26
  12  -5 -13    3.34    0.27
  12  -5  14   69.48    2.11
  12  -5 -14   72.16    2.14
  12  -6   0   39.16    1.34
  12  -6   0   37.43    1.28
  12  -6   0   37.16    1.35
 -12  -6   0   39.07    1.91
 -12  -6   0   38.58    1.28
 -12  -6   1    0.79    0.46
  12  -6   1    1.12    0.29
  12  -6  -1    0.94    0.26
  12  -6  -1    0.67    0.26
 -12  -6  -1    0.76    0.20
 -12  -6   1    1.21    0.22
  12  -6  -1    0.62    0.23
  12  -6   2   24.17    0.94
  12  -6  -2   23.82    0.89
  12  -6  -2   22.43    0.87
  12  -6   2   22.87    0.91
  12  -6  -2   23.77    0.93
  12  -6   2   24.12    0.88
 -12  -6  -2   21.77    1.40
 -12  -6   2   21.70    1.37
 -12  -6  -2   22.83    0.84
 -12  -6  -3    0.37    0.45
 -12  -6   3    0.64    0.43
  12  -6   3    1.00    0.30
  12  -6  -3    0.90    0.25
  12  -6   3    0.78    0.25
 -12  -6  -3    0.61    0.19
  12  -6  -3    0.70    0.23
  12  -6  -3    0.92    0.27
  12  -6   3    0.96    0.26
  12  -6  -4   66.40    2.16
 -12  -6  -4   64.96    2.78
 -12  -6   4   64.94    2.73
  12  -6   4   70.22    2.18
 -12  -6  -4   70.06    2.13
  12  -6  -4   70.58    2.21
  12  -6   4   68.14    2.19
 -12  -6   4   67.36    2.73
  12  -6  -5    8.15    0.48
  12  -6   5    9.42    0.48
  12  -6  -5    8.52    0.48
  12  -6   5    8.74    0.48
 -12  -6  -5    9.42    0.85
 -12  -6   5    9.22    0.83
  12  -6  -5    9.44    0.52
  12  -6   6   51.45    1.73
  12  -6  -6   48.15    1.63
  12  -6  -6   48.06    1.61
  12  -6   6   49.40    1.62
  12  -6   6   51.93    1.64
  12  -6  -6   50.78    1.68
  12  -6   7    3.70    0.40
  12  -6  -7    3.71    0.34
  12  -6  -7    3.61    0.29
  12  -6   7    4.14    0.34
  12  -6  -7    3.50    0.36
  12  -6  -8   39.91    1.37
  12  -6   8   41.56    1.45
  12  -6   8   40.57    1.37
  12  -6  -8   39.57    1.41
  12  -6  -9   43.54    1.48
  12  -6   9   46.73    1.49
  12  -6   9   44.60    1.54
  12  -6  -9   44.45    1.53
  12  -6  10    4.76    0.33
  12  -6  10    5.34    0.39
  12  -6 -10    4.58    0.38
  12  -6  11    0.14    0.19
  12  -6  11    0.08    0.22
  12  -6 -11    0.17    0.22
  12  -6  12    2.06    0.22
  12  -6  12    1.85    0.23
  12  -6 -12    1.70    0.24
  12  -6  13   29.98    0.96
  12  -6  13   29.66    0.96
  12  -6  14    0.11    0.09
  12  -7   0   -0.32    0.28
  12  -7   0   -0.05    0.27
 -12  -7   0    0.06    0.18
 -12  -7   0    0.32    0.46
  12  -7  -1    0.93    0.28
  12  -7   1    1.46    0.32
  12  -7  -1    1.48    0.29
 -12  -7   1    1.50    0.50
 -12  -7  -1    1.51    0.23
 -12  -7   1    1.59    0.24
  12  -7  -2    4.30    0.39
  12  -7   2    3.37    0.35
  12  -7   2    3.70    0.38
  12  -7  -2    3.72    0.33
 -12  -7  -2    3.63    0.66
 -12  -7   2    2.73    0.58
 -12  -7   2    3.84    0.33
 -12  -7  -2    3.73    0.29
 -12  -7  -3    4.53    0.31
  12  -7  -3    4.25    0.38
  12  -7   3    4.07    0.36
  12  -7  -3    5.79    0.38
  12  -7   3    3.86    0.33
 -12  -7   3    4.63    0.61
 -12  -7  -3    3.66    0.63
 -12  -7   3    4.31    0.64
  12  -7   4    0.15    0.23
  12  -7  -4    0.06    0.24
  12  -7   4    0.15    0.21
 -12  -7  -4    0.29    0.17
  12  -7  -5    2.67    0.31
  12  -7   5    2.36    0.30
  12  -7   5    2.48    0.27
  12  -7   5    3.00    0.37
  12  -7  -6   20.64    0.79
  12  -7   6   18.97    0.77
  12  -7   6   20.17    0.77
  12  -7   6   21.05    0.87
  12  -7  -7    0.05    0.18
  12  -7   7   -0.12    0.29
  12  -7   7    0.21    0.20
  12  -7   8    5.66    0.42
  12  -7   8    6.28    0.36
  12  -7   9    8.97    0.48
  12  -7   9    8.46    0.42
  12  -7  10   19.10    0.72
  12  -7  10   18.96    0.69
  12  -7  11    0.99    0.19
  12  -7  12    7.80    0.33
 -12  -8   0    1.15    0.21
  12  -8   0    1.13    0.31
  12  -8   0    1.70    0.30
 -12  -8   1    1.81    0.25
 -12  -8  -1    1.51    0.22
  12  -8  -1    1.92    0.32
  12  -8   1    2.25    0.33
  12  -8  -1    1.71    0.29
 -12  -8  -2    0.81    0.20
 -12  -8   2    0.80    0.22
  12  -8  -2    0.86    0.27
  12  -8   2    0.68    0.27
 -12  -8   3   -0.04    0.19
  12  -8  -3    0.07    0.24
  12  -8   3    0.14    0.24
 -12  -8  -3    0.09    0.16
  12  -8  -4   15.00    0.65
  12  -8   4   14.01    0.63
 -12  -8   4   15.42    0.64
  12  -8   4   14.82    0.68
  12  -8  -5   10.82    0.51
  12  -8   5   10.94    0.51
 -12  -8   5   10.86    0.52
  12  -8   5   10.44    0.57
  12  -8  -6    8.17    0.40
  12  -8   6    8.19    0.47
  12  -8   7   11.61    0.54
  12  -8   8    4.40    0.32
  12  -8   9   14.62    0.57
  12  -8  10    0.52    0.15
 -12  -8  11    0.16    0.10
  12  -8  11    0.02    0.10
 -12  -9   0   -0.01    0.17
  12  -9   0    0.05    0.24
 -12  -9  -1    2.50    0.23
 -12  -9   1    2.46    0.25
  12  -9  -1    2.46    0.30
 -12  -9  -2    3.99    0.27
 -12  -9   2    4.47    0.30
  12  -9  -2    4.87    0.35
  12  -9   2    4.24    0.34
  12  -9   3   42.60    1.37
 -12  -9   3   39.49    1.32
  12  -9  -3   42.06    1.36
  12  -9   3   39.48    1.35
 -12  -9   4    1.47    0.22
  12  -9   4    1.47    0.26
 -12  -9   5    0.54    0.18
  12  -9   5    0.17    0.22
  12  -9   6   12.45    0.53
 -12  -9   6   12.80    0.51
  12  -9   7    7.48    0.37
 -12  -9   7    7.90    0.35
  12  -9   8   11.77    0.43
 -12  -9   8   10.41    0.42
  12  -9   9    1.85    0.14
 -12  -9   9    1.75    0.14
 -12 -10   0    0.10    0.12
 -12 -10   1    0.23    0.13
 -12 -10   2    0.51    0.14
 -12 -10   3    0.50    0.13
 -12 -10   4    0.20    0.13
 -12 -10   5    0.37    0.12
 -12 -10   6    5.14    0.23
  13   0   0    0.67    0.53
  13   0  -1   -0.09    0.46
  13   0  -2    2.45    0.29
  13   0   2    2.29    0.28
  13   0  -2    2.69    0.59
  13   0   3   -0.19    0.16
  13   0  -3   -0.31    0.26
  13   0  -3   -0.05    0.45
  13   0  -4   12.11    0.99
  13   0   4   12.62    0.51
  13   0   5   -0.15    0.16
  13   0  -5   -0.29    0.53
  13   0  -6   56.41    2.51
 -13   0   6   58.40    2.13
  13   0   6   56.18    1.78
  13   0  -6   58.57    1.85
  13   0   7   -0.07    0.19
  13   0  -7    0.25    0.23
  13   0  -8   43.34    2.18
  13   0   8   44.19    1.45
  13   0  -8   46.10    1.52
  13   0   9   -0.15    0.19
  13   0  -9    0.10    0.24
  13   0  -9    0.29    0.57
 -13   0  10   14.47    1.03
  13   0 -10   15.85    0.68
  13   0  10   15.52    0.62
  13   0 -11    0.15    0.51
  13   0 -11    0.07    0.21
  13   0  11   -0.12    0.18
  13   0  12   21.63    0.78
  13   0  13   -0.10    0.15
  13   0  14   15.18    0.54
  13   0  15    0.04    0.20
  13   0 -16   48.29    1.49
  13   0  16   50.17    1.51
  13  -1   0   15.65    0.60
  13  -1   0   14.08    0.98
  13   1   0   14.23    0.99
  13  -1   0   13.79    0.61
  13  -1   1   29.28    1.01
  13  -1  -1   29.35    1.50
  13   1  -1   28.78    1.49
  13  -1   1   29.55    1.04
  13  -1  -1   30.57    1.06
  13  -1   2    3.46    0.27
  13  -1  -2    4.58    0.33
  13  -1   2    3.54    0.32
  13  -1  -2    3.82    0.64
  13   1  -2    3.45    0.62
  13  -1   3    0.40    0.18
  13   1  -3    0.08    0.21
  13  -1  -3    0.38    0.25
  13  -1  -3    0.65    0.45
  13  -1   3    0.15    0.23
  13   1  -3    0.35    0.45
  13   1  -4    9.48    0.48
  13  -1   4   10.00    0.45
  13   1  -4    8.70    0.86
  13  -1  -4    8.35    0.85
  13   1  -5   14.38    1.10
  13  -1  -5   16.23    1.14
  13  -1  -5   16.27    0.62
  13  -1   5   16.04    0.62
  13  -1   5   14.90    0.62
  13  -1  -5   16.05    0.68
  13   1  -6    6.98    0.83
  13  -1  -6    5.74    0.33
  13  -1   6    5.65    0.33
  13  -1  -6    6.11    0.77
  13  -1   6    5.75    0.35
  13  -1  -6    6.65    0.42
  13   1  -7   21.54    1.40
  13  -1  -7   21.55    1.41
 -13  -1   7   18.56    1.08
  13  -1   7   20.75    0.77
  13  -1  -7   20.06    0.83
  13  -1   8    0.17    0.20
  13  -1  -8    0.09    0.24
  13   1  -8    0.55    0.56
  13  -1  -8    0.90    0.56
  13   1  -9   16.66    1.29
  13  -1  -9   16.11    1.29
  13  -1   9   17.16    0.68
  13  -1  -9   17.40    0.75
  13  -1  10    0.46    0.21
  13  -1 -10    0.14    0.26
  13   1 -10   -0.36    0.61
  13  -1 -10   -0.37    0.57
  13  -1 -11   21.18    0.84
  13  -1  11   19.55    0.77
  13  -1 -12    0.10    0.22
  13  -1  12    0.05    0.18
  13  -1  13    5.13    0.41
  13  -1 -13    4.81    0.33
  13  -1  13    4.92    0.31
  13  -1  14   -0.03    0.15
  13  -1  14    0.10    0.23
  13  -1  15   18.98    0.65
  13   1 -15   19.25    0.68
  13   1  16    0.24    0.14
  13  -1  16    0.19    0.13
  13  -1 -16    0.02    0.13
  13  -2   0    0.05    0.18
  13  -2   0    0.28    0.20
  13  -2   0    0.04    0.43
  13   2   0   -0.04    0.40
  13  -2  -1   23.33    0.86
  13  -2   1   24.34    0.86
  13  -2  -1   23.40    1.31
  13   2  -1   24.82    1.32
  13  -2   2    0.30    0.17
  13  -2  -2    0.35    0.17
  13  -2   2    0.22    0.20
  13  -2  -2    0.14    0.40
  13   2  -2    0.53    0.41
  13   2  -3   70.74    2.22
  13  -2  -3   73.33    2.24
  13  -2   3   72.04    2.22
  13  -2   3   72.17    2.24
  13  -2   3   72.76    2.23
  13  -2  -3   72.43    2.81
  13   2  -3   69.01    2.79
  13  -2  -4    3.42    0.61
  13   2  -4    2.77    0.56
  13   2  -4    2.96    0.28
  13  -2  -4    3.63    0.28
  13  -2   4    3.77    0.27
  13  -2   4    3.20    0.30
  13  -2   4    3.45    0.28
  13  -2  -4    2.99    0.33
  13   2  -5   70.54    2.94
  13  -2  -5   71.93    2.97
  13  -2  -5   80.29    2.35
  13  -2   5   75.78    2.33
  13  -2   5   73.54    2.38
  13   2  -5   74.96    2.35
  13  -2   5   77.42    2.35
  13  -2  -5   74.80    2.40
  13  -2   6    0.19    0.23
  13   2  -6    0.54    0.41
  13  -2  -6    0.18    0.39
  13  -2  -6   -0.02    0.17
  13  -2   6   -0.20    0.17
  13  -2   6   -0.12    0.20
  13  -2  -6    0.09    0.24
  13   2  -7   93.25    3.72
  13  -2  -7   93.11    3.72
 -13  -2   7  100.29    3.51
  13  -2   7   98.88    2.95
  13  -2   7  101.58    3.00
  13  -2  -7   95.32    3.05
  13   2  -8    8.81    0.94
  13  -2  -8   10.14    0.99
  13  -2   8    9.74    0.49
  13  -2  -8    8.89    0.53
 -13  -2   8    8.09    0.78
  13   2  -9   17.84    1.36
  13  -2  -9   19.10    1.38
  13  -2   9   22.10    0.83
  13  -2  -9   22.28    0.90
 -13  -2   9   21.33    1.23
  13   2 -10   11.94    1.08
  13  -2 -10   11.08    1.07
  13  -2 -10   12.34    0.63
  13  -2  10   12.66    0.57
  13  -2  11    6.07    0.47
  13  -2 -11    5.86    0.43
  13  -2  11    5.38    0.37
  13  -2  12    1.80    0.34
  13  -2 -12    2.60    0.32
  13  -2  12    2.67    0.28
  13  -2  13    0.74    0.27
  13  -2  13    0.64    0.20
  13  -2 -13    0.11    0.22
  13  -2  14   13.60    0.53
  13   2 -14   12.39    0.51
  13  -2  15    1.59    0.17
  13  -2  15    1.89    0.22
  13  -2 -16   16.21    0.55
  13  -2  16   15.80    0.53
  13   2  16   14.92    0.54
  13  -3   0   52.53    1.65
  13  -3   0   50.84    1.68
  13  -3   0   50.78    1.66
  13  -3   0   50.59    1.63
  13  -3   1    1.97    0.30
  13  -3  -1    2.35    0.51
  13   3  -1    1.39    0.49
  13  -3   1    2.49    0.26
  13  -3  -1    2.45    0.27
  13  -3   1    2.09    0.27
  13  -3  -1    2.00    0.30
  13  -3   2   20.76    0.81
  13  -3  -2   22.85    0.82
  13  -3   2   20.98    0.81
  13  -3  -2   20.93    0.85
  13  -3   2   21.36    0.84
  13  -3   2   21.32    0.80
  13  -3  -2   20.83    1.22
  13   3  -2   19.58    1.19
  13  -3   3    0.56    0.21
  13  -3  -3    1.18    0.44
  13   3  -3    0.69    0.42
  13  -3  -3    0.43    0.20
  13  -3   3    0.53    0.20
  13  -3   3    0.68    0.22
  13  -3  -3    0.22    0.25
  13  -3  -4   18.58    0.80
  13  -3   4   20.26    0.75
  13  -3  -4   18.97    1.18
  13   3  -4   19.58    1.20
  13  -3  -4   18.81    0.75
  13  -3   4   18.28    0.74
  13  -3   4   18.63    0.77
  13  -3   5    7.36    0.42
  13  -3  -5    6.68    0.76
  13   3  -5    7.20    0.75
  13  -3  -5    7.36    0.40
  13  -3   5    7.08    0.45
  13  -3   5    6.90    0.39
  13   3  -6   14.69    1.05
  13  -3  -6   16.34    1.10
  13  -3   6   14.33    0.68
  13  -3  -6   15.09    0.61
  13  -3   6   14.67    0.60
 -13  -3  -6   13.32    0.96
 -13  -3   6   12.99    0.93
  13  -3   6   14.64    0.63
  13  -3  -6   14.44    0.69
  13  -3  -7    8.89    0.94
  13  -3   7   11.66    0.59
  13  -3   7   11.31    0.49
 -13  -3   7   10.47    0.91
  13   3  -7    8.38    0.90
 -13  -3  -7    8.46    0.78
  13  -3   7   10.27    0.53
  13  -3  -7   11.24    0.59
  13   3  -8   19.53    1.37
  13  -3  -8   20.57    1.37
  13  -3   8   20.19    0.82
  13  -3  -8   21.57    0.90
 -13  -3   8   23.56    1.32
  13   3  -9   15.12    1.23
  13  -3  -9   15.42    1.23
  13  -3   9   20.13    0.77
  13  -3  -9   19.10    0.82
 -13  -3   9   17.40    1.17
  13  -3  10    8.14    0.54
  13  -3 -10    8.46    0.54
  13  -3  10    9.17    0.48
  13  -3  11    6.00    0.46
  13  -3 -11    5.73    0.45
  13  -3  11    6.45    0.40
  13  -3  12    4.94    0.40
  13  -3 -12    5.62    0.40
  13  -3  12    4.73    0.34
  13  -3  13   29.09    1.02
  13  -3 -13   27.97    1.01
  13  -3  13   26.76    0.96
  13  -3  14    2.30    0.26
  13  -3 -14    2.13    0.24
  13  -3  14    2.11    0.22
  13  -3  15   10.08    0.38
  13  -3  15    9.53    0.41
  13  -4   0    0.20    0.21
  13  -4   0    0.32    0.21
  13  -4   0   -0.03    0.22
  13  -4   0   -0.11    0.19
  13  -4  -1    3.06    0.33
  13  -4   1    3.38    0.33
  13  -4   1    3.88    0.31
  13  -4  -1    2.82    0.31
  13  -4  -1    2.87    0.27
  13  -4   2    1.56    0.26
  13  -4  -2    0.95    0.20
  13  -4   2    1.40    0.27
  13  -4  -2    0.56    0.38
  13   4  -2    0.76    0.40
  13  -4  -2    1.16    0.25
  13  -4   2    1.50    0.26
 -13  -4   2    0.94    0.47
  13  -4  -2    1.21    0.27
  13  -4  -3   12.03    0.56
  13  -4   3   11.23    0.57
  13  -4   3   10.68    0.52
  13  -4  -3   11.80    0.58
 -13  -4  -3   10.27    0.91
 -13  -4   3   11.05    0.91
  13  -4  -3    9.56    0.82
  13   4  -3   10.61    0.86
  13  -4   4   -0.03    0.24
  13   4  -4   -0.10    0.40
  13  -4  -4   -0.05    0.37
  13  -4  -4    0.15    0.21
  13  -4   4    0.14    0.20
 -13  -4  -4   -0.29    0.45
 -13  -4   4   -0.05    0.39
  13  -4  -4    0.02    0.23
  13  -4  -4    0.08    0.26
  13  -4  -5   75.06    2.94
  13   4  -5   73.11    2.95
  13  -4   5   75.90    2.40
  13  -4  -5   78.79    2.42
  13  -4   5   79.45    2.48
  13  -4  -5   80.54    2.48
 -13  -4  -5   73.17    2.99
 -13  -4   5   67.71    2.88
  13  -4  -5   80.45    2.49
 -13  -4   6    0.29    0.36
  13  -4   6    0.22    0.28
  13  -4  -6    0.10    0.19
  13  -4   6   -0.15    0.20
  13  -4  -6    0.16    0.40
  13   4  -6    0.05    0.43
 -13  -4   6   -0.05    0.40
  13  -4   6   -0.03    0.22
 -13  -4  -6    0.26    0.37
  13  -4  -6    0.20    0.28
  13  -4  -6    0.27    0.28
  13  -4  -7    2.99    0.57
  13   4  -7    3.24    0.61
  13  -4   7    4.27    0.30
 -13  -4  -7    2.84    0.49
 -13  -4   7    4.19    0.65
  13  -4   7    4.26    0.36
 -13  -4   8    9.26    0.88
  13  -4   8   10.63    0.52
  13  -4  -8    8.02    0.83
  13  -4   9    1.75    0.34
  13  -4  -9    2.18    0.35
  13  -4   9    1.97    0.28
  13  -4  10    2.05    0.34
  13  -4 -10    2.44    0.34
  13  -4  10    2.62    0.31
  13  -4  11   21.55    0.86
  13  -4 -11   19.15    0.84
  13  -4  11   21.03    0.80
  13  -4  12   10.47    0.54
  13  -4 -12   11.04    0.55
  13  -4  12   10.71    0.50
  13  -4  13    0.10    0.21
  13  -4  13    0.35    0.19
  13  -4 -13    0.39    0.22
  13  -4 -13    0.18    0.22
  13  -4  14   23.60    0.79
  13  -4  14   24.47    0.82
  13  -4 -14   22.25    0.81
  13  -4  15    1.65    0.14
  13  -4  15    1.46    0.14
  13  -4 -15    1.81    0.16
  13  -5   0   27.64    1.03
  13  -5   0   27.38    1.00
 -13  -5   0   24.49    1.51
  13  -5   0   26.19    0.99
  13  -5  -1    0.68    0.25
  13  -5   1    0.15    0.21
 -13  -5   1    0.24    0.44
  13  -5  -1    0.32    0.21
  13  -5   1    0.34    0.25
  13  -5   1    0.55    0.24
  13  -5  -1    0.03    0.25
  13  -5  -2   46.58    1.54
  13  -5   2   44.20    1.53
  13  -5  -2   43.87    1.52
  13  -5   2   46.52    1.51
 -13  -5  -2   43.12    2.12
 -13  -5   2   44.21    2.10
  13  -5   2   45.86    1.54
  13  -5  -2   43.66    1.48
 -13  -5   3    0.12    0.39
  13  -5  -3   -0.10    0.20
  13  -5   3    0.35    0.27
  13  -5  -3    0.02    0.22
  13  -5   3    0.52    0.25
  13  -5   3    0.28    0.24
 -13  -5  -3    0.06    0.46
  13  -5  -3    0.10    0.25
  13  -5  -4   13.62    0.63
  13  -5   4   13.60    0.66
  13  -5   4   13.44    0.61
  13  -5  -4   12.23    0.62
  13  -5   4   13.43    0.61
 -13  -5  -4   12.07    1.02
 -13  -5   4   10.86    0.95
  13  -5  -4   13.31    0.56
 -13  -5  -5    1.70    0.50
 -13  -5   5    0.63    0.38
  13  -5   5    1.22    0.31
  13  -5   5    0.75    0.26
  13  -5  -5    0.93    0.29
  13  -5  -5    1.08    0.29
  13  -5  -5    0.96    0.24
  13  -5   5    1.25    0.25
  13  -5  -6   18.58    0.79
  13  -5  -6   17.56    0.73
  13  -5   6   17.81    0.73
 -13  -5   6   18.20    1.20
  13  -5  -6   19.73    0.82
 -13  -5  -6   16.32    1.12
  13  -5   6   19.63    0.77
  13  -5  -7   -0.10    0.19
  13  -5   7   -0.14    0.18
 -13  -5   7   -0.17    0.49
  13  -5   7    0.42    0.25
  13  -5  -7   -0.19    0.29
  13  -5  -7    0.32    0.27
  13  -5  -8   32.46    1.18
  13  -5   8   32.09    1.21
  13  -5  -8   31.10    1.19
  13  -5  -9    8.87    0.51
  13  -5   9    8.96    0.55
  13  -5  -9    9.63    0.55
  13  -5  10    1.49    0.31
  13  -5 -10    1.57    0.30
  13  -5  11    0.08    0.24
  13  -5 -11    0.26    0.23
  13  -5 -12    8.83    0.44
  13  -5  12    9.00    0.46
  13  -5 -13    0.57    0.19
  13  -5  13    0.94    0.19
  13  -5  14    2.15    0.17
  13  -5  14    1.64    0.16
  13  -6   0    0.28    0.25
  13  -6   0    0.02    0.26
 -13  -6   0    0.32    0.44
  13  -6   0    0.05    0.22
 -13  -6   0   -0.09    0.18
  13  -6   1  148.52    4.42
  13  -6  -1  147.48    4.39
  13  -6  -1  142.91    4.37
  13  -6  -1  149.89    4.44
 -13  -6   1  133.48    5.05
 -13  -6   1  148.05    4.36
 -13  -6  -1  147.65    4.34
 -13  -6  -2    0.83    0.48
 -13  -6   2    0.91    0.47
  13  -6  -2    1.30    0.26
  13  -6   2    1.34    0.30
  13  -6  -2    1.02    0.29
  13  -6   2    1.17    0.29
  13  -6  -2    0.66    0.24
  13  -6   2    0.92    0.25
 -13  -6  -2    1.21    0.20
  13  -6  -3  125.35    3.76
  13  -6   3  125.29    3.75
  13  -6  -3  121.79    3.71
  13  -6   3  124.42    3.72
 -13  -6  -3  112.18    4.39
 -13  -6   3  107.09    4.29
  13  -6  -3  121.70    3.69
  13  -6   3  129.03    3.79
  13  -6  -4   12.37    0.60
  13  -6   4   11.90    0.57
  13  -6  -4   10.86    0.55
 -13  -6  -4    9.90    0.95
 -13  -6   4   11.63    0.96
  13  -6   4   12.12    0.58
  13  -6   4   11.79    0.63
  13  -6   5   50.17    1.62
 -13  -6  -5   42.09    2.09
 -13  -6   5   41.75    2.05
  13  -6  -5   51.21    1.63
  13  -6   5   48.36    1.61
  13  -6  -5   49.33    1.62
  13  -6   6   28.61    1.02
  13  -6   6   27.36    0.99
  13  -6  -6   26.36    0.99
  13  -6  -6   27.18    1.01
  13  -6   7   29.52    1.09
  13  -6  -7   26.04    1.00
  13  -6  -7   27.04    0.96
  13  -6   7   27.92    1.01
  13  -6  -7   27.76    1.04
  13  -6  -8   30.32    1.12
  13  -6   8   33.33    1.20
  13  -6   8   33.68    1.14
  13  -6  -8   31.89    1.17
  13  -6   9  105.78    3.16
  13  -6   9  105.26    3.10
  13  -6  -9  103.54    3.15
  13  -6  -9   96.57    3.09
  13  -6  10   21.63    0.80
  13  -6 -10   21.68    0.84
  13  -6  10   22.39    0.85
  13  -6  11   -0.01    0.20
  13  -6  11    0.03    0.18
  13  -6  12   15.36    0.57
  13  -6  12   15.42    0.58
  13  -6  13   12.15    0.42
  13  -6  13   10.74    0.42
  13  -7   0   41.33    1.40
  13  -7   0   40.67    1.41
 -13  -7   0   39.54    1.33
  13  -7  -1    0.20    0.27
  13  -7  -1    0.09    0.24
  13  -7   1    0.05    0.26
 -13  -7   1    0.06    0.18
 -13  -7  -1   -0.06    0.17
 -13  -7   1   -0.19    0.50
  13  -7  -2   18.95    0.79
  13  -7   2   18.09    0.78
  13  -7   2   19.22    0.80
  13  -7  -2   18.02    0.74
 -13  -7   2   17.94    0.73
 -13  -7  -2   18.31    0.70
  13  -7  -3    0.73    0.27
  13  -7   3    0.86    0.26
 -13  -7  -3    0.90    0.18
 -13  -7   3    0.88    0.22
  13  -7   3    0.31    0.27
  13  -7  -4    4.95    0.39
  13  -7   4    5.32    0.38
  13  -7   4    4.88    0.35
  13  -7  -5    1.11    0.26
  13  -7   5    0.93    0.25
  13  -7   5    1.29    0.25
  13  -7  -6   21.02    0.82
  13  -7   6   22.86    0.83
  13  -7   6   23.49    0.92
  13  -7  -7    0.22    0.17
  13  -7   7    0.29    0.27
  13  -7   7    0.48    0.20
  13  -7   8   15.96    0.67
  13  -7   8   14.81    0.61
  13  -7   9    0.61    0.23
  13  -7   9    0.39    0.18
  13  -7  10    1.66    0.23
  13  -7  10    1.55    0.19
  13  -7  11    1.12    0.17
  13  -7  12    4.19    0.21
 -13  -8   0    0.02    0.17
  13  -8   0    0.02    0.27
  13  -8   0   -0.46    0.25
  13  -8  -1   78.57    2.51
 -13  -8  -1   76.85    2.43
 -13  -8   1   78.65    2.44
  13  -8  -1   82.38    2.48
  13  -8   1   83.44    2.51
 -13  -8  -2   -0.04    0.16
 -13  -8   2    0.07    0.18
  13  -8  -2    0.27    0.26
  13  -8   2   -0.11    0.24
  13  -8   2   -0.10    0.27
 -13  -8   3    7.51    0.40
 -13  -8  -3    7.28    0.35
  13  -8  -3    8.06    0.46
 -13  -8   4    0.42    0.20
  13  -8  -4    0.45    0.24
  13  -8   4    0.87    0.23
  13  -8  -5  115.05    3.47
  13  -8   5  110.47    3.46
  13  -8   5  118.47    3.52
 -13  -8   5  120.44    3.48
  13  -8  -6    4.31    0.28
 -13  -8   6    4.43    0.31
  13  -8   6    3.87    0.35
 -13  -8   7   49.09    1.57
  13  -8   7   50.34    1.60
 -13  -8   8    0.30    0.16
  13  -8   8    0.29    0.20
 -13  -8   9   25.89    0.84
  13  -8   9   24.46    0.85
  13  -8  10    0.02    0.12
 -13  -8  10    0.11    0.11
 -13  -9   0   32.99    1.09
  13  -9   0   33.72    1.16
 -13  -9   1    0.09    0.16
 -13  -9  -1   -0.03    0.14
  13  -9  -1   -0.28    0.23
 -13  -9  -2   20.74    0.74
 -13  -9   2   22.46    0.77
  13  -9  -2   22.93    0.83
  13  -9   2   22.64    0.82
 -13  -9   3    0.04    0.15
  13  -9  -3    0.08    0.19
  13  -9   3    0.08    0.19
  13  -9   4   25.26    0.87
 -13  -9   4   23.29    0.82
  13  -9   5    0.08    0.19
 -13  -9   5    0.11    0.15
  13  -9   6   12.22    0.50
 -13  -9   6   11.98    0.46
  13  -9   7    1.12    0.18
 -13  -9   7    1.27    0.15
 -13  -9   8   10.48    0.39
  13  -9   8   11.52    0.41
 -13 -10   1    4.67    0.23
 -13 -10   2    0.20    0.11
 -13 -10   3   -0.03    0.10
 -13 -10   4    0.29    0.10
 -13 -10   5    0.14    0.08
  14   0   0  617.64   18.93
  14   0   0  645.06   18.32
  14   0  -1   -0.01    0.22
  14   0   1   -0.15    0.23
  14   0  -1   -0.15    0.47
  14   0   2    2.40    0.23
  14   0  -2    2.39    0.29
  14   0   2    1.96    0.28
  14   0  -2    1.58    0.56
  14   0   3    0.05    0.16
  14   0  -3   -0.01    0.23
  14   0  -3   -0.11    0.48
  14   0  -4  124.52    3.66
  14   0  -4  119.11    4.30
  14   0   4  118.22    3.58
  14   0  -5   -0.42    0.57
  14   0   5   -0.10    0.18
  14   0   6  271.68    7.85
  14   0  -6  268.06    8.74
  14   0   7    0.03    0.19
  14   0   7    0.03    0.16
  14   0  -8   60.09    2.76
  14   0   8   63.32    1.97
  14   0  -9    0.94    0.53
  14   0   9   -0.16    0.19
  14   0  10   25.17    0.88
  14   0 -10   22.08    1.53
 -14   0  10   23.19    1.33
  14   0  11   -0.07    0.17
  14   0  12   10.64    0.45
  14   0  13   -0.07    0.14
  14   0  14    3.81    0.32
  14   0  15   -0.08    0.17
  14   0 -15    0.05    0.16
  14   0  16    1.39    0.14
  14  -1   0    0.37    0.23
  14  -1   0    0.20    0.45
  14   1   0    0.05    0.20
  14   1   0   -0.05    0.46
  14  -1   1   38.57    1.24
  14  -1  -1   35.38    1.76
  14   1  -1   34.92    1.74
  14   1  -1   36.56    1.25
  14  -1  -1   37.19    1.28
  14   1   1   37.30    1.25
  14  -1   1   36.22    1.27
  14   1   2    1.58    0.24
  14  -1   2    1.91    0.28
  14  -1  -2    0.89    0.50
  14   1  -2    1.20    0.52
  14  -1   2    1.39    0.23
  14   1  -2    1.64    0.26
  14  -1  -2    1.65    0.30
  14   1  -3   67.61    2.09
  14  -1  -3   67.11    2.12
  14  -1   3   63.20    2.06
  14  -1  -3   66.36    2.72
  14   1  -3   65.73    2.70
  14  -1   3   67.60    2.06
  14  -1   4    3.06    0.27
  14   1  -4    2.93    0.30
  14  -1  -4    2.88    0.33
  14  -1  -4    1.88    0.57
  14   1  -4    2.43    0.63
  14   1  -5   47.88    1.63
  14  -1  -5   52.06    1.59
  14  -1   5   49.47    1.58
  14  -1   5   48.09    1.58
  14   1  -5   46.82    2.20
  14  -1  -5   46.44    2.21
  14  -1   6    4.64    0.31
  14  -1  -6    4.59    0.31
  14   1  -6    5.61    0.78
  14  -1  -6    5.14    0.75
  14  -1   6    4.84    0.33
  14  -1  -6    5.92    0.40
  14   1  -7   24.72    1.55
  14  -1  -7   23.11    1.49
  14  -1   7   25.06    0.87
 -14  -1   7   23.65    1.25
  14  -1   7   23.55    0.88
  14  -1  -7   24.74    0.96
  14  -1   8    0.82    0.21
  14  -1  -8    0.63    0.28
  14   1  -8    0.63    0.54
  14  -1  -8    0.42    0.50
  14   1  -9   16.42    1.25
  14  -1  -9   17.02    1.30
  14  -1   9   18.10    0.71
  14  -1  -9   18.18    0.78
  14  -1  10    0.76    0.22
  14  -1 -10    0.47    0.26
  14   1 -10   -0.07    0.50
  14  -1 -10    0.79    0.48
  14  -1 -11    0.23    0.24
  14  -1  11    0.63    0.21
  14  -1  12    0.41    0.19
  14  -1  13    0.52    0.26
  14  -1  13    0.74    0.17
  14  -1  14    0.03    0.21
  14   1 -14    0.25    0.18
  14  -1  14   -0.03    0.14
  14   1 -15   -0.02    0.12
  14  -1 -15    0.09    0.17
  14   1  15    0.35    0.17
  14  -1  15    0.45    0.17
  14   1  16    1.79    0.15
  14   2   0  204.37    6.08
  14  -2   0  212.88    6.10
  14  -2  -1    0.25    0.20
  14  -2   1   -0.03    0.20
  14   2   1   -0.02    0.18
  14   2  -1    0.20    0.19
  14  -2  -1    0.15    0.43
  14   2  -1    0.05    0.41
  14  -2   1    0.13    0.17
  14   2  -2   36.54    1.26
  14  -2  -2   39.32    1.33
  14  -2  -2   41.11    1.30
  14  -2   2   38.22    1.28
  14  -2   2   37.60    1.27
  14  -2   2   38.94    1.28
  14  -2  -2   36.30    1.78
  14  -2   3    4.30    0.32
  14   2  -3    4.43    0.32
  14  -2  -3    4.47    0.39
  14  -2  -3    3.60    0.62
  14   2  -3    3.90    0.61
  14  -2  -3    4.02    0.32
  14  -2   3    3.84    0.32
  14  -2   3    4.40    0.32
  14   2  -4   58.99    1.88
  14  -2  -4   57.39    1.94
  14  -2  -4   64.78    1.90
  14  -2   4   60.68    1.88
  14  -2   4   56.31    1.90
  14  -2   4   57.97    1.88
  14  -2  -4   56.31    2.47
  14   2  -4   59.81    2.52
  14  -2  -5   10.46    0.98
  14   2  -5   10.23    0.98
  14  -2   5   11.74    0.54
  14  -2  -5   12.77    0.55
  14  -2   5   11.00    0.56
  14  -2   5   11.81    0.55
  14  -2  -5   11.76    0.60
  14  -2  -5   12.15    0.62
  14   2  -5   11.64    0.55
  14  -2  -6    5.63    0.35
  14  -2   6    5.43    0.34
  14  -2   6    6.01    0.41
  14   2  -6    5.58    0.75
  14  -2  -6    6.05    0.78
  14   2  -6    5.67    0.38
  14  -2   6    5.83    0.38
  14  -2  -6    5.89    0.43
  14   2  -7   31.47    1.81
  14  -2  -7   34.24    1.85
  14  -2   7   35.86    1.17
  14  -2   7   35.21    1.26
  14   2  -7   34.73    1.22
 -14  -2   7   34.28    1.65
  14  -2   7   33.90    1.20
  14  -2  -7   35.39    1.28
  14   2  -8   37.48    2.07
  14  -2  -8   40.62    2.12
 -14  -2   8   42.01    1.92
  14  -2   8   45.99    1.49
  14  -2  -8   44.80    1.56
  14  -2   8   47.27    1.56
  14   2  -9   14.83    1.23
  14  -2  -9   14.69    1.22
  14  -2   9   18.33    0.79
  14  -2  -9   18.12    0.78
  14  -2   9   16.77    0.70
  14  -2 -10   22.52    0.91
  14  -2  10   22.44    0.85
  14  -2 -11   24.51    0.94
  14  -2  11   23.17    0.87
  14  -2  12    0.69    0.27
  14  -2 -12    0.65    0.25
  14   2 -12   -0.01    0.20
  14  -2  12    0.57    0.20
  14  -2  13    1.15    0.27
  14   2 -13    0.71    0.18
  14  -2  13    0.97    0.20
  14  -2  14    6.26    0.36
  14  -2  14    5.12    0.28
  14  -2 -15   37.41    1.15
  14  -2  15   38.01    1.14
  14  -3   0   -0.01    0.20
  14  -3   0   -0.10    0.18
  14  -3   0   -0.13    0.24
  14  -3  -1    7.22    0.46
  14  -3   1    7.33    0.45
  14  -3   1    6.75    0.40
  14  -3   1    6.53    0.39
  14  -3  -1    6.72    0.42
  14  -3   2   -0.17    0.21
  14  -3   2    0.25    0.25
  14  -3  -2   -0.15    0.40
  14   3  -2   -0.05    0.41
  14  -3  -2   -0.01    0.20
  14  -3   2   -0.03    0.20
  14  -3   2   -0.15    0.21
  14  -3  -2    0.15    0.26
  14  -3   3    0.70    0.23
  14  -3  -3    0.78    0.47
  14   3  -3    0.16    0.42
  14  -3  -3    0.56    0.22
  14  -3   3    0.76    0.21
  14  -3   3    0.91    0.24
  14  -3  -3    1.15    0.29
  14  -3   4    0.32    0.24
  14  -3  -4    0.06    0.41
  14   3  -4    0.06    0.44
  14  -3  -4    0.17    0.20
  14  -3   4    0.09    0.20
  14  -3   4    0.58    0.22
  14  -3  -4    0.49    0.27
  14  -3  -5   10.72    0.50
  14  -3   5   10.14    0.49
  14  -3   5   10.60    0.55
  14  -3  -5   10.21    0.58
  14  -3   5   10.35    0.51
  14  -3  -5    8.85    0.90
  14   3  -5    9.25    0.91
  14  -3   6   -0.30    0.27
  14   3  -6    0.06    0.53
  14  -3  -6   -0.16    0.19
  14  -3   6   -0.05    0.19
  14  -3   6    0.01    0.23
 -14  -3  -6   -0.05    0.38
 -14  -3   6    0.20    0.39
  14  -3  -6   -0.15    0.28
  14  -3  -6   -0.05    0.30
  14   3  -7    7.11    0.87
  14  -3  -7    7.81    0.86
  14  -3   7    9.12    0.43
  14  -3   7    8.03    0.51
 -14  -3  -7    8.49    0.76
 -14  -3   7    6.38    0.76
  14  -3   7    8.94    0.48
  14  -3  -7    8.79    0.55
  14   3  -8    0.25    0.47
  14  -3  -8    0.06    0.48
  14  -3   8    0.08    0.28
  14  -3  -8    0.47    0.30
 -14  -3   8    0.05    0.40
  14  -3   8    0.27    0.25
  14   3  -9    0.12    0.54
  14  -3  -9    0.43    0.51
  14  -3  -9    1.68    0.34
  14  -3   9    1.86    0.28
  14  -3 -10    1.62    0.32
  14  -3  10    2.27    0.28
  14  -3  11    2.23    0.35
  14  -3 -11    2.29    0.32
  14  -3  11    2.57    0.29
  14  -3  12    0.26    0.26
  14  -3 -12    0.48    0.25
  14  -3  12    0.32    0.21
  14  -3  13    0.04    0.17
  14  -3  13    0.01    0.22
  14  -3  14    0.47    0.16
  14  -3  14    0.97    0.20
  14  -3  15    0.13    0.10
  14  -3  15    0.07    0.12
  14  -4   0   34.62    1.26
  14  -4   0   34.53    1.21
  14  -4  -1    0.76    0.23
  14  -4  -1    0.46    0.19
  14  -4   1    0.55    0.22
  14  -4   1    0.27    0.25
  14  -4  -1    0.74    0.27
  14  -4   2   36.85    1.26
  14  -4  -2   34.93    1.25
  14  -4   2   36.82    1.26
  14  -4  -2   37.60    1.29
  14  -4   2   38.06    1.28
 -14  -4  -2   31.65    1.78
 -14  -4   2   32.93    1.77
  14  -4  -2   33.59    1.18
  14  -4   3    0.82    0.27
  14  -4  -3    0.75    0.37
  14   4  -3    0.69    0.36
  14  -4  -3    0.60    0.23
  14  -4   3    0.58    0.24
 -14  -4  -3    0.55    0.47
 -14  -4   3    0.86    0.45
  14  -4  -3    0.97    0.29
  14  -4   4    0.35    0.25
  14  -4  -4    0.10    0.37
  14   4  -4   -0.05    0.41
  14  -4  -4    0.13    0.22
  14  -4   4    0.22    0.21
 -14  -4  -4    0.12    0.44
 -14  -4   4   -0.06    0.38
  14  -4  -4    0.61    0.30
  14  -4  -5   14.25    0.69
  14  -4   5   15.13    0.64
  14  -4  -5   14.94    0.64
  14  -4   5   13.85    0.68
  14  -4   5   14.34    0.64
 -14  -4  -5   11.67    1.01
 -14  -4   5   11.70    0.98
  14  -4  -5   12.62    1.00
  14   4  -5   11.49    0.99
 -14  -4   6    2.60    0.51
  14  -4  -6    2.57    0.28
  14  -4   6    3.01    0.35
  14  -4   6    3.04    0.29
  14  -4  -6    1.60    0.49
  14   4  -6    2.18    0.55
 -14  -4  -6    2.28    0.51
 -14  -4   6    2.63    0.55
  14  -4   6    2.45    0.32
  14  -4  -6    3.02    0.37
  14  -4  -6    2.04    0.35
  14  -4   7    0.41    0.29
 -14  -4   7    0.11    0.43
  14  -4   7    0.14    0.24
  14  -4  -7    0.81    0.31
  14  -4  -7    0.66    0.19
  14  -4   7    0.59    0.18
  14  -4   8   11.53    0.56
  14  -4  -8   11.85    0.63
 -14  -4   8   10.74    0.93
  14  -4  -9    1.15    0.32
  14  -4  -9    0.63    0.31
  14  -4   9    0.82    0.26
  14  -4  10    0.74    0.30
  14  -4  10    0.91    0.25
  14  -4 -10    0.41    0.29
  14  -4 -10    0.08    0.30
  14  -4  11   26.66    1.01
  14  -4  11   27.13    0.96
  14  -4 -11   26.00    1.01
  14  -4 -11   26.94    1.00
  14  -4  12    1.61    0.27
  14  -4  12    1.25    0.23
  14  -4 -12    1.23    0.27
  14  -4 -12    1.44    0.28
  14  -4 -13    3.37    0.28
  14  -4  13    4.07    0.29
  14  -4  13    3.68    0.26
  14  -4 -14    1.97    0.20
  14  -4  14    2.03    0.18
  14  -4  14    1.68    0.20
  14  -5   0    0.06    0.24
  14  -5   0    0.06    0.24
 -14  -5   0    0.33    0.39
  14  -5   0   -0.05    0.21
  14  -5  -1    1.69    0.31
  14  -5   1    2.06    0.30
  14  -5  -1    1.79    0.30
 -14  -5   1    1.34    0.54
  14  -5  -1    1.63    0.25
  14  -5   1    1.90    0.27
  14  -5  -2    0.22    0.26
  14  -5   2    0.35    0.26
  14  -5   2    0.18    0.23
 -14  -5   2   -0.25    0.47
 -14  -5  -2   -0.07    0.42
  14  -5  -2   -0.03    0.25
  14  -5  -2    0.06    0.21
  14  -5   2    0.49    0.24
  14  -5   3    3.91    0.38
  14  -5  -3    3.88    0.29
  14  -5  -3    3.97    0.35
  14  -5   3    3.74    0.36
  14  -5  -3    3.74    0.36
  14  -5   3    3.69    0.34
 -14  -5  -3    2.97    0.61
 -14  -5   3    3.44    0.60
 -14  -5  -4    0.50    0.41
 -14  -5   4    0.91    0.44
  14  -5   4    0.12    0.28
  14  -5  -4    0.57    0.25
  14  -5   4    0.63    0.25
  14  -5   4    0.93    0.27
  14  -5  -4    0.40    0.25
  14  -5   5    8.69    0.53
  14  -5  -5    8.67    0.50
  14  -5   5    7.34    0.44
  14  -5  -5    7.77    0.45
  14  -5   5    7.42    0.46
 -14  -5   5    6.28    0.77
 -14  -5   5    6.56    0.71
 -14  -5  -5    5.63    0.73
  14  -5   6    4.99    0.44
  14  -5  -6    3.97    0.32
  14  -5   6    4.08    0.32
  14  -5  -6    4.37    0.39
 -14  -5   6    2.13    0.54
 -14  -5  -6    2.89    0.54
  14  -5  -7    2.05    0.34
  14  -5  -7    1.52    0.32
  14  -5  -7    1.43    0.22
  14  -5  -8    4.77    0.41
  14  -5  -8    4.76    0.40
  14  -5  -9    0.68    0.28
  14  -5  -9    1.13    0.28
  14  -5   9    0.66    0.31
  14  -5 -10    0.18    0.24
  14  -5  10   -0.07    0.28
  14  -5 -11    0.24    0.22
  14  -5  11    0.11    0.24
  14  -5  12    0.04    0.19
  14  -5 -12    0.08    0.19
  14  -5  12    0.15    0.17
  14  -5  13    0.12    0.14
  14  -5  13    0.10    0.16
  14  -5  14    0.40    0.10
  14  -6   0   89.09    2.71
  14  -6   0   90.21    2.74
 -14  -6   0   80.19    3.34
 -14  -6   0   83.92    2.63
  14  -6  -1   -0.18    0.24
  14  -6   1    0.62    0.27
  14  -6  -1    0.24    0.27
 -14  -6   1    0.01    0.18
 -14  -6   1   -0.13    0.41
  14  -6  -1   -0.18    0.26
  14  -6  -2   54.26    1.77
  14  -6  -2   53.88    1.76
  14  -6   2   56.37    1.81
  14  -6  -2   56.74    1.83
  14  -6   2   53.25    1.81
 -14  -6   2   49.55    2.34
 -14  -6   2   55.85    1.75
  14  -6   3    4.64    0.38
  14  -6  -3    4.60    0.33
  14  -6  -3    5.14    0.40
  14  -6   3    3.81    0.36
  14  -6  -3    3.76    0.34
  14  -6   3    3.60    0.35
 -14  -6  -3    3.36    0.63
 -14  -6   3    4.45    0.65
  14  -6  -4   94.05    2.94
 -14  -6  -4   87.12    3.56
 -14  -6   4   81.17    3.45
  14  -6   4   98.65    2.95
  14  -6   4  102.18    3.01
  14  -6  -4   98.37    2.98
  14  -6   4   94.86    2.96
  14  -6  -5    3.35    0.33
  14  -6   5    3.39    0.34
  14  -6   5    4.07    0.40
  14  -6  -5    3.58    0.34
  14  -6   5    2.92    0.31
  14  -6   6  108.75    3.21
  14  -6  -6  102.64    3.20
  14  -6  -6  104.72    3.19
  14  -6   6  104.91    3.19
  14  -6   7    4.06    0.34
  14  -6  -7    4.07    0.34
  14  -6  -7    3.78    0.28
  14  -6   8   54.94    1.72
  14  -6   8   54.98    1.78
  14  -6  -8   50.41    1.70
  14  -6   9   64.90    2.03
  14  -6   9   61.67    1.97
  14  -6  10   22.60    0.84
  14  -6  10   22.56    0.81
  14  -6  11    0.08    0.18
  14  -6  11   -0.04    0.16
  14  -6  12   12.19    0.46
  14  -6  12   12.08    0.47
  14  -6  13   24.89    0.78
  14  -7   0   -0.01    0.23
 -14  -7   0    0.05    0.16
  14  -7   0    0.13    0.25
  14  -7   1   -0.01    0.25
  14  -7  -1   -0.01    0.24
 -14  -7   1    0.14    0.17
 -14  -7  -1    0.08    0.15
  14  -7  -1    0.21    0.27
  14  -7   2   -0.28    0.27
  14  -7  -2    0.12    0.22
 -14  -7  -2   -0.05    0.15
 -14  -7   2    0.01    0.17
  14  -7  -2    0.11    0.26
  14  -7   2    0.21    0.25
  14  -7  -3   -0.02    0.25
  14  -7   3   -0.17    0.23
 -14  -7   3    0.25    0.18
  14  -7   3   -0.02    0.26
  14  -7   4    0.43    0.23
  14  -7  -4    0.30    0.23
 -14  -7   4    0.13    0.19
  14  -7   4    0.32    0.25
  14  -7  -5    5.22    0.36
  14  -7   5    5.63    0.36
  14  -7   5    5.71    0.36
  14  -7  -6    0.89    0.21
  14  -7   6    1.32    0.23
  14  -7   7    3.34    0.34
  14  -7   7    3.65    0.28
  14  -7   8    0.23    0.18
  14  -7   8    0.18    0.23
  14  -7   9    0.41    0.16
  14  -7   9    0.64    0.21
  14  -7  10    1.16    0.16
  14  -7  10    1.00    0.19
  14  -7  11   -0.03    0.13
 -14  -8   0    0.27    0.16
  14  -8   0    0.54    0.24
  14  -8   0    0.30    0.26
  14  -8   1    1.06    0.27
 -14  -8  -1    0.68    0.16
 -14  -8   1    0.41    0.17
  14  -8  -1    0.73    0.28
 -14  -8   2    0.08    0.16
 -14  -8  -2    0.09    0.14
  14  -8   2    0.12    0.24
  14  -8  -2   -0.01    0.25
  14  -8   2    0.07    0.24
 -14  -8   3    2.13    0.23
  14  -8   3    2.72    0.31
  14  -8  -3    2.14    0.30
  14  -8   3    1.70    0.27
 -14  -8   4   14.69    0.58
  14  -8  -4   14.89    0.62
  14  -8   4   14.48    0.61
 -14  -8   5   17.32    0.65
  14  -8  -5   16.97    0.66
  14  -8   6    6.08    0.38
 -14  -8   6    5.85    0.31
  14  -8  -6    5.67    0.30
 -14  -8   7   31.91    1.07
  14  -8   7   34.62    1.12
 -14  -8   8    3.76    0.23
  14  -8   8    3.88    0.27
 -14  -8   9   24.07    0.80
  14  -8   9   26.68    0.83
 -14  -8  10    0.24    0.08
  14  -8  10    0.25    0.10
 -14  -9   0   -0.05    0.12
  14  -9   0    0.14    0.21
 -14  -9   1    0.36    0.14
  14  -9  -1    0.57    0.21
 -14  -9   2    0.30    0.13
  14  -9   2    0.96    0.22
  14  -9   2    0.41    0.19
  14  -9  -2    0.53    0.21
  14  -9  -3    4.50    0.29
  14  -9   3    4.82    0.29
 -14  -9   4    0.05    0.12
 -14  -9   5    5.07    0.26
  14  -9   5    5.64    0.30
 -14  -9   6    0.12    0.11
  14  -9   6    0.06    0.15
 -14  -9   7    5.23    0.23
  14  -9   7    5.89    0.27
  14  -9   8    0.90    0.11
  15   0   0    0.24    0.23
  15   0  -1    0.13    0.24
  15   0   1    0.03    0.23
  15   0  -1    0.11    0.44
  15   0   2    4.28    0.30
  15   0  -2    4.30    0.35
  15   0   2    4.31    0.35
  15   0  -3   -0.30    0.48
  15   0   3    0.28    0.16
  15   0   3   -0.07    0.19
  15   0  -3    0.11    0.25
  15   0   4   15.42    0.63
  15   0  -4   15.92    1.19
  15   0  -4   16.65    0.71
  15   0   5   -0.17    0.20
  15   0  -5    0.06    0.26
  15   0  -5   -0.38    0.60
  15   0  -6   68.46    2.15
  15   0   6   65.05    2.05
  15   0  -6   61.50    2.77
  15   0   7   -0.09    0.19
  15   0   7   -0.01    0.16
  15   0  -7    0.41    0.45
  15   0   8   73.99    2.25
  15   0  -8   66.93    3.03
  15   0  -9   -0.92    0.65
  15   0   9   -0.17    0.18
  15   0  10   40.17    1.31
  15   0  11    0.03    0.16
  15   0  12   62.20    1.89
  15   0 -13    0.11    0.22
  15   0 -14   39.23    1.26
  15   0  15   -0.08    0.14
  15   0 -15   -0.01    0.12
  15   1   0    1.62    0.25
  15  -1   0    1.94    0.30
  15  -1  -1    1.39    0.28
  15  -1   1    1.10    0.26
  15  -1  -1    1.78    0.52
  15   1  -1    1.13    0.25
  15   1   1    1.40    0.24
  15   1  -1    0.85    0.46
  15  -1   2    3.11    0.28
  15   1  -2    3.76    0.32
  15  -1  -2    3.17    0.33
  15  -1   2    3.45    0.33
  15  -1  -2    3.16    0.64
  15   1  -2    2.97    0.64
  15  -1  -3    0.47    0.44
  15   1  -3    0.59    0.44
  15  -1   3    0.01    0.19
  15  -1   3   -0.11    0.20
  15   1  -3   -0.15    0.23
  15  -1  -3   -0.02    0.24
  15  -1  -4   30.14    1.02
  15  -1   4   29.12    1.01
  15  -1   4   27.15    1.01
  15   1  -4   26.57    1.03
  15  -1  -4   29.95    1.09
  15  -1   4   28.48    1.00
  15  -1  -4   25.80    1.54
  15   1  -4   25.48    1.54
  15  -1   5    1.47    0.27
  15  -1  -5    1.84    0.54
  15   1  -5    1.95    0.58
  15  -1  -5    1.32    0.23
  15  -1   5    1.71    0.23
  15  -1   5    1.29    0.23
  15   1  -5    1.52    0.27
  15  -1  -5    0.99    0.31
  15  -1  -6   28.61    0.97
  15  -1   6   26.76    0.96
  15   1  -6   27.53    1.02
  15  -1  -6   27.55    1.07
  15  -1   6   26.01    0.96
  15   1  -6   24.74    1.54
  15  -1  -6   23.33    1.53
  15  -1   7   -0.05    0.17
  15  -1   7    0.20    0.21
  15   1  -7    0.43    0.27
  15   1  -7    0.07    0.51
  15  -1  -7   -0.61    0.56
  15   1  -8   13.85    1.15
  15  -1  -8   12.88    1.15
  15  -1   8   15.04    0.63
  15  -1   9    7.49    0.40
  15   1  -9    5.56    0.82
  15  -1  -9    6.15    0.84
  15  -1  10    3.08    0.37
  15  -1  10    3.10    0.28
  15  -1  11    8.43    0.49
  15  -1  11    7.62    0.40
  15  -1  12    0.21    0.17
  15   1 -12    0.22    0.22
  15  -1  13    5.86    0.30
  15  -1 -13    6.75    0.40
  15   1 -13    6.60    0.35
  15  -1  14    1.45    0.23
  15  -1  14    1.03    0.13
  15   1 -14    0.98    0.17
  15  -1 -14    1.37    0.22
  15  -1 -15    3.31    0.22
  15  -1  15    3.08    0.22
  15  -2   0    0.16    0.20
  15   2   0    0.40    0.20
  15  -2   0   -0.07    0.25
  15  -2  -1   61.56    2.05
  15  -2   1   65.13    2.06
  15   2  -1   62.35    1.99
  15  -2  -1   67.11    2.03
  15  -2   1   63.91    2.01
  15  -2  -1   56.67    2.53
  15   2  -1   58.75    2.55
  15   2  -2    2.00    0.26
  15  -2  -2    1.60    0.55
  15   2  -2    2.20    0.56
  15  -2  -2    2.73    0.28
  15  -2   2    2.14    0.27
  15  -2   2    2.10    0.25
  15  -2   2    2.53    0.29
  15  -2  -2    2.55    0.35
  15  -2   3   46.54    1.52
  15  -2  -3   49.71    1.54
  15  -2   3   43.71    1.51
  15  -2   3   47.10    1.52
  15  -2  -3   43.57    2.09
  15   2  -3   42.22    2.06
  15   2  -3   44.53    1.51
  15  -2  -3   47.07    1.59
  15  -2  -4    9.54    0.49
  15  -2   4    9.23    0.48
  15  -2   4    9.32    0.50
  15  -2   4    9.35    0.48
  15  -2  -4    9.07    0.94
  15   2  -4    9.25    0.93
  15   2  -4    9.60    0.48
  15  -2  -4    9.28    0.56
  15  -2   5   33.66    1.23
  15  -2  -5   37.21    1.21
  15  -2   5   33.55    1.19
  15  -2   5   34.24    1.20
  15  -2  -5   31.77    1.77
  15   2  -5   35.76    1.83
  15   2  -5   33.95    1.20
  15  -2  -5   36.23    1.29
  15  -2  -6    4.58    0.43
  15   2  -6    4.13    0.35
  15  -2  -6    4.16    0.75
  15   2  -6    3.13    0.67
  15  -2   6    3.98    0.33
  15  -2  -6    4.07    0.31
  15  -2   6    4.01    0.31
  15  -2   6    4.71    0.36
  15  -2   7   60.54    1.85
  15  -2   7   58.01    1.93
  15   2  -7   58.08    1.89
 -15  -2   7   57.01    2.35
  15  -2   7   59.92    1.89
  15   2  -7   55.25    2.55
  15   2  -8   36.58    1.98
  15  -2  -8   34.61    1.96
  15  -2   8   40.96    1.43
  15  -2   8   41.18    1.36
  15  -2  -8   42.36    1.44
  15   2  -8   38.74    1.36
  15  -2   9   19.37    0.82
  15  -2   9   19.30    0.76
  15  -2  -9   19.58    0.82
  15   2  -9   18.09    0.75
  15   2 -10   13.05    0.60
  15  -2  10   15.12    0.68
  15  -2  10   14.09    0.60
  15   2 -11   23.17    0.88
  15  -2  11   26.34    0.90
  15   2 -12    3.11    0.26
  15  -2  12    3.34    0.26
  15  -2 -13    5.06    0.35
  15  -2  13    4.71    0.34
  15  -2  13    4.45    0.27
  15  -2 -14   11.86    0.48
  15  -2  14   11.11    0.47
  15  -2 -15    5.53    0.26
  15  -2  15    5.23    0.26
  15  -3   0    0.11    0.22
  15  -3   0    0.20    0.26
  15  -3   0   -0.03    0.17
  15  -3   1    0.38    0.19
  15  -3   1    0.23    0.27
  15  -3  -1    0.11    0.22
  15  -3   1    0.09    0.22
  15  -3  -1    0.14    0.24
  15  -3   2    0.97    0.24
  15  -3   2    1.73    0.30
  15  -3  -2    2.07    0.52
  15   3  -2    0.80    0.47
  15  -3  -2    1.65    0.26
  15  -3   2    1.24    0.26
  15  -3   2    1.82    0.27
  15  -3  -2    1.27    0.31
  15  -3  -3    4.80    0.43
  15  -3  -3    3.17    0.61
  15   3  -3    4.17    0.66
  15  -3   3    4.88    0.37
  15  -3  -3    5.04    0.37
  15  -3   3    4.79    0.36
  15  -3   3    4.46    0.36
  15  -3  -4   -0.12    0.22
  15  -3   4   -0.04    0.21
  15  -3   4    0.29    0.24
  15  -3   4    0.31    0.25
  15  -3  -4    0.29    0.43
  15   3  -4    0.23    0.42
  15  -3  -5    7.93    0.45
  15  -3   5    7.59    0.43
  15  -3   5    7.37    0.48
  15  -3   5    8.77    0.47
  15  -3  -5    7.63    0.81
  15   3  -5    7.84    0.81
  15  -3  -6    2.00    0.59
  15   3  -6    1.90    0.55
 -15  -3   6    1.72    0.46
 -15  -3   6    2.81    0.56
  15  -3   6    2.93    0.32
 -15  -3  -6    2.11    0.50
  15  -3   6    2.86    0.28
  15  -3   6    2.26    0.33
  15  -3  -6    3.10    0.29
  15  -3  -7   33.40    1.09
  15  -3   7   33.14    1.19
  15  -3   7   31.11    1.08
 -15  -3   7   31.90    1.63
  15  -3   7   31.64    1.13
  15  -3  -7   25.58    1.61
  15   3  -7   25.41    1.62
  15  -3   8    5.04    0.42
 -15  -3   8    4.32    0.63
  15  -3   8    4.23    0.35
  15  -3  -8    4.41    0.42
  15  -3  -8    3.09    0.65
  15   3  -8    2.46    0.60
  15  -3   9   16.06    0.73
  15  -3  -9   16.29    0.74
  15  -3   9   15.07    0.67
  15  -3 -10   -0.15    0.27
  15  -3  10   -0.34    0.24
  15  -3  11    3.54    0.30
  15  -3  12   -0.10    0.19
  15  -3  12    0.21    0.23
  15  -3  13    2.49    0.22
  15  -3  13    2.67    0.27
  15  -3  14    0.70    0.13
  15  -3  14    1.02    0.18
  15  -4   0    0.15    0.23
  15  -4   0   -0.06    0.19
  15  -4   0    0.19    0.27
  15  -4  -1    4.90    0.40
  15  -4  -1    5.92    0.43
  15  -4   1    6.35    0.44
 -15  -4   1    4.70    0.71
  15  -4   1    5.70    0.37
  15  -4  -1    4.97    0.33
  15  -4   2    0.93    0.24
  15  -4  -2    0.88    0.26
  15  -4   2    0.70    0.25
 -15  -4  -2    0.52    0.46
 -15  -4   2    1.29    0.52
  15  -4  -2    1.23    0.31
  15  -4  -3   20.65    0.84
  15  -4   3   18.30    0.78
 -15  -4  -3   17.45    1.26
 -15  -4   3   18.11    1.24
  15  -4   3   17.59    0.77
  15  -4   3   18.93    0.80
  15  -4  -3   20.19    0.79
  15  -4   4    0.71    0.28
  15  -4  -4   -0.15    0.35
  15   4  -4    1.15    0.45
  15  -4  -4    1.03    0.27
  15  -4   4    0.87    0.24
 -15  -4  -4    0.88    0.48
 -15  -4   4    0.76    0.41
  15  -4   4    0.73    0.27
  15  -4  -4    0.60    0.29
  15  -4  -5   32.69    1.19
  15  -4   5   30.81    1.15
  15  -4  -5   32.88    1.13
  15  -4   5   32.65    1.12
  15  -4   5   32.47    1.13
 -15  -4  -5   26.59    1.59
 -15  -4   5   25.73    1.52
  15  -4  -5   23.48    1.47
  15   4  -5   27.00    1.56
 -15  -4  -6    3.00    0.56
  15  -4   6    2.69    0.29
  15  -4   6    2.70    0.36
  15  -4  -6    3.28    0.30
  15  -4  -6    1.95    0.52
  15  -4   6    3.13    0.32
 -15  -4   6    2.58    0.58
  15  -4  -6    2.94    0.38
  15  -4   7    0.35    0.28
  15  -4  -7    0.39    0.18
  15  -4   7    0.36    0.26
  15  -4  -7    0.60    0.33
  15  -4   8   12.95    0.60
  15  -4  -8   11.86    0.64
  15  -4   8   12.93    0.65
  15  -4   9    0.01    0.25
  15  -4  -9    0.27    0.30
  15  -4  10    1.17    0.25
  15  -4 -10    1.03    0.30
  15  -4  11    7.71    0.41
  15  -4 -11    7.93    0.45
  15  -4  11    8.06    0.46
  15  -4  12    2.73    0.25
  15  -4 -12    2.93    0.29
  15  -4  12    2.79    0.28
  15  -4  13    0.96    0.19
  15  -4  13    0.73    0.16
  15  -4 -13    0.83    0.20
  15  -4  14    6.02    0.26
  15  -4  14    6.11    0.27
  15  -4 -14    6.02    0.27
  15  -5   0   18.59    0.79
  15  -5   0   18.96    0.78
 -15  -5   0   16.40    1.23
  15  -5   0   16.78    0.72
  15  -5  -1    0.31    0.26
 -15  -5   1    0.52    0.48
  15  -5  -1    0.10    0.21
  15  -5   1    0.58    0.24
  15  -5  -1    0.58    0.28
  15  -5  -2   11.89    0.61
  15  -5   2   11.83    0.61
  15  -5  -2   12.63    0.61
  15  -5   2   12.10    0.59
 -15  -5  -2   10.32    1.02
 -15  -5   2    9.89    0.96
  15  -5   2   12.83    0.61
  15  -5  -2   12.88    0.54
  15  -5   3    0.62    0.27
  15  -5  -3    0.40    0.18
  15  -5  -3    0.20    0.26
  15  -5  -3    0.44    0.25
  15  -5   3    0.65    0.27
  15  -5   3    0.77    0.25
 -15  -5  -3    0.46    0.47
 -15  -5   3    0.43    0.41
  15  -5  -4    0.74    0.27
  15  -5   4    0.92    0.25
  15  -5   4    1.18    0.29
 -15  -5  -4    0.38    0.46
 -15  -5   4    0.63    0.42
  15  -5  -4    1.04    0.29
 -15  -5  -5    0.40    0.39
 -15  -5   5    0.69    0.37
  15  -5   5    0.63    0.29
  15  -5  -5    0.60    0.23
  15  -5   5    0.54    0.22
 -15  -5   5    0.56    0.43
  15  -5  -5    0.90    0.28
  15  -5   6   17.71    0.77
  15  -5  -6   18.15    0.75
  15  -5   6   15.32    0.66
  15  -5  -6   16.02    0.67
  15  -5  -7    2.24    0.24
  15  -5  -7    2.80    0.34
  15  -5  -8   16.07    0.71
  15  -5  -9    1.72    0.28
  15  -5  10    0.90    0.28
  15  -5 -10    0.77    0.24
  15  -5  10    0.91    0.23
  15  -5  11    1.38    0.25
  15  -5 -11    1.13    0.22
  15  -5  11    1.26    0.21
  15  -5  12    1.01    0.20
  15  -5 -12    0.70    0.17
  15  -5  12    0.92    0.17
  15  -5  13    1.00    0.14
  15  -5  13    0.93    0.15
  15  -6   0    0.32    0.28
  15  -6   0   -0.04    0.22
 -15  -6   0    0.13    0.44
  15  -6  -1   20.89    0.83
  15  -6  -1   22.75    0.89
  15  -6   1   22.66    0.86
  15  -6  -1   21.74    0.83
  15  -6  -2    1.11    0.28
  15  -6   2    1.21    0.28
  15  -6  -2    0.89    0.25
 -15  -6   2    1.28    0.20
  15  -6   2    0.95    0.26
  15  -6  -2    0.53    0.22
  15  -6   3   18.15    0.77
  15  -6  -3   19.49    0.78
  15  -6  -3   16.71    0.74
  15  -6  -3   19.70    0.71
  15  -6   3   19.00    0.78
 -15  -6   3   17.31    0.70
  15  -6  -4    7.63    0.46
  15  -6   4    8.91    0.49
  15  -6   4    9.46    0.52
  15  -6   4    7.93    0.46
  15  -6  -4    8.69    0.49
  15  -6  -5    7.98    0.45
  15  -6   5    8.19    0.46
  15  -6   5    9.16    0.51
  15  -6  -5    7.93    0.46
  15  -6   5    7.67    0.44
  15  -6  -6   13.75    0.62
  15  -6   6   14.40    0.62
  15  -6   6   15.60    0.69
  15  -6  -6   13.42    0.59
  15  -6   7    5.83    0.38
  15  -6  -7    5.03    0.36
  15  -6  -7    5.04    0.31
  15  -6   8   16.17    0.65
  15  -6   9   42.43    1.38
  15  -6   9   40.36    1.34
  15  -6  10   24.92    0.87
  15  -6  10   24.03    0.84
  15  -6  11    0.15    0.16
  15  -6  11    0.15    0.15
  15  -6  12   22.49    0.73
  15  -6  12   23.03    0.74
  15  -7   0    2.41    0.29
 -15  -7   0    1.95    0.21
  15  -7   0    2.75    0.33
  15  -7   1   -0.05    0.24
  15  -7  -1   -0.01    0.21
 -15  -7   1    0.13    0.16
  15  -7  -1   -0.02    0.27
  15  -7  -2    1.11    0.28
  15  -7   2    0.64    0.26
  15  -7   2    0.29    0.26
 -15  -7   2    0.82    0.18
  15  -7   3    0.32    0.25
 -15  -7   3    0.48    0.18
  15  -7  -3    0.81    0.26
  15  -7   3    0.37    0.24
  15  -7   4   27.35    0.98
 -15  -7   4   24.56    0.90
  15  -7  -4   26.91    0.96
  15  -7   4   25.04    0.94
  15  -7   5    3.22    0.33
 -15  -7   5    2.88    0.25
  15  -7  -5    2.97    0.29
  15  -7   5    2.53    0.27
 -15  -7   6    2.57    0.24
  15  -7  -6    2.13    0.23
  15  -7   7    0.91    0.19
  15  -7   8    6.69    0.34
  15  -7   8    7.07    0.39
  15  -7   9    0.36    0.18
  15  -7   9    0.49    0.15
 -15  -7  10   -0.02    0.10
  15  -7  10    0.01    0.14
  15  -7  11    1.14    0.14
 -15  -8   0    0.18    0.14
  15  -8   0    0.56    0.22
  15  -8   0    0.21    0.24
  15  -8   1   85.83    2.47
  15  -8  -1   83.58    2.50
 -15  -8   2   -0.03    0.14
  15  -8   2   -0.10    0.23
  15  -8  -2   -0.11    0.23
  15  -8   2   -0.10    0.22
  15  -8   3    3.27    0.29
 -15  -8   3    2.86    0.23
  15  -8  -3    3.47    0.30
  15  -8   3    3.28    0.29
  15  -8   4    3.00    0.28
 -15  -8   4    2.91    0.22
  15  -8  -4    2.93    0.27
  15  -8   4    3.03    0.26
 -15  -8   5   56.37    1.76
  15  -8  -5   59.53    1.79
 -15  -8   6    0.78    0.15
  15  -8   7   29.39    0.93
 -15  -8   7   26.35    0.88
  15  -8   8    2.54    0.21
 -15  -8   8    2.42    0.16
  15  -8   9   17.85    0.60
  15  -9   0    6.53    0.36
 -15  -9   1    0.07    0.10
  15  -9  -1    0.04    0.18
 -15  -9   2    4.64    0.24
  15  -9   2    4.75    0.30
 -15  -9   3    2.74    0.17
  15  -9   3    3.58    0.24
 -15  -9   4    0.05    0.09
  15  -9   4    0.15    0.15
 -15  -9   5    0.33    0.09
  15  -9   7    5.95    0.25
  16   0   0  412.98   11.94
  16   0  -1    0.27    0.25
  16   0  -1   -0.12    0.52
  16   0   1    0.10    0.26
  16   0  -2    9.31    0.50
  16   0  -2    6.32    0.84
  16   0  -3    0.12    0.47
  16   0   3   -0.29    0.21
  16   0  -3   -0.09    0.25
  16   0  -4   23.63    0.93
  16   0   4   23.06    0.86
  16   0   4   23.41    0.85
  16   0  -4   22.38    1.45
  16   0  -5    0.20    0.49
  16   0   5   -0.20    0.19
  16   0  -5   -0.10    0.25
  16   0  -6   34.30    1.12
  16   0   6   31.86    1.11
  16   0  -6   31.40    1.19
  16   0   6   32.57    1.10
  16   0  -7   -0.15    0.18
  16   0   7   -0.12    0.18
  16   0   7   -0.15    0.18
  16   0  -7    0.15    0.29
  16   0  -7    0.62    0.53
  16   0   8   16.36    0.65
  16   0  -8   17.55    0.76
  16   0  -9    0.35    0.28
  16   0   9   -0.12    0.17
  16   0  10   18.69    0.70
  16   0 -10   21.06    0.83
  16   0 -11   -0.10    0.25
  16   0  11   -0.03    0.25
  16   0 -12    4.85    0.35
  16   0  12    5.17    0.37
  16   0 -13   -0.03    0.19
  16   0  13    0.23    0.21
  16   0 -14   12.58    0.48
  16  -1   0   -0.21    0.28
  16   1   0   -0.30    0.25
  16  -1  -1   52.85    2.37
  16   1  -1   50.89    2.34
  16  -1  -1   58.30    1.83
  16   1   1   54.00    1.78
  16  -1   1   56.53    1.82
  16   1  -1   53.35    1.79
  16  -1   2   -0.12    0.21
  16   1  -2    0.16    0.23
  16  -1  -2   -0.02    0.25
  16  -1   2   -0.08    0.25
  16  -1  -2    0.30    0.47
  16   1  -2    0.12    0.45
  16  -1   3    2.54    0.28
  16  -1   3    2.05    0.25
  16  -1   3    2.58    0.28
  16   1  -3    2.34    0.30
  16  -1  -3    2.35    0.34
  16  -1  -3    2.78    0.64
  16   1  -3    3.00    0.65
  16  -1  -4    3.22    0.30
  16  -1   4    3.19    0.29
  16  -1   4    2.52    0.29
  16  -1  -4    3.66    0.38
  16  -1  -4    2.06    0.63
  16   1  -4    2.94    0.66
  16  -1   4    3.06    0.30
  16   1  -4    2.79    0.31
  16  -1   5    0.51    0.24
  16  -1  -5    0.27    0.48
  16   1  -5   -0.13    0.53
  16  -1  -5    0.40    0.21
  16  -1   5    0.29    0.20
  16  -1   5    0.40    0.20
  16   1  -5    0.61    0.27
  16  -1  -5    0.59    0.31
  16   1  -6    3.13    0.34
  16  -1  -6    2.22    0.62
  16   1  -6    1.94    0.59
  16  -1  -6    2.33    0.25
  16  -1   6    2.63    0.26
  16  -1   6    2.68    0.30
  16  -1   6    2.30    0.27
  16  -1  -6    2.48    0.35
  16  -1  -7   14.72    0.68
  16   1  -7   12.09    0.60
  16  -1   7   12.11    0.53
  16  -1   7   12.35    0.61
  16  -1  -7   12.70    0.53
  16  -1   7   12.72    0.56
  16  -1  -7    9.68    0.99
  16   1  -7   11.38    1.03
  16  -1   8    3.26    0.35
  16  -1   8    3.02    0.29
  16   1  -8    2.87    0.33
  16  -1  -8    3.28    0.38
  16   1  -8    3.10    0.68
  16  -1  -8    2.10    0.61
  16  -1   9    0.70    0.28
  16  -1   9    1.22    0.23
  16   1  -9    1.15    0.28
  16  -1  -9    1.06    0.33
  16  -1  10    3.04    0.34
  16  -1  10    3.07    0.27
  16  -1 -10    3.05    0.38
  16   1 -10    3.26    0.33
  16  -1  11    8.26    0.41
  16  -1  11    9.11    0.50
  16  -1 -11    8.52    0.50
  16   1 -11    9.24    0.46
  16  -1  12    0.21    0.23
  16  -1  12   -0.06    0.15
  16   1 -12    0.12    0.20
  16  -1 -12    0.10    0.24
  16  -1  13    2.69    0.19
  16   1 -13    2.69    0.23
  16  -1 -13    3.35    0.29
  16   1  13    3.59    0.28
  16  -1 -14   -0.01    0.15
  16   1  14    0.30    0.16
  16  -1  15    0.56    0.11
  16   2   0    9.46    0.48
  16  -2   0   10.44    0.56
  16  -2   0    9.53    0.50
  16  -2  -1    0.30    0.22
  16  -2   1   -0.02    0.26
  16   2  -1   -0.04    0.21
  16  -2  -1   -0.25    0.27
  16  -2   2   11.83    0.56
  16  -2  -2   14.14    0.62
  16  -2   2   13.42    0.60
  16  -2  -2   13.47    0.66
  16  -2   2   13.83    0.66
  16   2  -2   13.74    0.59
  16  -2   2   14.33    0.61
  16  -2  -2   11.12    1.01
  16   2  -2   11.62    1.02
  16  -2   3    0.01    0.21
  16   2  -3    0.14    0.21
  16  -2  -3    0.42    0.42
  16   2  -3    0.48    0.44
  16  -2  -3    0.19    0.21
  16  -2   3    0.33    0.21
  16  -2   3    0.50    0.23
  16  -2  -3    0.25    0.29
  16  -2   4   15.60    0.69
  16  -2  -4   16.90    0.69
  16  -2   4   17.32    0.70
  16   2  -4   15.80    0.67
  16  -2  -4   16.67    0.76
  16  -2   4   16.25    0.69
  16  -2  -4   12.95    1.14
  16   2  -4   13.50    1.13
  16  -2   5    0.63    0.24
  16  -2  -5    0.06    0.48
  16   2  -5    0.45    0.48
  16  -2  -5    0.60    0.22
  16  -2   5    0.54    0.21
  16  -2   5   -0.06    0.22
  16   2  -5    0.24    0.22
  16  -2  -5    0.72    0.31
  16  -2  -6   10.15    0.48
  16  -2   6    9.82    0.47
  16  -2   6    9.74    0.53
  16   2  -6    8.45    0.48
  16  -2  -6    9.13    0.57
  16   2  -6    6.66    0.87
 -16  -2   6    8.41    0.80
  16  -2   6    9.46    0.49
  16  -2  -6    7.93    0.93
  16  -2   7    0.54    0.27
  16  -2  -7    0.39    0.51
  16   2  -7   -0.26    0.56
  16  -2  -7    0.65    0.18
  16  -2   7    0.53    0.19
  16  -2   7    0.90    0.25
  16   2  -7    0.60    0.24
  16  -2  -7    1.06    0.33
  16  -2   8   13.80    0.61
  16  -2   8   13.23    0.65
  16  -2  -8   15.30    0.72
  16   2  -8   13.06    0.61
  16  -2   9    3.70    0.38
  16  -2   9    3.46    0.31
  16  -2  -9    3.33    0.40
  16   2  -9    3.24    0.31
  16  -2  10    7.70    0.42
  16  -2  10    8.74    0.50
  16  -2 -10    7.58    0.51
  16   2 -10    7.07    0.41
  16  -2  11   11.33    0.48
  16  -2  11   10.65    0.55
  16  -2 -11   10.84    0.56
  16   2 -11    9.74    0.46
  16  -2  12    0.73    0.18
  16  -2 -12    0.61    0.26
  16  -2 -13    2.52    0.26
  16  -2  13    2.27    0.18
  16  -2  14    1.73    0.20
  16   2  14    1.99    0.18
  16  -2 -14    1.94    0.19
  16  -3   0   -0.31    0.30
  16  -3   0    0.28    0.23
  16  -3  -1   69.90    2.19
  16  -3   1   66.35    2.17
  16  -3  -1   70.54    2.16
  16  -3  -2    0.47    0.25
  16  -3   2    0.36    0.23
  16  -3   2    0.30    0.24
  16  -3   2    0.46    0.22
  16  -3   2    0.10    0.28
  16  -3  -3   64.48    1.97
  16  -3   3   61.75    1.95
  16  -3   3   57.17    1.93
  16  -3   3   61.00    1.94
  16   3  -3   58.60    2.52
  16  -3  -4    0.23    0.22
  16  -3   4    0.22    0.22
  16  -3   4    0.07    0.24
  16  -3   4    0.16    0.25
  16  -3  -4    0.06    0.44
  16   3  -4   -0.35    0.47
  16  -3  -5   61.56    1.89
  16  -3   5   60.97    1.93
  16  -3   5   57.98    1.87
 -16  -3   5   48.67    2.34
  16  -3   5   59.55    1.89
  16  -3  -5   50.27    2.42
  16   3  -5   49.97    2.42
  16  -3  -6    0.68    0.22
  16  -3   6    0.71    0.21
 -16  -3  -6   -0.11    0.39
 -16  -3   6    0.70    0.41
  16  -3   6    0.79    0.27
  16  -3  -6    0.48    0.45
  16   3  -6    0.61    0.46
  16  -3   6    0.70    0.28
  16  -3   7   89.10    2.71
  16  -3  -7   83.76    2.61
  16  -3  -7   77.01    3.28
  16   3  -7   74.93    3.27
  16  -3   7   91.06    2.68
  16  -3   8    0.54    0.26
  16  -3   8    0.57    0.30
  16  -3   9   21.54    0.84
  16  -3   9   22.42    0.89
  16  -3  10   -0.13    0.23
  16  -3  10   -0.17    0.26
  16  -3  11    2.62    0.26
  16  -3  12    0.16    0.17
  16  -3  13    0.95    0.15
  16  -3  13    1.05    0.20
  16  -3  14    2.85    0.20
  16   3  14    2.54    0.17
  16  -4   0    6.72    0.45
  16  -4   0    6.98    0.48
 -16  -4   0    7.04    0.83
  16  -4   0    5.70    0.37
  16  -4  -1    0.86    0.27
 -16  -4   1    1.62    0.47
  16  -4  -1    0.55    0.19
  16  -4   1    0.90    0.23
  16  -4   1    0.56    0.27
  16  -4  -1    0.60    0.29
  16  -4  -2   23.21    0.90
  16  -4   2   22.46    0.89
  16  -4  -2   21.25    0.90
 -16  -4  -2   18.73    1.35
 -16  -4   2   19.22    1.35
  16  -4   2   22.17    0.87
  16  -4   2   22.12    0.86
  16  -4   3    0.19    0.23
  16  -4  -3    0.24    0.24
  16  -4   3    0.21    0.25
  16  -4   3    0.31    0.26
 -16  -4   3    0.74    0.36
  16  -4  -3    0.50    0.29
  16  -4  -4    7.29    0.49
  16  -4   4    6.99    0.45
 -16  -4  -4    5.65    0.77
  16  -4  -4    7.06    0.45
  16  -4   4    6.96    0.43
  16  -4   4    6.60    0.45
  16  -4   5    0.06    0.26
  16  -4  -5   -0.30    0.38
  16  -4  -5    0.08    0.22
  16  -4   5   -0.11    0.22
 -16  -4  -5    0.12    0.50
  16  -4   5    0.01    0.25
 -16  -4   5   -0.11    0.41
  16  -4  -5   -0.07    0.29
  16  -4  -6   25.11    0.98
  16  -4   6   23.94    0.93
  16  -4  -6   23.20    0.89
  16  -4   6   25.06    0.97
  16  -4   6   24.19    0.90
  16  -4   7    1.71    0.33
  16  -4  -7    1.62    0.22
  16  -4   7    1.35    0.28
  16  -4  -7    1.84    0.34
  16  -4   8   16.12    0.70
  16  -4   8   17.38    0.75
  16  -4  -8   16.42    0.75
  16  -4   9    0.50    0.26
  16  -4   9    0.58    0.24
  16  -4  -9    0.55    0.29
  16  -4  10    1.98    0.25
  16  -4 -10    1.60    0.29
  16  -4  11    5.50    0.33
  16  -4 -11    5.56    0.36
  16  -4  12    0.88    0.21
  16  -4 -12    1.14    0.21
  16  -4  12    1.00    0.18
  16  -4  13    0.20    0.14
  16  -4  13    0.24    0.12
  16  -4 -13    0.09    0.13
  16  -5   0   -0.02    0.27
  16  -5   0   -0.03    0.24
 -16  -5   0   -0.13    0.46
  16  -5   0   -0.24    0.22
  16  -5  -1    0.52    0.27
  16  -5  -1    0.69    0.27
 -16  -5   1    0.46    0.43
  16  -5  -1    0.23    0.20
  16  -5   1    0.44    0.23
  16  -5   2    0.83    0.25
  16  -5  -2    0.47    0.19
  16  -5  -2    0.70    0.27
  16  -5  -2    0.88    0.29
  16  -5   2    0.86    0.27
 -16  -5  -2    0.13    0.45
 -16  -5   2    0.82    0.47
  16  -5  -3    0.06    0.25
  16  -5   3    0.21    0.23
  16  -5  -3    0.21    0.26
 -16  -5  -3    0.32    0.42
 -16  -5   3   -0.06    0.41
  16  -5   3   -0.16    0.24
  16  -5  -4    0.13    0.23
  16  -5   4   -0.06    0.24
  16  -5  -4   -0.09    0.26
  16  -5   4    0.02    0.24
  16  -5  -5    4.52    0.35
  16  -5   5    4.52    0.35
  16  -5   5    4.53    0.39
  16  -5  -5    4.62    0.39
  16  -5   6    3.57    0.36
  16  -5  -6    3.92    0.36
  16  -5  -6    3.39    0.30
  16  -5   6    2.88    0.28
  16  -5  -7    1.33    0.20
  16  -5   7    1.33    0.30
  16  -5  -7    1.35    0.29
  16  -5   8   18.49    0.77
  16  -5  -8   17.99    0.74
  16  -5  -9   -0.23    0.23
  16  -5   9    0.24    0.22
  16  -5 -10    0.21    0.20
  16  -5  10   -0.04    0.19
  16  -5  11    0.82    0.20
  16  -5 -11    1.13    0.19
  16  -5  11    0.94    0.18
  16  -5  12    0.29    0.13
  16  -5  12    0.10    0.15
  16  -6   0   65.46    2.05
  16  -6   0   60.84    1.98
  16  -6  -1    0.74    0.29
  16  -6  -1    0.79    0.21
  16  -6   1    0.55    0.25
  16  -6   2   32.20    1.13
  16  -6  -2   29.91    1.11
  16  -6  -2   32.47    1.17
  16  -6   2   32.24    1.16
  16  -6   3    6.46    0.43
  16  -6  -3    6.38    0.42
  16  -6  -3    7.58    0.45
  16  -6   3    7.32    0.44
  16  -6  -4   13.62    0.60
  16  -6  -4   13.40    0.61
  16  -6   4   13.60    0.60
  16  -6   4   13.99    0.63
 -16  -6   4   12.52    0.53
  16  -6  -5    0.31    0.21
  16  -6   5    0.61    0.21
  16  -6  -5    0.19    0.22
  16  -6   5    0.19    0.24
  16  -6   5    0.32    0.25
  16  -6  -6   14.84    0.63
  16  -6   6   15.87    0.65
  16  -6   6   16.40    0.69
  16  -6  -6   15.21    0.62
  16  -6   7    6.01    0.37
  16  -6   7    6.77    0.41
  16  -6  -7    5.69    0.36
  16  -6   8    2.72    0.27
  16  -6   9   20.00    0.72
  16  -6  10    7.61    0.37
  16  -6  10    7.02    0.34
  16  -6  11    0.66    0.15
  16  -7   0   -0.08    0.25
  16  -7   0   -0.33    0.21
  16  -7  -1   12.50    0.53
  16  -7   1   12.22    0.56
  16  -7  -1   12.58    0.59
  16  -7  -2   -0.31    0.25
  16  -7   2   -0.08    0.22
  16  -7   2    0.01    0.22
  16  -7  -3    4.54    0.35
  16  -7   3    4.66    0.35
 -16  -7   3    4.19    0.26
  16  -7   3    4.62    0.35
  16  -7  -4    5.04    0.35
  16  -7   4    4.89    0.34
  16  -7   4    5.15    0.36
 -16  -7   4    4.22    0.27
  16  -7  -5    0.21    0.19
  16  -7   5    0.50    0.22
 -16  -7   5    0.30    0.15
 -16  -7   6    0.31    0.14
  16  -7  -6    0.43    0.16
  16  -7   6    0.24    0.22
 -16  -7   7    2.76    0.20
 -16  -7   8    2.62    0.18
 -16  -7   9    0.09    0.09
  16  -7   9    0.16    0.15
  16  -7  10    1.35    0.15
  16  -8   0    2.65    0.23
  16  -8   0    0.32    0.22
  16  -8   1    0.39    0.19
  16  -8  -1    0.46    0.23
  16  -8   2    1.34    0.22
  16  -8  -2    1.33    0.24
  16  -8   2    1.52    0.24
 -16  -8   3    0.96    0.14
  16  -8   3    0.91    0.20
  16  -8  -3    0.78    0.20
  16  -8   3    1.10    0.21
  16  -8   4   10.03    0.43
  16  -8  -4    9.85    0.42
 -16  -8   5    0.90    0.12
  16  -8   5    1.25    0.21
  16  -8  -5    1.10    0.16
 -16  -8   6    0.25    0.10
 -16  -8   7    4.17    0.19
  16  -8   8    0.60    0.13
  16  -9   0    0.15    0.15
  16  -9  -1    3.69    0.24
  16  -9   4    1.47    0.16
  16  -9   5    8.71    0.33
  17   0   0    0.09    0.25
  17   0  -1    0.15    0.24
  17   0   1   -0.09    0.25
  17   0  -2    0.74    0.28
  17   0  -2    0.93    0.47
  17   0  -3   -0.15    0.25
  17   0  -3    0.19    0.45
  17   0   4    0.87    0.22
  17   0   4    1.01    0.22
  17   0  -4    1.28    0.31
  17   0   5    0.04    0.20
  17   0  -5    0.07    0.44
  17   0   5    0.10    0.20
  17   0   5    0.04    0.19
  17   0  -5    0.02    0.27
  17   0  -6    5.28    0.43
  17   0  -6    4.60    0.79
  17   0   6    5.69    0.34
  17   0  -6    5.81    0.36
  17   0   6    5.42    0.35
  17   0   6    5.18    0.37
  17   0   7   -0.04    0.22
  17   0  -7   -0.07    0.46
  17   0   7   -0.03    0.17
  17   0  -7    0.05    0.27
  17   0  -7   -0.01    0.17
  17   0   8    1.28    0.27
  17   0  -8    1.29    0.31
  17   0   8    0.68    0.18
  17   0   9    0.15    0.24
  17   0  -9   -0.30    0.28
  17   0   9   -0.08    0.17
  17   0 -10    2.14    0.30
  17   0  10    1.80    0.29
  17   0 -11   -0.02    0.23
  17   0  11   -0.10    0.23
  17   0  12    7.24    0.40
  17   0 -12    7.55    0.39
  17   0 -13    0.07    0.15
  17   0  13    0.03    0.17
  17   0  14    0.52    0.14
  17   1   0   17.52    0.74
  17  -1   0   17.21    0.77
  17   1  -1   -0.17    0.24
  17  -1  -1    0.19    0.28
  17  -1   1    0.06    0.26
  17   1  -2   16.56    0.73
  17  -1  -2   17.85    0.77
  17  -1  -2   17.86    0.73
  17  -1   2   17.49    0.72
  17  -1  -2   15.72    1.21
  17   1  -2   14.48    1.18
  17  -1   3   -0.02    0.18
  17  -1  -3   -0.13    0.48
  17   1  -3   -0.38    0.51
  17  -1  -3    0.23    0.21
  17  -1   3   -0.11    0.21
  17  -1   3    0.06    0.21
  17   1  -3   -0.07    0.23
  17  -1  -3   -0.21    0.29
  17  -1   4    2.88    0.30
  17  -1   4    2.24    0.27
  17  -1  -4    1.77    0.58
  17   1  -4    2.67    0.62
  17  -1  -4    2.18    0.28
  17  -1   4    2.48    0.27
  17   1  -4    2.26    0.30
  17  -1  -4    2.51    0.34
  17  -1   5    0.07    0.21
  17  -1  -5    0.07    0.48
  17   1  -5    0.13    0.49
  17  -1  -5    0.05    0.20
  17  -1   5    0.22    0.21
  17  -1   5    0.31    0.21
  17   1  -5    0.18    0.24
  17  -1  -5    0.21    0.30
  17  -1   6    0.14    0.23
  17  -1  -6    0.20    0.45
  17   1  -6   -0.34    0.50
  17  -1  -6    0.04    0.18
  17  -1   6    0.10    0.20
  17  -1   6    0.01    0.20
  17   1  -6    0.24    0.25
  17  -1  -6    0.05    0.29
  17   1  -7    8.83    0.50
  17  -1  -7    9.35    0.55
  17  -1   7    8.54    0.44
  17   1  -7    7.60    0.92
  17  -1  -7    8.68    0.42
  17   1  -7    8.76    0.41
  17  -1   7    8.43    0.49
  17  -1   8    0.66    0.26
  17   1  -8    0.81    0.26
  17  -1  -8    0.71    0.32
  17  -1   8    1.05    0.22
  17  -1   9    0.27    0.25
  17   1  -9    0.52    0.25
  17  -1  -9   -0.17    0.31
  17  -1   9    0.13    0.19
  17  -1  10    1.38    0.28
  17  -1  10    1.32    0.21
  17   1 -10    1.39    0.25
  17  -1 -10    1.27    0.31
  17  -1  11   16.24    0.65
  17   1  11   14.73    0.62
  17   1 -11   14.26    0.59
  17  -1 -11   15.42    0.64
  17   1  12    0.78    0.21
  17  -1  12    0.32    0.22
  17  -1  12    0.22    0.13
  17   1 -12    0.26    0.17
  17  -1 -12    0.39    0.22
  17  -1 -13    4.51    0.29
  17  -1  13    4.54    0.28
  17   1  13    4.80    0.28
  17   1  14    0.12    0.11
  17  -1 -14    0.24    0.11
  17  -2   0   -0.17    0.29
  17  -2   0    0.03    0.22
  17  -2  -1    4.45    0.37
  17  -2  -1    4.82    0.42
  17   2  -1    3.80    0.33
  17  -2   1    4.31    0.40
  17  -2  -2    1.11    0.25
  17  -2   2    1.28    0.27
  17   2  -2    1.39    0.25
  17  -2   2    1.27    0.22
  17  -2  -2    1.50    0.33
  17  -2   3    1.26    0.23
  17   2  -3    0.83    0.24
  17  -2  -3    0.80    0.47
  17   2  -3    0.12    0.46
  17  -2  -3    1.38    0.25
  17  -2   3    0.95    0.25
  17  -2   3    0.50    0.24
  17  -2  -3    1.07    0.32
  17  -2   4    0.25    0.22
  17   2  -4   -0.13    0.23
  17  -2  -4    0.57    0.51
  17   2  -4    0.56    0.45
  17  -2  -4    0.24    0.23
  17  -2   4    0.01    0.21
  17  -2   4    0.03    0.23
  17  -2  -4   -0.02    0.29
  17   2  -5    5.59    0.38
  17  -2  -5    6.31    0.47
  17  -2  -5    3.92    0.71
  17   2  -5    4.22    0.70
  17  -2   5    5.91    0.39
  17  -2  -5    5.72    0.38
  17  -2   5    5.54    0.38
  17  -2   5    5.40    0.40
  17  -2   6    0.63    0.25
  17  -2  -6    0.06    0.48
  17   2  -6    0.52    0.47
  17  -2  -6    0.40    0.20
  17  -2   6    0.62    0.20
  17  -2   6    0.37    0.23
  17   2  -6    0.55    0.23
  17  -2  -6    0.88    0.34
  17  -2   7    7.16    0.42
  17  -2   7    6.98    0.45
  17  -2  -7    6.48    0.37
  17   2  -7    6.95    0.41
  17  -2  -7    7.89    0.53
  17  -2   8    9.42    0.48
  17  -2   8   10.39    0.53
  17   2  -8    8.46    0.46
  17  -2  -8   10.16    0.57
  17  -2   9    4.30    0.32
  17  -2   9    4.21    0.38
  17   2  -9    4.17    0.31
  17  -2  -9    5.08    0.42
  17  -2  10    0.98    0.27
  17   2 -10    0.41    0.19
  17  -2 -10    1.00    0.30
  17  -2  10    0.80    0.20
  17  -2  11   -0.16    0.23
  17  -2 -11    0.01    0.25
  17  -2  11    0.14    0.16
  17   2  12    1.11    0.20
  17  -2  12    1.18    0.23
  17  -2 -12    1.35    0.24
  17  -2  12    0.96    0.16
  17   2  13    0.24    0.15
  17  -2 -13    0.39    0.18
  17  -2  13    0.34    0.11
  17  -2 -14    2.93    0.18
  17  -3   0    0.75    0.27
  17  -3   1    1.32    0.23
  17  -3  -1    1.84    0.31
  17  -3  -2    2.28    0.33
  17  -3   2    2.31    0.31
  17  -3   3    3.60    0.35
  17  -3  -3    4.25    0.37
  17  -3   3    3.11    0.33
  17  -3   3    3.75    0.33
  17  -3  -4    1.24    0.26
  17  -3   4    1.30    0.26
  17  -3   4    1.28    0.28
  17  -3   4    1.42    0.27
  17  -3  -4    1.16    0.50
  17   3  -4    0.64    0.51
  17  -3   5   12.60    0.60
  17  -3  -5   12.70    0.58
  17  -3   5   12.42    0.58
 -17  -3  -5    9.01    0.91
 -17  -3   5   10.16    0.91
  17  -3   5   13.22    0.60
  17  -3  -5   10.09    0.95
  17   3  -5    9.40    0.94
  17  -3  -6    1.06    0.24
  17  -3   6    0.87    0.23
  17  -3   6    0.82    0.26
  17  -3   6    1.11    0.27
  17  -3   7   46.88    1.52
  17  -3  -7   43.83    1.47
  17  -3   7   47.35    1.57
  17  -3   8    8.80    0.47
  17  -3   8    8.75    0.50
  17  -3   9   36.11    1.24
  17  -3   9   38.13    1.30
  17  -3  10    0.23    0.20
  17  -3  10    0.52    0.25
  17  -3  11   19.12    0.72
  17  -3  11   21.32    0.77
  17  -3  12   -0.02    0.14
  17  -3  13   33.64    1.03
  17  -4   0   -0.25    0.26
 -17  -4   0   -0.27    0.48
  17  -4   0   -0.12    0.19
  17  -4   0    0.10    0.29
  17  -4  -1    8.29    0.49
  17  -4  -1    8.33    0.53
  17  -4   1    7.87    0.43
  17  -4  -2    0.17    0.27
  17  -4   2    0.18    0.25
 -17  -4   2   -0.06    0.42
 -17  -4  -2   -0.13    0.47
  17  -4   2    0.50    0.23
  17  -4  -2    0.40    0.28
  17  -4  -3    4.39    0.39
  17  -4   3    4.02    0.36
  17  -4  -3    5.22    0.43
  17  -4   3    4.34    0.38
 -17  -4  -3    3.93    0.67
 -17  -4   3    3.20    0.62
  17  -4   3    4.67    0.37
  17  -4   4    1.43    0.28
  17  -4  -4    1.89    0.29
  17  -4   4    1.75    0.29
  17  -4   4    1.45    0.29
  17  -4  -4    1.28    0.33
  17  -4  -5   13.77    0.66
  17  -4  -5   12.09    0.59
  17  -4   5   11.61    0.59
  17  -4   5   13.45    0.62
  17  -4   5   12.87    0.60
  17  -4  -6    4.20    0.40
  17  -4   6    4.02    0.36
  17  -4  -6    3.50    0.31
  17  -4   6    4.91    0.39
  17  -4   6    3.76    0.31
  17  -4  -7   22.36    0.83
  17  -4   7   24.54    0.90
  17  -4  -7   24.09    0.95
  17  -4   7   25.32    0.94
  17  -4   8    5.56    0.38
  17  -4  -8    5.54    0.43
  17  -4   8    5.89    0.41
  17  -4   9    1.71    0.24
  17  -4  -9    1.72    0.28
  17  -4   9    1.60    0.28
  17  -4  10    1.73    0.22
  17  -4 -10    1.99    0.28
  17  -4  10    1.99    0.27
  17  -4  11   -0.01    0.16
  17  -4 -11   -0.10    0.19
  17  -4  12    0.72    0.14
  17  -4 -12    1.03    0.17
  17  -4  13    0.06    0.10
  17  -4 -13    0.12    0.10
  17  -5   0    9.30    0.53
  17  -5   0    7.39    0.41
  17  -5   1    0.17    0.21
  17  -5  -1   -0.04    0.27
  17  -5  -1    0.21    0.25
  17  -5  -2  102.57    3.13
  17  -5  -2  105.49    3.15
  17  -5   2  100.62    3.13
  17  -5   2   97.44    3.08
  17  -5   3    0.24    0.23
  17  -5  -3   -0.03    0.25
  17  -5   3    0.01    0.23
  17  -5  -3    0.06    0.25
  17  -5  -4    8.20    0.47
  17  -5   4    7.39    0.45
  17  -5  -4    7.36    0.47
  17  -5   4    8.47    0.47
  17  -5   5    0.08    0.23
  17  -5  -5    0.04    0.21
  17  -5   5    0.02    0.20
  17  -5  -5   -0.22    0.25
  17  -5  -6   23.33    0.88
  17  -5  -6   25.29    0.94
  17  -5   6   25.62    0.94
  17  -5   7    0.71    0.26
  17  -5   7    0.69    0.24
  17  -5  -7    0.62    0.25
  17  -5  -8   45.60    1.53
  17  -5   8   47.22    1.52
  17  -5   8   48.14    1.54
  17  -5   9    1.22    0.24
  17  -5   9    1.00    0.21
  17  -5  -9    0.95    0.23
  17  -5 -10    5.13    0.30
  17  -5  10    4.61    0.28
  17  -5 -11    0.20    0.14
  17  -5  11    0.12    0.14
  17  -5  12    1.59    0.14
  17  -6   0   -0.01    0.26
  17  -6   0    0.01    0.19
  17  -6  -1   12.72    0.61
  17  -6   1   11.54    0.54
  17  -6   2    0.02    0.22
  17  -6  -2   -0.23    0.26
  17  -6   2    0.01    0.24
  17  -6  -2    0.35    0.22
  17  -6  -3   12.90    0.59
  17  -6   3   11.43    0.55
  17  -6  -3   11.49    0.54
  17  -6   3   12.06    0.56
  17  -6   4    0.12    0.21
  17  -6  -4    0.40    0.22
  17  -6   4    0.41    0.21
  17  -6  -4   -0.01    0.21
  17  -6  -5   11.85    0.52
  17  -6   5   10.88    0.51
  17  -6  -5   10.58    0.51
  17  -6   5   12.02    0.54
  17  -6  -6    0.06    0.16
  17  -6  -6   -0.14    0.20
  17  -6   6   -0.05    0.22
 -17  -6   7    6.05    0.30
  17  -6   7    7.48    0.40
 -17  -6   8    0.14    0.11
  17  -6   8    0.29    0.20
 -17  -6   9    2.23    0.16
  17  -6  11    0.50    0.11
  17  -7   0    0.97    0.25
  17  -7   1   -0.01    0.18
  17  -7  -1   -0.11    0.22
  17  -7  -2    9.74    0.48
  17  -7   2    9.50    0.48
  17  -7   2    9.18    0.44
  17  -7   3    0.13    0.20
  17  -7  -3    0.15    0.21
  17  -7   3    0.25    0.20
  17  -7   4    8.11    0.42
  17  -7   4    8.79    0.44
  17  -7   5   -0.15    0.20
  17  -7  -5   -0.09    0.17
  17  -7  -6    8.15    0.35
  17  -7   6    9.27    0.42
  17  -7   7    2.75    0.23
  17  -8   0   -0.11    0.20
  17  -8  -1   25.90    0.90
  17  -8   2    0.24    0.16
  17  -8  -2    0.09    0.18
  17  -8   2   -0.13    0.18
  17  -8  -3    2.64    0.23
  17  -8   3    2.48    0.22
  17  -8   3    2.36    0.21
  17  -8  -4    1.40    0.17
  17  -8   4    1.53    0.19
  17  -8   5    1.51    0.18
  17  -8   6    0.01    0.12
  17  -8   7    0.53    0.12
  18   0   0   37.24    1.32
  18   0  -1   -0.02    0.28
  18   0  -2    8.37    0.50
  18   0  -3    0.02    0.25
  18   0  -3   -0.06    0.45
  18   0  -4   31.11    1.16
  18   0   4   33.53    1.13
  18   0  -5   -0.09    0.19
  18   0   5   -0.03    0.20
  18   0   5    0.13    0.19
  18   0  -5   -0.17    0.27
  18   0  -5   -0.40    0.53
  18   0  -6    9.25    0.51
  18   0  -6    7.00    0.87
  18   0   6    7.68    0.40
  18   0  -6    7.89    0.42
  18   0   6    9.39    0.44
  18   0   6    8.29    0.44
  18   0   7    0.10    0.21
  18   0  -7   -0.15    0.17
  18   0   7   -0.18    0.17
  18   0  -7    0.11    0.26
  18   0   8   12.12    0.51
  18   0  -8   13.93    0.63
  18   0   8   14.13    0.60
  18   0  -9    0.01    0.25
  18   0   9    0.41    0.22
  18   0 -10    0.37    0.23
  18   0  10    0.36    0.22
  18   0 -11   -0.03    0.19
  18   0  11   -0.16    0.20
  18   0 -12    2.22    0.22
  18   0  12    2.74    0.23
  18   0  13    0.03    0.14
  18   0 -13    0.00    0.11
  18   1   0    0.17    0.25
  18  -1   0   -0.03    0.28
  18  -1   0    0.07    0.22
  18  -1  -1   11.95    0.58
  18  -1   1   12.16    0.62
  18   1  -1   12.07    0.59
  18  -1  -1   10.85    0.60
  18  -1  -2    0.18    0.22
  18  -1   2    0.13    0.23
  18   1  -2    0.55    0.26
  18  -1  -2    0.03    0.28
  18  -1  -3   -0.07    0.21
  18  -1   3   -0.03    0.23
  18   1  -3    0.03    0.24
  18  -1  -3   -0.06    0.48
  18   1  -3    0.06    0.51
  18  -1  -3    0.25    0.28
  18  -1   4    0.15    0.21
  18  -1  -4    0.11    0.21
  18  -1   4   -0.02    0.20
  18  -1  -4    0.50    0.31
  18   1  -4    0.46    0.24
  18  -1  -4   -0.32    0.48
  18   1  -4    0.45    0.47
  18   1  -5    4.65    0.37
  18  -1  -5    5.36    0.44
  18  -1  -5    3.75    0.68
  18   1  -5    4.31    0.71
  18  -1   5    4.16    0.32
  18  -1   5    4.02    0.34
  18  -1  -5    4.67    0.35
  18  -1   5    4.29    0.34
  18   1   6    0.40    0.19
  18  -1   6    0.20    0.21
  18  -1  -6    0.17    0.20
  18  -1   6    0.22    0.19
  18   1  -6    0.32    0.19
  18   1   6    0.34    0.19
  18  -1   6    0.25    0.20
  18   1  -6    0.32    0.25
  18  -1  -6    0.83    0.29
  18  -1   7   23.51    0.84
  18  -1  -7   22.61    0.82
  18   1  -7   22.40    0.81
  18  -1   7   23.24    0.88
  18   1  -7   24.32    0.89
  18  -1  -7   24.92    0.95
  18   1   8    0.12    0.21
  18  -1   8    0.54    0.24
  18   1  -8   -0.14    0.24
  18  -1  -8   -0.11    0.29
  18  -1   8    0.20    0.18
  18   1   9    1.44    0.24
  18  -1   9    1.34    0.27
  18  -1   9    0.73    0.19
  18   1  -9    1.27    0.25
  18  -1  -9    0.83    0.28
  18  -1  10    3.09    0.24
  18  -1  10    3.98    0.33
  18   1  10    4.21    0.31
  18   1 -10    3.28    0.29
  18  -1 -10    4.18    0.35
  18  -1  11    6.48    0.31
  18   1 -11    7.14    0.35
  18  -1 -11    8.31    0.42
  18  -1  11    7.60    0.39
  18   1  11    7.27    0.38
  18   1  12    1.45    0.20
  18  -1  12    1.80    0.21
  18   1 -12    1.12    0.15
  18  -1 -12    1.46    0.21
  18  -1  13    0.25    0.14
  18   1  13   -0.04    0.13
  18  -1 -13    0.01    0.13
  18  -2   0    0.10    0.30
  18  -2   0    0.01    0.24
  18   2  -1    0.38    0.23
  18  -2   1    0.32    0.29
  18  -2  -1   -0.05    0.30
  18  -2  -1    0.18    0.26
  18  -2  -2   19.04    0.78
  18  -2   2   18.76    0.77
  18  -2  -2   17.43    0.80
  18   2  -2   16.95    0.72
  18  -2  -3    0.23    0.23
  18  -2   3    0.50    0.25
  18  -2   3    0.10    0.20
  18  -2  -3    0.19    0.30
  18   2  -3   -0.04    0.22
  18  -2  -4    7.30    0.51
  18  -2  -4    4.84    0.74
  18   2  -4    5.37    0.78
  18   2  -4    6.62    0.41
  18  -2   4    6.43    0.42
  18  -2   4    7.76    0.44
  18  -2   4    6.65    0.40
  18  -2  -4    7.65    0.45
  18  -2   5    1.17    0.25
  18  -2  -5    0.56    0.48
  18   2  -5    0.19    0.47
  18   2  -5    0.89    0.24
  18  -2  -5    1.07    0.25
  18  -2   5    0.52    0.23
  18  -2   5    0.77    0.25
  18  -2  -5    1.63    0.35
  18  -2   6   14.24    0.62
  18  -2  -6   13.20    0.59
  18  -2   6   14.36    0.60
  18  -2   6   13.90    0.63
  18   2  -6   14.06    0.60
  18  -2  -6   15.42    0.71
  18  -2   7    5.05    0.35
  18  -2  -7    4.19    0.30
  18  -2   7    5.34    0.38
  18   2  -7    4.65    0.33
  18  -2  -7    5.12    0.44
  18  -2   8    2.15    0.29
  18   2  -8    2.27    0.25
  18  -2  -8    2.70    0.36
  18  -2   8    2.52    0.27
  18  -2   9    0.74    0.24
  18  -2   9    0.68    0.20
  18  -2  -9    0.65    0.28
  18  -2  10    4.20    0.28
  18  -2  10    4.34    0.33
  18  -2 -10    4.32    0.36
  18  -2  11    0.27    0.20
  18  -2 -11    0.17    0.22
  18  -2  11    0.16    0.14
  18  -2  12    0.10    0.16
  18  -2 -12    0.30    0.18
  18  -2  12    0.03    0.11
  18  -2  13    0.14    0.12
  18  -2 -13    0.13    0.12
  18  -3   0   -0.06    0.26
  18  -3  -1  214.18    6.33
  18  -3   2    0.39    0.20
  18  -3  -2    0.33    0.24
  18  -3   2    0.34    0.27
  18  -3  -3  134.29    3.86
  18  -3   3  130.45    3.85
  18  -3   4    2.15    0.28
  18  -3  -4    2.98    0.32
  18  -3   4    2.47    0.30
  18  -3   4    2.83    0.33
  18  -3  -5   64.07    2.04
  18  -3   5   63.68    2.03
  18  -3   5   61.85    2.03
  18  -3   5   64.11    2.03
  18  -3  -6    0.18    0.20
  18  -3   6    0.42    0.21
  18  -3   6    0.25    0.25
  18  -3   6    0.75    0.25
  18  -3   7   99.56    2.91
  18  -3   7  100.12    2.94
  18  -3   8   10.18    0.50
  18  -3   8   10.62    0.53
  18  -3   9   55.06    1.74
  18  -3   9   56.08    1.78
  18  -3  10    3.24    0.26
  18  -3  10    3.56    0.29
  18  -3  11   24.14    0.82
  18  -3  11   24.90    0.86
  18  -3 -11   25.47    0.87
  18  -3  12   -0.09    0.15
  18  -3 -12   -0.06    0.16
  18  -3  12    0.03    0.11
  18  -3 -13   21.00    0.67
  18  -4   0    0.48    0.29
  18  -4   0    0.57    0.28
  18  -4  -1    1.26    0.33
  18  -4  -1    1.33    0.29
  18  -4   2    2.42    0.27
  18  -4  -2    2.69    0.37
  18  -4  -2    2.98    0.34
  18  -4   2    2.67    0.33
  18  -4   3    1.13    0.24
  18  -4  -3    0.73    0.31
  18  -4  -3    1.03    0.27
  18  -4   3    1.02    0.26
  18  -4  -4    5.15    0.38
  18  -4   4    5.13    0.38
  18  -4   4    4.90    0.36
  18  -4  -4    5.64    0.44
  18  -4   5    5.89    0.39
  18  -4  -5    6.31    0.40
  18  -4  -5    6.90    0.46
  18  -4   5    6.16    0.42
  18  -4   5    6.57    0.41
  18  -4  -6    8.72    0.45
  18  -4  -6    9.97    0.54
  18  -4   6    8.69    0.48
  18  -4   6    9.60    0.50
  18  -4   7    4.05    0.32
  18  -4  -7    4.67    0.38
  18  -4   7    4.11    0.35
  18  -4   8    2.22    0.27
  18  -4  -8    2.88    0.32
  18  -4   8    2.68    0.29
  18  -4   9    1.93    0.26
  18  -4  -9    2.50    0.28
  18  -4   9    1.96    0.23
  18  -4  10    0.76    0.20
  18  -4  10    0.59    0.17
  18  -4 -10    0.82    0.21
  18  -4 -11    6.07    0.31
  18  -4  11    5.59    0.30
  18  -4  11    5.77    0.28
  18  -4 -12    0.08    0.12
  18  -5   0   -0.03    0.25
  18  -5  -1   -0.08    0.25
  18  -5  -1    0.07    0.26
  18  -5  -2    3.87    0.36
  18  -5   2    4.47    0.38
  18  -5   2    3.93    0.31
  18  -5   3    0.96    0.23
  18  -5  -3    1.38    0.28
  18  -5   3    1.26    0.26
  18  -5  -3    1.67    0.29
  18  -5  -4    3.27    0.31
  18  -5   4    3.03    0.29
  18  -5  -4    3.60    0.34
  18  -5   4    3.23    0.30
  18  -5   5    0.17    0.21
  18  -5  -5    0.11    0.20
  18  -5   5    0.01    0.20
  18  -5  -5   -0.06    0.25
  18  -5  -6   11.08    0.49
  18  -5   6   12.25    0.54
  18  -5  -6   11.69    0.55
  18  -5   7    0.07    0.20
  18  -5   7    0.02    0.20
  18  -5  -7    0.35    0.22
  18  -5   8   34.75    1.13
  18  -5   8   33.60    1.14
  18  -5  -8   33.18    1.13
  18  -5   9    1.71    0.20
  18  -5   9    1.32    0.21
  18  -5  -9    1.86    0.21
  18  -5 -10   17.38    0.61
  18  -5  10   17.55    0.62
  18  -6   0    0.03    0.23
  18  -6  -1    0.29    0.24
  18  -6  -2    0.41    0.23
  18  -6   2    0.39    0.23
  18  -6   2    0.24    0.19
  18  -6  -3    1.81    0.26
  18  -6   3    1.68    0.25
  18  -6   3    1.26    0.23
  18  -6  -4    7.68    0.41
  18  -6   4    7.46    0.40
  18  -6   4    7.55    0.40
  18  -6  -4    6.94    0.39
  18  -6   5    0.28    0.19
  18  -6  -5    0.12    0.18
  18  -6  -6    3.52    0.24
  18  -6   6    4.07    0.29
  18  -6   7    1.04    0.20
  18  -6   8    6.81    0.34
  18  -6   9    0.30    0.13
  18  -6  10    0.31    0.11
  18  -7   0   -0.22    0.21
  18  -7  -1    5.20    0.35
  18  -7   2    1.14    0.22
  18  -7  -2    0.93    0.22
  18  -7   3    1.22    0.19
  18  -7  -3    0.94    0.20
  18  -7   3    1.63    0.22
  18  -7   4   -0.14    0.17
  18  -7  -4    0.07    0.16
  18  -7  -5    5.64    0.29
  18  -7   5    5.83    0.31
  18  -7   6   10.75    0.43
  18  -7   7   10.22    0.40
  18  -7   8    1.66    0.15
  18  -8   0    3.68    0.25
  18  -8  -1    0.82    0.18
  18  -8  -2    6.48    0.32
  18  -8   2    6.14    0.31
  18  -8  -3    0.26    0.13
  18  -8   3    0.40    0.14
  18  -8  -4    1.21    0.14
  18  -8   5    1.19    0.13
  19   0   0    0.78    0.31
  19   0  -1   -0.06    0.27
  19   0  -2    0.50    0.28
  19   0  -3    0.07    0.22
  19   0   3   -0.01    0.23
  19   0  -3   -0.02    0.27
  19   0  -4    1.15    0.24
  19   0   4    0.74    0.22
  19   0  -4    0.88    0.28
  19   0  -4    0.77    0.50
  19   0  -5    0.02    0.21
  19   0   5   -0.06    0.20
  19   0  -5    0.27    0.26
  19   0  -6    3.06    0.28
  19   0   6    3.14    0.29
  19   0  -6    3.53    0.35
  19   0  -7   -0.18    0.26
  19   0  -7   -0.29    0.17
  19   0  -8    2.69    0.31
  19   0  -9    0.06    0.21
  19   0 -10    1.84    0.24
  19   0 -11   -0.22    0.17
  19   0 -12    1.91    0.17
  19  -1   0    3.87    0.40
  19  -1   0    3.64    0.34
  19   1  -1    8.75    0.49
  19  -1  -1    9.40    0.55
  19  -1  -1    8.55    0.51
  19   1  -2    3.59    0.35
  19  -1  -2    4.62    0.41
  19  -1  -2    4.07    0.35
  19  -1   2    3.81    0.35
  19  -1  -3    0.07    0.24
  19  -1   3    0.21    0.23
  19   1  -3    0.34    0.25
  19  -1  -3    0.03    0.28
  19  -1  -4    0.09    0.22
  19  -1   4    0.04    0.22
  19  -1  -4    0.40    0.29
  19   1  -4   -0.15    0.24
  19   1   5   10.61    0.52
  19  -1  -5   10.83    0.53
  19  -1   5   10.20    0.52
  19   1  -5   10.22    0.52
  19  -1  -5   10.86    0.58
  19  -1  -6   12.39    0.54
  19  -1   6   11.65    0.54
  19   1  -6   11.86    0.53
  19   1   6   12.50    0.54
  19  -1   6   11.41    0.54
  19   1  -6   12.70    0.57
  19  -1  -6   12.98    0.63
  19  -1  -7   16.22    0.64
  19  -1   7   17.31    0.69
  19   1  -7   16.77    0.64
  19   1  -7   17.61    0.70
  19  -1  -7   19.19    0.77
  19  -1   8    0.10    0.17
  19   1  -8    0.18    0.21
  19  -1  -8    0.34    0.26
  19   1  -9    8.59    0.42
  19  -1  -9    8.71    0.46
  19  -1   9    7.96    0.42
  19   1 -10    0.62    0.17
  19  -1 -10    0.56    0.22
  19  -1  10    0.28    0.19
  19  -1 -11   12.96    0.50
  19  -1  11   12.75    0.49
  19  -1  12    0.09    0.13
  19  -1 -12    0.19    0.14
  19  -2   0   -0.24    0.28
  19  -2   0   -0.23    0.31
  19  -2  -1    7.14    0.50
  19  -2  -1    7.28    0.46
  19  -2  -2    1.98    0.31
  19  -2   2    2.11    0.30
  19   2  -2    1.52    0.26
  19  -2  -2    1.39    0.33
  19  -2  -3   12.70    0.64
  19   2  -3   10.66    0.53
  19  -2   3   12.54    0.59
  19  -2  -3   12.36    0.59
  19  -2  -4    0.12    0.22
  19  -2   4   -0.16    0.22
  19   2  -4   -0.01    0.20
  19  -2  -4   -0.05    0.30
  19  -2  -5    5.28    0.44
  19   2  -5    4.41    0.33
  19  -2  -5    4.57    0.34
  19  -2   5    5.03    0.35
  19  -2   5    4.10    0.32
  19  -2   6    0.64    0.23
  19   2  -6    0.41    0.20
  19  -2  -6    0.84    0.21
  19  -2   6    0.97    0.23
  19  -2  -6    0.80    0.31
  19  -2   7    7.96    0.41
  19   2  -7    6.96    0.35
  19  -2  -7    6.78    0.36
  19  -2   7    7.37    0.41
  19   2  -7    6.69    0.37
  19  -2   8    0.85    0.22
  19  -2  -8    0.76    0.29
  19  -2   8    1.01    0.20
  19  -2   9    2.01    0.25
  19  -2  -9    1.94    0.29
  19  -2   9    2.15    0.21
  19  -2  10    0.04    0.18
  19  -2 -10    0.25    0.22
  19  -2  10    0.11    0.14
  19  -2 -11    0.60    0.19
  19  -2  11    0.45    0.17
  19  -2 -12    0.82    0.15
  19  -2  12    0.78    0.14
  19  -3   0   17.65    0.76
  19  -3  -1    3.74    0.38
  19  -3  -2    9.46    0.52
  19  -3   2    9.37    0.52
  19  -3  -3    3.56    0.34
  19  -3   3    3.45    0.34
  19  -3   4    8.15    0.45
  19  -3  -4    7.56    0.45
  19  -3  -5    8.40    0.44
  19  -3   5    8.74    0.45
  19  -3   5    7.95    0.44
  19  -3   6    3.26    0.31
  19  -3  -6    3.25    0.28
  19  -3   6    3.36    0.31
  19  -3   7   16.90    0.68
  19   3  -7   16.57    0.62
  19  -3   7   18.53    0.70
  19  -3   8    9.34    0.44
  19  -3   8    9.11    0.46
  19  -3  -8    9.44    0.50
  19  -3   9   30.16    1.05
  19  -3   9   32.14    1.08
  19  -3  -9   33.90    1.11
  19  -3  10    0.44    0.18
  19  -3  10    0.74    0.16
  19  -3 -10    0.70    0.21
  19  -3 -11   21.98    0.74
  19  -3  11   20.55    0.72
  19  -3 -12    0.07    0.11
  19  -3  12    0.05    0.09
  19  -4   0   -0.06    0.23
  19  -4  -1    0.38    0.26
  19  -4  -1   -0.27    0.28
  19  -4  -2   -0.10    0.25
  19  -4   2   -0.23    0.26
  19  -4  -2   -0.12    0.27
  19  -4  -3    0.15    0.24
  19  -4   3    0.11    0.23
  19  -4  -3    0.12    0.27
  19  -4   4    0.29    0.22
  19  -4  -4    0.17    0.21
  19  -4   4    0.24    0.20
  19  -4  -4    0.22    0.27
  19  -4  -5    5.62    0.41
  19  -4   5    4.62    0.34
  19  -4   5    5.63    0.35
  19  -4  -5    5.25    0.35
  19  -4  -6    0.38    0.18
  19  -4   6    0.65    0.21
  19  -4  -6    0.68    0.26
  19  -4   7    0.12    0.20
  19  -4  -7    0.23    0.23
  19  -4   8    0.22    0.19
  19  -4  -8    0.56    0.22
  19  -4   9    0.15    0.17
  19  -4  -9    0.06    0.19
  19  -4  10    0.15    0.15
  19  -4 -10    0.09    0.16
  19  -4 -11    1.92    0.16
  19  -4  11    1.81    0.16
  19  -5   0   66.25    2.12
  19  -5  -1    0.30    0.25
  19  -5  -2   91.89    2.77
  19  -5   2   88.28    2.76
  19  -5  -2   88.56    2.76
  19  -5  -3    0.74    0.24
  19  -5   3    0.40    0.22
  19  -5  -3    0.30    0.24
  19  -5  -4   14.00    0.59
  19  -5   4   13.58    0.59
  19  -5  -4   14.46    0.62
  19  -5  -5    1.58    0.22
  19  -5  -5    1.65    0.27
  19  -5   5    1.74    0.23
  19  -5  -6   11.73    0.48
  19  -5  -6   12.45    0.54
  19  -5   6   12.70    0.52
  19  -5   7    0.12    0.17
  19  -5  -7    0.33    0.20
  19  -5  -8   27.08    0.91
  19  -5   8   27.06    0.90
  19  -5  -9    5.53    0.28
  19  -5   9    5.40    0.28
  19  -5  10    2.97    0.18
  19  -6   0    0.16    0.21
  19  -6  -1    8.14    0.43
  19  -6  -2    0.73    0.22
  19  -6   2    0.31    0.21
  19  -6  -3    6.93    0.38
  19  -6   3    6.98    0.38
  19  -6  -4    1.10    0.20
  19  -6   4    1.12    0.20
  19  -6  -5    1.07    0.18
  19  -6  -6    2.02    0.17
  19  -6   6    2.77    0.22
  19  -6   7    0.29    0.14
  19  -6   8    3.54    0.22
  19  -7   0   10.64    0.47
  19  -7  -1    0.02    0.18
  19  -7  -2    7.93    0.38
  19  -7   2    8.02    0.38
  19  -7  -3   -0.10    0.16
  19  -7   3   -0.11    0.16
  19  -7  -4    1.18    0.17
  19  -7  -5    3.07    0.18
  19  -8   0   -0.06    0.13
  19  -8  -1   15.10    0.53
  19  -8  -2   -0.17    0.12
  19  -8   2   -0.09    0.11
  20   0   0  301.34    8.77
  20   0  -1    0.43    0.29
  20   0  -1    0.22    0.26
  20   0  -2   32.61    1.14
  20   0   2   32.55    1.15
  20   0  -2   30.42    1.16
  20   0  -3   -0.38    0.28
  20   0  -3   -0.03    0.23
  20   0   3   -0.03    0.23
  20   0  -4   59.04    1.90
  20   0   4   59.31    1.90
  20   0  -4   59.15    1.92
  20   0  -5    0.03    0.25
  20   0  -5   -0.09    0.22
  20   0   5   -0.07    0.21
  20   0  -6   60.82    1.96
  20   0  -6   66.08    2.02
  20   0  -7    0.05    0.22
  20   0  -7   -0.26    0.17
  20   0  -8   21.95    0.81
  20   0  -9    0.26    0.18
  20   0 -10   16.63    0.61
  20   0 -11   -0.10    0.12
  20  -1   0   -0.13    0.26
  20  -1  -1   52.56    1.71
  20  -1  -1   50.18    1.73
  20  -1  -2    0.44    0.30
  20   1  -2    0.07    0.25
  20  -1  -2    0.39    0.24
  20  -1   2    0.12    0.25
  20  -1  -3   47.20    1.54
  20  -1   3   48.60    1.55
  20   1  -3   42.56    1.52
  20  -1  -3   46.71    1.58
  20   1  -4    1.69    0.28
  20  -1  -4    2.24    0.34
  20  -1  -4    2.19    0.29
  20  -1   4    2.08    0.28
  20   1  -4    2.29    0.29
  20   1   4    2.33    0.28
  20  -1  -5   41.73    1.39
  20   1  -5   37.22    1.33
  20  -1  -5   40.76    1.33
  20  -1   5   40.74    1.33
  20   1  -5   39.28    1.32
  20   1   5   39.63    1.32
  20  -1  -6    5.12    0.39
  20   1  -6    4.14    0.33
  20  -1  -6    4.85    0.31
  20   1  -6    4.77    0.31
  20   1  -7   32.84    1.10
  20   1  -7   30.57    1.05
  20  -1  -8    1.92    0.27
  20   1  -8    1.31    0.21
  20  -1  -9   12.02    0.51
  20   1  -9   10.78    0.45
  20   1 -10    0.22    0.13
  20  -1 -10    0.73    0.19
  20  -1 -11    2.76    0.21
  20  -2   0   23.89    0.94
  20  -2  -1    0.03    0.24
  20  -2  -1   -0.14    0.29
  20  -2  -2    2.50    0.31
  20  -2   2    2.26    0.31
  20  -2  -2    2.45    0.36
  20  -2   3    2.04    0.29
  20  -2  -3    2.24    0.35
  20  -2  -3    2.89    0.30
  20   2  -4    9.24    0.46
  20  -2  -4   11.36    0.58
  20  -2  -4   11.08    0.52
  20  -2   4    9.82    0.50
  20  -2  -5    3.66    0.38
  20  -2  -5    3.04    0.29
  20  -2   5    3.26    0.28
  20  -2  -6    1.93    0.23
  20  -2  -6    1.94    0.32
  20   2  -6    2.21    0.23
  20  -2  -7   10.91    0.54
  20  -2  -8   11.74    0.54
  20  -2  -9    5.57    0.35
  20  -2 -10    2.46    0.23
  20  -2 -11   15.38    0.55
  20  -3   0   -0.14    0.29
  20  -3  -1   68.46    2.18
  20  -3  -2    0.18    0.25
  20  -3   2   -0.05    0.23
  20  -3   3   27.64    0.98
  20  -3  -3   25.11    0.97
  20  -3  -4    1.13    0.24
  20  -3   4    1.07    0.24
  20  -3  -5    6.49    0.38
  20  -3   5    6.64    0.38
  20  -3  -6    0.01    0.17
  20  -3  -6    0.13    0.26
  20  -3  -7   10.27    0.51
  20  -3  -8    2.60    0.28
  20  -3  -9    7.39    0.38
  20  -3 -10    2.25    0.21
  20  -3 -11    0.68    0.14
  20  -4   0    4.01    0.36
  20  -4  -1   -0.08    0.24
  20  -4  -2    9.39    0.52
  20  -4   2    9.30    0.49
  20  -4  -2    9.59    0.50
  20  -4  -3    0.01    0.21
  20  -4   3    0.09    0.22
  20  -4  -3   -0.18    0.26
  20  -4  -4    1.50    0.24
  20  -4   4    1.89    0.25
  20  -4  -4    1.61    0.28
  20  -4  -5    0.45    0.19
  20  -4  -5    0.56    0.24
  20  -4  -6    4.98    0.29
  20  -4  -6    5.68    0.37
  20  -4  -7    1.64    0.24
  20  -4  -8    6.29    0.35
  20  -4  -9    0.18    0.16
  20  -4 -10    0.56    0.13
  20  -5   0   -0.12    0.20
  20  -5  -1    2.77    0.30
  20  -5  -2    0.20    0.21
  20  -5   2    0.44    0.21
  20  -5  -3    4.93    0.33
  20  -5   3    5.47    0.34
  20  -5  -4    0.16    0.18
  20  -5   4    0.24    0.18
  20  -5  -4    0.01    0.22
  20  -5  -5    4.32    0.27
  20  -5  -5    4.98    0.32
  20  -5  -6   -0.04    0.12
  20  -5  -6    0.22    0.18
  20  -5  -7    1.35    0.19
  20  -5  -8    1.79    0.17
  20  -6   0   36.04    1.19
  20  -6  -1    0.24    0.20
  20  -6  -2   20.52    0.72
  20  -6   2   18.08    0.70
  20  -6  -3    0.96    0.19
  20  -6   3    0.63    0.17
  20  -6  -4   13.65    0.52
  20  -6  -5    2.46    0.18
  20  -7   0   -0.04    0.15
  20  -7  -1    0.37    0.16
  20  -7  -2    0.34    0.14
  20  -7   2   -0.04    0.14
  20  -7  -3    0.11    0.12
  20  -7  -4    0.37    0.10
  21   0   0    1.07    0.31
  21   0  -1   -0.21    0.26
  21   0  -2    3.53    0.35
  21   0  -2    3.99    0.33
  21   0   2    4.04    0.34
  21   0  -3   -0.11    0.21
  21   0   3   -0.14    0.22
  21   0  -3   -0.25    0.25
  21   0  -4    6.83    0.43
  21   0  -4    7.04    0.41
  21   0   4    7.43    0.41
  21   0  -5    0.03    0.19
  21   0   5    0.12    0.19
  21   0  -5    0.11    0.23
  21   0  -6   25.00    0.88
  21   0  -6   22.71    0.82
  21   0  -7   -0.20    0.21
  21   0  -8   30.84    1.03
  21   0  -9   -0.07    0.15
  21   0 -10   27.60    0.87
  21  -1   0    8.50    0.49
  21  -1  -1    2.91    0.35
  21  -1  -2    2.03    0.28
  21  -1   2    1.66    0.29
  21   1  -2    1.71    0.27
  21   1   2    1.87    0.28
  21  -1  -2    1.56    0.32
  21  -1  -3   -0.04    0.21
  21  -1   3    0.20    0.23
  21   1  -3   -0.05    0.22
  21   1   3    0.16    0.20
  21   1  -3   -0.19    0.22
  21  -1  -3   -0.10    0.28
  21   1  -4    4.44    0.33
  21  -1  -4    5.05    0.39
  21  -1  -4    4.49    0.34
  21  -1   4    4.52    0.34
  21   1  -4    4.93    0.33
  21   1   4    4.57    0.34
  21  -1  -5    2.22    0.25
  21  -1   5    2.30    0.25
  21  -1  -5    2.78    0.33
  21   1  -5    2.65    0.27
  21   1  -5    2.89    0.26
  21   1   5    2.21    0.25
  21   1  -6    7.83    0.41
  21  -1  -6    8.08    0.38
  21   1  -6    7.56    0.38
  21   1  -7    2.59    0.24
  21  -1  -7    3.12    0.29
  21  -1  -8    2.61    0.26
  21   1  -8    2.25    0.21
  21  -1  -9    7.20    0.35
  21  -1 -10    0.77    0.16
  21  -2   0   -0.20    0.27
  21  -2  -1   63.83    2.04
  21  -2  -2    0.49    0.25
  21  -2   2    0.35    0.23
  21  -2  -2    0.45    0.30
  21  -2  -3   30.47    1.10
  21  -2  -3   29.30    1.06
  21  -2   3   29.81    1.06
  21  -2  -4    6.28    0.44
  21  -2  -4    6.04    0.37
  21  -2   4    5.80    0.36
  21  -2  -5   10.28    0.53
  21  -2  -5    9.89    0.46
  21   2  -5   10.48    0.46
  21  -2  -6    4.91    0.37
  21   2  -6    4.71    0.28
  21  -2  -6    4.72    0.29
  21  -2  -7   15.39    0.64
  21  -2  -8   18.30    0.69
  21  -2  -9    6.06    0.33
  21  -2 -10    7.06    0.31
  21  -3   0    2.80    0.31
  21  -3  -1    0.26    0.23
  21  -3  -2    0.37    0.22
  21  -3   2    0.06    0.22
  21  -3  -3    0.51    0.22
  21  -3   3    0.07    0.20
  21  -3  -3   -0.20    0.27
  21  -3  -4    1.78    0.23
  21  -3   4    1.21    0.22
  21  -3  -4    1.16    0.28
  21  -3  -5    0.37    0.18
  21  -3  -5    0.28    0.25
  21  -3  -6    2.21    0.20
  21   3  -6    2.31    0.20
  21  -3  -7    0.14    0.20
  21  -3  -8    0.38    0.19
  21  -3  -9    0.43    0.16
  21  -3 -10    0.96    0.14
  21  -4   0    0.17    0.22
  21  -4  -1    0.52    0.22
  21  -4  -2    0.45    0.21
  21  -4   2    0.66    0.23
  21  -4  -3    0.02    0.20
  21  -4   3   -0.22    0.20
  21  -4  -3    0.42    0.23
  21  -4  -4    0.92    0.20
  21  -4   4    0.91    0.19
  21  -4  -4    0.70    0.23
  21  -4  -5    0.27    0.15
  21  -4  -5    0.56    0.22
  21  -4  -6    2.45    0.19
  21   4  -6    2.38    0.17
  21  -4  -7    4.32    0.29
  21  -4  -8    8.07    0.36
  21  -4  -9    0.29    0.12
  21  -5   0    4.42    0.31
  21  -5  -1    0.10    0.19
  21  -5  -2   -0.01    0.18
  21  -5   2    0.28    0.19
  21  -5  -3    0.01    0.17
  21  -5   3   -0.02    0.16
  21  -5  -4    0.43    0.16
  21  -5  -5   -0.02    0.13
  21  -6   0    0.19    0.16
  21  -6  -1   17.52    0.64
  21  -6  -2    0.68    0.17
  21  -6   2    0.46    0.16
  21  -6  -3   16.15    0.56
  21  -6   3   14.72    0.55
  21  -6  -4    1.56    0.15
  21  -7   0   21.60    0.71
  21  -7  -1    0.16    0.11
  21  -7  -2    9.07    0.33
  21  -7   2    7.78    0.32
  22   0   0  248.78    7.26
  22   0  -1    0.61    0.25
  22   0  -2   18.41    0.72
  22   0   2   17.63    0.72
  22   0  -3   -0.10    0.20
  22   0   3    0.06    0.19
  22   0  -4   27.53    0.98
  22   0  -4   28.93    0.98
  22   0   4   27.18    0.97
  22   0  -5    0.03    0.16
  22   0  -5    0.25    0.20
  22   0  -6   24.77    0.82
  22   0  -6   21.43    0.76
  22   0  -7   -0.12    0.17
  22   0  -8    9.84    0.40
  22   0  -9   -0.09    0.11
  22  -1   0   -0.42    0.26
  22   1   0   -0.19    0.24
  22  -1  -1   -0.06    0.22
  22   1  -1    0.17    0.22
  22  -1  -2   -0.19    0.22
  22  -1   2   -0.18    0.23
  22   1  -2   -0.12    0.20
  22   1   2   -0.23    0.22
  22  -1  -3    0.76    0.22
  22  -1   3    1.02    0.23
  22   1  -3    1.05    0.23
  22   1   3    1.24    0.22
  22  -1  -3    0.87    0.26
  22   1  -4    1.36    0.22
  22   1   4    1.18    0.22
  22  -1  -4    1.26    0.22
  22  -1   4    0.95    0.22
  22  -1  -4    1.41    0.27
  22   1  -5    0.38    0.16
  22  -1  -5    0.34    0.17
  22  -1  -5    0.33    0.22
  22   1  -6    0.53    0.16
  22  -1  -6    0.63    0.16
  22  -1  -6    0.98    0.22
  22  -1  -7    0.39    0.18
  22  -1  -8    1.41    0.19
  22  -1  -9    1.01    0.15
  22  -2   0   26.64    0.97
  22  -2  -1    0.18    0.21
  22   2   2   24.79    0.88
  22  -2  -2   23.89    0.88
  22  -2   2   24.39    0.89
  22  -2  -3    0.74    0.22
  22  -2   3    0.69    0.20
  22   2  -3    0.90    0.20
  22   2   3    0.73    0.20
  22  -2  -3    0.64    0.26
  22  -2  -4   26.06    0.91
  22  -2  -4   25.15    0.87
  22  -2   4   23.95    0.86
  22   2  -4   24.16    0.85
  22   2   4   23.80    0.85
  22   2  -5    0.97    0.17
  22  -2  -5    0.86    0.18
  22  -2  -5    0.84    0.24
  22  -2  -6   13.13    0.50
  22   2  -6   13.61    0.50
  22  -2  -7    1.55    0.22
  22  -2  -8   16.68    0.61
  22  -2  -9    2.89    0.19
  22  -3   0   -0.18    0.20
  22  -3  -1   11.89    0.53
  22  -3  -2   -0.04    0.20
  22  -3   2    0.11    0.20
  22  -3  -3    5.82    0.34
  22  -3   3    5.46    0.34
  22  -3  -4   -0.05    0.16
  22  -3   4   -0.05    0.16
  22   3  -4   -0.15    0.16
  22   3   4    0.02    0.15
  22  -3  -4    0.13    0.22
  22  -3  -5    2.25    0.20
  22  -3  -5    2.43    0.26
  22   3  -5    2.32    0.19
  22   3  -6   -0.06    0.11
  22  -3  -6   -0.07    0.11
  22  -3  -6    0.03    0.19
  22  -3  -7    2.02    0.22
  22  -3  -8   -0.02    0.14
  22  -3  -9    0.73    0.12
  22  -4   0    0.89    0.21
  22  -4  -1    0.30    0.19
  22  -4  -2    6.53    0.36
  22  -4   2    6.92    0.37
  22  -4  -3    0.25    0.17
  22  -4   3    0.26    0.16
  22  -4  -4    1.25    0.18
  22  -4  -5   -0.01    0.11
  22   4  -5    0.01    0.11
  22  -5   0   -0.06    0.16
  22  -5  -1    0.45    0.17
  22  -5  -2    0.04    0.15
  22  -5   2   -0.01    0.15
  22  -5  -3    0.14    0.14
  22  -5   3    0.08    0.14
  22  -5  -4    0.02    0.12
  22  -6   0   20.14    0.68
  22  -6  -1    0.10    0.12
  22  -6  -2    9.41    0.35
  22  -6   2    8.46    0.35
  23   0   0    0.19    0.22
  23   0  -1   -0.07    0.20
  23   0  -2   -0.23    0.21
  23   0   2   -0.20    0.21
  23   0  -3    0.01    0.17
  23   0   3   -0.18    0.18
  23   0  -4    0.82    0.18
  23   0   4    0.79    0.18
  23   0  -5    0.01    0.14
  23   0  -6    1.48    0.14
  23  -1   0    9.45    0.46
  23   1   0   10.03    0.46
  23   1  -1    0.45    0.21
  23  -1  -1    0.10    0.21
  23  -1  -2   28.30    0.95
  23  -1   2   26.29    0.94
  23   1  -2   26.58    0.93
  23   1   2   26.70    0.93
  23   1  -3    0.22    0.18
  23   1   3    0.13    0.16
  23  -1  -3    0.17    0.17
  23  -1   3    0.06    0.17
  23  -1  -4    5.40    0.30
  23  -1   4    5.81    0.31
  23   1  -4    6.11    0.32
  23   1  -5   -0.01    0.13
  23  -1  -5    0.06    0.13
  23  -1  -6    2.38    0.21
  23  -2   0    0.24    0.20
  23   2   0   -0.02    0.18
  23   2  -1   12.26    0.52
  23  -2  -1   12.75    0.54
  23  -2  -2    0.68    0.20
  23  -2   2    0.73    0.21
  23   2  -2    0.67    0.19
  23   2   2    1.09    0.20
  23  -2  -3    4.69    0.29
  23  -2   3    4.83    0.30
  23   2  -3    4.50    0.28
  23   2   3    5.39    0.30
  23   2  -4    0.76    0.16
  23  -2  -4    0.65    0.16
  23   2  -5    2.99    0.19
  23  -2  -5    2.71    0.20
  23  -2  -6    0.78    0.18
  23  -2  -7    3.44    0.22
  23  -3   0    0.19    0.18
  23   3   0    0.46    0.17
  23  -3  -1    0.79    0.20
  23   3  -1    0.61    0.18
  23  -3  -2    0.80    0.19
  23  -3   2    0.84    0.19
  23   3  -2    0.81    0.18
  23   3   2    0.64    0.17
  23  -3  -3    0.36    0.16
  23  -3   3    0.37    0.16
  23   3  -3    0.82    0.16
  23   3   3    0.39    0.16
  23  -3  -4    0.58    0.15
  23   3  -4    0.63    0.14
  23   3  -5    0.46    0.12
  23  -3  -5    0.54    0.12
  23  -4   0    0.02    0.16
  23  -4  -1    1.73    0.20
  23  -4  -2    0.24    0.15
  23  -4   2    0.26    0.15
  23   4  -2    0.24    0.14
  23   4   2    0.15    0.14
  23  -4  -3    0.26    0.13
  23  -4   3    0.04    0.13
  23   4  -3    0.15    0.12
  23   4   3    0.21    0.12
  23  -4  -4    0.22    0.11
  23   4  -4    0.18    0.11
  23  -5   0    2.75    0.20
  23  -5  -1    0.08    0.13
  23  -5  -2   14.46    0.52
  23  -5   2   15.19    0.52
  23   5  -2   14.51    0.51
  23   5   2   15.86    0.51
  23   5  -3    0.05    0.08
  23  -5  -3   -0.04    0.10
  24   0   0    1.08    0.20
  24   0  -1   -0.20    0.18
  24   0  -2    3.00    0.24
  24   0   2    2.83    0.23
  24   0  -3   -0.01    0.14
  24   0   3   -0.03    0.14
  24   0  -4    0.13    0.12
  24   0  -5    0.08    0.10
  24   1   0   -0.14    0.17
  24  -1   0   -0.04    0.17
  24  -1  -1    1.77    0.21
  24   1  -1    2.25    0.22
  24   1  -2    0.11    0.16
  24   1   2    0.09    0.16
  24  -1  -2    0.10    0.16
  24  -1   2   -0.09    0.16
  24   1  -3    0.01    0.14
  24   1   3    0.09    0.14
  24  -1  -3    0.19    0.14
  24  -1   3    0.19    0.15
  24   1  -4    0.46    0.14
  24  -1  -4    0.41    0.14
  24   1  -5    0.94    0.12
  24  -1  -5    1.20    0.13
  24  -2   0    5.46    0.31
  24   2   0    6.19    0.31
  24   2  -1    0.27    0.16
  24  -2  -1    0.24    0.16
  24  -2  -2   11.24    0.45
  24  -2   2   10.90    0.45
  24   2  -2   11.21    0.44
  24   2   2   10.75    0.44
  24   2  -3    0.08    0.13
  24   2   3    0.06    0.13
  24  -2  -3    0.19    0.14
  24  -2   3   -0.01    0.13
  24   2  -4    3.88    0.21
  24  -2  -4    4.12    0.22
  24  -3   0    0.16    0.14
  24   3   0    0.11    0.14
  24   3  -1   23.16    0.76
  24  -3  -1   22.52    0.77
  24   3  -2    0.12    0.12
  24   3   2    0.04    0.12
  24  -3  -2   -0.03    0.14
  24  -3   2    0.15    0.13
  24  -3  -3   10.05    0.38
  24   3  -3    9.21    0.37
  24   3  -4    0.18    0.09
  24  -3  -4    0.05    0.09
  24  -4   0    2.34    0.18
  24   4   0    2.56    0.17
  24  -4  -1    0.28    0.12
  24   4  -1    0.23    0.11
  24  -4   2    3.21    0.19
  24   4  -2    3.58    0.19
  24   4   2    3.22    0.19
  25   0   0    0.23    0.14
  25   0  -1   -0.17    0.14
  25   0  -2    0.06    0.12
  25   0   2    0.05    0.12
  25   0  -3    0.13    0.11
  25   1   0    0.16    0.13
  25  -1   0    0.26    0.14
  25   1  -1    1.30    0.16
  25  -1  -1    1.05    0.16
  25   1  -2    2.82    0.19
  25   1   2    2.31    0.18
  25  -1  -2    2.75    0.19
  25  -1   2    2.83    0.19
  25   1  -3    0.15    0.10
  25  -1  -3    0.23    0.11
  25   2   0   -0.10    0.12
  25  -2   0   -0.03    0.12
  25   2  -1    1.93    0.16
  25  -2  -1    1.65    0.16
  25   2  -2    0.73    0.12
  25   2   2    0.51    0.12
  25  -2  -2    0.63    0.12
  25  -2   2    0.46    0.12
  25  -2  -3    1.24    0.12
  25  -3   0    1.91    0.15
  25   3   0    1.49    0.14
  25   3  -1    0.76    0.11
  25  -3  -1    0.56    0.11



TITL crystal-1_auto in Pbcn
REM Pbcn (#60, found as Pbna in cab setting)
CELL 1.54184  20.651754   9.807065  15.163700  90.0000  90.0000  90.0000
ZERR   35.00   0.000389   0.000149   0.000250   0.0000   0.0000   0.0000
LATT  1
SYMM -x+1/2,-y+1/2, z+1/2
SYMM -x, y,-z+1/2
SYMM  x+1/2,-y+1/2,-z
SFAC C H N O S Cu
UNIT 35.00 35.00 35.00 35.00 35.00 35.00
REM  CrysAlisPro recorded range (K): Min=100.0; max=100.0; aver:100.0
TEMP -173
TREF
HKLF 4
END
_computing_structure_solution     'SHELXT 2014/5 (Sheldrick, 2014)'
_computing_structure_solution     'SHELXT 2014/4 (Sheldrick, 2014)'
;
_shelx_hkl_checksum              12500
_olex2_submission_special_instructions 'No special instructions were received'
loop_
_space_group_symop_operation_xyz
'x, y, z'
'-x+1/2, -y+1/2, z+1/2'
'-x, y, -z+1/2'
'x+1/2, -y+1/2, -z'
'-x, -y, -z'
'x-1/2, y-1/2, -z-1/2'
'x, -y, z-1/2'
'-x-1/2, y-1/2, z'
loop_
_atom_site_label
_atom_site_type_symbol
_atom_site_fract_x
_atom_site_fract_y
_atom_site_fract_z
_atom_site_U_iso_or_equiv
_atom_site_adp_type
_atom_site_occupancy
_atom_site_site_symmetry_order
_atom_site_calc_flag
_atom_site_refinement_flags_posn
_atom_site_refinement_flags_adp
_atom_site_refinement_flags_occupancy
_atom_site_disorder_assembly
_atom_site_disorder_group
Cu01 Cu 0.31832(3) 0.72472(7) 0.51310(4) 0.0221(3) Uani 1 1 d . . . . .
S002 S 0.17538(6) 0.57848(11) 0.51306(7) 0.0214(4) Uani 1 1 d . . . . .
O003 O 0.20928(17) 0.4467(3) 0.51248(18) 0.0246(7) Uani 1 1 d . . . . .
O004 O 0.13369(16) 0.5911(3) 0.4343(2) 0.0257(7) Uani 1 1 d . . . . .
O005 O 0.22193(19) 0.6927(4) 0.5120(2) 0.0302(8) Uani 1 1 d . . . . .
O006 O 0.13430(17) 0.5900(3) 0.5928(2) 0.0283(7) Uani 1 1 d . . . . .
N007 N 0.32212(19) 0.2919(4) 0.8827(3) 0.0257(9) Uani 1 1 d . . . . .
N008 N 0.3307(2) 0.2278(4) 0.7433(3) 0.0268(9) Uani 1 1 d . . . . .
H008 H 0.334272 0.173929 0.697144 0.032 Uiso 1 1 calc R U . . .
N009 N 0.31989(19) 0.7112(4) 0.6433(3) 0.0260(9) Uani 1 1 d . . . . .
N00A N 0.3222(2) 0.7759(4) 0.7828(3) 0.0291(9) Uani 1 1 d . . . . .
H00A H 0.323132 0.829982 0.829119 0.035 Uiso 1 1 calc R U . . .
C00B C 0.3208(2) 0.4082(4) 0.8309(3) 0.0243(10) Uani 1 1 d . . . . .
C00C C 0.3253(2) 0.3670(5) 0.7412(3) 0.0241(9) Uani 1 1 d . . . . .
N00D N 0.4145(2) 0.7155(6) 0.5162(3) 0.0410(12) Uani 1 1 d . . . . .
C00E C 0.3224(2) 0.4580(5) 0.6707(3) 0.0250(9) Uani 1 1 d . . . . .
H00E H 0.321908 0.429009 0.610946 0.030 Uiso 1 1 calc R U . . .
C00F C 0.3294(2) 0.1880(5) 0.8280(3) 0.0277(10) Uani 1 1 d . . . . .
H00F H 0.333227 0.095853 0.846456 0.033 Uiso 1 1 calc R U . . .
C00G C 0.3159(2) 0.5441(5) 0.8547(3) 0.0290(10) Uani 1 1 d . . . . .
H00G H 0.310167 0.573035 0.913984 0.035 Uiso 1 1 calc R U . . .
C00H C 0.3204(2) 0.5934(4) 0.6948(3) 0.0258(10) Uani 1 1 d . . . . .
C00I C 0.3202(2) 0.6343(5) 0.7846(3) 0.0247(9) Uani 1 1 d . . . . .
C00J C 0.3224(2) 0.8150(5) 0.6992(3) 0.0294(10) Uani 1 1 d . . . . .
H00J H 0.324271 0.907736 0.681212 0.035 Uiso 1 1 calc R U . . .
N00K N 0.5171(3) 0.7723(6) 0.5273(4) 0.0523(13) Uani 1 1 d . . . . .
H00K H 0.551009 0.825497 0.534184 0.063 Uiso 1 1 calc R U . . .
C00L C 0.5170(3) 0.6316(7) 0.5126(4) 0.0438(13) Uani 1 1 d . . . . .
C00M C 0.4529(4) 0.8102(7) 0.5289(5) 0.0542(16) Uani 1 1 d . . . . .
H00M H 0.439338 0.901400 0.538867 0.065 Uiso 1 1 calc R U . . .
C00N C 0.4510(3) 0.5943(6) 0.5072(4) 0.0395(13) Uani 1 1 d . . . . .
C00O C 0.5668(3) 0.5412(8) 0.5041(4) 0.0449(13) Uani 1 1 d . . . . .
H00O H 0.610862 0.569133 0.505859 0.054 Uiso 1 1 calc R U . . .
loop_
_atom_site_aniso_label
_atom_site_aniso_U_11
_atom_site_aniso_U_22
_atom_site_aniso_U_33
_atom_site_aniso_U_23
_atom_site_aniso_U_13
_atom_site_aniso_U_12
Cu01 0.0406(5) 0.0151(5) 0.0105(5) -0.0002(2) -0.0006(2) 0.0041(2)
S002 0.0401(7) 0.0114(6) 0.0126(6) -0.0002(3) 0.0003(3) 0.0006(4)
O003 0.0395(18) 0.0157(15) 0.0185(15) 0.0002(10) -0.0011(11) 0.0038(14)
O004 0.0429(18) 0.0203(14) 0.0141(14) 0.0028(11) -0.0019(12) 0.0042(12)
O005 0.044(2) 0.0179(15) 0.0287(18) -0.0002(12) -0.0014(13) -0.0038(15)
O006 0.0490(19) 0.0206(15) 0.0153(15) -0.0012(11) 0.0047(13) 0.0020(12)
N007 0.053(2) 0.0126(16) 0.0119(18) 0.0023(13) 0.0018(14) -0.0028(14)
N008 0.051(2) 0.0146(18) 0.0146(19) -0.0010(13) -0.0011(16) -0.0005(15)
N009 0.050(2) 0.0116(17) 0.0162(19) 0.0007(14) -0.0005(14) 0.0024(13)
N00A 0.058(3) 0.0133(19) 0.016(2) -0.0026(14) 0.0010(15) 0.0004(14)
C00B 0.047(3) 0.019(2) 0.007(2) 0.0014(15) 0.0004(14) -0.0027(16)
C00C 0.042(2) 0.0145(19) 0.016(2) -0.0021(17) 0.0005(15) 0.0009(16)
N00D 0.038(3) 0.057(3) 0.028(2) -0.0055(19) -0.0019(17) 0.005(2)
C00E 0.049(3) 0.017(2) 0.0093(19) -0.0012(16) -0.0013(15) -0.0006(17)
C00F 0.053(3) 0.018(2) 0.012(2) -0.0024(17) 0.0019(17) -0.0007(18)
C00G 0.059(3) 0.015(2) 0.013(2) -0.0008(17) 0.0035(17) -0.0028(17)
C00H 0.047(3) 0.017(2) 0.013(2) 0.0019(15) -0.0007(16) 0.0002(16)
C00I 0.046(3) 0.015(2) 0.013(2) -0.0022(17) 0.0011(15) 0.0004(16)
C00J 0.056(3) 0.014(2) 0.019(2) 0.0005(18) -0.0007(18) 0.0008(17)
N00K 0.055(3) 0.047(3) 0.055(3) -0.002(2) -0.005(3) -0.001(2)
C00L 0.055(4) 0.037(3) 0.039(3) -0.002(2) -0.001(2) 0.000(3)
C00M 0.072(4) 0.039(3) 0.052(4) 0.006(3) 0.015(3) 0.013(3)
C00N 0.048(3) 0.043(3) 0.028(3) -0.002(2) 0.001(2) -0.002(2)
C00O 0.042(3) 0.054(4) 0.039(3) 0.001(3) 0.001(2) -0.003(3)
loop_
_atom_type_symbol
_atom_type_description
_atom_type_scat_dispersion_real
_atom_type_scat_dispersion_imag
_atom_type_scat_source
C C 0.0181 0.0091 'International Tables Vol C Tables 4.2.6.8 and 6.1.1.4'
H H 0.0000 0.0000 'International Tables Vol C Tables 4.2.6.8 and 6.1.1.4'
Cu Cu -1.9646 0.5888 'International Tables Vol C Tables 4.2.6.8 and 6.1.1.4'
N N 0.0311 0.0180 'International Tables Vol C Tables 4.2.6.8 and 6.1.1.4'
O O 0.0492 0.0322 'International Tables Vol C Tables 4.2.6.8 and 6.1.1.4'
S S 0.3331 0.5567 'International Tables Vol C Tables 4.2.6.8 and 6.1.1.4'
loop_
_geom_angle_atom_site_label_1
_geom_angle_atom_site_label_2
_geom_angle_atom_site_label_3
_geom_angle
_geom_angle_site_symmetry_1
_geom_angle_site_symmetry_3
_geom_angle_publ_flag
O005 Cu01 O003 84.28(14) . 8_665 ?
N007 Cu01 O003 94.90(12) 7_565 8_665 ?
N007 Cu01 O005 91.03(15) 7_565 . ?
N007 Cu01 N00D 88.87(17) 7_565 . ?
N009 Cu01 O003 94.20(13) . 8_665 ?
N009 Cu01 O005 90.80(15) . . ?
N009 Cu01 N007 170.85(16) . 7_565 ?
N009 Cu01 N00D 87.54(17) . . ?
N00D Cu01 O003 107.29(18) . 8_665 ?
N00D Cu01 O005 168.4(2) . . ?
O003 S002 O004 110.27(17) . . ?
O003 S002 O005 110.9(2) . . ?
O003 S002 O006 110.19(17) . . ?
O004 S002 O006 108.6(2) . . ?
O005 S002 O004 107.89(19) . . ?
O005 S002 O006 108.89(19) . . ?
S002 O003 Cu01 136.9(2) . 8_655 ?
S002 O005 Cu01 139.6(2) . . ?
C00B N007 Cu01 129.2(3) . 7_566 ?
C00F N007 Cu01 124.5(3) . 7_566 ?
C00F N007 C00B 106.3(4) . . ?
C00C N008 H008 126.0 . . ?
C00F N008 H008 126.0 . . ?
C00F N008 C00C 108.1(4) . . ?
C00H N009 Cu01 127.9(3) . . ?
C00J N009 Cu01 125.9(3) . . ?
C00J N009 C00H 106.1(4) . . ?
C00I N00A H00A 126.0 . . ?
C00J N00A H00A 126.0 . . ?
C00J N00A C00I 108.0(4) . . ?
N007 C00B C00C 107.9(4) . . ?
N007 C00B C00G 130.3(4) . . ?
C00G C00B C00C 121.9(4) . . ?
N008 C00C C00B 105.5(4) . . ?
N008 C00C C00E 131.3(4) . . ?
C00E C00C C00B 123.3(4) . . ?
C00M N00D Cu01 127.6(5) . . ?
C00M N00D C00N 107.7(6) . . ?
C00N N00D Cu01 124.6(4) . . ?
C00C C00E H00E 122.7 . . ?
C00H C00E C00C 114.5(4) . . ?
C00H C00E H00E 122.7 . . ?
N007 C00F N008 112.2(4) . . ?
N007 C00F H00F 123.9 . . ?
N008 C00F H00F 123.9 . . ?
C00B C00G H00G 122.9 . . ?
C00B C00G C00I 114.2(4) . . ?
C00I C00G H00G 122.9 . . ?
N009 C00H C00I 107.7(4) . . ?
C00E C00H N009 130.5(4) . . ?
C00E C00H C00I 121.8(4) . . ?
N00A C00I C00H 105.3(4) . . ?
C00G C00I N00A 130.9(4) . . ?
C00G C00I C00H 123.8(4) . . ?
N009 C00J H00J 123.6 . . ?
N00A C00J N009 112.9(4) . . ?
N00A C00J H00J 123.6 . . ?
C00L N00K H00K 127.2 . . ?
C00M N00K H00K 127.2 . . ?
C00M N00K C00L 105.5(6) . . ?
N00K C00L C00N 105.4(6) . . ?
C00O C00L N00K 130.9(6) . . ?
C00O C00L C00N 123.7(6) . . ?
N00D C00M N00K 114.4(6) . . ?
N00D C00M H00M 122.8 . . ?
N00K C00M H00M 122.8 . . ?
C00L C00N N00D 106.9(5) . . ?
C00O C00N N00D 132.4(6) 5_666 . ?
C00O C00N C00L 120.6(6) 5_666 . ?
C00L C00O C00N 115.7(6) . 5_666 ?
C00L C00O H00O 122.2 . . ?
C00N C00O H00O 122.2 5_666 . ?
loop_
_geom_bond_atom_site_label_1
_geom_bond_atom_site_label_2
_geom_bond_distance
_geom_bond_site_symmetry_2
_geom_bond_publ_flag
Cu01 O003 2.251(3) 8_665 ?
Cu01 O005 2.015(4) . ?
Cu01 N007 1.986(4) 7_565 ?
Cu01 N009 1.979(4) . ?
Cu01 N00D 1.988(5) . ?
S002 O003 1.470(3) . ?
S002 O004 1.477(3) . ?
S002 O005 1.476(4) . ?
S002 O006 1.481(3) . ?
N007 C00B 1.385(5) . ?
N007 C00F 1.322(6) . ?
N008 H008 0.8800 . ?
N008 C00C 1.369(5) . ?
N008 C00F 1.342(6) . ?
N009 C00H 1.394(6) . ?
N009 C00J 1.326(6) . ?
N00A H00A 0.8800 . ?
N00A C00I 1.389(6) . ?
N00A C00J 1.325(6) . ?
C00B C00C 1.422(6) . ?
C00B C00G 1.385(6) . ?
C00C C00E 1.393(6) . ?
N00D C00M 1.237(10) . ?
N00D C00N 1.414(8) . ?
C00E H00E 0.9500 . ?
C00E C00H 1.379(6) . ?
C00F H00F 0.9500 . ?
C00G H00G 0.9500 . ?
C00G C00I 1.386(6) . ?
C00H C00I 1.419(6) . ?
C00J H00J 0.9500 . ?
N00K H00K 0.8800 . ?
N00K C00L 1.398(8) . ?
N00K C00M 1.375(9) . ?
C00L C00N 1.414(10) . ?
C00L C00O 1.365(10) . ?
C00M H00M 0.9500 . ?
C00N C00O 1.389(10) 5_666 ?
C00O H00O 0.9500 . ?
loop_
_geom_torsion_atom_site_label_1
_geom_torsion_atom_site_label_2
_geom_torsion_atom_site_label_3
_geom_torsion_atom_site_label_4
_geom_torsion
_geom_torsion_site_symmetry_1
_geom_torsion_site_symmetry_2
_geom_torsion_site_symmetry_3
_geom_torsion_site_symmetry_4
_geom_torsion_publ_flag
Cu01 N007 C00B C00C 179.5(3) 7_566 . . . ?
Cu01 N007 C00B C00G -0.6(8) 7_566 . . . ?
Cu01 N007 C00F N008 -179.7(3) 7_566 . . . ?
Cu01 N009 C00H C00E 2.8(7) . . . . ?
Cu01 N009 C00H C00I -178.8(3) . . . . ?
Cu01 N009 C00J N00A 179.3(3) . . . . ?
Cu01 N00D C00M N00K 179.9(4) . . . . ?
Cu01 N00D C00N C00L 179.7(4) . . . . ?
Cu01 N00D C00N C00O -0.9(9) . . . 5_666 ?
O003 S002 O005 Cu01 -2.1(4) . . . . ?
O004 S002 O003 Cu01 -60.5(3) . . . 8_655 ?
O004 S002 O005 Cu01 -122.9(3) . . . . ?
O005 S002 O003 Cu01 -179.9(2) . . . 8_655 ?
O006 S002 O003 Cu01 59.4(3) . . . 8_655 ?
O006 S002 O005 Cu01 119.3(3) . . . . ?
N007 C00B C00C N008 -1.3(5) . . . . ?
N007 C00B C00C C00E 177.0(4) . . . . ?
N007 C00B C00G C00I 176.1(5) . . . . ?
N008 C00C C00E C00H -176.9(5) . . . . ?
N009 C00H C00I N00A -2.4(5) . . . . ?
N009 C00H C00I C00G 175.3(4) . . . . ?
C00B N007 C00F N008 -2.1(6) . . . . ?
C00B C00C C00E C00H 5.4(7) . . . . ?
C00B C00G C00I N00A -174.7(5) . . . . ?
C00B C00G C00I C00H 8.4(7) . . . . ?
C00C N008 C00F N007 1.4(6) . . . . ?
C00C C00B C00G C00I -3.9(7) . . . . ?
C00C C00E C00H N009 177.2(5) . . . . ?
C00C C00E C00H C00I -1.1(7) . . . . ?
C00E C00H C00I N00A 176.2(4) . . . . ?
C00E C00H C00I C00G -6.2(7) . . . . ?
C00F N007 C00B C00C 2.0(5) . . . . ?
C00F N007 C00B C00G -178.0(5) . . . . ?
C00F N008 C00C C00B 0.0(5) . . . . ?
C00F N008 C00C C00E -178.0(5) . . . . ?
C00G C00B C00C N008 178.8(4) . . . . ?
C00G C00B C00C C00E -3.0(7) . . . . ?
C00H N009 C00J N00A -2.3(6) . . . . ?
C00I N00A C00J N009 0.8(6) . . . . ?
C00J N009 C00H C00E -175.6(5) . . . . ?
C00J N009 C00H C00I 2.8(5) . . . . ?
C00J N00A C00I C00G -176.4(5) . . . . ?
C00J N00A C00I C00H 1.0(5) . . . . ?
N00K C00L C00N N00D 1.9(6) . . . . ?
N00K C00L C00N C00O -177.7(5) . . . 5_666 ?
N00K C00L C00O C00N 177.8(6) . . . 5_666 ?
C00L N00K C00M N00D -1.0(8) . . . . ?
C00M N00D C00N C00L -2.5(6) . . . . ?
C00M N00D C00N C00O 176.9(6) . . . 5_666 ?
C00M N00K C00L C00N -0.6(7) . . . . ?
C00M N00K C00L C00O 179.3(6) . . . . ?
C00N N00D C00M N00K 2.2(7) . . . . ?
C00N C00L C00O C00N -2.3(9) . . . 5_666 ?
C00O C00L C00N N00D -178.1(5) . . . . ?
C00O C00L C00N C00O 2.4(10) . . . 5_666 ?
