#------------------------------------------------------------------------------
#$Date: 2022-07-29 01:54:34 +0300 (Fri, 29 Jul 2022) $
#$Revision: 276988 $
#$URL: file:///home/coder/svn-repositories/cod/cif/7/71/08/7710841.cif $
#------------------------------------------------------------------------------
#
# This file is available in the Crystallography Open Database (COD),
# http://www.crystallography.net/
#
# All data on this site have been placed in the public domain by the
# contributors.
#
data_7710841
loop_
_publ_author_name
'Yan, Yong'
'Zhang, Ningning'
'B\"orner, Martin'
'Kersting, Berthold'
'Krautscheid, Harald'
_publ_section_title
;
 Hydroxamate based transition metal-organic coordination polymers with
 semiconductive properties
;
_journal_name_full               'Dalton Transactions'
_journal_paper_doi               10.1039/D2DT01359B
_journal_year                    2022
_chemical_formula_sum            'C14 H8 Mn N2 O8'
_chemical_formula_weight         387.16
_space_group_crystal_system      triclinic
_space_group_IT_number           2
_space_group_name_Hall           '-P 1'
_space_group_name_H-M_alt        'P -1'
_atom_sites_solution_hydrogens   mixed
_atom_sites_solution_primary     direct
_atom_sites_solution_secondary   difmap
_audit_creation_method           SHELXL-2014/7
_audit_update_record
;
2022-07-07 deposited with the CCDC.	2022-07-28 downloaded from the CCDC.
;
_cell_angle_alpha                70.725(2)
_cell_angle_beta                 74.189(2)
_cell_angle_gamma                70.343(2)
_cell_formula_units_Z            2
_cell_length_a                   6.9888(2)
_cell_length_b                   8.4994(3)
_cell_length_c                   11.9404(4)
_cell_measurement_reflns_used    15308
_cell_measurement_temperature    180(2)
_cell_measurement_theta_max      70.61
_cell_measurement_theta_min      3.99
_cell_volume                     620.01(4)
_computing_cell_refinement       'STOE X-AREA'
_computing_data_collection       'STOE X-AREA'
_computing_data_reduction        'STOE X-AREA'
_computing_molecular_graphics    'Olex2 (Dolomanov et al., 2009)'
_computing_publication_material  'Olex2 (Dolomanov et al., 2009)'
_computing_structure_refinement  'SHELXL-2014/7 (Sheldrick, 2014)'
_computing_structure_solution    SHELXS
_diffrn_ambient_temperature      180(2)
_diffrn_measured_fraction_theta_full 0.986
_diffrn_measured_fraction_theta_max 0.973
_diffrn_measurement_device_type  'STOE STADIVARI'
_diffrn_measurement_method       'rotation method, \w scans'
_diffrn_radiation_type           CuK\a
_diffrn_radiation_wavelength     1.54186
_diffrn_reflns_av_R_equivalents  0.0482
_diffrn_reflns_av_unetI/netI     0.0278
_diffrn_reflns_Laue_measured_fraction_full 0.986
_diffrn_reflns_Laue_measured_fraction_max 0.973
_diffrn_reflns_limit_h_max       2
_diffrn_reflns_limit_h_min       -8
_diffrn_reflns_limit_k_max       9
_diffrn_reflns_limit_k_min       -10
_diffrn_reflns_limit_l_max       13
_diffrn_reflns_limit_l_min       -14
_diffrn_reflns_number            11570
_diffrn_reflns_point_group_measured_fraction_full 0.986
_diffrn_reflns_point_group_measured_fraction_max 0.973
_diffrn_reflns_theta_full        67.686
_diffrn_reflns_theta_max         70.493
_diffrn_reflns_theta_min         3.988
_diffrn_source                   'GeniX 3D HF Cu'
_exptl_absorpt_coefficient_mu    9.239
_exptl_absorpt_correction_T_max  0.4871
_exptl_absorpt_correction_T_min  0.0907
_exptl_absorpt_correction_type   multi-scan
_exptl_absorpt_process_details
;
STOE X-Red32, absorption correction by Gaussian integration, analogous to
P. Coppens in: F. R. Ahmed (Editor), "Crystallographic Computing", Munksgaard,
Copenhagen (1970), 255 - 270. Afterwards scaling of reflection intensities was
performed within STOE LANA. J. Koziskova, F. Hahn, J. Richter, J. Kozisek, Acta
Chimica Slovaca, vol. 9, no. 2, 2016, pp. 136 - 140.
Finally a spherical absorption correction was done within STOE LANA.
;
_exptl_crystal_colour            brown
_exptl_crystal_density_diffrn    2.074
_exptl_crystal_description       plate
_exptl_crystal_F_000             390
_exptl_crystal_size_max          0.400
_exptl_crystal_size_mid          0.100
_exptl_crystal_size_min          0.050
_refine_diff_density_max         1.071
_refine_diff_density_min         -0.533
_refine_diff_density_rms         0.106
_refine_ls_extinction_method     none
_refine_ls_goodness_of_fit_ref   1.046
_refine_ls_hydrogen_treatment    constr
_refine_ls_matrix_type           full
_refine_ls_number_parameters     227
_refine_ls_number_reflns         2312
_refine_ls_number_restraints     0
_refine_ls_restrained_S_all      1.046
_refine_ls_R_factor_all          0.0474
_refine_ls_R_factor_gt           0.0440
_refine_ls_shift/su_max          0.000
_refine_ls_shift/su_mean         0.000
_refine_ls_structure_factor_coef Fsqd
_refine_ls_weighting_details
'w=1/[\s^2^(Fo^2^)+(0.0954P)^2^+0.2480P] where P=(Fo^2^+2Fc^2^)/3'
_refine_ls_weighting_scheme      calc
_refine_ls_wR_factor_gt          0.1203
_refine_ls_wR_factor_ref         0.1247
_reflns_Friedel_coverage         0.000
_reflns_number_gt                2148
_reflns_number_total             2312
_reflns_threshold_expression     'I > 2\s(I)'
_cod_data_source_file            d2dt01359b2.cif
_cod_data_source_block           Mn-ONDI-1
_cod_database_code               7710841
_shelx_shelxl_version_number     2014/7
_shelx_space_group_comment
;
The symmetry employed for this shelxl refinement is uniquely defined
by the following loop, which should always be used as a source of
symmetry information in preference to the above space-group names.
They are only intended as comments.
;
_shelx_estimated_absorpt_t_min   0.119
_shelx_estimated_absorpt_t_max   0.655
_shelx_res_file
;

    Mn-ONDI-1.res created by SHELXL-2014/7


TITL Mn-ONDI-1 in P-1: [Mn(C14H4N2O6)(H2O)2]
CELL 1.54186 6.9888   8.4994  11.9404   70.725   74.189   70.343
ZERR 2       0.0002   0.0003   0.0004    0.002    0.002    0.002
LATT 1
SFAC C H N O Mn
UNIT 28 16 4 16 2
SIZE 0.05 0.10 0.40
TEMP -93.15
OMIT -2 141
L.S. 10
PLAN  -5
CONF
BOND $H
list 4
MORE -1
fmap 2 53
acta

WGHT    0.095400    0.248000
FVAR       0.63533
MN1   5    0.381756   -0.149964    0.997783    11.00000    0.03063    0.02357 =
         0.01970   -0.00650   -0.00412   -0.00374
C1    1    0.440934    0.147996    0.706121    11.00000    0.02978    0.02597 =
         0.02589   -0.00808   -0.00762   -0.00595
C2    1    0.395084    0.269921    0.588246    11.00000    0.02420    0.02399 =
         0.02421   -0.00726   -0.00631   -0.00728
C3    1    0.496310    0.222336    0.481952    11.00000    0.02348    0.02402 =
         0.02747   -0.00861   -0.00606   -0.00371
AFIX  43
H3    2    0.589659    0.110539    0.485163    11.00000   -1.20000
AFIX   0
C4    1    0.461123    0.339157    0.369421    11.00000    0.02557    0.02788 =
         0.02280   -0.01164   -0.00307   -0.00648
AFIX  43
H4    2    0.531146    0.306395    0.296948    11.00000   -1.20000
AFIX   0
C5    1    0.324723    0.501227    0.364772    11.00000    0.02520    0.02552 =
         0.02113   -0.00827   -0.00355   -0.00685
C6    1    0.289191    0.626514    0.248085    11.00000    0.02640    0.02567 =
         0.02174   -0.00877   -0.00407   -0.00652
C7    1    0.034926    0.841081    0.350858    11.00000    0.02600    0.02425 =
         0.02203   -0.00728   -0.00303   -0.00783
C8    1    0.079019    0.718155    0.468368    11.00000    0.02334    0.02301 =
         0.02128   -0.00543   -0.00423   -0.00746
C9    1   -0.018410    0.765692    0.573502    11.00000    0.02469    0.02401 =
         0.02527   -0.00704   -0.00472   -0.00471
AFIX  43
H9    2   -0.111680    0.877486    0.570468    11.00000   -1.20000
AFIX   0
C10   1    0.019170    0.649664    0.685753    11.00000    0.02562    0.02789 =
         0.02200   -0.00971   -0.00299   -0.00612
AFIX  43
H10   2   -0.047624    0.684289    0.757902    11.00000   -1.20000
AFIX   0
C11   1    0.151388    0.487132    0.691733    11.00000    0.02267    0.02753 =
         0.02068   -0.00650   -0.00362   -0.00735
C12   1    0.190379    0.365855    0.810672    11.00000    0.02448    0.02945 =
         0.02435   -0.00700   -0.00446   -0.00668
C13   1    0.255737    0.435060    0.584267    11.00000    0.02344    0.02285 =
         0.02254   -0.00700   -0.00486   -0.00620
C14   1    0.220266    0.552257    0.471625    11.00000    0.02277    0.02340 =
         0.02185   -0.00798   -0.00302   -0.00637
N1    3    0.341409    0.211810    0.808277    11.00000    0.03099    0.02461 =
         0.01932   -0.00321   -0.00724   -0.00574
N2    3    0.153402    0.784769    0.247903    11.00000    0.02741    0.02419 =
         0.01903   -0.00513   -0.00562   -0.00378
O1    4    0.559935    0.004560    0.715879    11.00000    0.04715    0.02410 =
         0.03260   -0.00821   -0.01527    0.00322
O2    4    0.393067    0.108978    0.916321    11.00000    0.04096    0.02649 =
         0.02081   -0.00168   -0.01247   -0.00823
O3    4    0.096869    0.401696    0.905733    11.00000    0.03637    0.03505 =
         0.01942   -0.00721   -0.00457   -0.00286
O4    4   -0.093433    0.979539    0.340169    11.00000    0.03129    0.02352 =
         0.02501   -0.00595   -0.00601    0.00067
O5    4    0.122121    0.897372    0.139845    11.00000    0.03699    0.02896 =
         0.01616   -0.00320   -0.00482   -0.00203
O6    4    0.382748    0.595131    0.149585    11.00000    0.03656    0.02814 =
         0.02012   -0.00685   -0.00227   -0.00750

O1W   4    0.182736   -0.199525    0.907476    11.00000    0.03700    0.02981 =
         0.02539   -0.00653   -0.00977   -0.00548
AFIX  93
H1WA  2    0.121590   -0.110523    0.844492    11.00000   -1.50000
H1WB  2    0.157459   -0.310048    0.931246    11.00000   -1.50000
AFIX   0
O2W   4    0.652463   -0.324903    0.922984    11.00000    0.02987    0.03108 =
         0.02602   -0.01119   -0.00403   -0.00211
AFIX   7
H2WA  2    0.616924   -0.407746    0.913375    11.00000   -1.50000
H2WB  2    0.734746   -0.376895    0.975237    11.00000   -1.50000
AFIX   0
HKLF 4

REM  Mn-ONDI-1 in P-1: [Mn(C14H4N2O6)(H2O)2]
REM R1 =  0.0440 for    2148 Fo > 4sig(Fo)  and  0.0474 for all    2312 data
REM    227 parameters refined using      0 restraints

END

WGHT      0.0963      0.2542

REM Highest difference peak  1.071,  deepest hole -0.533,  1-sigma level  0.106
Q1    1   0.1157  0.1449  1.0041  11.00000  0.05    1.07
Q2    1   0.0669 -0.1737  0.9788  11.00000  0.05    0.53
Q3    1   0.7195 -0.1472  1.0050  11.00000  0.05    0.50
Q4    1   0.2638  0.5324  0.4192  11.00000  0.05    0.44
Q5    1   0.1668  0.4715  0.6595  11.00000  0.05    0.40
;
_shelx_res_checksum              9170
_shelx_hkl_file
;
  -4  -2   5    1.08    1.57
  -3  -1   5  727.92    5.13
  -5  -2   3  380.22    4.31
  -2   0   4  551.39    3.65
   0  -1   5   53.34    1.35
  -3  -3   6   84.69    2.51
  -1   0   4  745.83    3.59
  -4  -3   5   62.96    2.54
  -3   0   2  237.88    2.69
  -2  -2   6  245.85    3.06
  -1  -2   6  249.54    3.03
  -3   0  -1  155.81    1.46
  -2  -1   5  369.32    3.69
  -5  -2   2    1.30    2.38
  -4  -2   4    4.36    2.27
  -3   0   1  170.66    2.22
  -2  -3   6   23.78    2.02
  -1  -1   5   48.59    1.76
  -3  -2   5   21.16    2.40
  -3  -1   4  608.84    4.70
  -3   0   0   87.69    1.50
  -2   0   3  103.39    1.73
  -4  -1   2   89.24    2.72
   0  -2   5   15.50    1.22
  -5  -2   1  139.50    3.44
  -4  -3   4   85.05    3.03
  -4  -1   1  154.35    2.69
  -3  -3   5   21.63    2.12
  -2   0   2    3.55    1.33
   0  -1   4 1306.65    4.17
  -4  -2   3   36.92    2.60
  -3  -4   5    3.45    2.28
  -3  -1   3   11.51    1.96
  -2  -1   4  461.56    3.73
  -5  -3   2  366.40    4.84
  -5  -2   0  286.73    3.93
  -4  -4   4   17.65    2.57
  -1  -2   5  350.18    2.99
  -4  -1   0  299.90    3.20
  -3  -2   4    9.72    2.13
  -2  -4   5   13.97    2.32
  -2  -3   5   95.77    2.33
  -1  -3   5  727.45    4.64
  -4  -1  -1  438.56    3.25
  -5  -4   2    6.24    2.64
  -4  -3   3  147.39    3.52
  -5  -3   1  116.82    3.35
  -3  -3   4   24.56    2.38
  -3  -1   2  363.89    3.11
  -3  -5   4   59.97    2.72
  -2  -2   4  720.35    4.59
  -2  -1   3   59.49    1.87
  -4  -4   3   25.44    2.65
   0  -2   4 1483.22    4.71
  -4  -5   3   -0.03    2.59
  -3  -2   3   23.14    1.80
  -5  -3   0  265.06    3.91
  -1  -2   4    8.52    1.45
   0  -1   3 1554.73    3.97
  -4  -2   1   25.01    1.85
  -2  -5   4  130.46    3.13
  -2  -3   4  308.84    3.60
  -1  -1   3  232.11    2.19
  -4  -3   2  366.19    4.30
  -2  -4   4   11.31    2.19
  -5  -5   1   41.01    3.18
  -3  -3   3   85.28    2.16
  -2  -1   2   27.53    1.53
  -1  -4   4   73.91    2.29
  -1  -3   4  902.65    4.71
  -5  -3  -1  196.42    3.50
  -4  -4   2  118.82    3.35
  -3  -2   2   90.89    2.29
  -5  -4   0    4.35    2.69
  -4  -5   2  215.30    4.28
  -4  -2   0   15.70    1.85
  -3  -5   3  115.99    3.34
  -3  -4   3  388.47    4.32
  -3  -1   0   11.77    1.44
  -2  -2   3  295.60    2.76
  -5  -3  -2   35.94    2.34
  -4  -3   1  196.39    3.29
  -4  -2  -1  134.97    2.31
  -2  -3   3   47.09    1.99
  -5  -4  -1   23.89    2.78
  -3  -3   2   -0.19    2.02
  -2  -5   3   20.06    2.13
  -1  -1   2    4.18    1.01
  -4  -6   1    7.74    2.40
  -4  -4   1  189.74    3.52
  -3  -6   2    3.71    1.70
  -3  -1  -1  143.49    1.73
  -2  -4   3   31.67    2.19
  -2  -1   1   15.95    1.17
   0  -2   3  225.29    1.80
  -4  -5   1    3.53    2.54
  -3  -2   1   63.11    1.60
  -5  -5  -1    6.16    2.61
  -3  -4   2   21.57    2.28
  -4  -2  -2   18.05    1.39
  -2  -2   2  192.54    2.07
  -1  -3   3   10.45    1.42
  -5  -4  -2    4.93    2.19
  -2  -6   2    5.78    2.17
  -1  -4   3    6.83    1.56
   0  -3   3 1232.18    4.33
  -3  -1  -2  323.91    2.11
  -5  -5  -2    4.00    2.60
  -4  -6   0   95.97    3.42
  -4  -4   0  397.25    3.98
  -3  -3   1   12.34    1.82
  -5  -4  -3   -0.20    2.28
  -4  -5   0    8.39    2.77
  -4  -3  -1 1049.05    5.71
  -2  -5   2   15.19    2.26
  -2  -3   2  177.21    2.50
  -3  -2   2   85.11    2.24
  -2  -2   2  216.86    2.38
  -5  -5   0    4.26    2.16
  -5  -1   0    0.99    1.92
  -4  -4   1  175.91    3.23
  -4  -1   1  158.30    2.63
  -2  -4   1   97.64    2.18
  -1  -3   1  267.40    2.31
  -6  -3  -1   24.87    2.56
  -4  -7  -2   29.02    2.51
  -3   0   1  183.71    2.07
  -5  -4   0    8.43    2.55
  -4  -3   1  204.05    3.48
  -3  -4   1   87.01    2.59
  -2  -5   0  121.55    2.34
  -5  -2   0  301.73    4.02
  -4  -5   0    8.64    2.90
  -4  -6  -1   95.29    3.30
  -3  -6  -1   28.81    2.44
  -3  -5   0  241.81    3.68
  -1  -4   0   15.62    1.18
  -5  -5  -1   10.10    2.69
  -3  -3   1    9.44    1.99
  -2   0   1  850.10    3.11
  -1  -2   1  994.94    3.64
  -5  -6  -2   51.84    3.59
  -5  -1  -1    4.85    2.16
  -2  -3   1  968.71    4.48
  -6  -4  -2   31.56    2.83
  -6  -3  -2   14.39    2.54
  -4  -4   0  468.90    4.92
  -3  -2   1   75.35    2.17
  -1  -1   1    7.97    0.85
  -4  -7  -3   41.54    2.66
  -5  -4  -1   24.98    2.77
  -4  -1   0  336.38    3.34
  -5  -2  -1  181.68    3.37
  -4  -6  -2  165.44    3.85
  -4  -5  -1   42.88    2.99
  -2  -4   0  237.07    2.76
  -2  -2   1  272.39    2.30
  -2  -1   1   19.53    1.19
  -4  -3   0  287.58    3.31
  -3  -4   0  398.39    3.71
  -2  -5  -1  326.81    3.21
  -5  -5  -2   -1.52    2.88
  -3  -6  -2   45.30    2.56
  -6  -4  -3    4.35    2.50
  -5  -6  -3   32.08    3.19
  -3  -5  -1  152.70    3.25
  -3   0   0   97.28    1.56
  -6  -3  -3    1.06    2.49
  -4  -7  -4  124.39    3.36
  -5  -1  -2    3.72    1.93
  -1  -3   0  124.41    1.57
  -4  -4  -1  911.79    6.04
  -3  -3   0    0.99    1.82
  -5  -4  -2    5.11    1.87
  -4  -6  -3  222.97    4.09
  -4  -5  -2  185.31    3.70
  -2  -3   0  270.04    2.62
  -1  -4  -1   35.10    1.26
  -6  -4  -4    6.47    2.67
  -5  -6  -4   49.45    3.21
  -5  -5  -3    6.20    2.84
  -5  -2  -2   93.26    2.81
  -3  -2   0   29.42    1.68
  -3  -1   0   14.14    0.96
  -6  -3  -4    2.89    2.73
  -4  -3  -1 1033.25    5.89
  -4  -1  -1  517.18    3.68
  -3  -6  -3    1.20    2.44
  -4  -7  -5   20.62    2.61
  -3  -4  -1  501.31    4.19
  -3  -5  -2  139.97    3.00
  -2  -5  -2 1135.58    5.36
  -2  -4  -1  163.29    2.32
  -6  -4  -5    1.49    2.84
  -5  -4  -3   -2.55    2.53
  -1  -2   0  873.03    3.17
  -6  -3  -5   69.39    3.17
  -5  -6  -5   86.43    3.59
  -4  -6  -4   98.83    3.42
  -4  -4  -2 1609.34    7.38
  -5  -5  -4   19.94    2.24
  -5  -2  -3   65.07    2.66
  -4  -7  -6  155.59    4.14
  -4  -5  -3    3.46    2.34
  -3  -3  -1   21.21    1.83
  -3  -6  -4    4.95    2.44
  -3   0  -1  182.52    1.98
  -4  -3  -2 1545.06    6.95
  -6  -3  -6    7.32    2.85
  -5  -6  -6  165.02    4.52
  -5  -4  -4    0.23    2.49
  -4  -1  -2  482.53    3.55
  -5  -5  -5  132.34    3.83
  -4  -6  -5   19.28    2.96
  -3  -5  -3  211.57    3.56
  -3  -4  -2  706.45    4.76
  -3  -2  -1  317.74    2.90
  -3  -1  -1  155.23    1.98
  -2  -3  -1   77.44    1.74
  -5  -3  -4   21.16    2.93
  -5  -2  -4   19.74    2.44
  -4  -5  -4   38.71    2.66
  -4  -4  -3  797.96    5.42
  -2  -5  -3  307.33    3.19
  -1  -3  -1   81.03    1.45
  -1  -4  -2   64.38    1.65
  -3  -6  -5   66.58    3.09
  -2  -4  -2  139.39    2.20
  -5  -5  -6   80.33    3.68
  -5  -4  -5   18.45    2.82
  -4  -6  -6   24.11    2.42
  -4  -3  -3  337.98    3.85
  -3  -3  -2  185.72    2.82
  -3  -5   4   54.10    2.18
  -3  -4   4   16.18    1.73
  -1  -9   1   34.29    1.49
  -1  -5   5   46.61    2.12
   0  -4   5   61.20    2.35
   1  -5   4   61.39    2.34
  -1  -4   5  218.36    3.21
  -3  -9   1  131.88    2.55
   0  -7   3  210.95    3.08
   1  -6   3   88.91    2.49
  -2  -9   1    7.89    1.39
  -2  -6   4   30.00    2.53
  -4  -7   2  244.10    3.60
  -3  -8   2  191.70    3.16
  -1  -8   2    9.14    1.99
  -1  -6   4  125.04    2.81
  -4  -9   0   90.98    2.26
  -1  -7   3  132.17    3.03
  -4  -8   1   11.89    1.85
  -2  -8   2   59.38    2.60
  -2  -7   3   10.55    1.86
   0  -8   1    8.36    1.88
  -4  -6   2   68.78    2.40
  -3  -6   3    3.35    2.11
  -1  -9   0    8.10    1.67
  -1  -5   4  231.89    3.61
   1  -5   3 1118.75    6.64
   0  -6   3 1720.71    8.72
   1  -6   2    4.70    1.94
  -3  -5   3  121.86    2.93
   0  -7   2  705.46    5.93
  -5  -9  -2   10.44    1.32
  -3  -9   0   20.78    1.94
  -2  -9   0   63.13    2.38
  -5  -8  -1   11.74    1.81
  -3 -10  -2   12.45    1.54
  -3  -8   1    8.52    2.26
  -2  -6   3   55.50    3.00
  -1  -6   3    8.95    2.44
  -4  -9  -1   13.89    1.83
  -4  -7   1  161.52    3.46
   0  -8   0   83.30    2.81
  -4 -10  -3   18.25    2.02
  -2  -8   1  671.97    6.31
  -2  -7   2  158.49    3.92
  -1  -9  -1   38.94    2.28
  -1  -7   2  209.83    3.95
  -4  -8   0   16.34    2.03
  -2  -5   3   22.32    2.17
  -3  -6   2    3.44    2.42
   0  -7   1  119.64    3.24
  -4  -6   1    6.93    2.05
  -3 -10  -3   14.23    1.47
   0  -6   2   52.10    2.80
  -5  -9  -3    9.35    1.71
  -3  -9  -1    9.35    1.62
  -2  -9  -1  126.92    3.14
   0  -8  -1   29.51    2.34
  -5  -8  -2    0.42    1.66
  -4 -10  -4   41.22    2.13
  -3  -8   0  104.30    3.18
  -2  -6   2    8.77    2.47
  -1  -9  -2   42.48    2.46
  -1  -6   2  217.96    3.95
  -4  -7   0  153.35    3.36
  -2  -8   0  131.28    3.60
  -1  -7   1  149.82    3.63
  -4  -8  -1    6.23    2.06
  -2  -7   1   12.11    2.78
  -3 -10  -4   13.33    1.48
   0  -7   0   68.48    2.71
  -3  -9  -2   16.95    2.41
  -3  -6   1    2.43    2.37
  -2 -10  -5   12.90    1.65
  -2  -9  -2  186.77    3.65
   0  -6   1   22.18    2.12
  -5  -9  -4   17.99    1.78
  -4 -10  -5   68.17    2.53
  -1  -9  -3   81.26    2.78
   0  -8  -2   84.74    3.15
  -4  -6   0  114.20    2.84
  -5  -8  -3    6.32    1.92
  -3 -10  -5    8.52    1.52
  -3  -8  -1  116.19    3.39
  -3  -7   0   81.79    3.18
  -2 -10  -6   21.93    1.62
  -2  -8  -1   62.84    3.13
  -2  -6   1    3.45    2.33
  -1  -7   0   83.24    3.18
  -1  -6   1  126.35    3.29
  -4 -10  -6   19.37    2.07
  -4  -8  -2   14.44    2.33
  -4  -7  -1   20.88    2.41
  -2  -9  -3   24.45    2.54
  -2  -7   0   17.46    2.80
  -5  -9  -5   52.48    2.10
  -3  -9  -3    3.27    2.37
  -1  -9  -4   40.70    2.39
   0  -8  -3  151.57    3.74
   0  -7  -1    4.68    2.40
  -3 -10  -6   -0.01    1.51
  -4  -9  -4    2.46    2.19
  -1  -8  -2   18.26    2.22
  -3 -10  -7    2.61    1.50
  -3  -8  -2  112.77    3.59
  -3  -6   0   -1.80    2.15
  -5  -8  -4   29.38    2.32
  -5  -7  -3   10.69    1.91
  -4 -10  -8  138.03    2.58
  -4  -6  -1   80.21    2.77
  -3  -7  -1  101.04    3.33
  -2  -9  -4   25.08    2.53
  -2  -8  -2  187.14    4.07
  -1  -9  -5   37.67    2.12
   0  -8  -4   34.08    2.89
  -5  -9  -6   91.37    2.52
  -3 -10  -8   24.98    1.70
  -3  -9  -4    6.40    2.39
  -4  -8  -3   66.78    3.26
  -4  -7  -2   28.33    2.56
  -2  -7  -1   45.79    2.88
   0  -7  -2    3.21    2.57
  -4  -9  -5    5.74    2.24
  -1  -9  -6   99.60    2.71
  -1  -8  -3   26.21    2.57
   0  -8  -5    2.52    2.30
  -5  -9  -7   63.82    2.27
  -2  -9  -5   39.25    2.67
  -1  -9  -7  162.76    2.96
  -5  -8  -5   22.86    2.27
  -3  -9  -5    0.39    2.35
  -3  -8  -3   77.71    2.82
  -2  -8  -3  169.09    4.07
  -1  -9  -8   16.78    1.58
  -5  -7  -4    4.71    1.80
  -4  -9  -6   11.67    2.30
  -5  -9  -8   47.06    2.14
  -3  -7  -2  139.84    3.20
  -1  -8  -4   48.59    2.86
   0  -7  -3   36.07    2.48
  -4  -6  -2  150.42    3.01
  -2  -7  -2   18.47    2.68
  -5  -9  -9   27.75    2.00
  -4  -7  -3   40.84    2.21
  -3  -9  -6    0.94    2.29
  -5  -8  -6   19.54    2.21
  -4  -9  -7   64.15    2.74
  -3  -8  -4  111.52    3.66
  -2  -8  -4   27.14    3.00
  -3  -9  -7    2.29    2.32
  -2  -9 -10   27.62    1.67
  -2  -9  -8    5.52    2.11
  -1  -8  -5   85.29    3.20
   0  -7  -4   46.37    2.53
  -5  -7  -5   14.95    2.17
  -4  -9  -8    4.50    1.94
  -3  -7  -3  147.02    3.66
  -2  -9  -9   76.03    2.23
  -1  -7  -3   12.09    2.57
  -5  -8  -7    3.39    2.11
  -3  -9  -8  251.07    3.88
  -4  -9  -9  110.43    2.45
  -4  -7  -4  126.36    3.43
  -3  -9 -11   -1.18    1.47
  -3  -8  -5   88.96    3.48
  -2  -8  -5  154.98    3.82
  -2  -7  -3  114.70    3.34
  -1  -8  -6  117.21    3.34
  -4  -6  -3  174.42    2.81
  -3  -9 -10   42.71    2.05
  -3  -9  -9  121.52    2.64
  -5  -8  -8   15.02    2.19
   0  -7  -5   43.26    2.54
  -5  -7  -6   36.13    2.57
  -1  -8  -7  100.22    3.06
  -2  -8  -6  158.21    3.78
  -1  -7  -4   14.27    2.03
  -5  -8 -11    9.48    2.10
  -5  -8  -9   -2.17    2.02
  -3  -8  -6   35.11    2.92
  -3  -7  -4   53.44    2.45
  -1  -8 -10   12.45    1.99
  -1  -8  -8  162.48    3.27
  -5  -8 -10    1.06    1.75
  -4  -8  -7   15.59    2.59
  -4  -7  -5   19.83    2.75
  -2  -7  -4   10.46    2.58
  -1  -8  -9    7.10    2.05
   0  -7  -6   73.94    2.95
  -5  -7  -7   29.58    2.33
  -4  -6  -4   95.80    2.70
  -3  -8  -7   -0.28    2.76
  -2  -8 -12   49.08    1.48
  -2  -8  -7   55.05    3.13
  -4  -8  -8   27.95    2.58
  -1  -7  -5    3.88    2.08
   0  -7  -7  496.65    5.54
  -3  -7  -5    9.23    2.67
  -2  -8  -8  271.47    4.16
  -5  -7  -8  106.43    2.92
  -4  -8  -9   21.72    2.53
  -4  -7  -6  159.84    3.74
  -3  -8  -8  193.89    4.03
  -2  -8 -11   33.08    1.84
  -2  -7  -5   34.23    2.76
  -4  -8 -11    0.30    1.77
  -4  -8 -10    6.80    2.19
  -3  -8 -11    6.16    1.81
  -3  -8  -9   34.66    2.83
  -1  -7  -6   34.28    2.79
  -5  -7 -12   11.11    1.93
  -5  -7  -9   17.61    2.37
  -3  -8 -10   50.81    2.62
  -5  -7 -11   13.40    2.02
  -5  -7 -10    4.15    2.06
  -4  -6  -5   16.25    1.74
  -3  -7  -6    6.60    3.05
  -1  -7 -12    5.48    1.27
  -5  -6  -7  301.45    3.90
  -2  -7  -6   33.00    2.89
  -1  -7  -7  763.02    6.43
  -2  -7 -13    5.77    1.15
  -4  -7 -13   36.11    1.92
  -1  -7 -11   19.46    1.99
  -1  -7  -8    4.47    2.57
  -3  -7  -7    6.00    2.54
  -2  -7  -7   93.83    3.46
   0  -6  -6  730.33    6.14
  -5  -6  -8   25.52    2.33
  -4  -6  -6   32.01    2.45
  -3  -7 -13   12.30    1.58
  -1  -7 -10    2.22    2.19
  -1  -7  -9   14.76    2.43
  -4  -7 -12  100.56    2.48
  -5  -6 -12    3.76    1.64
  -5  -6  -9   71.71    2.63
  -4  -7 -11   95.61    2.88
  -4  -7 -10  108.80    3.03
  -3  -7  -8   53.57    3.12
  -2  -7  -8    2.93    2.81
   0  -6  -7    5.75    2.05
  -3  -7 -12  334.18    3.92
  -1  -6 -13    6.63    1.14
  -5  -6 -11   79.87    2.71
  -5  -6 -10  104.59    3.01
  -3  -7  -9   61.67    3.13
  -2  -7 -11    0.11    2.39
  -2  -7 -10    0.78    2.51
  -2  -7  -9   10.81    2.86
   0  -6 -10   72.66    2.57
   0  -6  -8   58.70    2.59
  -4  -6  -7  100.55    3.07
  -3  -7 -11   74.24    2.94
  -3  -7 -10  156.27    3.77
  -3  -6 -14    0.40    1.30
  -3  -6  -6   21.38    2.36
  -1  -6  -6  383.50    4.48
   0  -6  -9   88.09    2.83
  -4  -6 -13   30.98    1.94
  -4  -6  -8   24.15    2.77
  -1  -6 -12    4.97    1.84
  -5  -5 -12  259.51    3.18
  -3  -6  -7    5.31    2.54
  -2  -6 -13   -0.83    1.74
  -1  -6  -7   77.08    2.54
  -5  -5  -9   34.75    2.31
  -4  -6  -9  105.12    3.24
  -3  -6 -13   15.14    1.89
  -5  -5 -11   51.91    2.46
  -5  -5 -10   46.22    2.51
  -2  -6  -7   29.23    2.67
  -1  -6 -11  208.47    3.79
  -1  -6  -8  106.29    3.44
   0  -5 -12    6.27    1.46
  -3  -6  -8   18.35    2.78
  -1  -6 -10   71.60    3.06
  -1  -6  -9   12.62    2.72
  -3  -6 -12   29.57    2.46
  -2  -6 -12    2.11    2.28
  -2  -6  -8   28.00    2.74
  -4  -5  -7   51.03    2.45
  -3  -6  -9   13.44    2.75
  -3  -5 -14   21.85    1.61
  -2  -5 -14   74.26    1.81
  -3  -6 -11   13.58    2.76
  -3  -6 -10   14.27    2.80
  -2  -6 -11   20.57    2.89
  -2  -6 -10   28.67    3.06
  -2  -6  -9    3.26    2.92
  -1  -5 -13    4.09    1.82
   0  -5 -11   22.78    2.46
  -4  -4 -14   20.85    1.49
  -4  -5  -8    3.09    2.24
   0  -4 -13   76.81    1.76
  -4  -5 -12    1.29    2.14
  -1  -4 -14    0.06    1.08
   0  -5 -10    3.76    2.45
   0  -5  -9    6.67    2.10
   0  -5  -8   -0.01    2.27
  -4  -5  -9    6.58    2.48
  -3  -5 -13    3.98    2.04
  -2  -5 -13   51.24    2.25
  -4  -5 -11    0.10    2.68
  -4  -5 -10   -0.43    2.48
  -1  -5 -12    7.85    2.46
  -3  -4 -14   96.80    2.20
  -4  -4 -13   96.66    2.33
  -3  -5 -12  159.23    3.50
  -2  -4 -14   22.14    1.71
  -1  -5 -11   74.59    3.09
  -3  -5  -8  255.77    3.87
  -2  -5 -12   43.28    2.69
  -1  -5  -8  477.19    5.08
   0  -4 -12   40.22    2.23
  -3  -5 -11   59.50    3.05
  -3  -5  -9  136.47    3.48
  -1  -5 -10   71.84    3.10
  -1  -5  -9   56.25    3.17
  -4  -4 -12  136.58    3.12
  -3  -5 -10   72.22    3.28
  -2  -5 -11   50.03    3.13
  -2  -5  -8  190.32    3.35
  -1  -4 -13   10.22    1.97
  -4  -4  -8  188.14    3.34
  -2  -5 -10  110.80    3.75
  -2  -5  -9  111.42    3.43
  -3  -9  -7    2.27    2.38
  -1  -8  -8  159.97    3.42
  -1  -8  -7   90.71    3.04
  -4  -8  -4   91.85    2.65
  -3  -8  -4  123.04    3.65
  -5  -9  -8   49.48    1.91
  -5  -8  -5   21.03    2.11
  -4  -9  -7   66.46    2.65
  -3  -9  -9  132.76    3.01
  -3  -9  -8  269.44    4.03
  -2  -8  -5  157.51    3.93
  -1  -7  -4   12.03    2.78
  -5  -9 -10   16.57    1.60
  -4  -9  -8    0.03    1.75
  -2  -8 -11   25.86    1.59
  -2  -7  -3  118.18    3.42
  -4  -9 -10   17.17    1.56
  -4  -9  -9  100.73    2.64
  -4  -7  -3   40.34    2.44
  -2  -8  -6  148.52    3.76
  -4  -8  -5   15.29    2.37
  -3  -8  -5   96.47    3.37
  -3  -7  -3  153.55    3.54
  -5  -8  -6   19.43    2.24
  -2  -8 -10   11.03    1.80
  -6  -8  -8   13.89    1.54
  -3  -8 -12    5.29    1.17
  -2  -8  -7   50.88    2.49
   0  -6  -5    7.21    1.65
  -3  -8  -6   36.65    2.98
  -2  -8  -9    9.96    2.34
  -2  -7  -4   10.34    2.48
  -6  -8  -9   42.13    1.86
  -1  -7  -6   31.76    2.36
   0  -6  -6  654.96    6.11
  -6  -8 -10    3.25    1.67
  -4  -7  -4  120.89    3.03
  -1  -7  -9   12.65    2.12
  -1  -7  -7  713.75    6.35
   0  -6  -7    1.99    1.58
  -5  -8  -7    2.81    2.14
  -3  -8 -11    3.75    1.64
  -3  -8  -7    5.94    2.79
  -2  -7 -12    0.49    1.24
  -1  -7  -8    3.40    2.29
  -5  -7  -5   17.53    2.30
  -4  -8 -12    1.30    1.30
  -2  -7  -5   34.69    2.83
  -5  -8  -8    9.36    2.28
  -4  -8  -7   16.74    2.56
  -3  -8 -10   58.28    2.69
  -3  -8  -8  204.75    4.16
  -3  -8  -9   28.13    2.54
  -6  -7  -7    3.00    1.76
  -4  -8 -11    1.10    1.66
  -4  -8  -8   22.00    2.67
  -5  -8 -10   -1.23    1.86
  -4  -8 -10    9.19    2.17
  -4  -8  -9   20.54    2.52
  -4  -7  -5   18.66    2.76
  -3  -7  -5    9.47    2.52
  -2  -7 -11   -0.92    2.07
  -2  -7  -6   34.85    2.99
  -5  -7  -6   40.72    2.48
  -2  -7  -7   96.96    3.48
  -6  -7  -8   88.86    2.43
  -2  -7 -10    2.24    2.37
  -3  -7 -12  317.08    3.67
  -3  -7  -6    8.38    2.69
  -2  -7  -9   13.19    2.51
  -1  -6 -10   56.28    2.64
  -6  -7 -11    1.00    1.93
  -6  -7  -9   -0.34    1.82
  -4  -6  -4   96.75    2.77
  -6  -7 -10   -1.62    1.69
  -5  -7  -7   33.69    2.71
  -1  -6  -9   11.20    2.31
  -1  -6  -7   76.88    2.95
  -5  -6  -5   88.56    2.77
  -3  -7  -7    8.24    2.22
  -1  -6  -8   96.43    3.09
  -5  -7 -12   11.09    1.48
  -4  -7 -12  102.56    2.58
  -4  -7  -7  139.86    3.61
  -2  -6 -12    1.31    1.65
  -5  -7  -8  124.17    3.30
  -3  -7 -10  180.24    3.88
  -3  -7  -9   61.02    3.19
  -3  -7  -8   48.83    2.51
  -5  -7 -11   12.94    1.95
  -4  -7  -8   77.46    3.21
  -3  -6 -13   12.15    1.62
  -5  -7 -10    3.52    2.25
  -4  -7 -11   88.06    2.62
  -4  -6  -5   15.92    2.37
  -4  -7 -10  110.00    3.43
  -4  -7  -9  116.24    3.02
  -2  -6 -11   23.96    2.44
  -5  -6  -6  185.07    3.61
  -5  -6 -13    2.99    1.36
  -2  -6 -10   32.64    2.78
  -2  -6  -7   31.31    2.56
  -6  -6 -11    6.17    1.72
  -6  -6  -9   10.42    2.20
  -3  -6 -12   28.09    2.39
  -3  -6  -6   19.00    2.47
  -2  -6  -9    1.56    2.90
  -6  -6 -10   24.19    2.30
  -4  -6  -6   30.09    2.62
  -5  -6  -7  370.12    4.69
  -5  -6 -12    4.32    1.77
  -4  -6 -12   83.97    2.68
  -3  -6  -7    5.94    2.40
  -1  -5  -9   60.10    2.83
  -5  -6  -8   31.55    2.67
  -2  -5 -12   38.89    2.17
  -5  -6 -11   92.29    2.95
  -3  -6 -10   11.49    3.41
  -3  -6  -8   19.46    2.83
  -3  -5 -13    4.83    1.68
  -3  -4 -14   69.50    1.68
  -5  -6 -10  120.65    3.56
  -4  -6 -11   75.12    3.17
  -4  -6  -8   25.87    2.93
  -3  -6  -9   10.10    2.44
  -5  -5 -13  182.56    2.76
  -4  -6 -10   79.30    3.48
  -4  -6  -9  105.08    3.51
  -6  -5  -8   67.26    2.70
  -4  -5 -13    4.42    1.88
  -4  -4 -14   24.83    1.39
  -2  -5 -11   51.46    2.69
  -6  -5 -11    6.73    1.85
  -5  -5  -6   84.31    3.06
  -6  -5 -10   86.23    2.86
  -6  -5  -9  122.65    3.00
  -3  -5 -12  165.61    3.29
  -5  -5 -12  314.64    3.81
  -2  -5 -10  116.63    3.49
  -3  -3 -14    5.26    1.07
  -2  -5  -9  122.91    3.48
  -5  -5  -7  123.93    2.93
  -4  -5 -12    3.80    1.54
  -2  -4 -12   36.56    2.52
  -5  -5 -11   58.97    2.89
  -5  -4 -13    2.85    1.58
  -4  -3 -14    5.63    1.07
  -3  -4 -13  161.90    2.87
  -5  -5  -8  119.83    3.38
  -2  -3 -13    1.13    1.42
  -1  -4  -9   34.03    2.34
  -6  -4 -11    1.57    1.98
  -5  -5 -10   57.16    2.45
  -4  -5 -11   -1.93    2.11
  -4  -4 -13   97.07    2.55
  -3  -5 -10   88.14    3.63
  -3  -5  -8  249.47    4.06
  -6  -4  -8   12.71    2.21
  -4  -5 -10    0.31    3.07
  -4  -5  -8    0.79    2.55
  -3  -5  -9  134.66    3.19
  -6  -4 -10   11.44    2.49
  -6  -4  -9   14.71    2.43
  -6  -3 -12    5.44    1.70
  -4  -5  -9    9.35    2.64
  -2  -4 -11   15.54    2.23
  -5  -4 -12  205.63    3.38
  -3  -4 -12  425.35    4.59
  -5  -4  -6   78.36    2.60
  -5  -3 -13   22.24    1.52
  -6  -2 -12    5.76    1.45
  -4  -4 -12  139.67    3.15
  -3  -3 -13   13.29    2.24
  -6  -3 -11   22.47    2.03
  -5  -4 -11  135.25    3.19
  -4  -3 -13   54.20    2.22
  -2  -4 -10   25.87    2.05
  -2  -3 -12   17.61    2.10
  -2  -2 -13   22.81    1.51
  -5  -4  -7   38.43    2.55
  -5  -2 -13    6.79    1.39
  -6  -3 -10   20.09    2.39
  -5  -4 -10    5.11    2.73
  -4  -4 -11   79.08    3.25
  -2  -4  -9   18.53    1.87
  -6  -3  -8    0.21    2.09
  -5  -4  -8   49.79    2.83
  -5  -3 -12   69.26    2.33
  -6  -3  -9   11.45    2.30
  -6  -2 -11   21.88    1.71
  -3  -4 -10   16.81    2.97
  -4  -4 -10   28.19    2.49
  -4  -2 -13   17.91    1.83
  -3  -3 -12    9.67    2.44
  -3  -2 -13  112.41    2.57
  -2  -1 -13   40.25    1.56
  -6  -1 -11   30.89    1.86
  -4  -4  -9   40.83    3.04
  -4  -4  -8  179.00    3.50
  -4  -3 -12  127.33    3.09
  -3  -4  -9    5.86    2.04
  -2  -3 -11   91.84    2.79
  -5  -3 -11  131.36    3.15
  -6  -2 -10   52.83    2.41
  -5  -2 -12   38.36    1.90
  -4  -1 -13   26.18    1.54
  -2  -2 -12   12.53    1.92
  -3  -1 -13   52.09    2.00
  -6  -2  -9   53.80    2.65
  -6  -2  -8   73.29    2.74
  -5  -3 -10   78.49    3.20
  -4  -3 -11  191.07    3.82
  -2  -3 -10   32.94    2.50
  -6  -1 -10   32.83    1.84
  -5  -3  -9  399.10    4.92
  -5  -3  -7    7.90    2.16
  -5  -1 -12   13.70    1.49
  -5   0 -12    7.62    1.34
  -3   0 -13   80.52    1.67
  -6   0 -10    1.37    1.43
  -5  -3  -8  294.30    4.39
  -4  -2 -12   26.22    2.30
  -3  -2 -12   45.07    2.59
  -5  -2 -11   37.33    2.27
  -4  -3 -10  179.30    3.83
  -3  -3 -10   91.77    3.32
  -1  -2 -10  997.50    5.96
  -6  -1  -9   85.71    2.66
  -2  -2 -11   16.63    2.24
  -2  -1 -12    7.87    2.01
  -6  -1  -8  170.85    3.36
  -4  -3  -9   63.64    3.10
  -6   0  -9    3.06    1.76
  -5  -2 -10   89.98    3.06
  -4  -3  -8  114.20    2.91
  -4  -1 -12   40.11    2.20
  -3  -3  -9    3.26    2.43
  -5  -1 -11  114.34    2.59
  -4  -2 -11   41.46    2.75
  -6   0  -8   -0.93    2.33
  -5   1 -11   88.50    1.89
  -4   0 -12  103.34    2.12
  -4   1 -12    6.73    1.27
  -5  -2  -9  183.69    3.25
  -5   0 -11    1.12    1.62
  -2  -2 -10   71.43    2.59
  -2   0 -12    1.29    1.76
  -5  -2  -8  165.50    3.82
  -5  -2  -7  207.70    3.39
  -2   1 -12   36.02    1.78
  -4  -2 -10   25.62    2.12
  -2  -1 -11   15.72    2.26
  -5   2 -10   20.85    1.43
  -4  -1 -11   49.86    2.58
  -3  -2 -10  107.10    2.79
  -1  -1 -10  992.76    5.84
  -4  -2  -9    5.15    2.63
  -3  -1 -11   46.25    2.78
  -5  -1  -9   16.30    2.56
  -4   2 -11    2.28    1.13
  -4   0 -11   72.77    2.51
  -3  -2  -9    1.57    2.27
  -5  -1  -8    6.13    2.67
  -4  -2  -8    0.81    1.50
  -4  -1 -10   54.17    2.89
  -4   1 -11    3.89    1.74
  -1   1 -11  133.37    2.46
  -2  -1 -10   62.16    2.66
  -2   0 -11    8.41    2.13
  -5  -1  -7   35.20    2.52
  -5  -1  -6   36.87    2.26
  -5   0  -9   36.69    2.56
  -3   0 -11   39.44    1.92
  -2   3 -11    7.18    1.22
  -5   2  -9    6.27    1.39
  -4   3 -10   31.02    1.45
  -3  -1 -10   32.33    2.17
  -5   1  -9   70.86    2.39
  -5   3  -8   68.70    1.81
  -4  -1  -9   97.27    3.13
  -4   0 -10   42.76    2.60
  -3   1 -11    8.13    1.97
  -3   2 -11   64.56    1.95
  -2   1 -11   55.50    2.27
  -1   0 -10   84.04    2.45
  -5   0  -8   10.65    2.37
  -2   2 -11   79.18    2.14
  -4   2 -10    2.34    1.51
  -2  -1  -9  182.75    3.10
  -5   0  -7   53.83    2.73
  -4  -1  -8   30.87    2.37
  -4   1 -10    1.39    1.47
  -3  -1  -9  164.49    3.37
  -5   0  -6    9.22    2.04
  -5   1  -8  127.20    2.77
  -5   2  -8   19.54    1.82
  -3   0 -10   21.39    1.95
  -2   0 -10    9.61    1.83
  -5   3  -7    3.98    1.40
  -4   0  -9   38.42    2.73
  -2   4 -10   11.27    1.15
  -1   1 -10  159.10    2.82
  -3   3 -10    3.49    1.44
  -1   0  -9  257.30    3.22
  -5   1  -7  128.87    2.84
  -5   2  -7   49.62    2.70
  -4   3  -9   36.77    1.59
  -3   1 -10  149.79    2.98
  -4   1  -9   14.64    2.03
  -3   2 -10   24.86    2.02
  -2   1 -10   81.70    2.52
  -1   2 -10   72.33    2.16
  -1   3 -10   46.35    1.86
  -5   1  -6  105.56    2.98
  -5   3  -6    4.78    1.64
  -4   0  -8   47.06    2.55
  -4   2  -9    0.04    1.61
  -3   0  -9    6.93    2.11
  -2   3 -10    7.60    1.66
  -5   2  -6  108.76    2.99
  -3   4  -9    0.95    1.19
  -2   2 -10  109.56    2.56
  -1   5  -9   59.82    1.42
  -2   5  -2   48.01    2.17
  -1   7   0   85.46    2.60
   0   6  -1   17.37    1.61
   0   9   4    5.65    1.62
   2   7   2   20.15    1.78
  -2   6  -1    2.70    1.49
  -1   9   5    0.26    1.19
  -1   6  -1   29.02    2.32
  -1   8   2   72.25    2.37
   0   8   2  122.80    2.84
   1   9   5   38.81    1.98
  -3   6   0   88.64    2.20
  -3   7   2    3.00    1.37
  -2   8   3   91.66    2.04
  -1   9   6    3.41    1.16
   2   8   4   30.34    1.98
  -3   5  -1   14.51    1.61
   0   9   5   38.67    1.83
   1   8   3   28.03    2.25
   1   9   6   95.00    2.07
   0   7   1    5.00    2.26
   2   7   3  103.13    2.46
  -2   8   4    9.52    1.09
  -1   7   1   74.74    2.45
  -1   8   3   17.24    2.13
   0   6   0  189.70    3.09
   1   9   7  138.64    2.24
   1   9   8   18.36    1.37
   2   8   5  123.84    2.51
  -4   6   3   25.39    1.34
  -3   7   3    4.34    1.53
  -2   5  -1   56.31    1.99
  -2   6   0   13.70    1.99
   0   8   3  184.25    2.82
   0   9   7   21.37    1.29
   0   9   8   57.43    1.39
   1   7   2   26.73    2.23
  -3   6   1   69.99    2.29
  -1   6   0   47.11    2.32
   1   8   4   44.14    2.33
  -2   8   5   12.03    1.40
  -3   7   4    3.53    1.38
  -1   8   4   59.05    2.21
  -4   6   4   49.98    1.41
  -3   5   0   20.29    1.74
  -2   8   7   47.52    1.47
   0   7   2    8.08    2.25
   0   8   4   48.62    2.45
   2   7   4    6.34    1.56
  -1   7   2   35.64    2.32
  -4   6   5   75.61    1.64
  -3   7   5   -0.56    1.17
   1   7   3   12.28    2.05
   1   8   5   81.48    2.56
  -3   6   2  222.32    3.00
  -2   7   3  122.33    2.54
  -1   8   5   44.63    2.04
  -4   5   2   -0.94    1.46
  -3   7   6   52.49    1.66
  -2   5   0   86.62    2.12
  -1   6   1   47.96    2.31
   0   8   5   -0.77    1.89
  -1   8   6   22.82    1.78
   1   8   6  111.60    2.65
  -1   7   3   62.28    2.54
   0   7   3   36.00    2.46
  -3   5   1   52.00    2.14
  -2   7   4   34.53    2.16
  -1   8   7   54.17    1.77
  -1   8   9    6.31    1.08
   1   7   4   10.49    1.99
  -3   6   3  122.73    2.55
  -1   8   8   65.12    1.74
   1   8   7   84.53    2.29
   1   8  10   10.11    1.21
  -4   5   3    0.70    1.43
   0   8  10    2.53    0.94
   1   8   8  143.31    2.57
   1   8   9    5.23    1.32
  -2   7   5   17.60    1.44
  -1   6   2   24.66    1.70
  -1   7   4  141.10    2.62
   0   7   4   44.66    2.51
   0   8   8    1.08    1.55
   0   8   9    0.98    1.40
  -3   6   4   76.58    2.20
  -2   5   1  387.71    3.48
   1   7   5    5.37    1.92
  -4   5   4   10.75    1.51
  -2   7   6   30.72    2.02
  -3   5   2   87.76    2.00
  -2   6   3   -1.31    2.08
  -2   7   9    5.11    1.22
  -3   6   5   73.43    2.16
  -2   7   7   22.24    1.71
  -2   7   8    4.05    1.36
  -1   7   5   65.17    2.13
   0   7   5   46.55    2.52
  -4   5   5   19.32    1.66
  -3   6   9   59.09    1.50
  -1   6   3    3.63    2.05
   1   7   6   32.53    2.14
  -4   5   6   -0.14    1.55
  -4   5   7    7.02    1.28
  -2   6   4   97.66    2.78
  -1   7   6    4.21    1.63
  -3   5   3   23.65    2.10
  -1   7  10  282.16    2.72
   1   7   7  712.50    5.08
  -1   7   7   70.45    2.50
   0   7  11   58.29    1.56
  -1   7   8   21.95    1.91
  -1   7   9   85.94    2.21
   1   7   8    3.39    1.70
  -2   6   5  121.25    2.94
  -1   6   4    2.57    1.46
   1   7   9   10.00    1.69
   1   7  10    1.48    1.55
  -3   5   4   33.71    2.18
   0   7   8   51.97    2.46
   0   7   9   73.68    2.26
   0   7  10   90.02    2.39
  -3   4   2   14.99    1.83
  -4   4   4    8.56    1.76
  -2   6   6    6.83    2.07
  -2   6  10    6.84    1.37
  -3   5  10    7.70    1.30
  -1   6   5   42.23    2.29
  -3   5   5  189.48    3.11
  -2   6   7   13.18    2.15
  -2   6   8    3.86    1.96
  -2   6   9    7.88    1.83
  -4   4   5    7.29    1.71
   0   6  12   49.72    1.67
  -4   4   6   28.30    2.11
  -4   4   8   13.65    1.35
  -3   5   9    4.55    1.52
  -1   6   6  548.81    4.79
  -4   4   7   29.40    1.79
  -3   4   3   36.15    1.99
  -3   5   8   87.50    2.37
  -2   5   4  293.02    3.25
  -1   6   7  263.22    3.73
   1   6   7   80.61    2.44
  -1   6  10   56.45    2.21
   1   6  11  198.98    2.61
  -2   5  11   28.64    1.32
  -1   6   8   87.38    2.31
  -1   6   9   12.23    2.15
   0   5  13    4.14    1.06
   0   6  11   55.68    2.19
   1   6   8   97.23    2.66
  -2   5   5  508.63    4.29
   1   6   9    9.13    1.98
   1   6  10   65.59    2.30
  -3   4   4   48.95    2.25
   0   6   8   52.88    2.16
   0   6   9   89.53    2.72
   0   6  10   76.96    2.24
  -4   3   4   79.25    2.27
  -2   5   6   48.92    2.74
  -4   3   9   42.31    1.52
  -3   4  10    6.69    1.52
  -2   5  10   62.61    2.25
  -3   4   5  956.69    6.19
  -2   4  12   33.21    1.34
  -2   5   7   96.33    2.94
  -2   5   9   84.97    2.82
  -4   3   5  579.62    4.56
  -2   5   8  117.87    3.01
  -1   4  13   64.61    1.36
  -4   3   6  221.89    3.14
  -4   3   8   95.31    2.30
  -3   4   6   33.92    2.44
  -3   4   9    2.50    1.89
  -1   5  11   36.57    2.23
   0   5  12    4.09    1.60
  -4   2  10   32.06    1.54
  -4   3   7  131.22    2.70
  -3   4   8    2.34    2.15
  -1   5   6  233.32    3.26
  -3   3  11   20.09    1.59
  -1   5   7   15.44    2.53
  -1   5  10   88.41    2.88
   0   4  13   91.69    1.88
   1   5  11   77.65    2.39
  -2   4  11   42.10    1.96
  -1   5   8   84.67    3.09
  -1   5   9  254.41    4.08
   0   5  11   23.28    2.22
   0   5   7   11.21    1.78
   1   5  10   67.58    2.41
   0   5   8   -0.11    2.37
   0   5  10    1.97    2.47
   1   5   9   52.18    2.31
  -4   2   9   26.73    1.69
  -3   3  10   51.78    2.04
  -2   3  12    2.96    1.17
  -2   4  10   61.27    2.65
   0   5   9    5.17    1.88
  -2   4   6   80.02    2.85
  -1   3  13   13.15    1.13
  -4   1  10    2.23    1.61
  -4   2   8   48.52    2.74
  -2   4   7   52.24    2.85
  -2   4   9   38.53    2.78
  -4   2   5   34.27    2.10
  -3   3   5  497.37    4.25
  -3   3   9    4.04    2.27
  -2   4   8   42.53    2.81
  -1   4  11  208.70    3.36
   0   4  12   42.80    2.48
  -4   2   6   27.43    2.45
  -4   2   7   27.62    2.45
  -3   2  11   19.04    1.51
  -3   3   6  282.00    3.57
   0   3  13   35.54    1.66
  -2   3  11   37.82    2.14
  -1   4  10   26.92    2.79
   0   4  11   46.74    2.59
   1   4  11   51.05    2.26
  -4   1   9   12.86    1.83
  -2   2  12   25.53    1.43
  -1   4   7   40.76    1.94
  -1   4   8  115.78    3.28
  -1   4   9  129.17    3.58
  -4   0  10   42.37    1.60
  -3   2  10   78.01    2.42
   0   4  10   18.78    2.58
  -2   3  10   38.94    2.13
   1   4  10   13.93    2.21
  -4   1   8   47.11    2.34
  -3   1  11   43.68    1.67
   0   4   9   53.12    2.92
   1   4   9   29.72    2.14
  -3   2   9  551.47    4.85
  -2   3   9    9.04    2.88
   0   2  13   92.59    2.02
   0   3  12   87.52    2.55
   1   3  12  121.99    2.51
  -4  -1  10   18.38    1.40
  -4   1   7   42.06    2.58
  -2   3   8    4.67    2.43
  -1   3  11   57.05    2.15
  -4   1   5   35.60    2.12
  -4   1   6   53.65    2.47
  -2   1  12   27.85    1.47
  -2   2  11   88.52    2.63
  -2   3   7    0.34    1.77
  -4   0   9   92.29    2.32
  -3   0  11    7.53    1.35
  -3   2   6   74.44    2.62
  -1   3  10  269.88    4.15
   0   3  11  189.86    3.60
  -3   1  10    0.78    1.47
  -1   0  13  104.26    1.64
   1   3  11    8.13    1.88
  -2   2  10   56.03    2.78
  -1   3   9    1.35    2.60
   0   1  13    2.90    1.29
  -4   0   8   86.85    2.65
  -2   0  12    6.52    1.14
  -4  -1   9   73.17    1.95
  -3  -1  11   37.71    1.67
  -1   3   8    4.67    1.67
   0   2  12   79.77    2.62
   0   3  10  241.93    4.00
   1   2  12   11.36    1.82
   1   3  10  229.43    3.28
  -3   1   9    9.06    2.29
  -2   1  11   31.74    2.20
  -1   2  11   30.22    2.47
   0   0  13   85.79    1.61
  -4   0   7   88.05    2.79
  -2  -1  12   29.46    1.44
  -2   2   9   52.37    2.41
   0   3   9  283.92    4.06
  -3   0  10    3.38    1.84
  -4  -2   9   -0.04    1.14
  -4   0   5   12.16    1.94
  -4   0   6   61.73    2.52
  -2   2   8   28.27    2.06
  -4  -3   9   21.41    1.54
  -1   2  10   -0.90    2.57
   0   2  11   61.82    2.86
  -4  -1   8   37.64    2.20
  -3   1   7  150.59    3.40
  -2   1  10   11.31    2.37
   0   1  12   18.60    1.91
   1   2  11   17.91    1.98
  -3   1   6  165.87    2.74
  -2   0  11    7.13    1.75
  -1   0  12   84.49    2.12
   1   1  12   11.15    1.60
  -3  -1  10   78.79    2.17
  -3   0   9  117.71    2.81
  -1   1  11   28.53    2.31
  -1   2   9   56.08    2.74
  -4  -1   7   41.33    2.20
   0   2  10   84.20    2.90
  -2   1   9   41.67    2.61
  -1  -1  12    3.42    1.40
  -4  -2   8    0.10    1.57
  -3  -2  10   24.99    1.60
  -2  -1  11   13.10    1.53
   0   0  12  227.91    3.03
   1   2  10 1027.55    5.94
  -4  -1   6   58.19    2.31
  -3  -3  10   48.18    1.61
   1   0  12   18.55    1.44
  -2  -3  11    1.18    1.07
  -2  -2  11   13.52    1.38
  -2   0  10   17.34    2.28
  -2   1   8   87.27    2.95
  -1   1  10  175.34    3.39
   0   1  11   15.36    1.75
   0   2   9   49.74    2.27
  -4  -4   8   36.03    1.45
  -4  -3   8   22.51    1.58
  -4  -1   5   55.53    2.18
  -3  -1   9   89.12    2.51
  -1   0  11  198.53    3.09
   0  -2  12   11.90    1.19
   0  -1  12   20.57    1.55
   1   1  11   24.40    2.03
  -4  -2   7    2.54    1.73
  -3   0   7   18.00    2.40
  -4   4   9    4.14    1.23
  -3   4  11   15.41    1.15
  -3   5   6  248.55    3.38
  -2   5   4  286.35    3.12
   1   5  10   68.55    2.58
  -3   5   7  185.31    3.01
   0   5  11   22.15    2.04
  -5   3   7   -1.23    1.14
  -4   4   8   11.03    1.50
  -2   5  10   66.73    2.16
   1   5   8  432.97    4.57
   1   5   9   58.57    2.71
  -4   4   5    6.97    1.77
  -2   5   5  545.08    4.70
   0   4  12   42.18    1.71
  -4   4   6   32.57    2.03
  -4   4   7   34.28    1.99
  -1   4  12  229.00    2.54
   0   5  10    3.06    2.16
  -2   5   9   82.77    2.25
  -1   5  10   93.06    2.80
  -3   4  10    5.46    1.07
  -2   5   7  102.06    3.09
  -2   5   8  125.54    3.07
   0   5   7   12.09    2.10
  -2   4  11   45.82    1.87
  -1   5   6  220.83    3.13
  -1   5   9  280.77    3.97
   0   5   8    3.53    2.25
  -3   4   4   51.33    2.21
  -2   3  12    3.61    1.09
  -1   5   7   12.99    2.33
  -1   5   8   83.47    2.90
  -3   3  11   22.43    1.32
  -3   4   9    3.76    1.75
   0   4  11   40.32    2.24
  -1   4  11  211.25    3.10
   1   4   9   32.23    2.21
  -5   2   8    4.31    1.33
  -3   4   5  973.35    6.02
  -1   3  12  120.24    2.18
  -3   4   6   34.26    2.58
  -3   4   8    3.71    1.64
  -2   4  10   59.12    2.43
   0   4  10   20.73    2.22
  -5   2   7   -0.69    1.73
  -4   2  10   33.60    1.67
  -4   3   4   80.50    2.40
  -2   2  12   25.78    1.46
  -3   3  10   48.15    1.99
  -2   3  11   41.52    1.98
  -2   4   9   36.14    2.74
   0   4   9   55.21    2.65
  -5   2   6    4.43    2.02
  -4   3   5  603.24    4.62
  -4   3   7  155.56    2.81
   0   3  11  187.77    3.05
  -5   2   5    3.14    1.70
  -4   3   6  220.77    3.34
  -3   2  11   16.92    1.40
  -2   4   6   85.01    2.77
  -2   4   7   56.55    2.90
  -2   4   8   44.04    2.35
  -1   2  12   18.22    1.42
  -1   4   9  127.33    3.29
  -1   3  11   65.02    2.37
  -1   4   8  125.67    3.25
  -3   3   9    0.73    2.37
  -2   1  12   26.84    1.32
  -1   4   7   39.23    2.27
  -4   2   9   25.32    1.71
  -2   3  10   44.74    2.35
  -6   0   6    9.12    1.14
  -5   1   8  162.58    2.20
  -4   1  10    0.51    1.17
  -2   0  12    5.85    0.82
   0   3  10  236.26    3.37
  -5   0   9   13.14    1.22
  -3   3   8   15.23    2.36
  -1   3  10  276.95    3.64
  -3   1  11   39.08    1.51
  -3   2  10   82.70    2.33
  -4   2   8   54.75    2.33
  -3   3   5  491.26    4.40
  -3   3   7  249.35    3.53
  -2   3   9    7.66    2.40
  -1   2  11   35.17    2.10
   0   3   9  278.39    3.59
  -5   1   7   51.71    2.09
  -4   0  10   42.16    1.38
  -2   3   8    6.71    1.89
  -5   1   6    6.30    1.87
  -4   1   9    8.16    1.72
  -4   2   4  155.56    2.96
  -4   2   6   33.42    2.61
  -3   2   9  551.19    4.69
  -2   1  11   28.73    2.11
  -2   2  10   56.94    2.47
  -2   3   7    0.95    2.49
  -1   3   8    3.24    1.99
   0   2  10   83.00    2.45
  -5   1   5   30.71    2.24
  -4   2   5   29.84    2.29
  -3  -1  11   39.01    1.24
  -6  -1   6   17.20    1.23
  -3   1  10    2.68    1.66
  -1   1  11   29.39    1.80
  -1   2  10    2.10    2.17
  -3   2   8   21.84    2.57
  -4   1   8   48.28    2.18
  -2   0  11    7.05    1.55
  -2   2   9   54.14    2.29
  -1   0  11  192.99    2.69
  -6  -1   5   19.08    1.66
  -5   0   7  168.93    2.43
  -4   0   9   92.13    2.22
  -3   2   7  106.59    3.14
  -2  -1  11   10.53    1.41
  -1   2   9   49.84    2.77
  -5  -1   8    4.70    1.40
  -3   0  10    5.87    1.69
  -3   1   9    5.13    2.27
  -6  -2   6   40.93    1.71
  -4   1   7   44.13    2.60
  -3   2   6   77.07    2.24
  -2   2   8   30.11    2.63
  -1   1  10  168.03    2.87
  -5   0   6   31.49    2.23
  -5  -2   8    8.51    1.41
  -4  -1   9   68.39    1.99
  -4   1   6   51.39    2.16
  -5   0   5   78.01    2.53
  -4   0   8   76.95    2.60
  -4   1   5   39.28    2.44
  -3  -3  10   44.51    1.19
  -3   1   8  157.04    3.41
  -2   0  10   21.55    1.86
  -6  -3   6   11.79    1.33
  -6  -2   5   66.14    2.21
  -5  -3   8    6.10    1.30
  -5   0   4   20.45    2.09
  -4   1   4   10.62    1.97
  -3  -2  10   24.63    1.41
  -4  -2   9    0.22    1.32
  -3   0   9  109.12    2.60
  -1   0  10  237.27    3.14
  -1   1   9   16.86    2.77
  -4  -3   9   24.36    1.22
  -4   0   7   86.89    2.87
  -3   1   7  139.09    2.73
  -2  -3  10    1.40    1.14
  -2  -1  10   33.06    2.04
  -5  -1   6   24.12    2.33
  -2   1   8   95.30    2.82
  -1  -1  10   42.16    1.98
  -5  -2   7   17.45    1.74
  -4  -1   8   39.36    2.18
  -3   1   6  205.32    3.34
  -2  -2  10   65.41    1.91
  -6  -3   5   19.21    1.41
  -3  -1   9   88.43    2.47
  -3   0   8   50.94    2.51
  -2   0   9   26.89    2.30
  -5  -3   7  139.88    2.32
  -5  -1   5   -1.30    2.17
  -3  -4   9  112.92    1.85
  -1   0   9  658.58    4.81
  -6  -4   5    0.45    1.21
  -5  -4   7  117.79    1.85
  -4  -2   8    0.65    1.87
  -6  -5   5   47.05    1.49
  -5  -1   4   20.79    2.25
  -4  -1   7   45.78    2.48
  -4   0   5   12.05    2.44
  -3  -3   9   35.73    1.66
  -6  -3   4   32.13    1.97
  -4  -4   8   40.38    1.50
  -4  -3   8   25.26    1.61
  -3   0   7   20.99    2.25
  -2  -1   9   82.16    2.57
  -5  -1   3   57.99    2.36
  -3  -1   8   93.33    2.82
  -2  -4   9    1.66    1.23
  -1  -1   9  172.25    2.76
  -6  -3   3   27.88    1.92
  -2  -2   9   92.17    2.44
  -6  -4   4    0.74    1.54
  -5  -3   6   31.12    2.05
  -5  -2   5   20.85    2.26
  -4  -2   7    1.91    2.14
  -4  -1   6   63.63    2.67
  -3   0   6   13.94    2.10
  -2  -3   9   11.19    1.77
  -1  -2   9   -3.06    2.00
  -3  -5   8   10.42    1.11
  -6  -5   4   28.78    1.52
  -5  -5   6  122.48    2.06
  -5  -4   6  559.57    4.20
  -3  -2   8 1231.61    6.28
  -2  -1   8   39.06    2.51
  -3  -1   7   82.29    2.65
  -5  -2   4   15.89    2.32
  -4  -5   7    2.40    1.29
  -4  -3   7   62.71    2.41
  -3  -4   8  131.09    2.30
  -6  -4   3   13.75    1.90
  -4  -4   7   44.72    1.95
  -2  -5   8   59.86    1.64
  -1  -1   8 1155.80    6.18
  -4  -2   6    2.49    2.03
  -3  -6   7   49.70    1.52
  -5  -2   3  381.11    4.30
  -2  -2   8   97.72    2.65
  -6  -6   3    3.04    1.34
  -6  -5   3   52.56    1.85
  -5  -6   5   19.47    1.32
  -3  -2   7   82.49    2.85
  -3  -1   6  207.09    3.26
  -6  -4   2   17.98    2.03
  -5  -4   5   12.22    1.67
  -5  -2   2    5.58    1.87
  -2  -4   8    8.15    1.70
  -2  -3   8    8.40    1.93
  -5  -5   5    1.57    1.53
  -5  -3   4   27.81    2.45
  -4  -6   6    2.09    1.22
  -4  -3   6   24.29    2.47
  -2  -6   7   28.51    1.37
  -4  -2   5    3.18    2.18
  -1  -3   8   48.31    2.42
  -6  -7   2    1.39    1.33
  -5  -7   4   27.04    1.74
  -3  -5   7   10.98    1.31
  -3  -3   7  229.58    3.27
  -6  -5   2   30.57    2.08
  -4  -5   6   -2.00    1.64
  -4  -4   6    7.47    1.59
  -6  -6   2    3.03    1.48
  -5  -3   3  189.59    3.40
  -4  -7   5   15.66    1.27
  -3  -2   6    0.33    2.27
  -2  -2   7  185.67    3.14
  -6  -5   1   14.41    2.31
  -5  -6   4  103.30    2.32
  -5  -5   4   12.46    2.07
  -4  -3   5   65.62    2.79
  -2  -5   7  126.62    2.70
  -3  -6   6   18.21    1.69
  -2  -3   7   12.48    2.18
  -6  -7   1   41.47    1.83
  -5  -3   2  361.68    4.28
  -2  -4   7   25.80    2.28
  -6  -8   0   37.13    1.74
  -6  -6   1    8.40    1.91
  -5  -4   3   50.76    2.56
  -4  -6   5    5.11    1.70
  -4  -4   5    5.32    2.34
  -3  -3   6   84.17    2.53
  -5  -7   3    7.82    1.49
  -4  -5   5    1.02    2.10
  -1  -4   7   12.89    1.78
  -1  -3   7  158.41    2.95
  -3  -7   5   48.74    1.88
  -3  -4   6   89.87    2.52
  -5  -8   2   -0.75    1.54
  -5  -6   3   45.43    2.38
  -4  -3   4   78.07    2.45
  -3  -8   4   13.58    1.19
  -2  -6   6   55.16    2.15
  -6  -7   0   44.81    2.13
  -6  -6   0    0.93    1.99
  -4  -7   4   37.03    1.88
  -6  -8  -1    4.26    1.46
  -5  -4   2    6.16    2.26
  -4  -8   3   18.91    1.49
  -4  -4   4   22.99    2.52
  -3  -3   5   24.79    2.37
  -2  -7   5    1.84    1.53
  -2  -3   6   23.56    2.20
  -4  -6   4   37.72    2.48
  -2  -8   4    4.43    1.05
  -2  -5   6  209.75    3.54
  -6  -7  -1    7.41    1.84
  -5  -7   2   15.28    1.98
  -5  -5   2   35.09    2.55
  -4  -5   4    1.13    2.38
  -2  -4   6   26.57    1.97
  -6  -8  -2   12.33    1.57
  -5  -9   0    3.09    1.48
  -5  -4   1   19.60    2.39
  -3  -5   5    9.44    2.59
  -3  -4   5    5.07    2.49
  -1  -5   6   77.27    2.48
  -5  -8   1   10.40    1.68
  -1  -4   6   16.23    2.15
  -4  -7   3  116.77    2.89
  -4  -4   3   30.31    2.72
  -5  -5   1   46.40    2.87
  -4  -9   1   26.85    2.08
  -2  -6   5   66.70    2.76
  -4  -8   2   13.46    1.95
  -4  -6   3   50.35    3.06
  -4  -5   3   -1.58    2.55
  -5  -6   1  292.22    4.64
  -3  -6   4   14.16    3.09
  -2  -9   2    1.62    1.05
  -2  -5   5  319.42    4.42
  -1  -6   5   68.47    2.90
  -3  -4   4   16.13    2.55
  -2  -7   4    1.06    2.16
  -2  -4   5   14.76    2.36
  -3  -5   4   69.09    3.16
  -2  -8   3    3.63    1.68
  -5  -5   0   15.46    2.10
  -4  -7   2  258.44    4.84
  -1  -8   3    1.57    1.57
  -1  -7   4   29.91    2.25
  -6  -8  -1    6.35    1.26
  -5  -8   0    5.59    1.94
  -5  -7   1    3.82    2.09
  -4  -9  -1   13.54    2.05
  -2  -8   0  138.95    3.48
  -2  -9  -3   23.10    2.27
  -1  -8  -2   21.74    2.49
  -3  -5   3  132.07    3.08
  -4  -6   2   81.18    2.86
  -3  -9  -2   18.23    2.37
  -3  -8   0   95.71    3.33
  -2  -7   1   10.00    2.61
  -1  -7   0   88.77    3.19
  -6  -9  -3   26.89    1.79
  -5  -9  -2   14.18    1.74
  -4 -10  -5   62.32    1.90
  -4  -8   0   19.88    2.50
  -2  -9  -4   14.57    1.99
  -2  -6   2    6.39    2.71
  -1  -8  -3   17.81    2.18
  -4  -9  -2    4.41    1.98
  -4  -7   1  186.13    3.85
  -4 -10  -6   13.71    1.43
  -3  -7   1  113.12    3.45
  -1  -6   1   99.74    2.50
  -5  -6   1  268.30    3.90
  -6  -8  -2   23.30    1.87
  -5  -8  -1   19.15    2.16
  -4  -5   2  245.94    3.51
  -1  -7  -1   22.19    2.49
  -6  -7  -1    4.90    1.55
  -5  -7   0   81.68    2.75
  -3  -8  -1  115.16    3.62
  -2  -7   0   17.31    2.88
  -5  -9  -3    7.99    1.82
  -4  -8  -1    4.88    2.60
  -2  -8  -2  200.98    3.85
  -4  -9  -3    6.28    1.62
  -2  -6   1    2.05    2.25
  -4  -6   1    9.84    2.56
  -3  -9  -4    4.29    2.39
  -1  -7  -2   26.26    2.42
  -3  -7   0   64.68    2.53
  -3  -6   1   -0.80    2.40
  -2  -8  -3  175.39    3.92
  -6  -9  -5    3.87    1.85
  -6  -8  -3   29.63    2.47
  -5  -9  -4   15.60    1.67
  -4  -9  -4    0.33    2.17
  -3  -9  -5    4.42    2.07
  -3  -8  -2  127.93    3.75
  -2  -7  -1   43.22    3.06
  -7  -8  -5   22.51    1.68
  -5  -6   0   27.24    2.48
  -4  -8  -2   10.87    2.81
  -1  -7  -3   13.52    2.21
  -6  -7  -2    4.04    1.94
  -5  -7  -1   17.15    2.59
  -3  -9  -6   -0.27    2.18
  -4  -5   1    5.97    2.27
  -3  -9  -7    1.71    1.84
  -2  -8  -4   24.12    2.51
  -7  -7  -4   20.64    1.71
  -5  -9  -5   52.35    2.49
  -4  -9  -5    6.33    1.75
  -3  -7  -1   99.38    3.51
  -5  -8  -3    7.79    2.65
  -4  -7  -1   16.06    2.34
  -4  -6   0  125.50    3.53
  -3  -8  -3   77.05    2.90
  -2  -8  -5  141.86    3.79
  -7  -8  -6   11.62    1.71
  -6  -8  -4   18.43    2.43
  -3  -6   0    1.89    2.39
  -6  -9  -7    2.50    1.58
  -5  -9  -6   97.43    2.74
  -4  -8  -3   70.30    3.40
  -6  -9  -8    3.20    1.68
  -4  -9  -9   98.72    2.55
  -4  -9  -7   62.21    2.81
  -6  -7  -3   20.60    2.30
  -5  -7  -2   31.91    3.03
  -5  -6  -1   32.97    2.66
  -4  -9  -8    2.09    1.69
  -7  -8  -7    4.88    1.71
  -6  -6  -2    2.66    1.99
  -5  -9  -7   54.95    2.47
  -3  -7  -2  164.14    3.75
  -2  -7  -3  123.25    3.33
  -7  -7  -5   12.11    1.71
  -6  -8  -5  123.26    3.20
  -5  -9  -9   31.19    1.76
  -5  -8  -4   36.35    2.90
  -4  -8  -4   88.96    3.61
  -4  -7  -2   33.08    3.09
  -3  -8  -5   82.32    2.81
  -6  -8  -6   70.07    2.77
  -6  -7  -4    7.64    2.18
  -5  -8  -5   24.65    2.86
  -3  -8  -6   30.73    2.95
  -3  -7  -3  150.57    3.71
  -2  -7  -4   11.43    2.40
  -7  -7  -6    2.71    1.61
  -5  -5  -1    3.77    1.97
  -4  -8  -5   14.42    2.29
  -6  -6  -3   21.15    2.34
  -5  -6  -2   59.19    3.28
  -4  -7  -3   35.40    2.93
  -3  -8  -7    3.02    2.31
  -6  -8  -7   36.24    2.50
  -3  -8  -8  166.04    3.49
  -2  -7  -5   32.65    2.52
  -7  -6  -5    4.35    1.63
  -5  -8  -6   22.67    2.76
  -4  -8 -11   -0.25    1.28
  -4  -8  -6   78.23    3.27
  -7  -7  -7   15.44    1.80
  -4  -6  -2  157.18    3.36
  -3  -7  -4   56.28    3.15
  -6  -8  -8   12.07    2.12
  -6  -7  -5   27.48    2.74
  -5  -7  -4    4.47    2.16
  -2  -7  -6   29.77    2.59
  -6  -8  -9   39.65    2.09
  -5  -8 -11    6.18    1.34
  -5  -8  -7   -0.17    2.48
  -4  -8 -10    8.08    2.38
  -4  -7  -4  108.90    3.75
  -7  -7  -8   17.05    1.66
  -4  -8  -9   17.53    2.61
  -4  -8  -8   19.75    2.42
  -7  -7 -10   21.74    1.88
  -7  -6  -6   -0.87    1.94
  -6  -6  -4  805.11    5.92
  -6  -5  -3 1164.52    6.60
  -5  -8 -10   -1.60    1.73
  -5  -8  -8   10.87    2.33
  -5  -6  -3   40.36    3.03
  -6  -7  -6    5.98    2.85
  -5  -8  -9    0.07    2.14
  -5  -7  -5   15.46    2.80
  -5  -5  -2    1.53    2.02
  -4  -7  -5   17.65    2.32
  -4  -6  -3  211.40    3.75
  -7  -6  -7    3.04    1.80
  -6  -7  -7    2.28    2.43
  -3  -7  -6    5.92    2.87
  -6  -6  -5   37.13    2.79
  -5  -7  -6   37.54    3.16
  -4  -7 -12   78.66    2.17
  -4  -7  -6  160.89    4.02
  -3  -7  -7    8.18    2.53
  -7  -6  -8    3.41    2.05
  -7  -5  -6    7.89    1.82
  -6  -7 -11    0.77    1.61
  -6  -7  -8   93.84    3.03
  -5  -7 -12   11.69    1.61
  -6  -7  -9    4.64    2.11
  -6  -5  -4   97.13    2.80
  -3  -7  -9   60.06    2.96
  -3  -7  -8   55.42    2.97
  -7  -6  -9   -1.74    1.53
  -6  -7 -10   -0.80    1.42
  -5  -7  -7   26.68    2.43
  -5  -5  -3    4.04    1.74
  -4  -7  -7  132.24    3.82
  -4  -6  -4   86.25    2.55
  -6  -6  -6   53.39    3.18
  -4  -7 -11   98.44    2.87
  -7  -5  -7   25.46    2.31
  -5  -7  -8  117.83    3.56
  -5  -6  -5  103.23    3.57
  -5  -7 -10    3.22    2.55
  -5  -7  -9   18.39    2.53
  -4  -7 -10  114.58    3.29
  -4  -7  -9  127.14    3.45
  -5  -6 -13    2.43    1.25
  -7  -5  -8   56.64    2.49
  -6  -5  -5   10.98    1.72
  -4  -6  -5   15.78    1.98
  -5  -6  -6  187.03    4.23
  -5  -5  -4   21.96    2.42
  -7  -5 -10   -0.39    2.02
  -7  -5  -9    1.18    2.06
  -6  -6  -8   22.53    3.00
  -3  -6  -6   20.61    2.58
  -7  -4  -7   69.56    2.43
  -6  -6 -11    5.39    2.04
  -6  -6 -10   30.70    2.58
  -6  -6  -9   10.44    1.98
  -6  -5  -6  117.69    3.30
  -4  -6  -6   26.38    2.32
  -3  -6 -11   10.62    2.09
  -5  -6  -7  349.73    5.08
  -4  -6 -12   76.16    2.52
  -3  -6  -7    8.78    2.39
  -7  -4  -8   29.20    2.31
  -7  -4 -10    8.94    2.12
  -7  -4  -9    4.22    2.03
  -6  -4  -5    3.90    1.98
  -5  -6 -11   89.21    3.06
  -5  -6  -8   29.34    3.33
  -4  -6  -7   86.56    2.80
  -3  -6 -10   13.44    2.72
  -3  -6  -9   16.34    2.73
  -3  -6  -8   18.59    2.55
  -6  -5 -12   11.90    1.65
  -6  -5  -7  146.03    3.69
  -5  -6 -10  117.45    3.35
  -5  -6  -9   74.97    3.44
  -4  -6 -11   71.38    2.98
  -5  -5 -13  184.54    2.55
  -4  -6 -10   77.67    3.13
  -4  -6  -8   19.70    2.38
  -7  -3 -10   43.54    2.87
  -7  -3  -8   11.19    2.00
  -4  -5 -13    4.73    1.55
  -7  -3  -9    6.64    2.23
  -6  -5 -11    9.10    2.28
  -5  -5  -6   99.79    3.39
  -6  -5 -10   82.03    3.03
  -6  -5  -9  125.27    3.54
  -6  -4  -6  101.81    3.01
  -3  -5 -12  139.34    2.88
  -6  -4 -12    2.24    1.48
  -5  -5 -12  301.92    3.93
  -5  -5  -7  152.44    4.10
  -6  -4  -7   97.14    3.25
  -4  -5 -12   -0.72    2.21
  -5  -5 -11   55.66    2.82
  -6  -4 -11    0.45    1.97
  -5  -5  -8  101.20    3.05
  -5  -4 -13    5.28    1.57
  -3  -5 -11   61.78    3.11
  -6  -4  -8   14.75    2.81
  -6  -3  -6   -1.43    2.03
  -5  -5 -10   53.52    2.68
  -5  -5  -9   33.48    2.61
  -4  -5 -11    0.16    2.54
  -4  -5  -7   44.00    2.23
  -6  -4 -10    9.88    2.79
  -6  -3 -12    5.67    1.89
  -4  -4 -13   81.46    2.43
  -3  -5 -10   80.13    3.47
  -3  -5  -8  249.14    3.95
  -5  -4  -6   81.51    3.05
  -4  -5  -9    5.17    2.93
  -4  -5  -8    2.42    2.01
  -3  -5  -9  152.86    3.55
  -6  -2 -12    6.63    1.61
  -5  -4 -12  202.23    3.30
  -6  -3 -11   19.59    2.16
  -6  -3  -7  218.10    3.71
  -5  -3 -13   19.28    1.67
  -5  -4  -7   34.40    3.00
  -6  -3  -8    3.49    2.75
  -5  -4 -11  133.33    3.70
  -4  -4 -12  133.07    3.14
  -3  -4 -12  416.00    4.55
  -6  -3  -9   10.27    2.81
  -5  -4  -8   50.60    3.40
  -6  -1 -11   31.90    2.34
  -5  -4 -10   -3.54    3.21
  -5  -4  -9   16.89    3.11
  -5  -2 -13    9.28    1.54
  -6  -2  -7   51.94    2.84
  -5  -3 -12   64.13    2.57
  -4  -3 -13   52.01    2.06
  -3  -3 -13   12.31    1.84
  -6  -2 -10   59.98    2.81
  -3  -4 -11   46.22    2.96
  -6  -2  -9   57.53    3.50
  -6  -2  -8   83.22    3.31
  -6   0 -10    3.02    1.90
  -5  -3  -6   99.45    3.19
  -6  -1 -10   34.78    2.41
  -4  -4 -10   29.86    2.57
  -4  -4  -9   38.15    3.12
  -4  -4  -8  184.63    3.86
  -3  -4 -10   11.89    2.98
  -6   0  -9    3.06    2.61
  -5  -3 -11  128.65    3.66
  -6  -1  -9   88.84    3.75
  -5  -3  -7    7.72    2.75
  -5  -2 -12   38.69    2.33
  -3  -4  -9    6.87    2.48
  -5  -3 -10   66.82    2.93
  -5  -3  -9  358.62    5.41
  -5  -3  -8  300.10    4.85
  -3  -3 -12   11.18    2.43
  -5  -1 -12   12.96    1.59
  -5   0 -12    7.00    1.50
  -3  -2 -13  111.24    2.55
  -4  -1 -13   30.56    1.78
  -5  -2 -11   32.01    2.19
  -4  -3 -11  170.62    3.50
  -2  -3 -11   97.66    2.79
  -5  -2  -6   13.54    1.85
  -3  -3 -11 1369.99    8.18
  -5  -2 -10   85.97    3.42
  -5   1 -11   99.74    2.07
  -4  -3 -10  189.22    4.34
  -4  -2 -12   29.82    2.60
  -2  -1 -13   45.89    1.76
  -3  -8   2  185.04    3.45
  -3  -7   3   19.13    2.17
  -2  -7   3    8.28    2.39
  -1  -8   1   33.68    2.20
  -3 -10  -2   12.20    1.31
  -3  -5   4   63.90    2.68
  -2  -9   0   63.33    2.28
   0  -7   1   98.73    2.86
  -5  -6   2    4.86    1.77
  -4  -6   3   48.34    2.48
  -1  -5   4  211.61    3.39
  -4  -9   0   76.07    2.37
  -3  -4   4   16.16    1.51
  -2  -5   4  138.79    3.38
  -3  -9   0   21.11    1.94
  -1  -7   2  163.10    3.22
  -1  -6   3    6.66    2.54
   0  -6   2   49.13    2.59
  -6  -8  -1    4.65    1.24
  -4  -7   2  311.03    4.42
  -4  -5   3   -0.58    1.89
  -5  -7   1    7.87    2.44
  -4  -8   1   10.95    1.65
  -2  -9  -1  141.42    3.25
  -2  -8   1  677.72    5.96
  -1  -8   0    6.03    2.25
  -3 -10  -3   14.76    1.35
  -3  -8   1    5.49    2.51
  -2  -7   2  157.52    3.82
  -2  -6   3   49.63    2.55
  -5  -8   0    4.13    2.02
  -4 -10  -3   16.78    1.73
  -3  -7   2   98.15    3.35
  -4  -9  -1   12.85    2.09
  -4  -6   2   90.09    3.09
  -3  -9  -1    9.54    2.16
  -3  -5   3  130.22    3.28
  -1  -7   1  161.00    3.76
   0  -6   1   19.93    2.37
  -5  -6   1  274.24    4.10
  -3 -10  -4   10.20    1.46
  -2  -5   3   28.39    2.48
  -5  -9  -2    9.50    1.89
  -2  -9  -2  206.94    3.69
  -1  -8  -1   11.83    2.32
  -6  -8  -2   15.86    1.65
  -4 -10  -4   41.96    2.12
  -4  -8   0   12.86    2.46
  -4  -5   2  264.97    3.68
  -3 -10  -5    5.35    1.45
  -3  -8   0   95.81    3.50
  -3  -6   2   -0.28    2.80
  -2  -7   1   14.31    2.96
  -2  -6   2    3.26    2.57
  -5  -8  -1   16.33    2.24
  -5  -7   0   82.54    2.81
  -3  -7   1  117.03    3.74
  -4  -9  -2    3.56    2.11
  -3  -9  -2   19.78    2.48
  -2  -9  -3   21.03    2.38
  -1  -7   0   85.02    3.18
  -6  -9  -4  107.25    2.63
  -3 -10  -6    0.81    1.14
  -1  -8  -2   18.21    2.46
  -2  -8  -1   63.21    3.46
  -1  -6   1  136.74    3.28
  -5  -9  -3   14.89    1.99
  -4  -6   1    9.07    2.61
  -6  -8  -3   28.32    2.33
  -5  -6   0   30.86    2.45
  -4  -8  -1    6.20    2.76
  -3  -8  -1  110.95    3.72
  -2  -9  -4   19.53    2.40
  -2  -7   0   16.93    2.94
  -1  -8  -3   23.55    2.39
  -6  -9  -5    3.60    1.90
  -4  -9  -3    4.10    2.44
  -3  -6   1    3.36    2.65
  -2  -6   1    5.36    2.48
  -1  -7  -1   25.60    2.76
  -5  -7  -1   17.76    2.55
  -4 -10  -7   31.27    1.57
  -4  -5   1    6.60    2.15
  -3  -7   0   62.88    2.88
  -5  -9  -4   16.06    2.08
  -2  -9  -5   29.47    2.37
  -2  -8  -2  214.98    4.18
  -4  -8  -2   13.66    3.00
  -3  -9  -4    2.04    2.35
  -6  -8  -4   17.02    2.08
  -4  -9  -4    4.88    2.24
  -4  -6   0  119.28    3.67
  -3  -8  -2  122.91    3.91
  -2  -9  -6   14.97    1.92
  -6  -7  -3   17.47    2.19
  -4  -7  -1   25.62    3.00
  -1  -7  -2   23.95    2.49
  -5  -9  -5   46.18    2.85
  -5  -8  -3    7.91    2.10
  -5  -6  -1   35.31    2.56
  -2  -8  -3  183.82    4.13
  -6  -9  -7    2.94    2.09
  -5  -7  -2   34.92    2.99
  -3  -9  -5    2.91    2.34
  -3  -7  -1   82.92    3.09
  -3  -6   0    0.59    2.44
  -4  -9  -5    4.82    2.23
  -6  -8  -5  104.09    3.15
  -4  -8  -3   78.77    3.57
  -3  -8  -3   95.53    3.59
  -6  -9  -8    4.68    1.76
  -5  -9  -6  106.40    3.13
  -3  -9  -6   -0.88    2.26
  -5  -8  -4   35.54    2.98
  -2  -8  -4   31.80    2.85
  -1  -7  -3    6.71    2.54
  -6  -7  -4    5.28    2.25
  -4  -9  -6   15.47    2.56
  -4  -7  -2   33.08    3.20
  -4  -6  -1   92.13    3.19
  -5  -9  -7   48.97    2.63
  -3  -9  -7    3.42    2.17
  -3  -7  -2  157.77    3.85
  -6  -8  -6   58.17    2.57
  -5  -7  -3   13.43    2.64
  -5  -6  -2   57.37    2.86
  -3  -9  -8  266.41    3.70
  -4  -9  -7   65.89    2.86
  -4  -8  -4   81.24    3.19
  -3  -9  -9  108.20    2.60
  -3  -8  -4  102.75    3.14
  -2  -8  -5  148.27    3.59
  -7  -7  -8   11.35    1.77
  -5  -9  -8   41.49    2.18
  -5  -8  -5   24.90    2.68
  -1  -7  -4   11.88    2.22
  -5  -9 -10   17.55    1.57
  -5  -9  -9   28.88    1.86
  -2  -7  -3  123.76    3.54
  -6  -7  -5   27.34    2.39
  -6  -6  -4  637.65    5.76
  -4  -9 -10   17.52    1.66
  -4  -9  -9  101.12    2.42
  -4  -7  -3   46.34    3.25
  -5  -5  -2    0.70    1.95
  -4  -8  -5   15.66    3.03
  -3  -7  -3  141.21    3.83
  -2  -8  -6  135.98    3.64
  -5  -8  -6   19.55    2.94
  -5  -6  -3   32.91    2.75
  -2  -8  -7   47.53    2.73
  -6  -8 -10    4.49    2.41
  -6  -8  -9   49.74    2.16
  -6  -7  -6    7.12    2.30
  -3  -8  -6   39.30    3.16
  -2  -8  -8  213.66    3.99
  -2  -7  -4    8.21    2.37
  -6  -6  -5   33.92    2.50
  -5  -8  -7    6.50    2.56
  -4  -8  -6   54.53    2.93
  -4  -7  -4  132.66    3.74
  -3  -7  -4   62.47    3.11
  -3  -8  -7    5.91    2.59
  -6  -7  -7    4.81    2.08
  -5  -8  -8   11.99    2.53
  -5  -5  -3    5.46    1.90
  -4  -8  -7    9.37    2.64
  -4  -6  -3  217.32    3.61
  -5  -6  -4   52.37    2.84
  -4  -8 -12    0.58    1.15
  -3  -8 -11    3.33    1.66
  -3  -8  -8  209.77    3.95
  -2  -7  -5   35.51    2.65
  -5  -8 -11    5.89    1.63
  -5  -8  -9    3.28    2.27
  -6  -7  -8   94.70    2.86
  -6  -6  -6   44.88    2.50
  -5  -8 -10   -1.91    1.87
  -5  -7  -6   39.64    3.25
  -4  -8  -8   20.73    2.12
  -4  -7  -5   19.35    2.28
  -3  -8 -10   60.86    2.54
  -3  -8  -9   31.96    2.60
  -3  -7  -5   11.54    2.77
  -4  -8 -11    3.22    1.59
  -4  -8  -9   21.52    2.51
  -2  -7  -6   36.24    2.83
  -6  -7 -11    2.50    2.16
  -4  -6  -4   96.45    3.21
  -6  -6  -7   64.69    2.84
  -5  -7  -7   35.78    3.50
  -5  -6  -5  100.96    3.41
  -4  -7  -6  156.08    4.22
  -5  -5  -4   18.77    2.25
  -3  -7  -6    7.81    3.07
  -2  -7  -7   98.80    3.50
  -5  -7  -8  129.26    3.74
  -4  -7 -13   33.96    1.56
  -2  -7  -8   -0.16    2.30
  -6  -6  -8   17.89    2.46
  -5  -7 -12   11.93    1.57
  -4  -7  -7  144.10    3.87
  -2  -7 -10    1.20    2.07
  -2  -7  -9   14.60    2.34
  -5  -7  -9   18.88    3.03
  -5  -6  -6  181.82    4.08
  -4  -6  -5   19.83    2.77
  -3  -7 -12  298.72    3.62
  -6  -6  -9   11.60    2.62
  -5  -7 -11   12.22    2.27
  -5  -7 -10    7.99    2.53
  -6  -6 -11    5.80    1.78
  -6  -6 -10   28.28    2.25
  -6  -5  -7  143.53    3.19
  -4  -7  -8   65.41    2.73
  -3  -7  -8   56.25    3.21
  -5  -5  -5  107.85    2.65
  -4  -7  -9  127.64    3.42
  -3  -7 -11   75.16    3.13
  -3  -7  -9   60.30    3.09
  -4  -7 -11  101.45    3.09
  -4  -7 -10  106.60    3.26
  -3  -7 -10  171.01    3.77
  -6  -5  -8   62.47    2.71
  -5  -6 -13    5.07    1.57
  -4  -6  -6   32.38    3.02
  -6  -5 -12   11.93    2.00
  -5  -6  -8   31.97    3.11
  -3  -6  -6   23.06    2.42
  -6  -5 -11    8.51    2.18
  -6  -5  -9  130.10    3.05
  -5  -6 -12    3.58    2.00
  -5  -5  -6   90.29    2.92
  -3  -6 -13   16.00    1.85
  -2  -6 -12    2.97    1.63
  -6  -5 -10   70.38    2.74
  -5  -6  -9   84.55    3.80
  -4  -6 -13   32.63    1.97
  -4  -6  -7  104.48    3.28
  -2  -6  -7   35.49    2.59
  -5  -6 -11   90.15    3.26
  -5  -6 -10  116.82    3.54
  -6  -4 -12    3.56    1.79
  -6  -4  -8   11.07    2.38
  -3  -6  -7    7.72    2.55
  -2  -6 -11   22.80    2.79
  -5  -5  -7  147.39    3.62
  -4  -6 -12   78.42    2.73
  -4  -6  -8   23.43    3.06
  -4  -5 -14   15.72    1.32
  -2  -6  -8   23.49    2.64
  -6  -4 -11    2.93    2.02
  -6  -4  -9   22.69    2.32
  -3  -6 -12   27.82    2.59
  -3  -6  -8   18.55    2.83
  -3  -5 -14   18.62    1.23
  -2  -6 -10   28.64    2.63
  -2  -6  -9    5.46    2.59
  -6  -4 -10    6.22    2.66
  -4  -6 -11   67.79    3.17
  -4  -6 -10   71.34    3.29
  -4  -6  -9   90.17    2.86
  -5  -5  -8  115.47    3.60
  -3  -6 -11   13.63    2.75
  -6  -3 -11   17.72    1.93
  -5  -5 -12  331.55    3.92
  -5  -4  -6   74.55    2.62
  -2  -5 -13   45.78    2.05
  -6  -3 -10   20.65    2.81
  -5  -5 -11   61.43    3.19
  -5  -5 -10   59.52    3.34
  -5  -4 -13    4.45    1.94
  -4  -5 -13    3.55    1.79
  -4  -5  -7   57.74    2.76
  -4  -4 -14   25.24    1.59
  -3  -5 -13   -0.06    1.82
  -2  -4 -14   16.97    1.16
  -5  -4  -7   39.38    2.57
  -4  -5 -12    4.14    2.38
  -2  -5 -12   39.32    2.51
  -5  -4 -12  207.06    3.45
  -4  -5  -8   -0.13    2.10
  -3  -4 -14   96.08    1.93
  -5  -4  -8   47.43    3.25
  -4  -5 -11    0.16    2.91
  -4  -5  -9    6.48    2.62
  -5  -2 -13    5.04    1.43
  -4  -5 -10    0.45    2.26
  -4  -3 -14    6.63    1.47
  -2  -5 -11   51.91    2.95
  -5  -4 -10   -1.99    3.13
  -5  -4  -9   18.19    2.08
  -4  -4 -13   96.44    2.58
  -3  -5  -8  204.90    3.42
  -2  -5 -10  123.93    3.39
  -3  -5 -10   78.82    3.39
  -3  -5  -9  145.08    3.74
  -2  -5  -9  101.85    2.71
  -2  -4 -13   19.81    2.33
  -5  -3 -12   68.22    2.51
  -5  -3  -7    7.30    2.21
  -2  -3 -14    1.79    1.43
  -3  -3 -14    5.66    1.42
  -5  -3 -11  119.74    3.12
  -5  -3  -8  277.55    4.15
  -4  -4 -12  137.50    3.41
  -4  -4   8   39.53    1.37
  -3  -2   9   67.71    1.86
  -2  -3  10    2.37    1.34
   1  -2  10   79.30    2.22
  -3  -1   8   82.53    2.26
  -1  -4  10    1.38    1.17
  -1  -1  10   42.09    1.86
   1   0   9  306.51    3.39
  -4  -2   7    1.55    1.51
  -3  -4   9  104.01    1.83
  -2   0   8   32.46    2.16
  -1   0   9  593.94    4.44
   0  -5   9    0.66    0.93
   0  -1  10   34.49    2.30
  -1  -3  10    3.95    1.43
  -1  -2  10    4.80    2.13
   0  -3  10   64.51    2.14
   0   0   9  146.56    3.02
  -2  -5   9   17.61    1.20
   1  -1   9  286.62    3.35
  -1  -5   9    0.86    0.98
  -4  -3   7   56.53    1.95
  -3  -2   8 1370.60    6.27
  -3  -1   7   76.55    2.25
  -2  -2   9   87.47    2.54
  -1  -1   9  172.84    3.17
   1  -3   9  303.47    3.26
   1  -2   9  233.83    3.15
  -2  -6   8   33.19    1.24
  -2  -4   9   -0.21    1.49
   0  -1   9   29.16    2.28
  -4  -5   7    2.00    1.09
  -4  -4   7   42.79    1.86
  -3  -5   8   10.03    1.28
  -2  -3   9   11.91    1.41
  -1  -6   8   34.64    1.14
   0  -4   9   55.63    2.07
  -3  -3   8   24.74    1.98
  -1  -4   9    2.01    1.67
  -1  -2   9    2.30    2.17
  -3  -4   8  130.48    2.43
   0  -3   9   83.97    2.43
  -1  -3   9   34.24    1.71
  -3  -2   7   75.78    2.45
  -1  -1   8 1116.42    6.43
   0  -5   8    2.86    1.42
  -4  -3   6   25.14    1.95
  -3  -6   7   43.53    1.53
  -2  -5   8   66.81    2.02
  -2  -2   8   92.17    2.71
   1  -2   8  193.92    2.98
  -2  -1   7  153.58    2.46
   0  -6   7    3.37    1.13
   1  -3   8    8.71    1.74
  -4  -6   6    1.29    1.11
  -2  -3   8    6.08    2.08
  -3  -3   7  253.06    3.38
  -2  -4   8    6.87    1.48
  -1  -2   8    7.06    2.04
  -4  -5   6    1.53    1.62
  -4  -4   6    5.57    1.70
  -3  -7   6    7.95    1.36
  -3  -5   7   10.92    1.72
   0  -4   8   63.27    1.94
  -2  -6   7   34.70    1.73
  -1  -6   7   84.29    2.02
  -1  -4   8   24.27    2.18
  -1  -3   8   63.44    2.61
   0  -3   8  106.50    2.83
  -5  -6   4   99.66    2.17
  -3  -2   6    0.96    1.88
  -2  -2   7  181.46    3.11
  -1  -7   6   42.39    1.45
  -4  -3   5   61.61    2.17
  -2  -7   6    8.91    1.27
   0  -5   7    2.91    1.68
   1  -3   7   -1.34    1.70
  -2  -5   7  130.09    2.99
  -3  -6   6   20.76    1.89
  -2  -4   7   22.40    2.38
  -2  -3   7   14.29    1.75
  -4  -6   5    6.41    1.67
  -4  -4   5    5.48    1.86
  -3  -3   6   86.07    2.29
   0  -6   6   12.39    1.54
  -5  -7   3    4.89    1.17
  -4  -5   5    0.21    1.75
   0  -4   7   60.53    2.59
   0  -3   7   88.82    2.64
  -3  -7   5   47.52    1.90
  -3  -5   6   23.01    1.67
  -1  -4   7   17.17    2.39
  -1  -3   7  156.27    2.79
  -5  -8   2   -1.96    1.45
  -3  -8   4    9.66    1.28
  -2  -6   6   48.50    2.35
  -1  -8   4    5.88    1.06
  -1  -6   6   93.67    2.47
  -5  -6   3   34.14    1.87
  -1  -7   5   16.18    1.78
  -4  -8   3   16.77    1.68
  -2  -7   5    3.01    1.30
  -2  -5   6  210.63    3.68
  -2  -3   6   19.89    2.20
   0  -5   6    1.12    1.88
  -4  -4   4   20.63    2.12
  -3  -6   5    0.90    1.99
  -3  -3   5   18.71    1.52
  -2  -4   6   28.23    2.28
  -4  -6   4   34.39    2.15
  -5  -7   2   14.07    1.66
  -4  -5   4    0.44    2.02
  -3  -5   5    8.83    2.34
   0  -7   4   51.46    2.11
   0  -6   5   28.14    2.05
   0  -4   6   32.96    1.86
  -3  -9   2    3.04    1.23
  -1  -4   6   14.62    1.85
  -3  -7   4   46.50    2.31
  -2  -9   2    2.10    1.07
  -2  -6   5   65.18    2.80
  -5  -8   1    6.51    1.39
  -5  -6   2    3.24    1.75
  -3  -8   3   10.02    1.64
  -1  -6   5   89.05    2.88
  -4  -9   1   43.19    2.04
  -1  -8   3    3.28    1.50
  -4  -8   2   13.43    1.75
  -2  -7   4   -0.15    2.17
  -2  -5   5  291.03    4.29
  -1  -7   4   45.96    2.22
   0  -5   5    0.20    2.39
  -4  -4   3   28.72    2.21
  -3  -6   4   31.85    2.51
  -2  -4   5   13.93    2.40
  -4  -6   3   51.11    2.44
  -5  -7   1    6.34    1.90
  -4  -5   3   -0.78    1.51
  -3  -5   4   59.98    2.85
  -3  -4   4   16.86    2.18
   0  -6   4  107.07    2.85
  -1  -4   5  209.51    3.09
   0  -7   3  183.07    3.73
  -5  -9  -1   15.81    1.78
  -5  -6   1  256.22    3.93
  -3  -9   1  129.55    2.75
  -3  -7   3   12.80    2.45
  -2  -6   4   28.82    2.65
  -5  -8   0    4.04    1.61
  -3  -8   2  178.82    3.58
  -2  -9   1    7.11    1.45
  -1  -6   4  145.65    3.49
  -4  -9   0  101.05    2.49
  -1  -8   2    9.08    2.25
  -4  -8   1   11.46    2.07
  -2  -7   3    8.78    2.50
  -2  -5   4  128.31    3.28
  -1  -7   3  146.37    3.45
   0  -5   4   10.05    2.19
  -4 -10  -2   38.41    1.99
  -4  -6   2   83.43    2.91
  -3  -6   3    2.81    2.77
  -2  -8   2   62.27    2.32
  -5  -7   0   68.85    2.60
  -4  -5   2  248.06    3.96
  -1  -9   0    6.22    1.55
  -3  -5   3  124.79    3.16
  -5  -9  -2   10.17    1.60
  -3  -9   0   21.68    2.14
  -2 -10  -2   -0.33    1.19
   0  -7   2  708.63    6.04
   0  -6   3 1561.33    8.54
  -5  -8  -1    9.14    2.10
  -3 -10  -2   12.07    1.55
  -3  -7   2   80.10    2.80
  -2  -6   3   57.30    3.07
  -4  -9  -1   19.73    2.08
  -3  -8   1    7.45    2.54
  -1  -6   3    8.73    2.75
  -4 -10  -3   17.27    2.07
  -4  -8   0   16.53    2.53
  -1  -8   1   36.37    2.65
  -2  -8   1  744.08    6.34
  -2  -7   2  174.02    4.06
  -2  -5   3   21.80    2.39
  -1  -7   2  215.97    4.00
  -5  -7  -1   13.71    2.15
  -4  -6   1   12.35    2.41
  -3  -6   2    0.58    2.63
  -1  -9  -1   39.08    2.11
  -5  -9  -3    9.62    1.75
  -4  -5   1    7.01    2.08
  -5  -8  -2   -0.92    2.05
  -3 -10  -3   16.79    1.73
  -3  -9  -1   10.19    2.36
  -2 -10  -3   45.94    1.79
  -3  -7   1  101.70    3.50
   0  -7   1  126.28    3.12
   0  -6   2   52.58    2.47
  -4 -10  -4   44.14    2.44
  -4  -9  -2    5.30    2.08
  -4  -7   0  163.77    3.64
  -3  -8   0   91.14    3.59
  -2  -6   2   10.70    2.68
  -4  -8  -1    7.50    2.44
  -1  -8   0    4.41    2.34
  -5  -9  -4   21.38    1.99
  -2  -8   0  139.57    3.67
  -1  -6   2  207.59    3.50
  -5  -7  -2   26.06    2.60
  -4  -6   0  110.79    3.10
  -2 -10  -4   95.12    2.37
  -2  -7   1   11.95    2.31
  -1  -9  -2   43.28    2.39
  -1  -7   1  164.96    3.62
  -5  -8  -3    6.13    2.10
  -4 -10  -5   68.08    2.56
  -3 -10  -4   14.64    1.71
  -3  -9  -2   16.88    2.52
  -3  -6   1    0.28    1.91
  -4  -9  -3    4.65    2.39
  -5  -9  -5   46.68    2.28
  -4  -7  -1   22.09    2.50
  -3  -8  -1  109.51    3.78
  -3  -7   0   70.58    2.71
   0  -7   0   53.11    2.67
  -4 -10  -6   21.52    2.13
  -3 -10  -5    1.77    1.55
  -2 -10  -5   10.06    1.43
  -2  -6   1    3.82    2.46
  -1  -8  -1   17.88    2.59
   0  -6   1   19.31    2.48
  -5  -7  -3   10.12    2.23
  -2  -8  -1   67.25    3.39
  -1  -9  -3   72.15    2.63
  -5  -8  -4   30.59    2.58
  -3  -9  -3    3.12    2.44
  -2  -7   0   17.09    2.91
  -1  -6   1  134.26    3.29
   0  -8  -2   95.85    3.12
  -5  -9  -6   94.68    2.47
  -4 -10  -7   32.73    2.07
  -4  -9  -4   -2.47    2.32
  -4  -6  -1   84.70    2.81
  -2 -10  -6   21.68    1.53
  -1  -7   0   78.85    2.69
  -3 -10  -6    2.02    1.57
  -3  -6   0    2.26    1.70
  -3  -8  -2  126.42    3.82
  -5  -9  -7   57.76    2.20
  -4  -7  -2   32.95    2.84
  -3  -7  -1  100.81    3.44
  -2 -10  -7    1.63    1.29
  -1  -9  -4   39.59    2.27
  -5  -8  -5   20.46    2.35
  -5  -7  -4    0.94    2.14
  -3 -10  -7   -0.22    1.55
  -1  -8  -2   23.26    2.73
   0  -7  -1    4.70    2.09
  -5  -9  -8   44.93    2.18
  -4  -9  -5    5.88    2.32
  -3  -9  -4    2.87    1.92
  -2  -8  -2  209.79    4.25
   0  -8  -3  149.03    4.29
  -5  -9  -9   24.12    2.13
  -3 -10  -8   30.02    1.92
  -2  -9  -4   24.73    2.60
  -2  -7  -1   48.07    3.17
  -4  -6  -2  145.72    3.31
  -1  -7  -1   23.45    3.03
  -5  -8  -6   20.33    2.34
  -3  -8  -3   87.32    3.55
  -1  -9  -5   39.54    2.33
  -4  -9  -6   11.42    2.55
  -4  -7  -3   44.93    2.86
  -3  -9  -5   -1.21    2.49
  -5  -7  -5   11.00    2.18
  -3  -7  -2  157.42    3.75
  -1  -8  -3   25.35    2.77
  -2  -9  -5   32.36    2.17
  -2  -8  -3  168.20    4.00
   0  -8  -4   36.91    2.68
   0  -7  -2    7.29    2.02
  -5  -8  -7   -1.02    2.11
  -4  -9  -7   73.16    2.78
  -1  -9  -6  110.32    3.00
  -3  -9  -6   -2.41    2.40
  -5  -7  -6   30.57    2.26
  -4  -6  -3  192.57    3.28
  -3  -8  -4  111.61    3.93
  -2  -7  -2   20.73    2.19
  -1  -7  -2   24.54    2.83
  -5  -8  -8    9.69    1.94
  -4  -7  -4  119.89    3.26
  -2  -9  -6   17.86    1.91
  -1  -9  -7  165.06    3.17
  -5  -8 -10    1.01    1.64
  -5  -8  -9    1.03    1.65
  -3  -7  -3  143.64    3.58
  -1  -8  -4   49.33    2.99
   0  -8  -5    2.55    1.95
  -3  -9  -7    1.57    2.26
  -2  -8  -4   25.67    3.05
  -1  -9  -9   88.62    2.03
  -1  -9  -8   19.28    1.70
  -5  -7  -7   24.79    2.76
  -2  -9  -7    4.03    2.17
   0  -7  -3   36.45    2.45
  -3  -9  -8  261.69    3.91
  -3  -8  -5   95.00    3.53
  -3  -9 -11   -0.20    1.60
  -2  -9  -8    5.83    2.05
  -2  -7  -3  112.01    3.49
   0  -8  -6    2.89    1.96
  -4  -5   7    0.95    1.00
  -4  -3   7   52.64    1.90
  -3  -4   8  130.74    2.37
  -1  -7   6   35.41    1.27
  -1  -5   8    1.23    1.43
  -4  -4   7   45.69    1.80
  -2  -5   8   64.00    1.94
  -1  -1   8 1131.01    6.20
   0  -4   8   71.51    2.27
  -3  -6   7   46.64    1.53
  -1  -6   7   85.05    1.80
  -2  -2   8   83.02    2.22
   0  -3   8  107.67    2.76
   1  -3   7    2.10    1.52
  -3  -7   6   12.14    1.17
  -2  -6   7   38.79    1.69
  -2  -4   8    8.19    1.97
  -2  -3   8    9.88    2.07
  -1  -4   8   23.59    2.11
  -1  -2   8    8.87    2.08
   0  -5   7    3.14    1.49
  -5  -6   5   18.61    1.38
  -3  -2   7   68.69    2.01
  -2  -7   6    8.15    1.12
  -1  -3   8   73.17    2.62
  -4  -6   6    1.58    1.25
  -5  -5   5    1.35    1.18
  -4  -3   6   23.71    1.77
  -3  -5   7   10.25    1.70
   0  -4   7   63.05    2.30
  -3  -4   7   44.88    1.82
  -1  -5   7  366.12    3.85
  -5  -7   4   26.42    1.38
  -4  -4   6    8.52    1.80
  -2  -5   7  113.22    2.43
  -2  -2   7  165.23    2.65
   0  -3   7   84.75    2.67
  -1  -7   5   14.48    1.30
  -1  -6   6   89.74    2.30
  -3  -6   6   21.40    1.91
  -3  -2   6    2.74    1.41
  -2  -4   7   27.56    2.36
  -2  -3   7   18.00    2.14
  -1  -4   7   19.48    2.29
   0  -5   6    2.53    1.81
  -2  -8   4    2.10    1.09
  -2  -6   6   54.02    2.28
  -1  -3   7  168.48    3.17
  -3  -7   5   54.51    1.86
  -5  -6   4   99.43    2.20
  -4  -6   5    8.12    1.64
  -4  -3   5   67.35    2.33
  -3  -5   6   23.36    2.14
  -3  -3   6   95.10    2.88
  -2  -7   5    2.84    1.45
  -5  -5   4    8.87    1.75
  -3  -4   6   97.46    2.89
   0  -4   6   43.77    2.29
  -1  -5   6   91.20    2.66
  -4  -4   5    9.13    1.95
  -2  -5   6  194.28    3.52
  -5  -7   3    6.70    1.21
  -4  -7   4   39.06    1.84
  -3  -9   2    1.77    0.86
  -2  -3   6   21.95    2.20
  -4  -8   3   14.66    1.43
  -3  -6   5    5.07    2.02
  -2  -4   6   25.00    2.43
  -1  -7   4   34.69    2.05
  -1  -6   5   70.64    2.16
   0  -5   5    0.11    1.61
  -5  -8   2    0.46    1.55
  -2  -8   3    3.08    1.35
  -2  -6   5   64.40    2.18
  -6  -7   1   26.12    1.60
  -5  -6   3   44.31    2.14
  -4  -3   4   75.97    2.29
  -3  -8   3    8.97    1.66
  -3  -7   4   44.56    2.35
  -3  -5   5    9.38    2.24
  -3  -3   5   25.75    2.08
  -2  -7   4    1.21    1.71
  -5  -5   3    7.78    1.80
  -4  -6   4   30.92    1.83
  -3  -4   5    6.93    2.19
  -6  -8   0   33.69    1.71
  -1  -5   5   58.29    2.78
  -4  -5   4    0.07    2.14
  -4  -4   4   21.08    1.66
  -2  -5   5  306.21    4.24
  -4  -7   3  132.19    3.10
  -5  -9   0    1.66    1.56
  -5  -7   2   14.48    1.86
  -4  -8   2   11.48    1.79
  -3  -9   1  130.94    2.40
  -3  -6   4   21.32    2.84
  -2  -4   5   11.15    1.68
  -1  -7   3  106.05    2.86
  -1  -6   4  125.85    3.00
   0  -5   4    8.01    1.81
  -5  -8   1   10.36    1.60
  -2  -8   2   63.03    2.43
  -2  -6   4   24.45    2.75
  -6  -7   0   38.43    1.82
  -5  -6   2    7.36    2.10
  -3  -8   2  194.16    3.47
  -3  -7   3   15.02    2.40
  -3  -5   4   62.66    2.78
  -2  -7   3   11.20    2.34
  -5  -5   2   30.27    2.38
  -4  -6   3   45.60    2.23
  -3  -4   4   18.60    2.07
  -6  -8  -1    6.95    1.41
  -4  -4   3   28.65    2.31
  -2  -9   0   53.83    2.04
  -1  -5   4  233.34    3.67
  -4  -9   0   91.97    2.47
  -4  -5   3   -0.23    2.35
  -2  -5   4  138.59    3.29
  -5  -9  -1   20.73    1.79
  -5  -7   1    7.91    2.01
  -4  -7   2  258.09    4.45
  -4  -8   1    9.32    2.18
  -3  -9   0   19.89    1.76
  -3  -6   3    2.79    2.63
  -1  -7   2  181.74    3.71
  -1  -6   3    6.72    2.20
  -5  -8   0    3.43    2.06
  -6  -9  -3   25.16    1.80
  -6  -7  -1    7.54    1.85
  -2  -8   1  674.83    6.03
  -2  -6   3   52.13    3.08
  -5  -6   1  313.32    4.31
  -4  -6   2   86.16    3.16
  -3  -8   1    7.43    2.40
  -3  -7   2   95.62    3.22
  -3  -5   3  118.03    3.37
  -2  -7   2  160.59    3.64
  -6  -8  -2   18.93    1.70
  -5  -5   1   42.31    2.30
  -3 -10  -3   16.54    1.45
  -2  -9  -1  127.81    2.77
  -4 -10  -3   18.13    1.42
  -4  -9  -1   15.05    1.85
  -5  -9  -2   11.56    1.81
  -4  -7   1  162.37    3.77
  -4  -5   2  259.42    3.97
  -2  -5   3   23.71    2.41
  -5  -7   0   76.14    2.84
  -4  -8   0   17.89    2.61
  -3  -9  -1   12.05    1.97
  -6  -9  -4  102.39    2.48
  -5  -8  -1   18.89    2.20
  -3  -6   2    3.09    2.66
  -1  -7   1  133.80    3.21
  -1  -6   2  212.09    3.66
  -6  -7  -2    0.86    1.96
  -2  -8   0  134.80    3.26
  -6  -8  -3   27.92    1.82
  -5  -6   0   30.57    2.52
  -4 -10  -4   40.01    1.84
  -3 -10  -4   13.06    1.37
  -3  -8   0  104.49    3.26
  -3  -7   1  103.11    3.41
  -2  -6   2    8.00    2.53
  -4  -9  -2    4.73    2.00
  -4  -6   1   10.92    2.80
  -2  -9  -2  173.16    3.22
  -2  -7   1   12.58    2.57
  -5  -9  -3   10.94    1.69
  -5  -5   0   14.78    2.18
  -3  -5   2  425.08    4.26
  -6  -9  -5    0.80    1.78
  -3  -9  -2   20.66    2.15
  -5  -8  -2   -2.44    2.23
  -5  -7  -1   21.66    2.55
  -4  -8  -1    7.25    2.76
  -4  -7   0  147.12    3.68
  -4  -5   1    4.53    2.19
  -6  -7  -3   10.88    2.66
  -4 -10  -5   64.85    2.08
  -3 -10  -5    1.89    1.34
  -6  -8  -4   16.62    1.89
  -3  -6   1   -0.21    2.28
  -2  -8  -1   59.02    2.89
  -1  -7   0   70.82    2.58
  -6  -9  -6   18.51    1.95
  -4  -9  -3    7.04    2.13
  -3  -8  -1  125.52    3.46
  -2  -9  -3   19.79    2.36
  -5  -9  -4   21.68    1.91
  -5  -6  -1   31.67    2.45
  -3  -7   0   80.83    3.27
  -4 -10  -6   16.24    1.56
  -4  -6   0  114.29    3.26
  -3 -10  -6    2.04    1.22
  -3  -9  -3    2.15    2.12
  -2  -7   0   14.65    2.17
  -6  -9  -7    6.61    1.63
  -5  -7  -2   26.41    2.75
  -5  -5  -1    4.41    1.42
  -6  -8  -5   97.64    2.66
  -6  -7  -4    7.69    1.97
  -5  -8  -3    7.11    1.81
  -4  -8  -2   11.43    2.16
  -4  -7  -1   17.76    2.79
  -4 -10  -7   27.66    1.60
  -3 -10  -7   -0.84    1.15
  -2  -9  -4   20.23    2.75
  -5  -9  -5   42.13    1.90
  -4  -9  -4   -1.24    2.24
  -2  -8  -2  197.40    3.75
  -1  -7  -1   23.02    2.23
  -3  -8  -2  112.01    3.00
  -3  -6   0    1.26    2.26
  -6  -8  -6   60.84    2.23
  -5  -6  -2   52.71    2.60
  -3  -7  -1  106.66    3.43
  -5  -8  -4   35.33    2.54
  -4  -6  -1   80.32    2.88
  -2  -7  -1   43.53    3.01
  -6  -7  -5   21.87    2.32
  -5  -9  -6  106.24    2.63
  -5  -7  -3    8.15    2.46
  -5  -5  -2    2.98    1.87
  -4  -8  -3   73.00    3.38
  -2  -9  -5   36.20    2.82
  -4  -9  -5    4.31    2.27
  -4  -7  -2   29.08    2.79
  -6  -8  -7   41.17    2.03
  -5  -9  -7   59.53    2.37
  -3  -8  -3   89.84    3.41
  -2  -8  -3  157.34    3.53
  -6  -7  -6    1.46    2.08
  -5  -8  -5   23.47    2.50
  -1  -7  -2   25.30    2.37
  -6  -8  -8   11.78    1.74
  -5  -6  -3   35.42    2.36
  -4  -9  -6   10.59    2.23
  -4  -8  -4   95.91    3.55
  -3  -7  -2  156.95    3.81
  -2  -9  -6   21.52    2.16
  -6  -8  -9   37.85    2.09
  -5  -9  -8   51.70    2.15
  -5  -7  -4    5.01    2.32
  -2  -7  -2   17.71    2.72
  -4  -7  -3   40.84    2.90
  -6  -7  -7   -0.77    2.07
  -5  -9 -10   17.01    1.85
  -5  -9  -9   27.95    2.05
  -5  -5  -3    2.26    1.93
  -4  -9  -7   64.42    2.62
  -2  -9  -7    5.74    1.78
  -2  -8  -4   28.69    2.62
  -5  -8  -6   20.20    2.44
  -3  -8  -4   95.40    2.97
  -2  -9  -8    1.80    1.62
  -6  -7  -8   84.87    2.51
  -5  -7  -5   17.26    2.47
  -5  -6  -4   47.16    2.59
  -4  -9  -8    1.45    1.93
  -4  -8  -5   13.96    2.21
  -2  -9  -9   65.55    1.97
  -1  -7  -3   10.71    2.23
  -5  -8  -7    3.59    2.36
  -3  -7  -3  146.60    3.71
  -6  -7  -9    1.74    1.75
  -4  -9  -9  100.72    2.40
  -4  -7  -4  115.05    3.44
  -2  -7  -3  115.41    3.13
  -6  -7 -10    0.45    1.48
  -4  -9 -10   14.81    1.54
  -3  -9  -9  121.30    2.52
  -3  -8  -5   94.28    3.45
  -2  -8  -5  150.08    3.44
  -5  -8  -8   12.08    2.32
  -5  -5  -4   17.21    2.18
  -4  -8  -6   77.27    3.51
  -3  -9 -10   36.44    1.68
  -5  -7  -6   40.94    2.77
  -5  -8  -9    1.80    2.14
  -5  -6  -5   87.46    2.96
  -3  -8  -6   32.05    2.95
  -3  -7  -4   56.73    3.12
  -2  -8  -6  155.62    3.49
  -1  -7  -4   12.59    1.61
  -4  -8  -7   10.60    2.77
  -4  -7  -5   21.66    2.82
  -5  -7  -7   28.05    2.88
  -2  -7  -4    5.45    1.91
  -5  -5  -5  105.79    2.73
  -5  -6  -6  167.31    3.41
  -4  -8  -8   21.68    2.75
  -3  -8  -7    2.87    2.90
  -2  -8  -7   53.04    2.99
  -5  -7  -8  118.29    3.31
  -4  -8 -12    0.39    1.70
  -1  -7  -5    1.00    2.13
  -4  -8  -9   22.07    2.54
  -4  -7  -6  167.99    3.72
  -3  -7  -5    8.39    2.13
  -5  -7 -12   12.03    2.07
  -5  -7  -9   17.54    2.45
  -4  -8 -11   -0.81    1.79
  -4  -8 -10    8.46    2.24
  -3  -8  -8  207.43    3.80
  -2  -8  -8  275.65    3.98
  -2  -7  -5   34.18    2.75
  -5  -6  -7  305.52    4.21
  -3  -8 -12    3.87    1.51
  -2  -8 -11   31.34    1.85
  -5  -7 -11   12.41    2.00
  -5  -7 -10    3.81    2.02
  -5  -5  -6   76.11    2.59
  -3  -8  -9   33.44    2.63
  -2  -8 -10   12.98    2.09
  -2  -8  -9    9.10    2.24
  -4  -7  -7  145.07    3.63
  -3  -8 -11    6.18    1.80
  -3  -8 -10   51.96    2.66
  -3  -7  -6    0.95    2.95
  -1  -7  -6   31.67    2.35
  -4  -4 -10   27.00    1.76
  -4  -3 -12  121.19    2.76
  -3  -4  -9    5.15    1.98
  -3  -1 -13   48.38    1.90
  -4  -1 -13   27.10    1.61
  -4   0 -13   79.41    1.70
  -3   0 -13   80.36    1.77
  -2  -3 -10   29.88    2.54
  -2   2 -12   30.58    1.17
  -1  -2 -10 1030.29    6.39
   0  -1  -9  150.49    2.94
   0   0 -10  166.87    3.19
  -2  -1 -12    6.47    1.89
  -5  -3 -11  102.46    2.59
  -5  -2 -12   37.15    1.76
  -3  -2 -12   46.09    2.55
  -4  -3 -11  193.73    3.55
  -2  -2 -11   15.44    2.56
   0   1 -10   25.35    1.94
  -2   1 -12   31.46    1.77
  -1   0 -11   21.09    2.08
  -1   2 -11   44.02    1.75
  -5  -1 -12   12.07    1.46
  -1   1 -11  151.58    2.80
  -5  -3 -10   67.51    2.45
  -3  -1 -12   40.75    2.45
  -2   3 -11    4.92    0.99
  -1  -1 -10 1012.35    6.59
   0   0  -9  154.04    2.94
  -4  -3 -10  188.71    3.47
  -4  -1 -12   33.54    2.20
  -5  -2 -11   34.43    2.08
  -4   1 -12    3.59    1.19
  -3  -2 -11   81.44    2.58
  -3   0 -12   88.47    2.39
  -3   1 -12   -0.17    1.51
  -2  -2 -10   59.12    2.73
  -2  -1 -11   14.78    2.31
  -4   0 -12   94.71    2.18
  -3  -3  -9    6.89    1.54
   0   1  -9   26.44    2.00
  -4  -3  -9   69.63    2.63
  -2   0 -11    8.28    2.36
  -2   2 -11   75.63    2.57
  -1   0 -10   73.20    3.12
  -1   3 -10   29.25    1.70
  -6  -1 -10   25.97    1.51
  -5  -1 -11  112.76    2.82
  -5   1 -11   78.20    2.20
  -3  -2 -10  131.43    3.36
  -3  -1 -11   51.32    2.86
  -1   1 -10  168.30    3.19
  -6   0 -10    0.52    1.46
  -5  -2 -10   88.67    2.71
  -4  -1 -11   45.27    2.64
  -4   2 -11    2.58    1.24
  -2  -1 -10   63.59    2.78
  -1   2 -10   78.39    2.42
  -4  -2 -10   26.17    2.66
  -3   0 -11   45.53    2.71
  -4   0 -11   71.71    2.74
  -4   1 -11    4.36    1.81
  -3   1 -11   10.49    1.92
  -2   0 -10    9.66    2.60
  -2   3 -10    7.66    1.60
  -6  -1  -9   52.97    2.13
  -5  -2  -9  214.74    3.55
  -5  -1 -10   10.20    2.19
  -4   3 -10   25.43    1.38
  -3  -1 -10   40.08    2.83
  -4  -2  -9    5.60    2.30
  -2  -1  -9  173.69    3.00
   0   2  -8    0.20    1.51
  -2   2 -10  108.81    2.84
  -1   1  -9  295.80    3.84
  -1   3  -9  291.56    3.86
  -6   0  -9    1.65    1.42
  -6   1  -9   68.09    1.88
  -5   0 -10  235.86    3.42
  -5   1 -10  146.80    2.63
  -1   2  -9  221.69    3.44
  -3   0 -10   21.14    2.77
  -2   4  -9   15.24    1.63
  -4   0 -10   42.27    2.52
  -4   2 -10    1.82    1.76
  -3   2 -10   30.37    2.29
  -5  -1  -9   22.08    2.32
  -4   1 -10   -0.24    2.14
  -3  -1  -9  183.81    3.53
  -3   1 -10  153.36    3.49
  -3   4  -9    1.26    1.28
  -2   0  -9   21.73    2.42
  -2   5  -8   68.75    1.73
  -6   2  -8    1.59    1.48
  -4  -1  -9  102.83    3.25
  -1   4  -8   56.93    2.56
  -6   0  -8    0.85    1.59
  -5   2  -9    5.69    1.58
  -2   1  -9  118.74    3.19
  -2   3  -9   14.43    2.03
  -6   1  -8   41.90    1.72
  -5   0  -9   36.08    2.31
  -4   3  -9   30.97    1.82
  -3   0  -9    3.31    1.69
  -3   3  -9   23.44    2.13
  -1   2  -8  195.94    3.24
  -1   3  -8   10.41    1.99
  -5  -1  -8   11.81    2.21
  -4   0  -9   40.64    2.77
  -5   3  -8   68.08    1.91
  -4  -1  -8   30.31    2.36
  -4   2  -9    0.96    2.13
  -4   4  -8   38.14    1.63
  -3   1  -9   17.78    2.52
  -3   2  -9    7.39    2.17
  -4   1  -9   15.47    2.46
  -2   4  -8   37.94    2.13
  -6   0  -7  107.50    2.80
  -6   2  -7    4.13    1.28
  -5   4  -7    4.80    1.30
  -5   0  -8   13.87    2.55
  -6   1  -7   16.29    1.82
  -6   3  -6    1.00    1.49
  -5  -1  -7   33.69    2.31
  -5   2  -8   18.29    2.10
  -3   0  -8   66.97    2.64
  -2   1  -8  169.20    2.86
  -2   3  -8    3.08    1.97
  -2   5  -7   85.12    2.40
  -3   5  -7   58.55    1.82
  -2   6  -6    2.56    1.23
  -1   4  -7    7.38    1.96
  -4   3  -8   66.14    2.48
  -3   1  -8   27.32    2.47
  -3   3  -8  187.12    3.40
  -1   3  -7    1.99    1.92
  -5   3  -7    5.03    1.66
  -4   1  -8   14.45    2.52
  -4   2  -8    3.57    2.31
  -3   2  -8   95.64    2.98
  -6   1  -6  633.64    5.02
  -6   2  -6    8.38    1.55
  -5   0  -7   50.22    2.41
  -4   4  -7   83.13    2.39
  -5   4  -6   14.06    1.53
  -4   5  -6    3.37    1.30
  -2   4  -7   29.53    2.41
  -1   5  -6   33.21    2.01
  -6   3  -5    6.90    1.41
  -5   1  -7  122.74    2.87
  -3   4  -7   22.24    2.17
  -4   0  -7   65.55    2.18
  -2   7  -4    0.32    1.09
  -4   3  -7   79.46    2.84
  -3   6  -5   14.16    1.55
  -2   3  -7   13.40    2.43
  -6   1  -5   19.52    2.31
  -6   2  -5   43.60    2.04
  -2   5  -6  180.45    3.13
  -1   4  -6   23.17    1.88
  -5   0  -6   10.11    1.99
  -5   3  -6    6.69    1.80
  -4   1  -7   20.72    1.89
  -4   2  -7    0.65    2.20
  -3   1  -7   49.26    1.91
  -3   3  -7  127.76    3.16
  -2   6  -5   28.28    2.06
  -4   6  -4  118.64    2.16
  -3   2  -7  147.32    3.15
  -6   3  -4    0.78    1.58
  -5   1  -6   95.19    2.89
  -5   4  -5   28.81    1.78
  -4   4  -6   27.91    2.13
  -4   5  -5    2.21    1.46
  -3   7  -3   -0.19    0.94
  -2   4  -6   67.70    2.60
  -1   5  -5   21.34    1.92
  -6   2  -4   47.48    2.24
  -6   4  -2   17.88    1.60
  -5   0  -5   67.43    2.35
  -3   4  -6   15.51    1.88
  -4   3  -6   41.95    2.67
  -6   3  -3   38.61    1.88
  -4   2  -6   74.20    2.95
  -3   5  -5   93.28    2.78
  -2   7  -3    9.51    1.43
  -1   6  -4   39.02    2.21
  -5   1  -5   74.48    2.82
  -5   5  -3   20.46    1.54
  -4   6  -3   38.67    1.57
  -3   2  -6  150.20    3.10
  -3   3  -6  204.22    3.34
  -2   5  -5  254.02    3.83
  -1   4  -5   33.60    2.06
  -6   2  -3   74.45    2.42
  -5   2  -5  249.47    3.57
  -5   4  -4   89.19    2.43
  -4   4  -5    8.94    2.15
  -2   6  -4   49.88    2.38
  -2   8  -1   38.82    1.41
  -4   5  -4    1.25    1.69
  -6   3  -2   10.60    1.75
  -3   7  -2   13.35    1.22
  -3   4  -5    3.41    2.39
  -2   4  -5  163.01    3.32
  -5   3  -4   10.24    2.34
  -5   5  -2   32.82    1.67
  -4   3  -5   57.95    2.61
  -5   1  -4  108.15    2.60
  -4   2  -5  681.79    5.53
  -1   5  -4   63.31    2.31
  -5   2  -4    5.65    2.16
  -4   6  -2  120.62    2.43
  -3   3  -5 1366.02    7.52
  -3   5  -4   10.47    2.29
  -3   6  -3   25.77    2.00
  -4   4  -4   30.14    2.54
  -2   5  -4  257.47    3.62
  -2   7  -2    1.43    1.54
  -1   6  -3  100.44    2.57
  -1   7  -2   34.91    2.15
  -4   5  -3    0.67    1.89
  -2   6  -3    0.57    1.94
  -2   8   0  228.29    2.64
  -5   3  -3   42.50    2.18
  -4   7   1    4.25    1.18
  -5   1  -3  112.27    2.54
  -4   3  -4  966.10    6.01
  -3   4  -4  229.75    3.60
  -1   8   0   34.62    1.63
  -5   2  -3   11.22    1.91
  -4   6  -1    4.61    1.62
  -3   5  -3   38.49    2.44
  -3   6  -2   33.70    2.12
  -5   5   0    3.61    1.46
  -4   4  -3    2.75    1.51
  -4   5  -2   12.84    2.07
  -4   7   2   10.44    1.21
  -3   3  -4    8.23    1.90
  -2   7  -1   10.59    1.86
  -1   5  -3 1154.39    6.03
  -5   3  -2   25.52    2.27
  -2   5  -3  185.62    3.38
  -2   8   1  185.79    2.40
  -5   4  -1  103.10    2.48
  -3   7   0   14.39    1.28
  -2   6  -2  124.80    2.64
  -1   6  -2    6.93    1.86
  -1   7  -1  140.99    2.82
  -5   2  -2   27.02    2.25
  -5   5   1    3.34    1.50
  -4   3  -3  239.60    3.48
  -4   6   0    2.38    1.60
  -3   4  -3   44.40    2.41
  -3   6  -1   55.89    2.21
  -1   8   1   40.51    1.81
  -5   3  -1   33.74    2.38
  -5   4   0  167.02    2.92
  -5   5   2    2.22    1.40
  -4   4  -2   49.38    2.45
  -4   5  -1    7.36    1.98
  -3   5  -2    6.89    1.98
  -5   5   3   16.93    1.81
  -3   7   1    6.93    1.56
  -2   7   0   39.08    1.96
  -2   8   2   38.14    1.67
  -5   2  -1   19.59    1.94
  -4   6   1   18.98    1.46
  -5   3   0   47.31    2.26
  -5   4   1   29.73    2.10
  -2   6  -1    2.66    2.03
  -1   7   0   74.16    2.26
  -4   5   0   68.21    2.41
  -4   6   2   16.61    1.74
  -3   6   0   88.54    2.67
  -1   6  -1   23.91    2.31
  -4   4  -1  312.12    3.75
  -3   4  -2   12.81    1.48
  -3   7   2    1.59    1.66
  -2   8   3   74.92    1.94
  -1   8   2   56.36    2.09
  -5   2   0    3.78    2.00
  -5   4   2   17.24    2.24
  -3   5  -1   20.61    2.10
  -5   3   1   20.66    2.40
  -4   6   3   32.46    1.88
  -5   4   3   32.12    2.09
  -5   4   4   23.01    2.01
  -4   3  -1  311.16    3.57
  -4   5   1  194.88    3.28
  -3   7   3    1.35    1.61
  -5  -7 -11    9.60    1.69
  -5  -7 -10    3.84    1.80
  -2  -7  -7   95.75    3.33
   0  -6 -10   80.42    2.75
   0  -6  -7    8.02    2.59
   1  -5  -8   66.18    2.67
   1  -5  -7   13.58    2.18
  -3  -7 -13   11.49    1.52
  -3  -7  -7    9.14    2.40
  -2  -7 -12    2.15    1.79
   0  -6  -9   84.23    3.20
   0  -6  -8   57.58    3.04
  -4  -7  -8   70.58    2.44
  -2  -7  -8    0.58    2.53
  -2  -7 -11   -0.62    2.46
   0  -5 -12    5.75    1.69
  -4  -7 -12   95.42    2.29
  -3  -7 -12  336.04    3.81
  -2  -7 -10   -0.77    2.68
  -2  -7  -9   15.89    2.81
  -1  -6 -12    8.30    1.86
  -1  -6  -6  393.65    4.60
  -4  -7  -9  124.37    3.08
  -4  -7 -11  100.54    2.60
  -4  -7 -10  104.37    2.86
  -3  -7 -11   78.74    2.85
  -3  -6 -14    2.36    1.31
  -3  -7 -10  163.81    3.66
  -2  -6 -13    1.10    1.67
  -1  -6  -7   78.97    3.27
   0  -5 -11   19.41    2.19
  -1  -6  -8  105.73    3.53
  -1  -5 -13    4.73    1.44
  -5  -6 -12    2.79    1.51
  -1  -6  -9   13.72    2.97
  -4  -6  -7   99.73    2.73
  -3  -6 -13   15.74    1.93
  -2  -6 -12    4.17    2.15
   0  -5 -10    8.51    2.48
  -5  -6 -11   86.73    2.47
  -5  -6 -10  105.76    2.76
  -2  -6  -7   35.13    2.73
   0  -5  -9    3.27    2.54
   0  -5  -8    0.28    2.33
  -3  -6  -7    4.82    2.26
   0  -4 -12   31.85    1.94
  -4  -6  -8   22.83    2.60
  -2  -6 -11   22.19    2.98
  -2  -6  -8   23.70    2.94
  -5  -5 -13  187.01    2.79
  -4  -5 -14   14.95    1.59
  -3  -6 -12   28.13    2.65
  -3  -5 -14   22.54    1.53
  -2  -6 -10   33.90    3.20
  -2  -6  -9    4.30    3.01
  -1  -5 -12   10.56    2.45
  -4  -6 -11   68.21    2.95
  -4  -6  -9  108.80    3.19
  -4  -6 -10   77.51    3.19
  -3  -6 -11   15.76    2.85
  -3  -6  -9   11.36    3.23
  -2  -5 -13   52.27    2.46
  -3  -6 -10   17.01    3.08
  -1  -4 -13    9.75    1.88
   0  -4 -11   34.11    2.49
  -5  -5 -12  309.39    3.55
  -4  -5 -13    4.66    1.93
  -3  -5 -13    1.82    2.22
  -2  -5 -12   42.81    2.76
  -1  -5  -9   59.12    3.32
  -1  -5  -8  469.09    4.93
   0  -4 -10   19.18    2.60
  -5  -5 -11   55.95    2.86
  -5  -5 -10   57.13    3.21
  -4  -4 -14   20.38    1.85
   0  -3 -12   67.25    2.37
  -5  -4 -13    3.84    1.76
  -3  -4 -14   94.40    2.06
   0  -4  -9   52.53    3.03
  -3  -5 -12  168.69    3.80
  -2  -5 -11   59.02    3.54
  -1  -4 -12   17.18    2.45
  -4  -5 -11    1.24    2.70
  -4  -5  -8    1.27    2.12
  -2  -5 -10  115.24    3.87
  -2  -5  -9  123.66    3.58
  -2  -5  -8  185.99    3.39
  -2  -4 -13   16.43    1.81
  -1  -3 -13   34.80    2.05
  -4  -5 -10   -1.57    2.67
  -4  -5  -9    6.62    2.32
  -3  -5 -11   62.17    3.31
  -5  -4 -12  210.41    3.12
  -4  -4 -13  102.89    2.55
  -4  -3 -14    5.50    1.64
  -3  -5 -10   92.83    3.72
  -3  -5  -8  229.10    3.50
  -1  -4 -11   50.38    3.21
   0  -3 -11  174.71    3.50
  -5  -3 -13   18.67    1.77
  -3  -5  -9  127.65    3.09
  -3  -4 -13  169.41    3.40
  -3  -3 -14    1.51    1.33
  -2  -4 -12   43.33    2.63
  -2  -2 -14   53.73    1.76
   0  -2 -12   70.27    2.18
  -5  -4 -11  133.24    3.21
  -5  -4 -10    3.75    2.24
  -1  -3 -12  130.70    3.09
   0  -3 -10  220.00    3.94
  -3  -4 -12  450.21    5.19
  -3  -2 -14    1.10    1.40
  -2  -3 -13    1.33    2.10
  -2  -1 -14   49.08    1.49
  -1  -2 -13   38.43    2.01
  -2  -4 -11   15.48    2.84
   0  -3  -9  258.93    4.23
  -5  -3 -12   62.84    2.24
  -4  -3 -13   57.63    2.14
  -4  -4 -11   68.83    2.51
  -3  -4 -11   43.85    3.05
  -3  -3 -13   16.13    2.18
  -2  -4 -10   20.97    2.70
   0  -2 -11   54.12    2.63
   0  -1 -12   12.88    1.66
  -4  -4 -10   37.03    2.89
  -2  -4  -9   17.51    2.63
  -1  -3 -11    3.49    2.58
  -5  -3 -11  125.15    2.97
  -4  -4  -9   36.00    2.78
  -4  -4  -8  152.32    2.76
  -3  -4 -10   16.23    3.01
  -2  -3 -12   24.50    2.69
  -1  -1 -13   19.45    1.75
  -3  -4  -9    6.35    2.35
  -2  -2 -13   28.42    2.17
  -5  -2 -12   37.86    1.80
  -4  -2 -13   19.50    1.81
  -1  -2 -12   16.50    2.31
  -1   0 -13    4.31    1.41
  -5  -3 -10   73.68    2.76
  -3  -3 -12   11.07    2.69
  -3  -2 -13  114.35    2.72
   0  -2 -10   80.13    2.76
  -5  -1 -12   11.65    1.53
  -4  -1 -13   29.22    1.70
  -2  -3 -11   84.56    2.80
   0  -1 -11   14.94    2.07
  -5  -2 -11   31.06    2.11
  -3  -3 -11 1389.98    8.16
  -3  -1 -13   53.17    1.98
  -2  -2 -12    7.93    2.50
  -1  -2 -11   20.49    2.60
  -4  -3 -10  175.42    3.60
  -4  -2 -12   23.54    2.35
  -2  -3 -10   30.89    2.82
  -1  -1 -12   30.92    2.29
  -3  -2 -12   46.60    2.77
  -3   0 -13   81.73    1.85
  -5  -2 -10   74.88    2.74
  -4  -3  -9   62.90    2.76
  -3  -3 -10   91.64    3.27
  -5  -1 -11  112.51    2.43
  -4  -1 -12   37.02    2.10
  -3  -3  -9    5.80    2.20
  -2  -2 -11   17.27    2.68
  -1  -2 -10 1054.53    6.75
  -1   0 -12   21.32    1.91
   0  -1 -10   13.46    2.06
   0   0 -11  200.70    3.17
  -5   0 -11    1.83    1.28
  -2  -1 -12    0.31    2.28
  -4   0 -12  101.97    2.20
  -3  -2 -11   81.73    3.24
  -3  -1 -12   48.32    2.43
  -1  -1 -11   29.21    2.42
  -1   1 -12   33.50    2.02
  -1   2 -12    4.98    1.15
  -5  -1 -10   10.24    2.18
  -4  -2 -10   25.98    2.50
  -3   2 -12   31.39    1.56
   0   1 -11   54.72    2.05
  -3   0 -12   90.44    2.44
  -2  -2 -10   63.92    2.45
  -2   0 -12    0.65    1.97
   0   2 -11    1.07    1.41
  -3  -2 -10  124.29    3.56
  -3   1 -12   -0.48    1.44
  -2   1 -12   37.03    1.93
  -5  -1  -9   13.36    2.08
  -5   0 -10  201.64    2.76
  -5   1 -10  126.16    2.19
  -4  -2  -9    7.68    2.25
  -2  -1 -11   16.35    2.53
   0   0 -10  168.09    3.04
  -3  -1 -11   50.19    2.78
  -1  -1 -10 1045.99    6.64
  -1   0 -11   30.92    2.13
  -4  -2  -8   -0.59    2.18
  -3  -2  -9   -1.58    2.09
  -4  -1 -10   50.34    2.57
  -5   0  -9   25.82    2.07
  -3   3 -11   14.60    1.22
  -1   1 -11  145.68    2.76
  -1   3 -11   25.43    1.34
  -5   2  -9    5.01    1.17
  -3   0 -11   44.54    2.69
  -2  -1 -10   63.06    2.94
  -2   0 -11    7.62    2.27
   0   1 -10   28.22    2.17
  -5   1  -9   57.29    1.93
  -4   3 -10   24.55    1.39
  -3  -1 -10   32.30    2.73
  -2   3 -11    6.12    1.27
  -1   2 -11   53.92    2.19
   0   0  -9  143.89    2.90
   0   4 -10   38.38    1.31
  -4  -1  -9   91.52    3.03
  -3   1 -11    9.51    2.00
  -3   2 -11   59.55    1.94
  -1   0 -10   73.04    2.88
  -4   0 -10   39.56    2.46
  -2   1 -11   44.26    2.25
  -2   2 -11   76.91    2.20
   0   2 -10   10.36    1.62
   0   3 -10   60.47    1.89
  -4   1 -10    2.86    1.79
  -4   2 -10    1.68    1.48
  -3  -1  -9  157.93    3.27
  -2  -1  -9  180.02    3.22
  -4  -1  -8   29.40    1.71
  -3   0 -10   20.04    2.35
  -2   0 -10   11.45    2.42
  -2   4 -10   10.60    1.29
  -1   1 -10  161.96    3.07
  -1   4 -10   54.94    1.63
   0   5  -9   -0.43    1.02
  -4   0  -9   32.54    1.89
  -3   3 -10    4.68    1.35
   0   1  -9   23.98    1.96
  -4   3  -9   33.18    1.49
  -3   1 -10  153.76    3.27
  -1   2 -10   75.43    2.57
  -3   2 -10   29.86    2.19
  -2   1 -10   77.83    2.69
  -1   3 -10   45.93    1.95
  -4   1  -9   16.92    1.88
  -4   2  -9    1.06    1.71
  -3   0  -9    6.72    2.22
  -2   2 -10   98.25    2.78
  -2   3 -10    7.28    1.61
  -2   5  -9   42.22    1.45
  -4   0  -8   46.39    2.42
  -4   4  -8   36.91    1.45
  -2   0  -9   16.33    1.94
  -1   5  -9   65.40    1.62
   0   2  -9    5.08    1.83
  -3   4  -9   -0.34    1.26
   0   4  -9   53.30    2.00
   0   3  -9   74.83    2.27
  -3   1  -9   15.77    2.47
  -3   5  -8   15.05    1.44
  -4   0  -7   64.88    2.39
  -4   1  -8   13.91    2.17
  -4   3  -8   68.29    2.19
  -3   3  -9   16.89    1.85
  -2   1  -9  112.65    2.82
  -4   2  -8    2.08    1.90
  -3   2  -9   12.86    2.02
  -2   4  -9   14.90    1.87
  -4   4  -7   93.41    1.85
  -4   5  -6    4.27    1.23
  -2   2  -9  113.07    3.09
  -2   3  -9    9.55    2.34
   0   5  -8    0.02    1.48
   0   2  -8   -0.04    1.85
  -4   1  -7   16.13    1.72
  -3   1  -8   25.33    2.41
  -3   4  -8    2.35    1.65
  -2   5  -8   67.23    2.00
  -2   1  -8  174.44    3.17
  -2   6  -7    0.68    1.10
   0   3  -8  101.80    2.54
   0   4  -8   74.10    2.36
  -4   2  -7    3.81    1.81
  -4   3  -7   79.58    2.30
  -3   2  -8  107.44    3.03
  -3   3  -8  179.80    3.18
  -3   5  -7   61.83    1.83
   0   6  -7    4.77    1.36
  -4   1  -6  172.57    2.88
  -2   4  -8   34.47    2.39
  -1   6  -7    6.88    1.45
  -4   4  -6   28.23    1.92
  -4   5  -5    2.36    1.23
  -2   2  -8  106.60    2.54
  -2   3  -8    4.02    2.43
  -1   7  -6    2.91    1.00
   0   7  -6   36.13    1.42
   0   7   5   40.83    2.20
   1   7  12    4.94    0.83
  -4   5   7    1.99    1.02
  -3   6   6   61.11    1.78
  -1   6   3    1.72    1.69
  -1   7  11   16.31    1.02
   2   7   8    1.74    1.62
  -3   6   7    7.40    1.62
  -3   6   8   27.74    1.48
  -1   7   6    6.69    2.01
   2   7   9   10.44    1.66
  -3   5   3   21.56    1.73
  -2   6   4   88.78    2.48
   0   7   6   84.02    2.58
  -1   7   7   68.50    2.47
  -1   7  10  263.52    2.53
   1   7   7  687.75    5.32
  -1   7   8   19.03    2.02
  -1   7   9   83.78    2.26
   0   7  11   58.33    1.50
   1   7  11   16.29    1.47
  -1   6   4   -1.88    2.07
   0   7   7  536.60    4.90
   1   7   8    6.13    1.92
   1   7   9   12.47    2.09
   1   7  10    3.10    1.83
  -3   5   4   29.56    1.97
   0   7   8   42.73    1.96
   0   7   9   75.02    2.51
  -2   5   3  218.58    2.95
  -2   6  10    6.09    1.25
  -1   6   5   42.73    2.58
  -3   5   5  184.37    3.10
  -2   6   7    8.89    2.15
  -2   6   9    9.85    1.68
   0   6   5   10.39    1.57
  -2   6   8    3.26    1.80
   1   6  12    4.70    1.41
  -1   6  11   30.81    1.72
   0   6  12   43.21    1.58
  -4   4   6   28.12    2.06
  -4   4   8   10.13    1.22
  -3   5   6  242.77    3.35
  -2   5   4  306.28    3.73
  -1   6   6  496.03    4.37
   0   6   6  749.05    5.83
  -4   4   7   25.19    1.71
  -3   4   3   35.65    1.97
  -3   5   7  186.27    2.96
  -3   5   8   87.60    2.39
   1   6   7   83.84    2.57
  -1   6   7  255.97    3.96
  -1   6  10   58.95    2.26
   0   6  11   64.78    2.24
   1   6  11  188.78    2.95
  -1   6   8   95.22    3.10
  -1   6   9   13.19    2.57
   0   5  13    5.75    0.92
   0   6   7    9.62    2.33
   1   6   8   95.10    2.89
   1   6  10   70.51    2.63
  -2   5  11   28.91    1.45
   1   6   9   14.51    2.19
   0   6   8   55.14    2.37
  -3   4   4   50.14    2.28
  -1   5  12   17.14    1.42
  -2   5  10   69.02    2.27
  -3   4  10    8.62    1.53
   1   5  12   10.99    1.62
  -4   3   9   49.28    1.69
  -2   4  12   32.20    1.46
  -2   5   7   97.49    3.28
  -2   5   9   90.43    2.91
  -1   4  13   59.76    1.29
   0   5  12    5.68    1.89
  -3   4   5  900.74    5.69
  -2   5   8  108.54    2.53
  -1   5  11   41.14    2.30
  -1   5   6  254.66    4.00
  -4   3   8   99.14    2.35
  -3   4   6   35.61    2.65
   0   4  13   88.31    1.98
   1   5  11   74.15    2.44
  -4   3   6  227.71    3.28
  -4   3   7  136.22    2.90
  -3   4   7   26.22    2.32
  -3   4   8   -0.29    2.47
  -1   5   7   13.42    2.52
  -1   5  10   94.61    3.02
   0   5  11   22.94    2.27
  -4   2  10   33.15    1.47
  -3   3  11   24.47    1.71
  -2   4  11   43.90    2.01
  -1   5   8   84.59    3.20
  -1   5   9  266.09    4.42
   0   5   7   14.32    2.04
   1   5   8  460.50    4.60
   1   5   9   56.00    2.74
   1   5  10   66.05    2.73
   0   5  10    2.27    2.82
  -1   4  12  228.83    2.91
  -1   3  13   12.69    1.18
   1   4  12   18.41    1.68
  -2   3  12    2.81    1.20
  -2   4  10   57.88    2.19
   0   4  12   45.89    2.19
  -4   2   9   24.98    1.85
  -3   3  10   48.47    2.25
  -2   4   6   85.10    2.68
  -2   4   7   50.84    2.96
  -2   4   9   40.15    2.88
  -1   4  11  220.09    3.66
   0   3  13   37.08    1.71
  -2   4   8   40.06    2.43
   1   4  11   50.38    2.50
  -4   1  10    2.86    1.52
  -4   2   8   59.07    2.34
  -3   2  11   17.03    1.60
  -3   3   5  529.13    4.94
   0   4  11   42.62    2.66
  -4   2   5   35.27    2.21
  -2   3  11   42.30    2.29
  -1   4  10   26.73    2.75
  -4   2   6   29.83    2.31
  -4   2   7   30.43    2.32
  -3   3   6  293.24    4.05
  -3   3   7  250.18    4.04
  -1   2  13    3.98    1.21
   1   4  10   13.47    2.28
  -2   2  12   24.81    1.52
  -1   4   7   41.06    2.30
  -1   4   8  114.19    3.36
  -1   4   9  123.90    3.60
   0   4  10   21.37    2.85
   1   4   9   30.50    2.44
   0   2  13   92.85    1.94
  -3   2  10   76.61    2.45
  -2   3  10   43.95    2.75
   0   3  12   91.15    2.51
   0   4   9   52.65    3.03
  -4   1   9   12.91    1.96
  -4   0  10   42.23    1.77
  -3   1  11   40.80    1.67
  -1   1  13  116.90    1.74
  -1   3  11   69.30    2.75
  -2   3   9    6.28    2.76
   1   3  11    5.27    2.25
  -3   2   9  560.16    4.91
  -2   1  12   29.71    1.51
  -2   2  11   93.41    2.53
  -2   3   8    3.91    2.75
   0   1  13    0.07    1.22
   0   3  11  189.57    3.59
  -4   1   8   47.81    2.42
  -2   3   7    4.52    2.35
  -1   3  10  239.96    3.63
  -4  -1  10   21.73    1.42
  -4   1   7   44.54    2.63
   0   2  12   86.04    2.55
   1   3  10  251.41    3.54
  -4   0   9   96.66    2.43
  -4   1   5   39.58    2.25
  -4   1   6   55.01    2.54
  -3   0  11    4.98    1.30
  -3   1  10   -0.20    1.89
  -3   2   6   75.38    2.63
  -3   2   7  100.09    3.60
  -1   3   9    5.50    2.73
   0   3  10  235.51    4.10
  -2   0  12    7.11    1.45
  -2   2  10   56.18    2.81
  -1   3   8    2.51    2.44
  -1   2  11   32.55    2.62
   0   3   9  283.08    4.19
  -2   1  11   29.78    2.14
  -3  -1  11   38.65    1.54
  -2  -1  12   27.44    1.22
  -2   2   9   51.89    3.02
   1   2  11   18.52    1.94
  -4   0   8   81.85    2.57
  -3   1   9    5.12    2.36
   0   1  12   18.97    2.08
   0   2  11   61.86    2.71
  -5  -2   7   15.33    1.35
  -4  -1   9   73.32    2.06
  -1   2  10   -0.45    2.60
  -3   0  10    1.11    1.84
  -2   2   8   27.82    2.77
  -1   0  12   88.03    2.05
  -4   0   7   93.76    2.86
   1   2  10  976.11    5.87
  -2   0  11    2.50    1.80
  -2   1  10    9.35    2.42
   0   0  12  217.06    2.89
   0   2  10   87.09    2.99
  -5  -3   7  106.03    2.15
  -4  -2   9    1.19    1.25
  -4   0   6   59.79    2.70
  -3   1   7  155.94    3.50
  -1  -1  12    1.86    1.24
  -1   2   9   56.39    2.84
  -4   0   5   14.12    1.93
  -4  -3   9   27.36    1.56
  -4  -1   8   38.22    2.08
  -3  -1  10   77.86    2.19
  -3   0   9  113.58    2.98
  -3   1   6  188.61    3.22
   0  -1  12   22.79    1.36
   0   1  11   14.80    2.25
  -2  -1  11   12.61    1.60
  -2   1   9   44.53    2.73
   0   2   9   45.40    1.91
  -2  -3  11    0.76    0.93
  -1   1  10  183.54    3.52
  -3  -2  10   24.87    1.43
  -2  -2  11   14.68    1.40
  -2   0  10   18.40    2.35
  -5  -3   6   23.74    1.71
  -4  -1   7   42.88    2.45
  -3  -3  10   50.38    1.60
  -3   0   8   50.50    2.76
  -2   1   8   93.74    3.06
  -4  -2   8   -0.86    1.92
   0   0  11  229.59    3.42
   0   1  10   12.63    2.37
  -3  -1   9   86.21    2.54
  -5  -4   6  465.73    4.14
  -4  -1   6   61.21    2.65
  -1   1   9   39.17    2.72
  -4  -3   8   26.34    1.64
  -2  -1  10   33.53    2.27
  -2   0   9   27.14    2.70
  -1  -3  11   19.06    1.26
  -4  -4   8   43.36    1.68
  -1  -2  11  124.97    2.30
  -1   0  10  246.22    3.66
   0  -1  11   75.24    2.31
  -4  -2   7    3.43    1.99
  -4  -1   5   58.35    2.50
  -3  -2   9   76.78    2.32
   0   1   9  160.56    3.24
  -3  -1   8   89.41    2.91
  -2  -4  10    2.07    1.08
   0  -2  11    0.65    1.51
  -2  -2  10   54.87    1.84
   0   0  10  184.56    3.33
  -3  -4   9   99.59    1.95
  -3  -3   9   34.31    1.90
  -2  -3  10    2.55    1.30
  -2   0   8   34.45    2.36
  -2  -1   9   80.18    2.84
  -1   0   9  671.53    5.76
  -4  -3   7   57.06    1.90
  -4  -2   6   -0.75    1.93
  -4  -5   7    2.78    1.18
  -3  -2   8 1394.90    7.24
  -1  -4  10    0.99    1.12
  -4  -4   7   44.68    2.03
   0  -4  10   47.38    1.61
   0  -1  10   33.65    2.35
  -4  -2   5    2.69    1.84
   0   0   9  156.81    2.99
  -3  -1   6  199.38    3.25
  -2  -2   9   88.84    2.73
  -4  -3   6   28.28    2.36
  -3  -5   8    8.92    1.27
  -3  -3   8   23.59    1.98
  -2  -1   8   33.70    2.43
  -1  -1   9  174.09    3.42
   0  -3  10   63.23    2.04
   0  -2  10    7.32    1.96
  -3  -4   8  121.93    2.53
  -2  -4   9   -1.09    1.59
  -2  -3   9   12.19    1.97
  -4  -6   6    1.31    1.38
  -3  -2   7   76.62    2.83
  -4  -4   6    9.24    1.88
  -2  -6   8   32.36    1.49
  -1  -5   9   -0.32    1.13
  -4  -5   6    0.13    1.76
   0  -5   9    1.31    0.97
   0  -1   9   24.68    2.18
  -4  -7   5   13.54    1.37
  -4  -3   5   63.58    2.56
  -3  -6   7   48.68    1.78
  -2  -2   8   86.67    3.10
  -2  -1   7  162.64    3.10
  -1  -2   9    2.23    1.74
  -3  -3   7  253.29    3.77
  -1  -1   8 1100.19    6.53
  -3  -5 -12  176.37    3.61
  -2  -5 -11   50.39    3.35
   0  -2 -13   79.94    2.04
   1  -3  -9    0.45    2.22
  -4  -5 -11   -0.32    2.26
  -1  -4 -12   20.92    2.55
  -1  -2 -14   10.32    1.30
   0  -3 -12   78.93    2.62
  -4  -5 -10    1.76    2.24
  -4  -5  -9    3.91    2.10
  -2  -5 -10  118.57    3.89
  -2  -5  -9  126.53    3.58
  -2  -5  -8  189.83    3.20
  -2  -4 -13   20.67    2.42
  -2  -3 -14    0.56    1.49
  -4  -4 -13   96.19    2.62
  -4  -3 -14    5.63    1.52
  -3  -5  -8  254.68    3.85
  -3  -5 -10   83.93    3.33
  -3  -5  -9  145.82    3.52
   0  -1 -13   -0.59    1.35
  -3  -4 -13  166.30    3.20
  -1  -4 -11   50.30    3.32
   0  -3 -11  184.89    3.73
   1  -2 -10    1.72    1.91
  -2  -4 -12   41.59    2.91
  -2  -2 -14   56.89    1.72
  -1  -4 -10   15.95    2.91
  -4  -4 -12  138.80    3.06
   0  -2 -12   74.57    2.55
  -5  -3 -12   60.89    1.99
  -3  -4 -12  437.99    4.87
  -2  -3 -13    1.33    2.02
  -1  -4  -9   29.57    2.26
  -1  -3 -12  125.37    3.11
   0  -3 -10  225.48    4.08
  -4  -3 -13   54.36    1.93
  -3  -2 -14    2.84    1.48
  -2  -4 -11   15.13    2.92
  -2  -1 -14   44.71    1.57
   1  -2  -9   48.93    2.27
  -4  -4 -11   82.60    2.99
   0  -3  -9  268.20    4.25
  -3  -3 -13   16.82    1.97
  -3  -1 -14    3.35    1.33
  -2  -4 -10   27.30    2.84
  -4  -4 -10   33.43    2.58
   0  -2 -11   57.26    2.70
  -4  -4  -9   33.81    2.19
  -3  -4 -10   12.22    2.89
  -2  -4  -9   14.85    2.00
  -1  -3 -11    4.77    2.74
   0  -1 -12   12.99    2.03
  -5  -2 -12   33.56    1.53
  -3  -4  -9    6.70    2.21
  -2  -3 -12   22.47    2.71
  -2  -2 -13   29.81    2.09
  -1  -1 -13   19.85    1.73
  -4  -3 -12  119.05    2.67
  -4  -2 -13   17.81    1.47
  -3  -3 -12   11.50    2.47
  -3  -2 -13  108.09    2.58
  -1  -3 -10  241.89    4.15
  -1   0 -13    3.71    1.31
  -5  -1 -12   10.73    1.35
   0  -2 -10   83.64    2.95
   0   0 -12  198.48    2.92
  -4  -1 -13   28.63    1.74
  -2  -3 -11   90.65    3.36
   1  -1  -9   36.91    2.09
  -5  -2 -11   31.15    2.03
  -4  -3 -11  183.81    3.41
  -2  -1 -13   46.95    1.91
   0  -1 -11   17.07    2.22
   0   1 -12   18.40    1.45
  -3  -3 -11 1434.92    8.03
  -3  -1 -13   49.90    1.94
   0  -2  -9   47.87    2.36
  -4  -2 -12   23.21    2.15
  -2  -3 -10   30.53    2.72
  -2  -2 -12    7.10    1.89
  -2   0 -13    0.71    1.49
  -2   1 -13   13.07    1.32
  -1  -2 -11   29.64    2.85
  -4  -3 -10  151.07    2.78
  -3  -2 -12   47.97    2.49
  -3   0 -13   76.68    1.79
  -4  -3  -9   59.26    2.56
  -5  -1 -11   97.43    2.07
  -4  -1 -12   38.38    2.08
  -3  -3  -9    7.34    2.17
  -1  -2 -10 1045.49    6.87
  -1   0 -12   19.52    1.95
   0  -1 -10   10.10    2.28
   0   0 -11  214.45    3.34
  -5   0 -11    1.64    1.26
  -4  -2 -11   41.81    2.42
  -2  -2 -11   17.57    2.10
  -2  -1 -12    4.85    2.31
  -3  -2 -11   89.63    3.10
  -3  -1 -12   39.95    2.40
  -1   2 -12    4.50    1.24
  -4   0 -12   94.38    2.06
  -1   1 -12   31.66    1.79
   0   3 -11    9.74    1.12
  -5  -1 -10    7.65    2.06
   0   1 -11   56.59    2.27
  -4  -2 -10   24.13    2.29
  -3   2 -12   32.73    1.46
  -2  -2 -10   62.74    2.78
  -2   0 -12    1.44    1.92
   0  -1  -9  145.94    3.09
   0   2 -11    1.47    1.37
  -4  -1 -11   44.33    2.25
  -3   0 -12   89.85    2.43
  -2   2 -12   36.23    1.45
  -3   1 -12    1.25    1.35
  -2  -1 -11   15.15    2.62
  -2   1 -12   30.74    1.49
   0   0 -10  154.53    3.20
  -5   0 -10  175.18    2.56
  -4  -2  -9    6.22    2.03
  -3  -1 -11   43.97    2.87
  -1  -1 -10 1030.04    6.75
  -5   1 -10  117.31    1.93
  -4   0 -11   70.80    2.31
  -3  -2  -9    3.04    2.12
  -4  -1 -10   55.86    2.56
  -4   1 -11    4.54    1.46
  -3   3 -11   17.88    1.27
  -1   3 -11   23.75    1.41
   0   1 -10   29.47    2.16
   0   4 -10   37.54    1.38
  -2  -1 -10   63.02    2.85
  -2   0 -11    6.10    2.44
  -1   2 -11   53.68    2.21
  -3   0 -11   39.97    1.96
  -2   3 -11    6.60    1.28
   0   0  -9  135.52    2.64
  -5   2  -9    4.32    1.09
  -4   3 -10   23.89    1.36
  -3  -1 -10   32.42    2.19
   0   2 -10   10.82    1.88
   0   3 -10   66.41    2.34
  -3   1 -11    9.60    2.03
  -3   2 -11   54.56    1.95
  -2   1 -11   43.57    2.07
  -2   2 -11   71.63    2.21
  -5   1  -9   51.02    1.85
  -4  -1  -9   95.25    2.90
  -4   0 -10   42.82    2.44
  -2  -1  -9  191.90    3.30
   0   5  -9    0.42    1.05
  -4   1 -10    3.51    1.94
  -4   2 -10    0.70    1.37
  -2   0 -10   13.77    2.46
  -1   4 -10   52.72    1.65
  -4  -1  -8   33.54    2.31
  -3   0 -10   24.11    2.66
  -2   4 -10   13.11    1.37
   0   1  -9   23.35    1.73
  -1   0  -9  341.41    4.17
  -4   0  -9   41.99    2.42
  -3   3 -10    2.58    1.40
  -1   3 -10   50.98    2.23
  -3   1 -10  148.08    3.15
  -2   1 -10   82.11    3.01
  -1   5  -9   68.18    1.80
   0   2  -9    1.46    1.90
  -4   3  -9   32.87    1.60
  -3   2 -10   25.19    2.17
  -2   2 -10  103.84    2.96
  -2   3 -10    6.50    1.79
  -2   5  -9   43.95    1.45
   0   4  -9   56.72    2.07
  -4   1  -9   14.68    2.21
  -2   0  -9   18.48    2.31
   0   3  -9   80.17    2.53
  -4   2  -9    4.93    1.97
  -1   1  -9  275.38    3.92
  -4   0  -8   50.66    2.66
  -4   4  -8   38.69    1.64
  -3   4  -9    1.72    1.27
  -3   1  -9   20.70    2.54
  -2   1  -9  113.04    3.18
  -3   3  -9   20.57    1.96
  -2   4  -9   16.24    1.94
   0   5  -8    2.23    1.55
  -4   0  -7   66.41    2.31
  -4   1  -8   13.25    2.09
  -3   0  -8   59.59    2.10
  -3   2  -9    7.13    2.48
   0   2  -8    1.74    2.01
  -4   3  -8   66.13    2.27
  -2   2  -9  113.22    3.26
  -2   3  -9   10.55    2.44
  -4   2  -8    0.62    1.97
   0   3  -8  102.76    2.74
   0   4  -8   75.12    2.46
  -2   5  -8   65.44    2.04
   0   6  -7    4.20    1.48
  -4   4  -7   93.03    2.10
  -3   4  -8    5.34    1.70
  -2   6  -7    0.81    1.16
  -4   1  -7   20.65    2.16
  -4   5  -6    2.00    1.50
  -2   1  -8  177.42    3.30
   0   7  -6   35.56    1.51
  -1   2  -8  184.38    3.47
  -4   3  -7   84.71    2.42
  -3   2  -8  101.64    2.68
  -3   3  -8  184.32    3.34
  -3   5  -7   58.62    1.91
  -3   6  -6   52.96    1.79
  -2   4  -8   34.96    2.59
  -1   3  -8   11.14    2.48
  -4   2  -7    0.97    1.92
  -2   2  -8  115.12    3.08
  -2   3  -8    3.75    2.44
   0   5  -7    2.73    1.88
  -4   1  -6  145.25    2.50
  -4   4  -6   27.03    2.09
  -2   5  -7   80.03    2.60
   0   3  -7   75.90    2.19
   0   4  -7   71.35    2.64
   1   5  -6   69.67    2.36
  -4   5  -5    1.84    1.33
  -3   4  -7   24.23    2.21
  -2   7  -5    0.43    1.14
  -1   5  -7    2.10    2.05
  -4   2  -6   58.43    2.43
  -2   6  -6    1.31    1.49
   0   6  -6   18.92    1.92
  -4   3  -6   42.73    2.28
  -3   3  -7  124.86    2.76
   0   8  -4    1.18    1.02
  -4   6  -3   31.37    1.70
  -3   5  -6  222.00    3.15
  -3   6  -5   16.44    1.56
  -2   2  -7  125.21    2.93
  -2   4  -7   28.95    2.61
  -1   3  -7   -0.31    2.29
  -1   4  -7   13.80    2.47
  -1   6  -6   38.86    2.24
   0   7  -5   22.12    1.77
  -2   3  -7    6.07    2.42
  -1   7  -5    5.35    1.44
  -4   4  -5    6.00    1.84
   1   6  -5   74.32    2.60
  -4   5  -4    0.29    1.59
   0   5  -6    2.33    2.17
  -4   2  -5  648.14    4.94
  -2   5  -6  186.23    3.56
  -4   3  -5   50.50    2.30
  -3   2  -6  147.37    2.70
  -1   5  -6   43.85    2.75
   0   4  -6   38.23    1.85
   1   7  -4   32.72    2.27
  -4   6  -2   91.04    2.20
  -2   6  -5   29.33    2.16
  -2   7  -4    1.26    1.33
   1   5  -5   51.56    2.24
   1   8  -3    3.28    1.35
  -2   4  -6   61.09    2.97
  -1   8  -3   41.25    1.68
   0   6  -5   32.55    2.46
  -4   4  -4   26.16    2.08
  -2   3  -6   13.70    2.44
  -1   4  -6   25.20    2.54
  -4   5  -3   -1.07    1.67
  -2   8  -2   58.54    2.02
  -1   6  -5    1.04    1.83
   0   8  -3   -0.47    1.71
  -4   3  -4  888.46    5.95
  -3   7  -2   11.66    1.68
  -1   7  -4   65.09    1.99
   0   7  -4   91.78    2.81
   0   5  -5    3.80    2.26
  -3   3  -5 1402.81    7.60
  -2   5  -5  235.33    3.69
   1   6  -4  129.47    2.99
   1   9  -1   24.52    1.55
  -2   7  -3    9.15    1.95
  -1   5  -5   27.32    2.94
   0   9  -1   20.73    1.37
  -4   4  -3    3.16    1.97
  -4   5  -2   10.23    1.86
  -3   6  -3   26.37    2.20
  -2   6  -4   51.35    2.71
  -2   4  -5  175.89    3.68
  -2   8  -1   49.16    2.01
  -1   8  -2   13.07    1.59
   1   5  -4  227.01    3.39
   1   7  -3  131.75    3.18
   1   8  -2   13.32    1.97
  -3   7  -1    5.61    1.63
  -1   4  -5   35.17    2.63
  -1   9   0    1.46    1.39
   0   6  -4  131.05    3.30
  -1   6  -4   57.41    2.26
  -1   7   3   60.34    2.40
   0   7   3   36.04    2.31
  -1   8   7   53.07    1.95
  -1   8   9    5.97    1.20
   0   8   6    2.57    1.95
   1   7   4   10.27    2.26
   1   8   7   86.28    2.48
   1   8  10   10.87    1.43
  -3   5   1   45.49    1.93
  -3   6   3  123.11    2.53
  -1   8   8   61.43    1.71
   0   8  10    1.36    0.99
  -2   6   2   11.14    2.16
   0   8   7   38.66    2.15
   1   8   8  140.22    2.54
   1   8   9    5.83    1.61
   2   7   6   25.86    1.85
   0   8   9   -0.35    1.29
  -2   7   5   18.02    2.04
  -1   6   2   29.35    2.15
  -1   7   4  143.95    3.05
   0   7   4   44.25    2.54
   1   7   5    4.29    2.27
  -3   6   4   73.09    2.21
  -2   7   6   32.06    1.83
  -4   5   4   10.11    1.43
  -3   5   2   92.44    2.44
  -2   7   9    7.37    1.30
  -2   7   7   21.88    1.69
  -2   7   8    3.70    1.35
  -1   7   5   62.74    2.19
   0   7   5   44.54    2.66
  -3   6   5   69.31    2.11
   1   7   6   24.77    1.85
  -4   5   5   16.35    1.54
  -3   6   9   60.32    1.51
  -1   6   3    4.06    1.55
  -3   6   6   64.04    2.11
  -1   7   6    3.56    1.75
   0   7   6   98.89    2.91
   1   7   7  709.38    5.39
  -4   5   6    2.21    1.31
  -4   5   7    6.40    1.21
  -2   5   2  395.95    3.59
  -1   7  10  267.36    2.67
   0   7  11   59.50    1.56
  -3   5   3   24.72    2.07
  -1   7   7   59.34    2.06
  -1   7   9   86.62    2.30
   1   7   8    8.88    1.87
   1   7  10    3.28    1.60
  -1   7   8   17.58    1.62
   0   7   7  539.01    4.99
   1   7   9   10.01    1.82
  -1   6   4    0.17    1.68
   0   7   9   75.60    2.48
   0   7  10   84.94    2.47
  -2   6   5  109.74    2.95
  -3   5   4   30.40    1.80
  -2   5   3  228.94    3.14
  -2   6   6    7.90    2.27
  -2   6  10    5.49    1.40
  -1   6   5   42.41    2.43
   0   6   5    9.51    1.55
   0   6  12   46.46    1.56
  -4   4   4    7.01    1.79
  -3   5  10    9.87    1.36
  -2   6   7   11.73    2.35
  -2   6   9    9.63    1.87
  -4   4   9    2.63    1.18
  -3   5   5  184.57    3.17
  -2   6   8    6.47    2.01
  -1   6   6  529.51    4.94
   0   6   6  721.58    5.46
   1   6   7   76.27    2.52
   1   6  11  185.97    2.66
  -4   4   5    6.73    1.74
  -3   5   6  241.84    3.59
  -3   5   9    0.70    1.56
  -4   4   6   27.43    2.10
  -4   4   8   13.26    1.41
  -3   5   8   86.32    2.41
  -1   6   7  249.93    3.88
  -1   6  10   52.47    2.29
   0   6  11   61.47    2.08
   1   6   8   93.36    2.77
   1   6  10   68.79    2.33
  -4   4   7   27.64    1.96
  -3   4   3   34.30    1.60
  -1   6   8   87.94    2.92
  -1   6   9   13.93    2.16
   1   6   9    7.72    1.99
  -3   4  11   14.85    1.29
  -2   5  11   28.78    1.47
   0   6  10   91.57    2.80
  -2   5   5  528.96    4.80
  -1   5  12   14.20    1.51
   0   6   9   83.21    2.88
  -3   4   4   54.42    2.45
  -2   5   6   52.86    2.84
  -2   5  10   61.16    1.83
   0   5  12    6.74    1.56
  -4   3   4   77.46    2.48
  -3   4  10    6.48    1.51
  -2   4  12   34.09    1.32
  -2   5   9   90.41    2.89
  -4   3   9   46.97    1.71
  -2   5   7   86.89    2.46
  -2   5   8  110.39    3.28
  -3   4   5  926.95    6.08
  -1   5   6  248.02    3.73
   0   4  13   74.37    1.65
   1   5  11   75.63    2.41
  -4   3   5  597.69    4.78
  -3   4   9    0.40    2.13
   0   5  11   21.77    2.21
  -4   3   8  100.16    2.67
  -3   4   6   32.08    2.51
  -1   5   7   15.26    2.64
  -1   5  10   90.16    2.92
   1   5  10   66.96    2.49
  -4   3   6  223.31    3.33
  -4   3   7  135.34    3.01
  -3   3  11   22.27    1.50
  -3   4   8    2.24    1.70
  -2   4  11   45.83    1.90
  -1   5   8   82.76    3.27
  -1   5   9  263.72    4.26
   1   5   9   56.41    2.48
  -5   1   8  121.48    2.17
  -1   4  12  245.34    2.85
   0   5  10    2.50    2.54
   0   5   8   -0.95    2.42
   0   5   9    9.54    2.61
  -1   3  13   10.74    1.06
  -5   1   7   45.57    1.97
  -2   3  12    1.72    1.37
  -2   4  10   57.30    2.63
   0   4  12   42.98    2.20
  -3   3  10   50.23    2.06
   0   3  13   33.23    1.63
  -4   2   9   22.25    1.78
  -2   4   6   79.74    2.42
  -2   4   9   38.18    3.14
  -4   2   4  162.89    2.82
  -2   4   7   51.91    2.94
  -2   4   8   44.17    3.04
  -3   3   5  530.71    4.81
  -3   3   9    7.40    2.19
   0   4  11   37.64    2.62
  -5   0   8   16.10    1.44
  -4   1  10    2.23    1.56
  -4   2   8   57.37    2.50
  -3   2  11   15.48    1.37
  -1   2  13    5.94    1.23
  -1   4  10   27.91    2.81
  -4   2   5   33.78    2.30
  -4   2   7   29.07    2.65
  -3   3   6  297.10    4.37
  -3   3   8   13.30    2.81
  -2   3  11   35.87    1.72
  -1   3  12  128.44    2.62
   1   4  10   14.11    2.24
  -4   2   6   29.68    2.36
  -2   2  12   23.47    1.65
  -1   4   7   40.40    2.55
  -1   4   9  133.57    3.73
   0   4  10   21.05    2.73
   1   4   9   33.54    2.30
  -1   4   8  107.89    2.78
   0   2  13   85.01    1.82
  -5   0   7  182.46    3.08
  -2   3  10   44.17    2.78
   0   3  12   91.59    2.54
   0   4   9   54.24    2.97
  -4   1   9   11.72    1.80
  -3   2  10   82.24    2.48
  -1   1  13  116.73    1.77
  -5  -1   8    5.62    1.20
  -3   1  11   37.06    1.57
  -2   3   9    4.56    2.98
  -3   2   9  561.10    5.01
   0   1  13    1.28    1.32
  -4   1   8   47.00    2.38
  -2   1  12   30.74    1.66
  -2   2  11   88.39    2.60
  -2   3   7    1.88    2.46
  -2   3   8    7.60    2.59
  -1   2  12   22.98    2.02
   0   3  11  184.23    3.63
  -1   3  10  275.83    4.29
  -4   1   7   44.85    2.78
  -3   2   8   19.14    2.92
   0   2  12   81.14    2.48
  -5  -1   7   86.75    2.36
  -4   0   9   97.90    2.48
  -4   1   5   38.06    2.32
  -4   1   6   54.01    2.73
  -3   0  11    6.86    1.28
  -3   1  10    1.94    1.99
  -1   3   9    2.00    2.76
   0   3  10  227.98    4.05
  -3   2   6   68.72    2.36
  -2   0  12    7.59    1.28
  -2   2  10   52.82    2.92
  -1   3   8    7.81    2.42
  -1   1  12   39.73    1.96
   0   3   9  289.28    4.35
  -3  -1  11   37.08    1.57
  -2  -1  12   29.53    1.27
  -2   1  11   28.09    2.21
  -4   0   8   87.81    2.58
  -3   1   9    6.65    2.27
  -2   2   9   53.49    2.50
   0   2  11   58.78    2.69
  -5  -2   7   13.44    1.70
  -4  -1   9   74.30    2.22
   0   1  12   16.69    2.05
  -3   0  10    3.12    1.92
  -2   2   8   26.01    2.64
  -4   0   7   91.10    3.24
  -3   1   8  168.38    3.86
  -1   0  12   85.61    2.22
  -5  -3   7  127.41    2.38
  -2   0  11    4.62    1.81
  -2   1  10    4.21    2.57
  -5  -2   6   13.43    1.81
  -4  -2   9    0.42    1.31
  -4   0   6   68.48    2.97
  -1  -1  12    2.65    1.34
  -1   2   9   58.94    3.01
   0   0  12  212.06    2.91
   0   2  10   87.16    2.96
  -4  -1   8   36.42    2.18
  -4   0   5   13.81    2.40
  -4  -3   9   25.12    1.66
  -3  -1  10   78.50    2.30
  -3   0   9  118.21    3.07
  -3   1   6  182.50    3.11
  -2  -1  11   13.77    1.60
  -2   1   9   39.59    2.90
   0  -1  12   23.77    1.54
   0   1  11   16.25    2.23
   0   2   9   52.93    2.68
  -5  -3   6   24.74    1.80
  -3  -2  10   24.67    1.61
  -2  -3  11    0.28    1.04
  -4  -1   7   42.64    2.11
  -3  -3  10   49.61    1.72
  -3   0   8   55.87    2.94
  -2  -2  11   12.47    1.51
  -2   0  10   17.91    1.92
  -4  -2   8    0.60    1.29
  -2   1   8   90.51    2.51
  -5  -4   6  470.36    3.96
  -3  -1   9   91.30    2.67
   0   1  10   14.40    2.25
  -4  -1   6   59.59    2.64
  -1  -1  11   13.33    1.89
  -1   1   9   70.17    2.95
   0   0  11  213.66    3.36
  -4  -3   8   24.15    1.70
  -4  -4   8   43.75    1.68
  -4  -1   5   65.72    2.55
  -2  -1  10   30.00    2.35
  -2   0   9   26.52    2.63
  -1  -3  11   18.86    1.28
  -4  -2   7    1.89    2.15
  -3  -2   9   78.66    2.50
  -1  -2  11  118.98    2.34
  -3  -1   8   88.80    3.15
   0  -1  11   66.01    2.44
   0   1   9  158.78    3.24
  -2  -4  10    0.73    1.06
  -2  -2  10   64.26    2.33
   0  -2  11   -0.67    1.51
  -3  -4   9  109.80    1.95
  -3  -3   9   33.56    1.81
  -2  -3  10    1.95    1.36
  -2   0   8   34.24    2.40
   0   0  10  169.69    3.20
  -4  -3   7   61.83    2.17
  -4  -2   6    0.00    2.09
  -3  -1   7   72.89    2.78
  -2  -1   9   74.32    2.80
  -1   0   9  648.58    5.28
  -4  -5   7    1.74    1.24
  -4  -4   7   44.69    2.11
  -3  -2   8 1364.88    7.09
  -4   3   7  154.02    3.21
  -3   3  10   48.93    1.96
  -2   3  11   40.45    2.01
   0   4   9   53.01    2.85
   1   3  10  249.18    3.50
  -4   3   6  227.06    3.22
  -2   4   8   49.81    3.05
   0   3  11  192.67    3.33
  -3   2  11   13.89    1.16
  -2   4   6   79.74    2.70
  -1   2  12   21.73    1.78
  -1   4   9  115.71    2.78
  -1   4   8  120.66    3.23
  -3   3   9    5.38    2.20
  -2   1  12   31.29    1.29
  -1   4   7   33.48    1.91
  -2   0  12    6.76    1.08
  -2   3  10   46.36    2.59
  -1   1  12   32.27    1.57
   0   3  10  240.81    3.62
  -5   1   8  168.46    2.19
  -4   1  10    0.63    1.37
   0   2  11   57.61    2.36
  -3   1  11   38.02    1.58
  -2   2  11   88.33    2.42
  -1   3  10  271.13    4.01
  -3   2  10   79.45    2.45
  -4   2   8   49.88    2.32
  -3   3   5  506.44    4.48
  -3   3   7  271.56    4.03
  -2   3   9   10.79    2.62
  -1   2  11   29.53    1.64
   0   3   9  249.99    3.38
  -5   1   7   56.97    2.25
  -3   3   6  251.66    3.32
  -1   3   9    2.12    2.54
  -3   0  11    5.87    1.25
  -2   3   8    3.92    2.58
  -4   0  10   42.75    1.46
  -4   2   7   31.60    2.37
   0   2  10   88.54    2.68
  -4   1   9   10.20    1.79
  -3  -1  11   37.45    1.21
  -3   2   9  536.17    4.77
  -2   2  10   48.28    1.99
  -2   3   7   -1.43    2.41
  -1   1  11   30.31    2.05
  -1   3   8    1.76    2.34
  -5   0   8   14.91    1.39
  -5   1   6    6.28    1.87
  -4   2   6   28.95    2.27
  -1   2  10    5.23    2.34
  -4  -1  10   18.64    1.45
  -4   2   5   31.42    2.11
  -3   1  10    2.64    1.36
  -6  -1   6   16.46    1.43
  -5   1   5   25.14    2.10
  -2   0  11    3.15    1.79
  -1   0  11  194.34    2.74
   0   2   9   54.32    2.39
  -3   2   8   17.70    2.10
  -2  -1  11   10.90    1.41
  -2   2   9   55.19    2.71
   0   1  10   12.62    2.12
  -4   0   9   93.66    2.22
  -2   1  10    9.79    2.21
  -5  -1   8    5.62    1.40
  -5   0   7  183.83    2.88
  -3   0  10    0.57    1.65
  -3   1   9    7.47    2.34
  -1   1  10  186.03    3.32
  -6  -1   5   17.81    1.52
  -3   2   6   86.24    2.91
  -2   2   8   32.76    2.48
  -4   1   7   42.96    2.52
  -3  -3  10   44.73    1.31
  -6  -2   6   31.79    1.47
  -5   0   6   30.98    2.13
  -4  -1   9   69.26    2.09
  -3  -2  10   26.23    1.45
  -2   0  10   17.19    2.14
  -2   1   9   42.56    2.76
  -1   0  10  244.37    3.18
  -5  -2   8    6.98    1.35
  -4   0   8   77.10    2.46
  -4   1   6   54.65    2.62
  -3   1   8  154.87    3.25
  -1   1   9   20.93    2.87
  -5  -3   8    5.66    1.23
  -3   0   9  109.66    2.89
  -5   0   5   76.64    2.56
  -4  -3   9   23.62    1.32
  -4  -2   9    0.74    1.19
  -4   1   5   37.77    2.49
  -2  -1  10   33.05    2.01
  -1  -1  10   47.04    2.13
  -6  -3   6   11.56    1.50
  -2  -2  10   65.11    1.98
  -6  -2   5   62.88    2.01
  -5   0   4   25.67    2.23
  -3   1   7  151.33    3.28
  -2   1   8   94.28    2.97
  -4   0   7   88.95    2.85
  -4  -1   8   31.11    2.27
  -3  -4   9  104.23    1.75
  -3  -1   9   87.25    2.59
  -1   0   9  655.79    5.40
  -5  -2   7   17.98    1.77
  -5  -1   6   23.44    2.03
  -3   0   8   51.89    2.69
  -3  -3   9   41.21    1.83
  -6  -3   5   17.46    1.56
  -5  -3   7  136.71    2.20
  -4  -2   8   -2.80    1.84
  -2  -1   9   64.22    1.99
  -1  -1   9  181.01    3.03
  -5  -4   7  107.59    1.98
  -5  -1   5    1.19    2.25
  -4  -4   8   45.35    1.58
  -2   0   8   32.92    2.46
  -4  -3   8   21.14    1.69
  -4  -1   7   37.89    1.90
  -3  -5   8   10.41    1.18
  -3  -1   8   85.08    2.72
  -3   0   7   20.11    2.23
  -2  -3   9    9.88    1.74
  -2  -2   9   93.36    2.48
  -1  -2   9    0.01    1.68
  -6  -4   5    0.75    1.17
  -4   0   5   12.68    1.70
  -5  -1   4   16.57    2.32
  -6  -3   4   27.02    1.90
  -4  -2   7    2.13    2.20
  -3  -2   8 1392.72    7.13
  -3   0   6   12.90    2.10
  -5  -3   6   27.21    2.00
  -5  -1   3   58.22    2.42
  -4  -1   6   61.08    2.64
  -3  -4   8  133.91    2.55
  -1  -1   8 1113.03    6.12
  -5  -5   6  113.78    2.19
  -5  -2   5   18.34    2.51
  -3  -1   7   78.03    2.60
  -6  -6   4   22.25    1.55
  -6  -4   4    3.09    1.64
  -5  -4   6  557.03    4.39
  -4  -3   7   60.82    2.42
  -6  -3   3   27.46    2.02
  -4  -4   7   40.49    1.97
  -2  -4   8    7.89    1.61
  -2  -2   8   94.89    2.67
  -1  -2   8   -1.38    1.93
  -2  -3   8    5.13    1.92
  -6  -3   2  235.74    3.56
  -5  -3   5   36.40    2.32
  -5  -2   4   15.67    2.33
  -4  -2   6    0.14    1.56
  -3  -2   7   80.49    2.91
  -5  -6   5   18.70    1.34
  -3  -5   7   12.81    1.71
  -3  -1   6  198.66    3.30
  -6  -4   3   11.49    1.94
  -5  -5   5    0.08    1.71
  -5  -4   5   13.57    1.95
  -4  -3   6   29.99    2.44
  -3  -4   7   46.33    2.34
  -3  -3   7  252.81    3.69
  -2  -5   7   97.93    2.39
  -6  -5   3   49.08    2.03
  -5  -2   3  355.35    4.17
  -4  -7   5   16.05    1.21
  -4  -5   6    0.43    1.79
  -2  -2   7  178.95    3.21
  -5  -7   4   28.62    1.48
  -4  -4   6    4.75    2.16
  -4  -2   5    6.62    2.39
  -6  -4   2   14.99    2.44
  -5  -3   4   25.44    1.95
  -3  -6   6   21.89    1.65
  -5  -2   2    3.68    1.98
  -3  -2   6    1.70    1.81
  -2  -4   7   22.23    1.94
  -2  -3   7   14.26    2.12
  -5  -6   4   98.00    2.51
  -5  -4   4    8.37    2.25
  -3  -7   5   48.72    1.69
  -6  -5   2   27.27    2.19
  -5  -5   4   11.45    2.08
  -4  -6   5   11.82    1.83
  -4  -3   5   61.92    2.62
  -3  -5   6   19.92    2.00
  -3  -3   6   87.69    2.97
  -6  -6   2    4.16    1.63
  -6  -4   1    1.99    2.02
  -5  -3   3  160.42    3.01
  -4  -5   5    1.41    2.10
  -4  -4   5    5.44    2.42
  -5  -7   3    5.43    1.59
  -2  -5   6  179.13    3.28
  -6  -5   1   17.29    2.12
  -5  -8   2    0.38    1.20
  -5  -3   2  352.19    4.40
  -2  -3   6   20.67    2.04
  -6  -6   1    6.78    2.19
  -4  -3   4   86.10    2.92
  -3  -6   5    1.81    1.78
  -2  -4   6   19.99    1.73
  -5  -6   3   37.84    1.99
  -5  -5   3    9.59    2.43
  -3  -3   5   23.39    2.37
  -4  -6   4   29.51    2.25
  -6  -5   0   48.27    2.65
  -5  -3   1   98.49    2.86
  -4  -4   4   20.04    2.41
  -3  -7   4   45.37    2.61
  -3  -4   5    6.13    2.45
  -2  -6   5   56.99    2.50
  -5  -4   2    4.94    2.54
  -4  -5   4    0.38    2.40
  -3  -8   3    8.75    1.80
  -6  -7   0   46.15    2.46
  -6  -6   0    0.91    2.30
  -5  -7   2   15.05    2.16
  -6  -8  -1    7.19    1.85
  -5  -9   0    4.64    1.48
  -4  -7   3  128.06    3.31
  -2  -7   4    0.55    1.71
  -6  -5  -1   24.43    2.51
  -5  -8   1    5.78    1.76
  -5  -6   2    1.07    2.32
  -2  -5   5  293.64    4.20
  -4  -8   2    9.85    1.99
  -2  -4   5   14.43    2.09
  -5  -4   1   11.97    2.67
  -4  -4   3   27.44    2.79
  -3  -6   4   33.44    2.84
  -6  -7  -1    6.45    2.15
  -6  -6  -1    3.15    2.15
  -4  -6   3   47.05    2.97
  -6  -8  -2   20.69    2.30
  -5  -7   1    8.30    2.36
  -4  -5   3    0.01    2.78
  -3  -5   4   58.42    3.03
  -3  -4   4   17.60    2.50
  -3  -9   1  123.91    2.75
  -3  -7   3   11.67    2.44
  -6  -9  -4   73.89    2.75
  -5  -9  -1   13.25    1.70
  -5  -6   1  321.59    4.94
  -5  -5   1   37.13    2.54
  -2  -6   4   33.46    2.48
  -6  -7  -2    2.43    2.51
  -6  -6  -2    3.43    2.47
  -5  -8   0    0.73    1.79
  -5  -4   0    7.82    2.74
  -4  -7   2  281.48    4.74
  -3  -8   2  188.07    3.97
  -4  -9   0  100.01    2.91
  -6  -8  -3   27.67    2.43
  -4  -8   1   10.41    2.21
  -4  -4   2  118.06    3.25
  -2  -7   3    6.01    2.50
  -2  -5   4  143.30    3.51
  -5  -7   0   78.46    3.42
  -4  -6   2   83.65    3.69
  -2  -8   2   50.05    2.78
  -6  -7  -3   14.82    2.79
  -5  -5   0   22.22    3.15
  -4  -5   2  247.93    4.20
  -6  -8  -4   16.11    2.29
  -5  -9  -2    9.99    2.00
  -5  -8  -1   14.36    2.51
  -3  -5   3  130.10    3.92
  -6  -8  -5   80.61    3.55
  -6  -7  -4    2.91    3.05
  -4  -7   1  174.05    4.66
  -3  -9   0   20.99    2.37
  -4  -9  -1   11.21    2.31
  -3 -10  -2    9.18    1.73
  -3  -8   1    7.48    3.17
  -2  -6   3   63.19    3.29
  -5   5  -4   44.23    1.98
  -4   4  -6   38.31    2.44
  -3   5  -5  101.34    3.46
  -4   6  -3   43.10    1.88
  -3   2  -7  164.80    3.26
  -3   7  -1    7.21    1.46
  -2   3  -6   16.14    2.39
   0   6  -1   16.65    2.31
  -2   6  -3    2.97    2.38
  -2   7  -1   12.62    2.33
  -4   2  -7    2.63    1.95
  -1   7   0   79.12    2.59
  -5   4  -5   31.75    1.70
  -3   6  -3   27.30    1.81
  -2   4  -5  172.85    3.54
  -5   3  -6    6.32    1.66
  -3   7   0   18.42    2.01
  -2   5  -4  255.00    4.38
  -6   3  -5    5.71    1.25
  -4   5  -4    0.70    1.88
  -3   3  -6  229.39    3.61
  -2   7   0   38.34    2.08
  -1   5  -3 1116.67    6.79
  -5   5  -3   26.25    1.43
  -4   3  -6   50.17    2.46
  -4   6  -2  131.13    2.08
  -3   5  -4   15.87    2.39
  -1   7   1   53.77    2.25
  -3   4  -5   -1.65    2.38
  -2   6  -2  130.10    3.12
  -3   6  -2   30.72    2.14
  -3   7   1    4.68    1.45
  -1   6  -1   26.06    2.35
  -3   2  -6  151.86    2.63
  -2   7   1   29.02    1.87
  -4   6  -1    5.24    1.56
  -3   7   2    0.62    1.21
  -2   5  -3  183.78    3.26
  -5   2  -6   91.12    2.41
  -4   5  -3    0.55    1.83
  -2   4  -4  622.03    4.82
  -2   7   2   40.92    2.06
  -5   3  -5    3.92    1.64
  -5   5  -2   34.13    1.47
  -4   2  -6   77.00    2.42
  -3   5  -3   37.33    2.39
  -6   3  -4    6.61    1.27
  -3   3  -5 1393.45    6.65
  -3   6  -1   59.13    2.15
  -1   6   0   43.16    2.14
  -6   2  -5   39.79    1.57
  -4   4  -4   30.69    2.24
  -3   4  -4  239.71    3.50
  -6   4  -2   27.98    1.66
  -4   3  -5   64.11    2.34
  -2   5  -2   44.95    2.29
  -5   5  -1   10.33    1.38
  -4   5  -2   14.51    1.92
  -2   6   0   12.75    2.13
  -1   6   1   42.73    2.09
  -7   2  -3   12.05    1.15
  -5   4  -3  103.22    1.93
  -4   6   1   19.16    1.44
  -3   5  -2    3.55    1.93
  -6   3  -3   45.73    1.58
  -5   2  -5  246.27    2.92
  -5   3  -4   13.79    1.92
  -5   5   0    4.35    1.16
  -4   2  -5  713.84    4.55
  -4   4  -3    2.13    1.79
  -4   6   2   17.65    1.52
  -3   4  -3   47.24    2.21
  -2   6   1  325.08    3.30
  -6   2  -4   71.38    1.76
  -4   5  -1    5.08    1.82
  -4   6   3   28.50    1.33
  -4   6   4   49.39    1.29
  -3   6   1   60.95    1.77
  -5   4  -2  140.29    2.51
  -7   2  -2   23.50    1.27
  -6   4   0  112.72    1.73
  -3   5  -1   15.87    2.08
  -5   5   1    3.12    0.99
  -3   6   2  201.43    2.71
  -2   6   2    9.27    1.55
  -5   1  -5   75.92    2.18
  -7   1  -3    1.16    1.15
  -6   4   1   35.53    1.22
  -4   4  -2   48.39    2.22
  -4   5   0   75.42    2.23
  -3   6   3  110.68    2.16
  -5   2  -4    7.37    1.73
  -5   5   3   20.29    1.19
  -5   5   4   27.03    1.06
  -3   4  -2   15.63    1.75
  -3   6   4   60.22    1.66
  -2   5   0   90.82    2.21
  -2   6   3    0.87    1.50
  -7   2  -1    5.91    1.31
  -6   2  -3  101.44    2.09
  -6   4   2   42.67    1.26
  -6   4   3   12.50    1.04
  -5   4  -1  102.02    2.02
  -3   5   0   18.23    2.25
  -6   1  -4    5.41    1.49
  -4   2  -4  168.82    2.51
  -4   3  -3  253.22    3.06
  -6   3  -1  141.73    2.29
  -4   5   1  194.56    2.81
  -7   1  -2    6.65    1.25
  -5   3  -2   26.82    2.10
  -5   4   0  165.01    2.73
  -4   4  -1  313.11    3.49
  -4   5   2    3.26    1.90
  -3   4  -1    3.86    1.72
  -3   5   1   45.49    1.78
  -6   3   0   54.92    1.85
  -5   1  -4  112.01    2.29
  -5   2  -3   10.57    1.89
  -7   2   1   52.00    1.69
  -6   2  -2   13.13    1.40
  -4   5   3   -0.82    1.63
  -4   5   6   -0.71    1.03
  -7   2   2   29.20    1.41
  -6   1  -3   22.29    1.71
  -5   4   1   29.52    2.02
  -4   3  -2  172.03    2.73
  -3   5   2   90.80    2.44
  -7   1  -1    4.51    1.42
  -4   4   0    7.49    1.92
  -4   5   4   10.05    1.66
  -4   5   5   17.96    1.51
  -6   3   1   -0.25    1.54
  -5   3  -1   35.79    2.04
  -5   4   2   19.10    1.50
  -5   4   6   99.82    1.48
  -3   4   0    9.82    1.79
  -3   5   3   20.04    1.93
  -7   0  -2    6.97    1.46
  -6   3   2   14.50    1.65
  -2   5   3  210.24    2.69
  -6   3   3    4.64    1.26
  -6   3   4    2.83    1.38
  -5   4   4   32.30    1.80
  -5   4   5    5.74    1.42
  -4   4   1   57.29    2.54
  -7   1   0   16.29    1.47
  -5   1  -3  125.40    2.51
  -4   3  -1  328.39    3.53
  -3   5   4   27.50    1.87
  -6   0  -3   26.77    1.75
  -6   1  -2    2.07    1.97
  -5   3   0   48.05    1.99
  -3   5   5  164.04    2.55
  -6   2   0  130.27    2.69
  -7   0  -1   35.34    1.83
  -4   4   2  261.90    3.53
  -7   1   2   21.77    1.61
  -7   1   3   46.74    1.95
  -5   2  -1   20.34    2.28
  -5   3   1   23.01    1.86
  -6   2   1   12.92    2.14
  -4   3   0   83.71    2.08
  -4   4   3   64.06    2.57
  -4   4   7   28.61    1.44
  -7   0   0   10.40    1.84
  -6   1  -1    6.49    1.51
  -5   3   7    0.58    1.07
  -3   4   2   13.72    1.58
  -6   2   2   16.85    2.18
  -5   1  -2  147.15    2.67
  -5   3   2   74.35    2.67
  -4   4   4   10.49    2.10
  -4   4   5    7.67    1.97
  -4   4   6   31.88    2.04
  -6   0  -2   10.14    1.98
  -7  -1  -1   28.10    1.82
  -6   2   3   15.42    2.17
  -6   2   5   18.67    1.60
  -5   2   0   -0.44    2.41
  -5   3   3  136.22    3.14
  -5   3   6    1.38    1.71
  -4   3   1   12.32    2.28
  -3   4   3   36.34    2.15
  -7   0   1    3.10    1.69
  -6   2   4  108.15    2.39
  -5   3   4  162.05    3.09
  -7   0   3   70.85    2.29
  -3   4   4   52.38    2.53
  -7  -1   0   23.09    2.28
  -5   1  -1  141.11    3.02
  -5   2   8    3.11    0.92
  -4   3   2   62.27    2.77
  -6  -1  -2  477.91    4.13
  -6   0  -1   17.10    2.25
  -6   1   1   76.36    2.93
  -5   2   1   28.22    2.43
  -3   4   5  887.73    5.82
  -3   4   6   33.49    2.26
  -4   3   8   90.31    1.97
  -7  -1   1   32.01    2.38
  -6   1   6   21.68    1.50
  -6   1   2   61.39    2.71
  -5   2   2    5.52    2.72
  -4   3   3   64.23    2.33
  -7  -1   2   20.04    2.34
  -7  -1   4   61.85    2.56
  -6   0   0   -1.79    2.39
  -6   1   3  847.70    6.11
  -6   1   5   26.38    1.99
  -5   2   7    1.86    1.61
  -4   3   7  150.23    3.01
  -7  -2   0    5.23    2.10
  -6   1   4   23.83    2.37
  -5   1   0  107.45    2.81
  -6   0   7    1.99    1.11
  -5   2   3  147.75    3.02
  -4   3   5  593.71    5.16
  -4   3   6  237.22    3.71
  -6  -1  -1    7.31    2.08
  -5   2   4  650.05    5.90
  -5   2   5    3.13    2.35
  -4   2   9   23.06    1.54
  -7  -2   1   15.64    2.58
  -7  -2   4    2.37    1.82
  -5   1   1  142.70    3.36
  -5   1   8  169.91    2.51
  -7  -2   2   11.42    2.60
  -7  -2   3   28.01    2.39
  -6   0   6   13.06    1.55
  -7  -3   4   20.57    2.04
  -6   0   2   72.56    3.24
  -7  -3   1    0.18    2.38
  -6  -1   0    9.03    2.42
  -6  -1   7    8.24    1.34
  -6   0   5    7.17    2.20
  -7  -3   2   39.70    3.05
  -7  -3   3    3.55    2.02
  -6  -2  -1   40.21    2.25
  -6   0   3   -1.02    1.82
  -6   0   4   -0.68    2.69
  -5   1   2   77.83    2.95
  -4   2   8   52.11    2.35
  -3   3   5  508.47    4.80
  -3   3   7  257.60    3.67
  -4   2   3   52.04    2.74
  -3   3   6  238.59    3.29
  -5   1   3  261.80    4.43
  -6  -1   1   33.05    2.78
  -5   1   6    3.56    2.56
  -4   2   4  156.87    3.47
  -4   2   7   26.83    2.46
  -6  -1   6   21.32    1.91
  -5   1   4   33.71    2.91
  -5   1   5   26.23    2.74
  -4   2   6   28.37    2.84
  -4   0  10   35.26    1.22
  -4   1   9    7.75    1.66
  -6  -2   0    8.12    2.21
  -6  -1   5   23.67    2.50
  -6  -1   3   64.60    3.17
  -6  -1   4   32.64    2.77
  -6  -2   6   39.71    1.70
  -6  -2   1   41.05    2.61
  -5   0   2   28.60    2.70
  -5   0   7  190.38    3.23
  -4   4   5    5.56    2.08
  -4   4   6   30.84    2.11
  -3   2  11   15.11    1.27
  -6   2   5   17.14    1.50
  -4   3   9   46.76    1.72
  -5   3   6    0.93    1.78
  -4   2  10   30.78    1.28
  -3   3  10   45.17    1.85
  -3   4   3   39.62    2.33
  -1   4   9  125.14    3.09
  -5   3   4  158.16    2.69
  -5   3   5    1.23    2.17
  -3   4   8    0.66    1.80
  -2   4   9   32.04    2.08
  -2   2  11   77.77    1.81
  -5   2   8    2.69    1.52
  -3   4   4   48.05    2.54
  -3   4   7   27.20    2.62
  -2   4   8   51.04    2.78
  -1   3  10  259.34    3.34
   0   3   9  277.17    3.50
  -4   3   8  104.52    2.50
  -3   4   5  951.27    6.62
  -3   4   6   41.03    2.87
  -2   3  10   37.13    1.70
  -2   4   7   63.31    3.06
  -1   4   7   40.56    2.51
  -4   1  10    1.27    1.08
  -3   3   9    6.64    2.05
  -2   4   6   86.64    3.04
  -4   2   9   26.46    1.64
  -4   3   7  162.01    3.14
  -3   2  10   77.49    2.29
  -6   1   6   19.89    1.77
  -5   2   7    3.13    1.67
  -1   2  10    2.59    2.02
  -1   3   9    1.62    2.12
  -5   0   9   13.17    1.07
  -4   3   3   67.90    2.51
  -4   0  10   37.65    1.21
  -4   3   4   79.39    2.89
  -3   3   8   17.31    2.69
  -2   2  10   54.94    2.40
  -6   0   7    2.76    1.32
  -5   1   8  173.03    2.51
  -4   3   5  562.58    4.80
  -6   1   5   29.86    1.76
  -3   1  10   -2.51    1.81
  -2   3   8    8.22    2.67
  -1   3   8    2.74    1.54
  -5   2   5    3.52    2.29
  -4   2   8   55.15    2.52
  -3   2   9  564.56    4.77
  -3   3   7  277.26    4.31
  -6   1   3  746.40    5.07
  -6   1   4   29.57    2.16
  -5   2   3  157.64    3.07
  -5   2   4  656.36    5.44
  -4   1   9   10.63    1.98
  -3   3   6  324.15    4.54
  -2   1  10    8.10    1.90
  -2   3   7   -0.36    2.67
  -1   2   9   57.17    2.27
  -7  -1   4   50.80    1.82
  -3   0  10    1.48    1.60
  -2   2   9   56.23    2.73
  -6  -1   7    7.20    1.50
  -5   1   7   49.83    2.23
  -4   2   7   29.36    2.78
  -5   0   8   16.14    1.52
  -3   2   8   22.96    2.90
  -7  -1   3   44.15    1.83
  -4   1   8   50.09    2.68
  -4   2   6   28.36    2.31
  -3   1   9    7.46    1.71
  -6   0   5    1.17    1.89
  -5   1   6    7.63    2.28
  -5  -1   8    4.33    1.51
  -4  -1   9   68.90    1.96
  -4   2   3   47.02    2.39
  -3   2   7  105.85    3.15
  -2   1   9   38.32    2.37
  -4  -2   9    0.90    1.26
  -4   2   4  156.71    3.41
  -7  -2   4    1.54    1.41
  -6  -1   6   20.72    1.68
  -6   0   4    0.50    2.19
  -5   0   7  195.42    3.11
  -4   1   7   42.69    2.84
  -3   0   9   98.67    2.25
  -3   2   6   90.30    3.02
  -6   0   3    2.89    2.24
  -5   1   2   65.89    2.55
  -5   1   4   38.83    2.74
  -4   0   8   84.49    2.62
  -6   0   2   52.88    2.51
  -5   1   3  236.95    3.85
  -2   0   9   27.68    2.02
  -7  -2   3   30.50    1.83
  -3  -1   9   88.01    2.44
  -2   1   8   93.35    2.75
  -6  -2   6   40.76    1.64
  -6  -1   5   28.80    2.19
  -5  -1   7   89.21    2.47
  -5   0   6   33.96    2.48
  -4   1   6   59.61    2.80
  -3  -2   9   72.59    1.98
  -3   1   7  160.52    3.46
  -7  -2   2    7.62    1.70
  -3   0   8   55.01    2.54
  -6  -3   6    9.95    1.18
  -4   0   7   84.95    2.85
  -4   1   5   38.55    2.79
  -6  -1   4   38.29    2.46
  -5  -2   7   17.70    1.86
  -5   0   5   74.75    2.51
  -7  -3   3    4.07    1.70
  -5  -4   7  122.20    1.88
  -4  -3   8   24.94    1.59
  -4  -2   8   -1.76    1.73
  -3   1   6  213.18    3.61
  -2   0   8   34.20    2.17
  -6  -2   5   63.54    2.22
  -5  -1   6   25.02    2.45
  -6  -1   3   62.25    2.67
  -3  -1   8   90.63    2.83
  -4   0   6   65.48    2.94
  -7  -3   2   27.00    1.95
  -6  -1   1   25.17    2.47
  -6  -1   2    7.54    2.11
  -5   0   3   47.50    2.70
  -4  -1   7   36.12    2.11
  -2  -1   8   37.92    2.05
  -7  -5   3   18.50    1.61
  -6  -3   5   19.56    1.83
  -5   0   2   29.85    2.44
  -3  -3   8   18.09    1.69
  -3  -2   8 1320.02    6.77
  -6  -5   5   46.59    1.47
  -6  -2   4  101.16    2.80
  -5  -2   6   15.68    2.37
  -5  -1   5   -0.90    2.38
  -7  -3   1    2.85    1.87
  -6  -4   5   -0.51    1.27
  -4   0   5   16.52    2.58
  -5  -5   6  123.34    2.18
  -7  -4   2    9.26    1.57
  -5  -3   6   27.18    2.26
  -4  -4   7   41.91    1.86
  -4  -1   6   61.94    2.90
  -3  -1   7   81.69    2.85
  -3   0   6   12.85    1.67
  -6  -2   3  117.87    2.79
  -5  -1   4   23.12    2.67
  -4  -3   7   60.67    2.24
  -6  -3   4   25.46    1.68
  -6  -6   4   29.02    1.31
  -5  -2   5   19.76    2.64
  -7  -4   1  113.13    2.69
  -6  -2   2   36.80    2.72
  -3  -2   7   76.87    2.64
  -6  -5   4   26.49    1.65
  -6  -4   4   -0.91    1.31
  -5  -6   5   19.28    1.25
  -4  -2   6   -1.12    2.39
  -6  -3   3   29.14    2.48
  -6  -2   1   37.28    2.53
  -4  -1   5   58.36    2.23
  -3  -4   7   36.45    1.94
  -3  -3   7  244.16    3.50
  -7  -4   0    3.25    2.21
  -6  -2   0    6.44    2.26
  -5  -3   5   34.33    2.54
  -5  -1   2   40.21    2.58
  -7  -5   1   15.53    1.75
  -7  -4  -1    3.10    1.80
  -5  -2   4    9.14    2.59
  -4  -5   6   -0.49    1.64
  -5  -7   4   23.34    1.32
  -5  -4   5   14.51    2.34
  -4  -3   6   22.61    2.00
  -6  -4   3   14.00    2.17
  -6  -3   2  261.81    4.35
  -4  -4   6   10.68    1.98
  -7  -5   0   27.31    2.25
  -6  -6   3    5.60    1.30
  -6  -5   3   46.32    2.29
  -5  -2   3  389.20    4.86
  -4  -2   5    7.04    1.84
  -3  -2   6    3.12    2.04
  -7  -6   0    1.91    1.77
  -5  -3   4   25.21    2.87
  -7  -5  -1   14.95    2.29
  -6  -3   1    9.11    2.53
  -4  -6   5    4.82    1.62
  -6  -7   2   -0.50    1.22
  -6  -4   2   20.59    2.76
  -3  -3   6   86.91    2.76
  -7  -7  -1   18.06    2.54
  -6  -3   0    7.92    2.53
  -5  -4   4    7.66    2.44
  -5  -2   2    0.81    2.56
  -4  -3   5   70.19    2.92
  -3  -4   6   85.06    2.81
  -7  -6  -1    4.53    1.79
  -5  -5   4   12.91    1.74
  -4  -5   5    1.25    1.95
  -4  -2   4    2.67    2.27
  -6  -6   2    4.77    1.85
  -6  -5   2   30.14    2.50
  -6  -3  -1   16.34    2.79
  -5  -3   3  179.30    3.90
  -4  -7   4   32.93    1.72
  -4  -4   5    8.21    2.33
  -7  -6  -2    1.67    2.09
  -6  -4   1    0.17    2.63
  -4  -8   3    9.98    1.17
  -7  -7  -2   15.49    2.15
  -5  -8   2   -0.38    1.16
  -7  -7  -3   16.69    2.43
  -6  -7   1   34.62    2.25
  -5  -4   3   55.51    3.28
  -4  -3   4   86.49    3.24
  -6  -5   1   13.90    2.12
  -6  -4   0   27.76    3.08
  -5  -6   3   42.76    2.66
  -5  -5   3    5.29    2.76
  -5  -3   2  323.24    4.53
  -3  -3   5   24.41    2.25
  -6  -8   0   38.43    2.05
  -6  -6   1    5.43    1.83
  -4  -6   4   33.36    2.41
  -3  -5   5   11.83    2.47
  -6  -4  -1   49.81    3.52
  -4  -4   4   19.51    3.11
  -3  -4   5    6.02    2.44
  -4  -5   4    1.83    2.64
  -6  -5   0   51.43    3.45
  -6  -4  -2   24.66    3.13
  -5  -7   2   17.31    2.46
  -5  -4   2    6.53    2.99
  -5  -3   1  110.18    3.62
  -6  -9  -2   36.59    2.51
  -6  -7   0   41.65    2.70
  -6  -6   0    4.52    2.81
  -5  -9   0    3.14    1.39
  -4  -7   3  148.45    3.60
  -6  -8  -1    5.36    1.94
  -5  -8   1   10.76    2.09
  -5  -5   2   35.39    3.48
  -6  -5  -1   29.50    3.53
  -5  -6   2    3.71    2.17
  -4  -8   2   10.89    1.98
  -3  -6   4   23.84    3.09
  -6  -9  -3   23.92    2.90
  -6  -7  -1    7.39    2.88
  -5  -4   1   22.79    3.53
  -4  -6   3   48.78    3.40
  -4  -4   3   34.04    3.33
  -6  -5  -2    4.98    3.85
  -4  -5   3    2.35    3.47
  -3  -5   4   70.63    3.46
  -3  -4   4   22.46    2.60
  -6  -8  -2   24.12    2.72
  -5  -7   1    6.25    2.99
  -3  -9   1  120.78    2.77
  -6  -5  -3 1158.96   11.25
  -5  -9  -1   17.97    2.24
  -5  -5   1   51.35    3.99
  -3  -7   3   14.29    2.92
  -6  -6  -2    7.21    3.99
  -5  -8   0    2.34    2.79
  -5  -6   1  292.56    5.66
  -4  -7   2  340.72    5.70
  -3  -8   2  185.31    4.13
  -5  -4   0    9.43    2.66
  -3   4  -2   13.98    1.70
  -3   5  -1   17.60    1.83
  -3   7   3    3.56    1.49
  -2   7   2   51.87    2.30
  -1   7   2   34.40    2.41
   1   7   4   10.56    1.78
  -5   5   2    2.49    0.99
  -4   5   0   70.83    2.01
  -4   6   2   20.09    1.63
  -2   5  -1   59.06    2.14
  -1   8   8   62.55    1.58
   0   8   6    0.06    1.60
   0   8   8    1.39    1.14
  -1   8   6   20.20    1.73
  -1   8   7   46.88    1.75
   0   8   7   29.48    1.81
  -3   7   4    4.42    1.38
  -4   4  -1  284.16    3.05
  -2   7   3  116.04    2.72
  -1   6   1   46.64    2.26
   1   7   5    4.36    1.75
  -5   5   3   18.70    1.18
  -4   6   3   34.33    1.55
  -3   7   5    0.96    1.26
  -2   6   1  366.98    3.91
  -1   7   3   65.00    2.57
  -3   7   6   54.53    1.57
  -3   7   7    1.11    1.09
   0   7   4   48.89    2.49
  -3   5   0   21.17    2.02
  -5   5   4   23.79    1.44
  -4   5   1  199.41    2.51
  -3   6   2  223.52    3.13
  -2   7   4   32.99    2.18
  -5   4   1   20.84    1.52
  -4   6   5   99.66    1.83
  -3   4  -1    1.44    1.44
  -2   7   9    5.63    0.98
  -1   7   4  145.60    3.00
  -4   6   6   19.66    1.51
  -2   7   5   16.11    2.04
  -1   6   2   28.68    2.30
   0   7   5   47.74    2.42
  -2   6   2    8.88    1.69
  -4   4   0    8.93    1.63
  -3   6   3  126.35    2.81
  -2   7   6   30.72    1.89
   0   7   6   85.61    2.39
  -4   5   2   -0.11    1.75
  -3   5   1   53.26    2.55
  -2   7   7   26.10    1.84
  -5   4   2   17.59    1.60
  -1   7   6    4.87    2.20
  -1   7   9   81.57    1.88
   0   7   7  525.79    4.40
   0   7   8   47.16    2.01
  -3   6   4   77.40    2.52
  -2   5   1  417.42    3.78
  -2   6   3    1.41    2.13
  -1   6   3    5.58    2.09
  -1   7   7   69.02    2.20
  -1   7   8   21.43    1.98
  -3   6   9   62.76    1.28
  -4   5   3    0.64    1.88
  -3   4   0   10.77    1.40
  -5   4   3   35.17    1.90
  -4   4   1   56.66    2.19
  -3   6   5   73.44    2.42
  -3   6   6   67.18    2.28
  -3   6   8   32.41    1.55
  -2   6   4  100.51    2.83
  -3   6   7    3.65    1.64
  -2   6  10    6.55    1.09
  -1   6   4    1.86    2.13
  -5   4   4   37.87    1.79
  -4   5   8    1.38    1.26
  -2   5   2  411.44    3.87
   0   6   5    6.81    2.01
  -5   4   5    2.64    1.43
  -5   4   6  114.20    2.11
  -4   3   0   86.41    2.14
  -4   5   5   20.05    2.03
  -2   6   5  116.28    2.91
  -4   5   6    0.94    1.69
  -4   5   7    8.22    1.25
  -3   5   3   27.38    2.42
  -2   6   9    6.66    1.51
  -4   4   2  263.09    3.42
  -3   4   1   33.20    1.58
  -2   6   6    2.66    2.39
  -1   6  10   50.75    1.76
   0   6   6  721.98    5.16
  -5   3   2   64.87    2.22
  -2   6   7    9.63    2.14
  -2   5   3  233.25    3.40
  -1   6   6  500.70    4.64
   0   6   7    5.40    1.80
   0   6   8   55.17    2.09
  -6   2   5   14.56    1.45
  -3   5   4   33.72    2.54
  -2   5  11   25.57    1.16
  -1   6   7  239.09    3.54
  -1   6   9   11.83    1.96
  -4   4   3   66.12    2.51
  -1   6   8   80.38    2.24
  -5   3   3  134.48    2.67
  -4   3   1    8.46    1.86
  -3   5   5  190.16    3.41
  -3   5   9    1.43    1.55
  -4   4   9    1.41    1.15
  -2   5   4  305.03    3.71
  -3   5   6  253.97    3.83
  -3   5   8   91.17    2.39
  -1   5  11   31.32    1.63
  -5   3   4  171.91    3.04
  -3   5   7  166.41    2.75
  -2   5  10   70.97    2.14
  -4   4   5    3.40    2.28
  -4   4   8   14.79    1.53
  -5   3   5    6.70    2.08
  -5   3   6    1.80    1.70
  -4   4   6   27.51    2.17
  -4   4   7   31.84    2.10
  -3   4   3   38.64    2.24
  -2   5   5  502.42    4.40
  -4   3   2   68.20    2.34
  -4   3  10   47.45    1.48
  -2   5   9   88.09    2.62
  -6   1   6   15.34    1.54
  -5   2   2    5.85    1.70
  -2   5   6   51.55    2.82
  -1   5  10   88.39    2.43
  -6   1   4   24.43    1.94
  -2   5   7   98.09    3.10
  -1   5   6  244.57    3.53
  -6   1   5   24.27    1.62
  -3   4   4   51.97    2.68
  -1   5   9  267.13    3.68
   0   5   8    1.52    1.56
  -4   3   3   64.06    2.62
  -2   4  11   43.04    1.56
  -1   5   7   13.03    2.32
  -1   5   8   82.26    2.82
  -5   2   3  158.47    3.00
  -5   2   8    4.38    1.68
  -4   3   9   45.14    1.83
  -3   4   9   -0.09    1.96
  -3   4   5  961.63    6.39
  -2   3  12    3.04    0.91
  -4   3   4   86.43    2.99
  -3   4   6   32.86    2.79
  -3   4   8    2.42    2.40
  -5   2   4  656.17    5.25
  -4   3   8  101.02    2.55
  -3   4   7   27.07    2.69
  -2   4  10   58.60    2.38
  -1   4  11  189.80    2.68
  -5   2   5    1.67    2.27
  -5   2   6    4.64    2.12
  -4   2  10   30.94    1.41
  -4   3   5  594.92    5.28
  -6   0   6   10.31    1.41
  -4   3   6  226.29    3.80
  -4   3   7  143.22    3.28
  -6   0   5    0.80    1.92
  -3   3  10   48.88    2.15
  -2   4   9   37.02    2.64
  -6   0   4    0.55    1.65
  -2   4   6   83.42    2.90
  -1   4  10   24.94    2.27
  -5   1   8  167.33    2.53
  -2   4   7   50.75    2.88
  -4   2   9   23.68    1.87
  -2   2  12   23.60    1.32
  -2   3  11   37.49    1.86
  -5   0   9   15.38    1.28
  -3   3   9    6.06    2.09
  -1   4   9  130.72    3.05
  -5   1   3  266.88    3.60
  -4   2   3   48.37    1.96
  -1   4   8  119.52    3.21
  -6  -1   6   19.01    1.51
  -4   1  10    0.35    1.16
  -3   3   5  523.04    5.05
  -3   3   8   11.42    2.65
  -5   1   4   36.52    2.41
  -5   1   6    7.60    2.27
  -4   2   8   53.83    2.58
  -3   3   6  287.47    4.12
  -3   3   7  255.94    4.18
  -2   3  10   39.51    2.24
  -1   3  11   64.25    2.13
  -6  -1   5   19.19    1.87
  -5   1   5   28.56    2.64
  -4   2   4  159.38    2.93
  -4   2   6   28.69    2.92
  -4   2   7   30.48    2.63
  -3   2  10   73.09    2.50
  -2   1  12   27.36    1.26
  -6  -2   6   36.15    1.61
  -2   2  11   84.70    2.42
  -4   0  10   42.02    1.52
  -4   1   9    9.78    1.45
  -1   3  10  265.16    3.64
  -3   2   9  538.57    4.91
  -6  -2   5   51.61    2.04
  -2   3   7    0.95    1.77
  -5   0   3   45.11    2.46
  -4   1   8   46.75    2.65
  -2   0  12    6.22    0.99
  -1   3   9    4.70    2.31
  -5   0   6   32.14    2.38
  -3   2   8   22.58    2.77
  -1   2  11   33.35    2.06
  -5   0   4   23.48    1.90
  -5   0   5   78.90    3.11
  -4  -1  10   18.33    1.34
  -3   1  10    1.60    1.97
  -2   2  10   55.32    2.48
  -1   3   8    3.85    2.43
  -4   0   9   96.95    2.51
  -4   1   7   39.26    2.78
  -3   2   6   77.60    3.07
  -3   2   7  104.55    3.39
  -4   1   4    8.96    1.67
  -4   1   6   57.00    3.10
  -2   1  11   31.15    2.09
  -5  -3   8    3.99    1.30
  -3   1   9    6.42    2.27
  -1   2  10    0.45    2.13
  -5  -1   6   26.16    2.41
  -4   0   8   84.12    2.87
  -3   0  10    1.89    1.93
  -4  -1   9   74.89    2.28
  -1   1  11   28.89    2.09
  -5  -2   7   19.88    1.99
  -5  -1   3   62.06    2.62
  -5  -1   4   18.66    2.57
  -5  -1   5   -1.26    2.52
  -3   1   8  159.73    3.52
  -2   0  11    3.97    1.77
  -2   1  10    8.42    2.33
  -4   0   7   85.82    3.25
  -1   2   9   59.05    2.71
  -5  -3   7  148.88    2.64
  -4  -2   9    0.35    1.48
  -4   0   6   63.28    3.19
  -3  -1  10   73.71    2.33
  -3   1   7  144.07    2.97
  -5  -2   6   16.27    2.23
  -4  -1   8   35.95    2.62
  -3   0   9  110.41    3.00
  -3   1   6  203.99    3.67
  -2  -1  11   10.02    1.69
  -5  -4   7  125.02    2.40
  -4  -3   9   25.21    1.47
  -2  -2  11   16.95    1.53
  -1   0  11  196.08    3.06
  -1   1  10  149.10    2.74
  -5  -2   5   21.11    2.67
  -3  -2  10   27.14    1.61
  -2   0  10   20.88    2.33
  -5  -3   6   28.36    2.29
  -5  -2   4   11.48    2.45
  -4  -1   7   43.92    2.81
  -3  -3  10   52.03    1.56
  -3   0   8   50.67    2.92
  -2   1   8   92.42    2.98
  -5  -2   3  343.54    4.50
  -4  -2   8    0.19    1.96
  -3  -1   9   92.58    2.80
  -1  -1  11   10.05    1.86
  -1   1   9   40.51    2.01
  -3   6   6   64.81    2.11
  -3   6   8   34.48    1.52
  -4   5   5   18.14    1.64
  -4   5   8    1.85    1.18
  -1   6   4   -0.22    1.53
  -4   5   7    3.65    1.54
  -2   6  10    2.98    1.41
  -1   6  11   29.70    1.37
   0   6   5    3.09    2.12
   1   6  10   60.72    2.21
  -4   5   6    1.79    1.33
  -3   5   3   23.95    1.99
  -2   6   5  111.07    2.86
   0   6  11   57.81    1.87
   1   6   7   60.84    2.04
   1   6   9   11.49    2.47
  -1   6   5   41.77    2.31
   1   6   8   87.56    2.67
  -2   6   6    9.65    2.28
  -2   6   9    7.67    1.71
   0   6   6  717.77    5.46
  -3   5  10    8.61    1.14
  -2   6   7   12.03    2.36
  -2   6   8    6.36    2.18
  -1   5  12   12.04    1.06
   0   6  10   94.14    2.59
  -3   5   4   35.07    2.46
  -2   5   3  225.41    3.03
  -1   6   6  506.69    4.84
  -1   6   7  247.89    3.69
  -1   6   9   16.84    2.41
   0   6   8   54.54    2.74
   0   6   9   97.21    2.74
  -1   6   8   88.32    2.84
  -4   4   9    1.88    1.35
  -3   5   5  193.48    3.27
  -3   5   9    4.73    1.44
  -4   4   4    9.23    2.08
  -3   5   7  194.31    3.23
  -3   5   8  101.13    2.39
   0   5  11   20.73    1.68
  -5   3   7    1.36    1.65
  -2   5  10   72.99    2.14
  -1   5  11   32.50    2.00
   1   5   9   56.20    2.44
  -4   4   5    7.17    2.05
  -2   5   5  543.92    4.80
  -5   3   5    4.40    1.49
  -5   3   6   -0.75    1.53
  -4   4   6   28.05    2.08
  -4   4   7   33.45    2.03
  -3   4   3   38.12    2.14
  -1   4  12  228.68    2.57
  -4   3  10   50.09    1.48
  -2   5   6   50.01    2.88
  -2   5   9   93.02    2.77
  -1   5  10   93.83    2.80
   0   5  10    2.73    2.02
  -3   4  10    4.41    1.46
  -2   5   7  102.11    3.20
  -2   5   8  125.11    3.26
  -1   5   6  241.26    3.76
   0   5   8    1.07    2.25
   0   5   9    7.45    2.20
  -3   4   4   58.24    2.45
  -1   5   7   11.30    2.54
  -1   5   8   85.19    3.13
  -2   3  12    3.03    1.01
  -5   2   8    1.62    1.69
  -4   3   3   61.00    2.36
  -4   3   9   48.94    1.84
  -3   3  11   22.54    1.29
  -3   4   9    2.71    1.48
   0   4  11   40.60    2.19
  -3   4   5 1001.51    6.67
  -1   4  11  204.81    3.07
  -3   4   8    0.50    2.37
  -2   4  10   59.33    2.55
  -1   3  12  115.61    2.24
  -3   4   7   25.99    2.79
  -5   2   7   -1.81    1.65
  -4   2  10   31.39    1.50
  -4   3   4   88.84    2.80
  -4   3   8  101.39    2.54
   0   4  10   18.61    2.30
  -5   2   4  620.87    4.94
  -3   3  10   47.56    2.04
  -2   4   9   37.80    2.59
  -1   4  10   25.34    2.44
  -5   2   5    1.54    2.01
  -5   2   6    2.04    1.89
  -4   3   5  559.23    4.55
  -4   3   6  233.56    3.51
  -2   2  12   22.07    1.27
  -2   3  11   39.41    2.12
  -2   4   6   84.03    2.99
  -2   4   8   49.65    2.93
   0   4   9   52.13    2.56
  -6   0   6   11.36    1.36
  -3   2  11   15.09    1.40
  -2   4   7   47.36    2.35
  -1   4   9  108.97    2.94
  -3   3   9    4.90    2.33
  -1   2  12   18.89    1.40
  -1   3  11   66.74    2.33
  -1   4   7   35.43    2.41
  -5   1   8  167.74    2.32
  -4   2   9   24.94    1.70
  -5   0   9   14.52    1.33
  -2   1  12   29.37    1.21
  -4   1  10    1.09    1.19
  -3   3   8   13.63    2.71
  -4   2   8   57.53    2.39
   0   3  10  220.69    3.44
  -5   1   7   53.73    2.37
  -3   2  10   74.67    2.26
  -3   3   6  284.21    4.13
  -3   3   7  246.30    3.61
  -2   2  11   91.76    2.36
  -1   3  10  265.61    3.78
  -2   3   9    6.73    2.71
  -5   1   6    4.77    2.15
  -4   2   4  158.70    3.11
  -4   2   7   29.30    2.71
   0   3   9  249.22    3.50
  -6  -1   6   14.99    1.37
  -5   1   4   34.61    2.23
  -5   1   5   31.08    2.24
  -4   2   5   35.06    2.59
  -4   2   6   28.43    2.72
  -2   3   8   12.36    2.62
  -1   2  11   29.33    1.99
  -1   3   9   -1.15    2.55
  -4   0  10   40.52    1.38
  -4   1   9    9.53    1.79
  -3   2   9  548.68    4.88
  -2   3   7    1.10    1.86
  -6  -1   5   22.00    1.95
  -2   1  11   29.11    2.02
  -1   3   8    2.79    1.67
  -3   1  10   -1.19    2.02
  -5   0   7  199.21    2.97
  -4   1   8   44.79    2.51
  -3  -1  11   35.90    1.24
  -3   2   8   19.27    2.11
  -1   2  10    2.48    1.98
  -1   1  11   29.47    1.88
  -6  -2   6   37.47    1.51
  -5  -1   8    3.71    1.46
  -4   0   9   89.83    2.38
  -3   2   7  106.22    3.16
  -2   2   9   58.46    2.84
  -5   0   6   33.17    2.29
  -4   1   7   45.99    2.76
  -3   2   6   75.04    3.05
  -2   0  11    7.13    1.61
  -3   1   9    7.15    2.33
  -5   0   5   81.15    2.76
  -3   0  10    2.47    1.94
  -2   1  10   12.72    2.21
  -2   2   8   30.15    2.62
  -1   2   9   55.11    2.47
  -6  -3   6    8.84    1.50
  -6  -2   5   59.77    2.07
  -5  -2   8    6.26    1.36
  -5   0   4   21.63    2.15
  -4   1   4    9.58    2.05
  -2  -1  11   11.05    1.57
  -1   0  11  185.89    2.59
  -4   1   5   34.15    2.13
  -4  -1   9   71.68    2.03
  -4   0   8   77.21    2.66
  -3   1   8  153.23    3.47
  -1   1  10  174.35    3.08
  -6  -2   4   92.46    2.36
  -6  -3   5   15.81    1.75
  -5  -1   6   22.98    2.24
  -4  -2   9   -0.36    1.29
  -3   0   9  107.33    2.73
  -2   0  10   21.17    1.99
  -4   0   7   84.00    3.01
  -3  -3  10   46.18    1.33
  -3   1   7  138.02    2.75
  -5  -2   7   17.61    1.93
  -4  -3   9   24.45    1.39
  -1   1   9   75.06    3.05
  -5  -1   5    1.03    2.17
  -4  -1   8   34.29    2.31
  -3   1   6  196.13    3.41
  -2   1   8   96.74    2.85
  -1   0  10  232.15    3.42
  -6  -4   5   -1.26    1.30
  -6  -3   4   29.69    2.21
  -4   0   6   63.53    2.82
  -5  -3   7  136.41    2.37
  -5  -1   4   17.56    2.47
  -3   0   8   49.27    2.65
  -2  -1  10   27.62    1.60
  -5  -1   3   51.25    2.43
  -4   0   5   13.66    2.48
  -3  -1   9   85.27    2.64
  -2   0   9   26.04    2.43
  -5  -4   7  119.41    2.15
  -2  -3  10    2.14    1.17
  -2  -2  10   66.13    2.02
  -4  -2   8    2.31    1.36
  -4  -1   7   40.19    2.51
  -1  -1  10   46.14    2.10
  -6  -4   4   -0.62    1.43
  -3  -2   9   74.95    2.41
  -3   0   7   18.34    2.40
  -4  -3   8   20.23    1.78
  -3  -4   9  110.75    1.96
  -1  -2  10    0.56    1.67
  -1   0   9  655.87    5.07
  -6  -5   4   23.78    1.45
  -5  -2   5   20.49    2.30
  -4  -4   8   37.09    1.50
  -4  -1   6   63.07    2.80
  -3  -1   8   77.80    2.23
  -2  -1   9   74.68    2.48
  -6  -4   3   14.23    1.73
  -4  -2   7    2.93    2.21
  -3   0   6   15.54    2.27
  -5  -5   6  115.61    2.21
  -5  -4   6  588.40    4.49
  -5  -2   4   13.88    2.24
  -6  -6   3    2.00    1.23
  -6  -5   3   39.75    1.91
  -5  -3   5   34.35    2.40
  -5  -2   3  360.77    4.21
  -3  -2   8 1342.49    7.24
  -2  -2   9   93.13    2.56
  -1  -1   9  174.99    2.95
  -4  -3   7   61.37    2.49
  -3  -1   7   70.89    2.68
  -2  -4   9   -0.94    1.38
  -4  -2   6   -3.06    2.39
  -2  -3   9    8.91    1.89
  -4  -5   7    1.56    1.27
  -4  -4   7   43.99    2.08
  -3  -3   8   18.85    2.16
  -1  -2   9    0.88    2.01
  -6  -5   2   22.54    2.01
  -5  -6   5   18.83    1.76
  -5  -3   4   32.71    2.46
  -3  -4   8  128.83    2.64
  -6  -6   2    3.64    1.39
  -3  -1   6  200.86    3.38
  -1  -3   9   33.46    2.08
  -4  -3   6   27.31    2.40
  -4  -2   5    2.54    2.29
  -3  -2   7   71.86    2.40
  -2  -2   8   91.76    2.79
  -1  -1   8 1114.82    6.15
  -5  -3   3  175.45    3.53
  -4  -6   6   -0.17    1.31
  -2  -5   8   65.95    1.89
  -5  -4   4    5.52    2.02
  -5  -3   2  344.91    4.25
  -4  -5   6   -0.14    1.76
  -4  -4   6    7.96    2.17
  -4  -2   4    3.40    2.13
  -3  -3   7  239.11    3.77
  -2  -3   8    5.21    2.06
  -3  -2   9   83.75    2.46
  -4  -4   8   44.04    1.45
  -4  -1   8   33.25    2.32
  -4   1   5   34.80    2.12
  -3   0   8   51.67    2.57
  -2  -2   9   96.43    2.61
  -6  -4   6    3.74    1.16
  -5   0   5   77.55    2.45
  -4   0   7   85.23    2.77
  -5  -2   7   18.57    1.77
  -4  -2   8   -0.88    1.85
  -5  -4   7  125.81    2.04
  -4  -3   8   23.89    1.79
  -3   1   6  206.58    3.26
  -2   0   8   33.89    2.61
  -6  -2   5   60.78    1.98
  -5  -3   7  135.88    2.44
  -5  -1   6   22.24    2.14
  -3  -4   8  136.14    2.37
  -3  -1   8   75.15    2.43
  -1  -2   8    3.41    2.00
  -1  -1   8 1043.99    5.85
  -4  -5   7    1.72    1.16
  -4  -1   7   39.98    2.61
  -4   0   6   62.62    2.72
  -3   0   7   19.87    2.43
  -2  -1   8   44.26    2.55
  -3  -3   8   23.95    2.19
  -3  -2   8 1396.26    7.28
  -2  -3   8    9.96    1.89
  -6  -3   5   15.39    1.52
  -3  -5   7   10.51    1.47
  -2  -2   8   95.22    2.85
  -7  -4   3    4.41    1.36
  -6  -5   5   43.27    1.71
  -4  -6   6    1.88    1.04
  -6  -4   5    0.41    1.30
  -6  -2   4   93.64    2.50
  -5  -5   6  125.64    2.14
  -5  -1   5   -0.44    2.11
  -4  -2   7   -0.78    2.26
  -4  -3   7   58.97    2.47
  -4   0   5   15.79    2.18
  -3  -1   7   80.27    2.79
  -5  -4   6  552.83    4.44
  -5  -3   6   27.58    2.12
  -3   0   6   12.89    1.58
  -4  -1   6   54.56    2.30
  -3  -4   7   47.84    2.28
  -2  -4   7   19.45    2.01
  -2  -1   7  167.07    3.05
  -6  -6   4   25.02    1.55
  -3  -2   7   85.24    3.00
  -6  -3   4   31.13    2.28
  -6  -2   3  119.63    3.06
  -5  -1   4   18.86    2.33
  -7  -4   2    6.34    1.38
  -5  -7   4   26.37    1.23
  -4  -5   6   -0.02    1.79
  -2  -3   7   10.55    2.05
  -2  -2   7  165.31    2.82
  -6  -5   4   24.26    1.62
  -4  -2   6    0.55    2.19
  -7  -5   2    8.40    1.70
  -3  -5   6   19.84    2.09
  -3  -1   6  175.69    3.04
  -5  -5   5    0.42    1.63
  -5  -3   5   32.44    2.38
  -4  -4   6    7.37    2.17
  -4  -3   6   26.85    2.56
  -5  -4   5   15.77    2.24
  -5  -1   3   55.67    2.42
  -4  -6   5    7.90    1.85
  -6  -3   3   23.29    2.37
  -4  -7   4   40.77    1.88
  -3  -2   6    1.33    2.42
  -7  -4   1   86.64    2.42
  -5  -2   4    9.17    2.41
  -3  -6   5    2.90    1.51
  -3  -4   6  101.66    2.89
  -2  -4   6   27.74    2.04
  -6  -6   3    5.98    1.54
  -3  -3   6   87.58    2.99
  -7  -6   1    2.87    1.72
  -5  -6   4  102.40    2.52
  -4  -2   5    2.76    1.81
  -2  -3   6   20.72    2.20
  -7  -5   1   12.17    1.57
  -6  -5   3   45.94    2.19
  -6  -7   2    2.45    1.23
  -5  -8   2   -0.22    1.09
  -5  -3   4   24.29    2.65
  -4  -3   5   61.69    3.09
  -7  -4   0    3.34    1.71
  -6  -3   2  247.64    3.88
  -5  -5   4    9.04    2.26
  -4  -4   5    3.83    2.51
  -7  -7   0   12.20    1.79
  -5  -4   4    8.27    1.85
  -5  -2   3  345.37    4.39
  -3  -5   5    5.40    2.35
  -4  -6   4   34.62    2.24
  -7  -5   0   31.70    2.10
  -4  -2   4    0.84    2.14
  -7  -6   0    3.63    1.53
  -6  -6   2    4.02    1.91
  -6  -4   2   15.44    2.50
  -4  -8   2   12.08    1.40
  -4  -7   3  153.53    3.22
  -3  -4   5    9.42    1.89
  -3  -3   5   22.31    2.46
  -2  -4   5   14.27    2.28
  -6  -5   2   28.11    2.71
  -5  -6   3   37.63    2.38
  -3  -6   4   28.13    2.62
  -6  -3   1    5.21    2.40
  -5  -2   2    3.48    2.27
  -4  -5   4    2.58    2.55
  -6  -7   1   33.69    2.15
  -4  -3   4   71.16    2.67
  -6  -8   0   50.68    2.01
  -5  -8   1    9.96    1.62
  -5  -7   2   12.28    2.32
  -5  -5   3    9.74    2.04
  -5  -4   3   48.93    3.08
  -4  -4   4   20.72    2.15
  -7  -5  -1   15.01    2.31
  -7  -6  -1    5.94    2.16
  -6  -4   1    2.52    2.63
  -3  -5   4   60.01    3.18
  -2  -5   4  118.06    3.11
  -6  -6   1    5.70    2.36
  -6  -3   0    3.06    2.47
  -4  -6   3   47.19    3.11
  -5  -3   2  362.52    5.22
  -7  -7  -2   20.43    1.87
  -5  -6   2    5.62    2.74
  -4  -8   1   11.04    2.21
  -4  -7   2  286.59    4.49
  -6  -7   0   45.30    2.82
  -5  -9  -1   20.00    1.59
  -4  -5   3    1.62    2.94
  -3  -6   3    0.63    2.78
  -7  -6  -2   -0.53    2.23
  -6  -8  -1    8.67    1.77
  -5  -5   2   36.04    3.29
  -5  -4   2    4.45    2.34
  -4  -4   3   34.19    3.15
  -6  -4   0   31.02    2.93
  -5  -7   1   11.71    2.64
  -3  -7   2   78.62    3.45
  -6  -6   0    0.18    2.75
  -7  -7  -3   24.66    2.37
  -6  -5   0   55.45    3.24
  -5  -3   1  113.26    3.55
  -4  -9  -1   10.84    1.82
  -7  -6  -3    9.96    2.65
  -3  -5   3  109.82    2.97
  -6  -7  -1    8.88    2.58
  -5  -6   1  308.11    5.26
  -6  -8  -2   20.56    2.42
  -6  -4  -1   58.51    3.50
  -5  -9  -2   11.19    1.84
  -7  -8  -5   31.05    2.49
  -7  -7  -4   22.21    2.52
  -5  -5   1   50.30    3.42
  -4  -8   0   17.16    2.75
  -4  -7   1  167.69    3.97
  -4  -5   2  260.36    4.68
  -7  -6  -4    4.39    2.47
  -6  -6  -1    1.42    2.81
  -6  -5  -1   27.01    3.06
  -5  -7   0   70.36    3.29
  -4  -4   2  101.57    3.43
  -3  -6   2   -0.17    2.90
  -6  -9  -4   69.89    2.70
  -5  -8  -1   14.58    2.67
  -3  -8   0   81.57    3.08
  -7  -8  -6   10.65    2.30
  -3  -7   1   99.48    3.48
  -7  -7  -5    5.81    2.57
  -7  -6  -5    1.96    2.45
  -6  -7  -2   -3.04    2.67
  -6  -4  -2   28.24    2.81
  -4  -9  -2    5.24    2.11
  -6  -8  -3   28.49    2.65
  -5  -6   0   29.52    3.47
  -4  -6   1   10.66    3.13
  -7  -7  -6    0.61    2.56
  -5  -4   0    7.16    2.66
  -6  -9  -5    2.92    1.83
  -6  -5  -2    1.97    3.09
  -5  -5   0   13.40    2.54
  -7  -7  -7    8.80    2.34
  -5  -8  -2   -0.47    2.66
  -5  -7  -1   20.94    3.15
  -4  -8  -1    8.60    2.66
  -4  -5   1    6.17    2.76
  -6  -4  -3   -2.47    2.38
  -6  -8  -4   16.66    2.68
  -6  -7  -3   20.93    3.01
  -3  -6   1    1.74    2.60
  -6  -9  -6   15.14    2.12
  -4  -9  -3    7.19    2.23
  -3  -8  -1  100.54    3.58
  -6  -6  -3   29.60    3.33
  -6  -5  -3 1236.33    9.00
  -5  -9  -4   20.59    2.53
  -5  -6  -1   26.67    2.46
  -3  -7   0   76.23    3.56
  -5  -5  -1    3.79    2.89
  -4  -6   0  110.11    3.86
  -6  -9  -7   13.06    2.42
  -6  -8  -5   79.48    3.23
  -5  -8  -3    6.37    2.82
  -5  -7  -2   27.54    3.38
  -3  -9  -3    3.09    1.86
  -6  -9  -8    3.50    2.03
  -6  -7  -4    7.63    2.18
  -4  -8  -2   14.03    2.93
  -6  -5  -4  101.99    3.56
  -6  -6  -4  789.34    7.22
  -5  -9  -5   45.23    2.28
  -6  -8  -6   59.18    3.17
  -5  -6  -2   49.73    3.56
  -4  -9  -4   -0.51    2.74
  -3  -8  -2  108.04    3.51
  -3  -6   0    4.98    1.68
  -6  -5  -5   14.74    2.91
  -5  -8  -4   28.27    3.07
  -5  -7  -3   11.99    3.08
  -4  -6  -1   75.30    3.46
  -3  -7  -1   94.43    3.45
  -6  -6  -5   34.63    3.48
  -5  -9  -6   94.78    3.08
  -3  -9  -4    2.53    2.16
  -6  -7  -6    5.45    2.83
  -4  -7  -2   31.20    3.41
  -6  -8  -9   31.85    2.64
  -6  -8  -8    9.03    2.23
  -4  -9  -5    2.58    2.61
  -6  -4 -10    6.49    2.17
  -3  -4  -9    6.79    2.64
  -3  -3 -11 1388.08    8.33
  -3  -1 -12   44.48    2.36
  -3   0 -12   87.13    2.48
  -6  -3 -11   15.45    1.73
  -5  -4 -10   -1.98    2.25
  -4  -2 -12   22.40    2.14
  -2  -1 -11   13.54    2.19
  -6  -4  -9   10.64    2.15
  -5  -2 -12   34.56    2.15
  -7  -2 -10    0.68    1.16
  -5   0 -12    5.44    1.09
  -4  -4  -9   44.91    3.13
  -4  -3 -11  187.06    3.82
  -2   0 -11    8.42    1.90
  -5  -3 -11  133.98    3.28
  -5  -1 -12   12.37    1.49
  -4  -1 -12   35.26    2.08
  -4   0 -12   87.82    2.15
  -3  -3 -10   88.46    3.23
  -3  -2 -11   80.90    3.14
  -5  -4  -9   20.28    2.50
  -6  -2 -11   23.29    1.75
  -4  -4  -8  215.47    3.73
  -6  -3 -10   16.78    2.13
  -5  -4  -8   55.42    2.60
  -6  -1 -11   27.24    1.74
  -4  -3 -10  189.40    3.78
  -4  -2 -11   37.91    2.73
  -3  -3  -9    6.14    2.38
  -7  -2  -9    7.59    1.44
  -5  -2 -11   37.32    2.37
  -3   1 -11    7.06    2.01
  -2  -1 -10   60.03    2.13
  -1   0  -9  256.98    3.69
  -3  -2 -10  126.78    3.32
  -3   0 -11   46.89    2.29
  -6  -3  -9    9.34    2.11
  -7  -1  -9    9.53    1.55
  -5  -1 -11  109.62    2.67
  -4  -3  -9   63.02    3.03
  -4  -1 -11   40.72    2.35
  -4   1 -11    4.27    1.58
  -2   0 -10   12.38    2.09
  -7  -2  -8    3.81    1.45
  -5  -3  -9  378.87    4.66
  -5   0 -11    3.32    1.12
  -2   1 -10   65.58    2.40
  -6  -3  -8    0.90    2.29
  -4  -2 -10   23.94    2.77
  -6  -1 -10   28.34    1.95
  -5  -2 -10   79.10    2.90
  -3  -1 -10   31.84    2.67
  -2  -1  -9  181.26    3.14
  -6   0 -10    0.78    1.27
  -4  -3  -8  131.82    3.13
  -3  -2  -9    0.78    2.24
  -7  -1  -8   10.77    1.68
  -6  -2  -9   55.09    2.50
  -5  -3  -8  336.93    4.39
  -3   2 -10   26.35    1.86
  -3   0 -10   20.22    2.33
  -7   0  -8    0.93    1.35
  -5  -1 -10    7.40    2.37
  -4  -1 -10   42.20    2.31
  -4   2 -10    0.48    1.56
  -3   1 -10  147.41    3.10
  -5  -3  -7    7.15    2.41
  -5   0 -10  177.79    3.40
  -5   1 -10  135.30    2.63
  -4  -2  -9    5.30    2.01
  -2   0  -9   19.42    2.09
  -6  -2  -8   83.39    2.93
  -4   0 -10   39.01    2.70
  -7  -1  -7  249.01    3.26
  -6   1  -9   62.35    1.74
  -3  -1  -9  164.20    3.45
  -2   1  -9  108.33    2.72
  -2   2  -9   97.09    2.45
  -6   0  -9    0.52    1.74
  -3   3  -9   14.24    1.95
  -7   0  -7  115.79    2.34
  -4   3  -9   33.98    1.56
  -6  -2  -7   48.49    2.67
  -5  -2  -8  167.26    3.79
  -5  -1  -9   13.34    2.49
  -5   2  -9    4.98    1.56
  -4  -2  -8   -0.38    1.75
  -4  -1  -9   94.40    3.26
  -6  -1  -8  171.74    3.41
  -6   2  -8    1.60    1.27
  -4   4  -8   29.82    1.32
  -5   0  -9   35.48    2.63
  -3   2  -9    7.63    2.16
  -7   0  -6  143.27    2.83
  -6  -2  -6   89.03    2.83
  -5   1  -9   69.97    2.62
  -4   0  -9   35.95    2.85
  -4   2  -9    1.86    1.86
  -3   1  -9   18.93    2.40
  -3   4  -8    3.06    1.31
  -7   1  -6   45.43    1.98
  -6   0  -8    1.27    2.31
  -6   1  -8   38.09    1.88
  -5  -2  -7  235.38    3.90
  -5   3  -8   61.48    1.93
  -4   1  -9   14.15    2.49
  -5  -1  -8    7.63    2.69
  -6  -1  -7   48.51    2.83
  -4  -1  -8   31.42    2.79
  -2   1  -8  155.90    2.64
  -2   2  -8  102.08    2.55
  -7   1  -5    3.98    1.65
  -3   0  -8   65.82    2.53
  -6   0  -7  135.20    3.17
  -6   2  -7    5.40    1.07
  -5   0  -8   12.17    2.48
  -5   2  -8   17.66    1.99
  -4   3  -8   62.08    2.07
  -3   3  -8  177.64    3.16
  -6  -1  -6   57.27    2.54
  -6   1  -7   20.93    2.01
  -5   1  -8  126.40    3.34
  -4   0  -8   45.19    2.70
  -7   1  -4    1.47    1.70
  -6   3  -6    3.37    1.48
  -3   2  -8  107.00    3.19
  -4   1  -8   14.20    2.65
  -4   4  -7   88.09    2.37
  -4   5  -6    2.37    1.07
  -6  -1  -5   10.82    2.64
  -5   3  -7    4.58    1.62
  -6   0  -6   11.71    2.39
  -5   4  -6   12.41    1.41
  -3   4  -7   20.49    2.04
  -6   2  -6    8.67    1.80
  -5  -1  -6   41.61    2.46
  -5   0  -7   45.91    2.43
  -2   3  -7   10.52    2.14
  -5   1  -7  115.40    3.46
  -5   2  -7   43.14    2.63
  -4   0  -7   61.50    2.86
  -3   5  -6  167.60    2.95
  -6   3  -5    8.10    1.57
  -6   0  -5   -0.02    2.27
  -3   3  -7  127.35    3.15
  -4   1  -7   20.13    2.55
  -4   2  -7    1.78    2.59
  -4   6  -4  108.72    1.96
  -3   2  -7  158.96    3.45
  -5   3  -6    6.22    1.96
  -5   5  -4   36.90    1.55
  -6   1  -5   35.59    2.30
  -6   4  -3    2.88    1.64
  -4   5  -5    0.85    1.39
  -6   0  -4    2.12    2.32
  -6   3  -4    4.40    1.76
  -5   1  -6  102.70    3.40
  -5   2  -6   99.66    3.19
  -5   4  -5   30.05    1.82
  -2   4  -6   57.20    2.41
  -3   4  -6   18.18    2.30
  -6   1  -4    4.77    2.42
  -6   2  -4   70.05    2.60
  -5   0  -5   74.11    2.98
  -4   3  -6   45.50    2.85
  -3   6  -4    8.96    1.51
  -2   3  -6   12.10    2.03
  -5   3  -5    2.34    2.29
  -4   1  -6  164.59    3.58
  -4   2  -6   74.70    3.14
  -3   3  -6  227.42    3.88
  -3   5  -5   98.39    2.58
  -2   5  -5  220.91    3.72
  -6   3  -3   44.22    2.28
  -5   5  -3   18.78    1.49
  -4   6  -3   40.26    1.60
  -5   1  -5   80.54    3.14
  -5   2  -5  248.17    3.97
  -5   4  -4   93.37    2.67
  -4   4  -5    7.86    2.16
  -6   1  -3   22.70    2.40
  -6   2  -3  104.92    3.20
  -6   4  -1   63.74    2.38
  -6   3  -2   13.59    2.75
  -5   0  -4   98.78    3.10
  -3   7  -2   12.41    1.22
  -6   1  -2    2.29    2.85
  -6   4   0   90.93    2.69
  -2   4  -5  157.99    3.02
  -6   2  -2   14.99    2.45
  -5   3  -4   11.92    2.40
  -5   5  -2   27.96    1.71
  -4   3  -5   63.96    2.95
  -3   4  -5    2.24    1.71
  -6   3  -1  158.06    3.66
  -5   1  -4  116.32    3.29
  -4   2  -5  651.61    5.84
  -5   2  -4    6.51    2.48
  -5   4  -3  104.94    2.77
  -4   6  -2  137.64    2.47
  -3   5  -4   17.12    2.06
  -3   6  -3   28.45    1.89
  -6   3   0   63.64    3.13
  -4   4  -4   29.09    2.42
  -2   7  -2   -0.47    1.58
  -6   3   1    2.11    2.08
  -4   5  -3   -4.66    1.96
  -2   5  -4  241.49    3.42
  -5   5  -1    8.96    1.49
  -2   6  -3    2.45    1.75
  -2   8   0  158.90    2.56
  -5   1  -3  119.51    2.87
  -5   3  -3   47.86    2.17
  -3   7  -1    6.70    1.41
  -5   4  -2  130.10    2.93
  -4   3  -4  929.23    6.36
  -4   2  -4  164.71    3.15
  -4   6  -1    3.46    1.50
  -3   4  -4  215.60    3.21
  -5   5   0    3.56    1.67
  -2   4  -4  623.48    4.73
  -4   4  -3    4.39    2.15
  -4   5  -2   11.14    2.02
  -3   5  -3   35.39    2.43
  -3   6  -2   30.40    1.88
  -5   1  -2  126.21    2.46
  -3   3  -4    6.87    1.30
  -5  -7  -7   29.55    2.41
  -4  -7 -13   32.13    1.67
  -2  -7 -10    1.74    2.80
  -2  -7  -8   -0.55    2.95
  -3  -7  -7   10.33    2.80
  -5  -7 -12   13.37    1.90
  -5  -7  -8  124.35    3.44
  -4  -7  -7  136.67    3.51
  -1  -6 -10   66.37    2.80
  -1  -6  -7   80.40    3.34
  -4  -7 -12   97.90    2.62
  -3  -7 -11   74.24    3.29
  -3  -7  -8   60.51    3.40
  -1  -6  -9   15.71    2.57
  -1  -6  -8   99.56    3.41
  -5  -7 -11   10.58    2.15
  -5  -7  -9   16.41    2.45
  -4  -7  -8   68.67    3.25
  -3  -7 -10  166.88    4.06
  -3  -7  -9   56.96    3.39
  -5  -6  -6  162.54    3.82
  -4  -7 -11   94.22    3.14
  -4  -6  -5   14.28    1.67
  -2  -6 -12    0.06    1.80
  -6  -6 -12    0.27    1.54
  -4  -7 -10  106.27    3.43
  -4  -7  -9  128.24    3.57
  -3  -6 -13   13.56    1.63
  -6  -6 -11    4.00    1.72
  -6  -6  -9   10.07    1.97
  -5  -6 -13    3.59    1.74
  -3  -5 -14   18.81    1.40
  -2  -6 -11   19.70    2.59
  -6  -6 -10   25.46    2.27
  -4  -6 -13   28.26    1.91
  -2  -6  -7   32.19    3.04
  -2  -5 -13   38.60    1.82
  -5  -6  -7  360.97    4.61
  -4  -6  -6   31.98    2.41
  -3  -6  -6   18.41    2.33
  -2  -6 -10   28.86    3.11
  -1  -5 -11   65.13    2.79
  -2  -6  -8   22.38    2.30
  -5  -6 -12    2.45    1.97
  -4  -5 -14   15.80    1.32
  -5  -6  -8   29.00    2.95
  -4  -6 -12   79.32    2.79
  -4  -6  -7   98.61    3.39
  -3  -6  -7    7.77    2.67
  -1  -5 -10   62.77    2.84
  -6  -5 -12   12.93    2.19
  -5  -6 -11   88.37    3.10
  -3  -6 -11   11.46    2.94
  -5  -6  -9   73.89    3.06
  -3  -6 -10   15.96    3.03
  -3  -6  -8   16.15    2.76
  -2  -5 -12   37.51    2.59
  -1  -5  -9   59.78    3.04
  -1  -5  -8  464.67    5.27
  -4  -6 -11   71.12    3.33
  -3  -6  -9   11.67    2.32
  -3  -5 -13    3.19    1.82
  -6  -5 -11    6.59    1.77
  -5  -5 -13  189.80    2.71
  -4  -6 -10   74.00    3.48
  -4  -6  -9  110.80    3.66
  -3  -4 -14   87.63    1.84
  -6  -5 -10   79.91    2.65
  -6  -5  -9  117.38    2.94
  -4  -5 -13    3.86    1.95
  -2  -4 -13   21.33    1.76
  -4  -4 -14   17.49    1.39
  -2  -5 -11   50.11    3.02
  -1  -4 -11   49.99    2.37
  -6  -4 -12    5.17    2.22
  -5  -5 -12  316.03    3.84
  -5  -5  -7  147.23    3.27
  -2  -5 -10  117.45    3.75
  -2  -5  -8  185.67    3.67
  -5  -5 -11   57.61    2.91
  -4  -5 -12    1.59    2.48
  -3  -3 -14    4.73    1.16
  -5  -5  -8  114.25    3.24
  -5  -4 -13    3.12    1.52
  -3  -5 -11   62.11    3.54
  -3  -4 -13  160.66    3.03
  -1  -4 -10   12.61    2.41
  -6  -4 -11    2.83    1.74
  -5  -5  -9   39.13    2.93
  -4  -5 -11    0.75    2.83
  -4  -5  -7   50.63    2.56
  -4  -3 -14    5.38    1.24
  -2  -4 -12   38.81    2.50
  -6  -4 -10   10.65    2.75
  -4  -4 -13   97.89    2.46
  -3  -5 -10   91.87    3.73
  -3  -5  -8  251.86    4.21
  -2  -3 -13    0.45    1.68
  -1  -4  -9   29.79    2.60
  -6  -4  -9   19.07    2.18
  -6  -3 -12    4.91    1.61
  -4  -5 -10   -1.47    2.81
  -4  -5  -9    5.83    2.81
  -3  -5  -9  121.13    3.08
  -3  -2 -14    0.94    1.02
  -5  -4 -12  174.13    2.82
  -2  -4 -11   17.52    2.67
  -1  -3 -11    4.67    1.90
  -6  -3 -11   18.37    1.73
  -4  -4 -12  135.12    3.39
  -3  -3 -13   12.31    2.00
  -5  -4 -11  140.69    3.31
  -5  -4  -7   35.69    2.62
  -4  -3 -13   51.19    2.00
  -2  -4 -10   26.15    3.07
  -6  -3 -10   17.42    2.68
  -5  -2 -13    7.94    1.73
  -3  -4 -11   49.16    3.23
  -2  -3 -12   21.30    2.38
  -2  -2 -13   28.26    1.81
  -6  -3  -9    9.77    2.61
  -5  -4  -9   16.66    2.71
  -5  -4  -8   47.96    2.86
  -4  -4 -11   78.15    3.34
  -6  -2 -11   19.82    1.91
  -5  -3 -12   67.94    2.39
  -1  -3 -10  239.00    3.69
  -4  -4 -10   35.94    2.89
  -3  -4 -10   17.32    3.09
  -4  -2 -13   17.19    1.72
  -3  -4  -9    7.66    2.74
  -3  -2 -13  104.10    2.55
  -2  -1 -13   43.28    1.84
  -6  -1 -11   26.55    1.56
  -4  -4  -9   33.64    2.33
  -4  -3 -12  130.10    3.20
  -2  -3 -11   93.08    3.18
  -6  -2 -10   53.02    2.34
  -5  -3 -11  130.26    3.18
  -1  -2 -11   15.73    2.00
  -5  -2 -12   40.61    2.10
  -4  -1 -13   28.55    1.62
  -2  -2 -12    9.10    2.18
  -6  -2  -9   50.94    2.53
  -5  -3 -10   73.20    3.11
  -3  -1 -13   53.82    1.80
  -6  -1 -10   26.56    1.73
  -4  -3 -11  189.04    3.85
  -3  -3 -11 1421.48    8.39
  -2  -3 -10   29.22    3.10
  -6   0 -10    2.76    1.39
  -5  -3  -9  390.74    4.95
  -5  -3  -8  269.69    4.11
  -5  -3  -7    7.00    2.01
  -5  -1 -12   13.39    1.60
  -5   0 -12    9.23    1.28
  -3   0 -13   82.94    1.82
  -5  -2 -11   34.96    2.50
  -4  -2 -12   24.62    2.34
  -3  -2 -12   48.74    2.76
  -6  -1  -9   68.43    2.36
  -4  -3 -10  182.56    3.88
  -3  -3 -10   90.06    3.47
  -1  -2 -10 1039.77    6.36
  -2  -2 -11   18.29    2.56
  -2  -1 -12    6.77    1.98
  -6   0  -9    3.76    1.80
  -4  -3  -9   65.12    3.09
  -1  -1 -11   23.28    1.98
  -5  -2 -10   85.72    3.10
  -4  -1 -12   39.85    2.28
  -3  -3  -9    5.04    1.85
  -4  -2 -11   36.80    2.22
  -3  -2 -11   81.32    3.23
  -3  -1 -12   42.43    2.47
  -5  -2  -9  214.96    3.88
  -4   0 -12  103.10    2.32
  -4   1 -12    3.45    1.26
  -2   0 -12   -0.27    2.38
  -2  -2 -10   63.81    2.95
  -2   2 -12   34.02    1.20
  -5  -2  -8  156.47    3.65
  -5  -2  -7  196.00    3.44
  -4  -2 -10   23.07    2.59
  -3   0 -12   88.75    2.42
  -2   1 -12   33.42    1.62
  -5  -1 -10    8.13    2.27
  -2  -1 -11   12.46    2.41
  -1   0 -11   25.13    2.03
  -5   2 -10   17.54    1.34
  -4  -1 -11   41.90    2.10
  -3  -2 -10  111.13    2.91
  -1  -1 -10 1010.83    6.10
  -4  -2  -9    7.30    2.48
  -3  -1 -11   44.35    2.92
  -5  -1  -9   14.57    2.52
  -5   0 -10  219.17    3.15
  -5   1 -10  137.18    2.37
  -4   2 -11    2.14    1.37
  -4   0 -11   73.85    2.58
  -3  -2  -9    1.02    2.27
  -1   1 -11  121.65    2.53
  -4  -1 -10   52.65    2.71
  -4   1 -11    7.19    1.71
  -3   3 -11   15.98    1.15
  -2   0 -11   10.09    2.13
  -5  -1  -8    8.85    1.83
  -3   0 -11   45.60    2.57
  -2  -1 -10   63.50    2.97
  -1   2 -11   47.17    1.82
  -5  -1  -7   32.61    2.56
  -5   0  -9   35.35    2.50
  -3  -1 -10   34.86    2.78
  -2   3 -11    6.02    1.17
  -5   2  -9    5.05    1.38
  -3   2 -11   53.01    1.93
  -1   0 -10   80.46    2.62
  -5   1  -9   71.34    2.44
  -5   3  -8   64.69    1.90
  -4  -1  -9   95.64    3.18
  -4   0 -10   45.64    2.66
  -3   1 -11    6.21    1.42
  -2   1 -11   43.27    1.76
  -2   2 -11   74.95    2.31
  -5   0  -8    8.98    2.34
  -4   1 -10    2.63    2.01
  -4   2 -10    1.58    1.46
  -3  -1  -9  158.98    3.38
  -3   0 -10   19.04    2.45
  -2   0 -10   11.25    2.64
  -1   4 -10   46.86    1.61
  -5   0  -7   59.09    2.57
  -5   1  -8  130.39    2.94
  -5   2  -8   16.56    1.77
  -2   4 -10   11.64    1.12
  -1   1 -10  167.63    3.04
  -4   0  -9   40.07    2.92
  -6  -7   2    0.17    1.60
  -6  -1   3   42.06    3.26
  -5  -4   5   13.12    2.86
  -3  -2   6    5.72    3.36
  -6  -4   4    1.65    2.38
  -6  -3   4   32.13    2.94
  -5  -3   5   29.67    3.43
  -5  -2   5   39.29    3.59
  -7  -3   2   29.04    2.80
  -7  -5   2    2.94    1.59
  -5  -1   4   13.96    3.31
  -4  -1   5   61.92    2.88
  -3  -4   5    5.97    2.91
  -7  -2   1    6.33    2.05
  -6  -5   3   34.98    2.67
  -6  -2   3  135.30    3.67
  -6  -1   2    7.93    2.43
  -5  -7   2   11.23    2.02
  -4  -3   5   69.26    3.62
  -4  -2   5    3.09    2.65
  -8  -4  -1   44.94    2.48
  -5  -6   3   41.86    2.91
  -3  -5   4   49.59    2.84
  -7  -6   1    2.21    1.59
  -5  -4   4    6.00    2.67
  -5  -2   4   10.78    3.03
  -4  -5   4    0.23    2.08
  -8  -5  -1   12.96    2.06
  -7  -7   0   10.16    1.50
  -6  -4   3    9.15    2.74
  -6  -3   3   24.15    2.22
  -5  -3   4   25.15    3.36
  -4  -6   3   46.54    2.75
  -7  -3   1    1.33    2.44
  -6  -7   1   40.63    2.26
  -7  -5   1   10.55    1.99
  -5  -1   3   63.24    3.21
  -8  -4  -2   21.67    2.32
  -6  -2   2   41.39    3.11
  -3  -4   4   21.34    2.88
  -6  -5   2   27.53    3.09
  -4  -3   4   93.16    3.69
  -4  -2   4    3.76    2.05
  -8  -5  -2    2.65    2.17
  -7  -6   0    1.37    1.87
  -5  -6   2    4.66    2.62
  -7  -7  -1   18.74    1.86
  -7  -3   0   -0.16    2.55
  -6  -8  -1    6.78    1.58
  -6  -4   2   18.14    3.08
  -5  -7   1    7.58    2.49
  -5  -4   3   53.95    3.38
  -4  -5   3    5.60    2.86
  -3  -5   3  108.24    3.14
  -8  -4  -3   11.14    2.12
  -6  -6   1    7.95    2.56
  -5  -3   3  155.84    3.65
  -5  -1   2   39.64    2.84
  -7  -5   0   25.98    2.47
  -7  -4   0    4.74    2.39
  -6  -7   0   48.20    2.48
  -4  -6   2   77.65    3.31
  -6  -2   1   35.72    2.94
  -8  -5  -3   37.83    2.62
  -6  -5   1   18.95    2.93
  -5  -8  -1    4.93    1.58
  -5  -5   2   32.21    3.24
  -7  -6  -1    5.29    2.24
  -7  -3  -1    7.37    2.39
  -6  -3   1    8.11    2.81
  -5  -2   2    6.56    2.76
  -4  -3   3  145.61    3.56
  -7  -7  -2   23.01    2.07
  -6  -8  -2   23.38    2.27
  -6  -4   1    2.00    2.63
  -8  -5  -4    5.12    2.27
  -7  -5  -1   13.66    2.59
  -7  -4  -1    9.61    2.68
  -5  -7   0   74.78    3.17
  -5  -6   1  290.76    4.71
  -5  -4   2    4.21    2.06
  -5  -3   2  362.36    5.10
  -6  -6   0   -1.51    2.67
  -6  -2   0    8.49    2.72
  -4  -5   2  256.85    4.36
  -8  -5  -5    0.45    2.59
  -7  -3  -2    1.89    2.28
  -4  -6   1    5.09    2.81
  -7  -6  -2    1.42    2.48
  -6  -5   0   49.49    3.34
  -7  -7  -3   24.37    2.10
  -6  -3   0    5.72    2.99
  -5  -8  -2   -1.92    1.99
  -5  -5   1   33.56    2.65
  -4  -4   2  112.01    3.10
  -8  -6  -6    2.96    2.80
  -8  -5  -6    2.46    2.57
  -7  -5  -2   62.18    3.25
  -7  -4  -2  116.89    3.72
  -6  -8  -3   31.71    2.72
  -6  -4   0   31.37    3.25
  -6  -2  -1   40.70    3.07
  -5  -4   1   17.13    2.95
  -5  -3   1   99.30    3.35
  -7  -8  -5   27.37    1.96
  -7  -3  -3    1.15    2.56
  -6  -6  -1   -0.87    2.62
  -5  -7  -1   18.22    3.00
  -5  -6   0   25.14    2.31
  -7  -7  -4   23.45    2.30
  -7  -6  -3    8.55    2.58
  -4  -5   1    7.83    1.86
  -7  -4  -3  118.74    3.86
  -6  -5  -1   26.30    3.30
  -6  -3  -1   25.11    3.09
  -4  -7  -1   15.71    2.34
  -7  -8  -6   12.97    1.81
  -7  -3  -4    1.39    2.51
  -6  -4  -1   56.78    3.47
  -5  -8  -3   10.65    2.81
  -5  -5   0   25.12    3.27
  -4  -6   0  107.25    3.68
  -6  -8  -4   19.11    2.62
  -6  -2  -2   35.68    2.87
  -6  -6  -2    2.39    2.96
  -7  -8  -7    4.26    1.73
  -7  -7  -5    9.63    2.51
  -7  -6  -4    7.16    2.67
  -6  -7  -3   21.62    2.87
  -5  -7  -2   28.21    3.20
  -5  -4   0    5.81    2.53
  -7  -4  -4   93.10    3.72
  -6  -3  -2   19.52    2.88
  -7  -8  -8    3.16    1.98
  -6  -8  -5   99.52    3.34
  -6  -5  -2    4.54    2.22
  -7  -7  -6    0.00    2.40
  -7  -6  -5    8.05    2.62
  -5  -8  -4   28.02    3.20
  -7  -4  -5   99.20    3.91
  -6  -6  -3   23.39    3.49
  -5  -5  -1    5.88    3.02
  -4  -7  -2   23.85    2.81
  -4  -6  -1   80.55    3.41
  -7  -5  -5   28.23    3.56
  -6  -7  -4    9.93    2.99
  -5  -9  -7   51.46    2.37
  -7  -7  -7    8.64    2.52
  -5  -7  -3   12.77    3.10
  -5  -4  -1   29.83    3.08
  -7  -6  -6   -4.74    3.01
  -7  -4  -6   70.64    4.08
  -6  -5  -3 1234.11    9.37
  -6  -3  -3    2.54    3.04
  -7  -7  -8   13.08    2.30
  -7  -5  -6   12.42    3.19
  -7  -4  -7   59.46    4.09
  -5  -8  -5   22.64    2.93
  -7  -7  -9    8.89    2.90
  -7  -6  -7    2.27    2.99
  -7  -4  -8   19.65    3.28
  -6  -7  -5   19.55    3.13
  -6  -6  -4  761.71    7.78
  -7  -5  -7   32.38    3.95
  -5  -5  -2    1.69    3.14
  -7  -5 -10    0.36    3.05
  -6  -3  -4    4.38    3.20
  -4  -7  -3   36.19    3.11
  -7  -6 -10    0.23    3.49
  -7  -6  -9    2.10    2.84
  -7  -5  -9    5.39    3.71
  -7  -5  -8   63.34    4.43
  -6  -8  -8    9.91    2.57
  -6  -5  -4  111.88    4.36
  -5  -7  -4    5.98    3.00
  -5  -6  -3   38.81    3.55
  -4  -6  -2  135.57    3.33
  -6  -7  -6    4.41    3.19
  -6  -4  -4    7.82    3.74
  -5  -8  -6   23.26    3.05
  -4  -8  -5   11.81    2.96
  -6  -8  -9   35.83    2.64
  -6  -6  -5   38.77    3.83
  -6  -8 -10    2.72    2.06
  -6  -3  -5   66.46    3.59
  -6  -7  -7    7.43    3.09
  -6  -5  -5   13.77    3.82
  -6  -4  -5    4.17    3.47
  -5  -8  -7    4.65    2.88
  -5  -5  -3    3.89    2.45
  -6  -6  -6   44.02    4.27
  -5  -6  -4   40.79    3.75
  -4  -8  -6   77.73    3.83
  -4  -7  -4  133.56    4.15
  -6  -3  -6    2.86    2.97
  -4  -6  -3  203.41    4.05
  -6  -7  -8   64.52    3.14
  -6  -7  -9    2.55    2.72
  -6  -5  -6  117.58    4.65
  -6  -4  -6  104.70    4.33
  -5  -8  -8   13.89    3.07
  -6  -7 -11   -0.24    2.11
  -6  -7 -10   -0.50    2.44
  -6  -6  -7   47.35    3.43
  -5  -8  -9   -0.82    2.49
  -5  -5  -4   20.73    2.92
  -4  -8  -7    9.76    2.77
  -6  -6  -8   11.32    3.76
  -6  -5 -12   10.95    2.78
  -5  -6  -5   91.08    4.09
  -4  -7  -5   22.76    3.28
  -6  -4  -7  110.54    4.55
  -6  -6 -11    7.60    2.72
  -6  -6  -9    9.28    3.20
  -6  -4 -11    3.31    2.28
  -5  -7  -7   31.79    3.71
  -4  -6  -4   93.16    3.39
  -4  -8  -2   12.71    2.67
  -3  -9  -4    4.13    2.19
  -6  -8  -4   19.74    1.96
  -4  -9  -4   -1.23    2.15
  -4  -6   0  106.86    3.21
  -3  -8  -2  110.56    3.39
  -2  -9  -6    3.42    1.98
  -6  -7  -3   15.35    2.05
  -5  -6  -1   21.63    2.34
  -4  -7  -1   16.84    2.77
  -1  -7  -2   25.53    2.34
  -5  -9  -5   57.45    2.56
  -2  -8  -3  169.36    3.78
  -6  -9  -7    6.98    1.99
  -5  -7  -2   31.34    2.64
  -3  -9  -5    5.08    2.36
  -3  -7  -1   82.53    2.87
  -3  -6   0    1.64    2.35
  -4  -9  -5    3.80    2.17
  -6  -8  -5  104.04    2.92
  -4  -8  -3   76.32    3.47
  -3  -8  -3   93.42    3.54
  -6  -9  -8    5.59    1.75
  -5  -9  -6  110.53    3.12
  -3  -9  -6   -2.86    2.44
  -6  -7  -4    7.89    2.79
  -5  -8  -4   37.63    2.99
  -2  -8  -4   31.16    3.07
  -1  -7  -3   14.63    2.45
  -4  -9  -6   13.06    2.61
  -4  -7  -2   30.93    3.25
  -4  -6  -1   92.27    3.22
  -5  -9  -7   62.13    2.66
  -5  -6  -2   47.77    2.95
  -3  -9  -7    3.36    2.46
  -3  -7  -2  158.76    3.87
  -6  -8  -6   66.88    2.60
  -5  -7  -3   11.51    2.68
  -3  -9  -8  274.49    4.14
  -4  -9  -7   63.34    2.94
  -4  -8  -4   93.44    3.16
  -3  -9  -9  102.98    2.58
  -3  -8  -4  102.43    3.17
  -2  -8  -5  153.31    3.74
  -7  -7  -8   12.70    1.86
  -5  -9  -8   48.15    2.23
  -5  -8  -5   25.05    2.80
  -1  -7  -4   10.50    2.36
  -6  -7  -5   21.75    2.47
  -5  -9 -10   15.93    1.64
  -5  -9  -9   29.11    1.87
  -2  -7  -3  124.56    3.66
  -6  -6  -4  711.59    5.96
  -4  -9 -10   15.26    1.70
  -4  -9  -9  109.80    2.54
  -4  -7  -3   47.17    3.50
  -5  -5  -2    1.35    2.14
  -4  -8  -5   18.42    3.14
  -3  -7  -3  151.28    4.05
  -2  -8  -6  137.86    3.79
  -5  -8  -6   23.51    3.08
  -5  -6  -3   35.38    2.78
  -2  -8  -7   47.42    2.87
  -6  -7  -6    5.25    2.40
  -6  -8 -10    3.80    2.61
  -6  -8  -9   49.61    2.30
  -3  -8  -6   40.77    3.52
  -2  -8  -8  218.54    4.28
  -2  -7  -4    7.70    2.57
  -6  -6  -5   35.70    2.66
  -5  -8  -7    2.31    2.75
  -4  -8  -6   68.28    3.00
  -4  -7  -4  132.88    3.94
  -3  -7  -4   66.31    3.28
  -3  -8  -7    4.74    2.73
  -6  -7  -7    2.81    2.21
  -5  -8  -8   14.38    2.65
  -5  -5  -3    5.12    2.17
  -4  -8  -7   12.43    2.81
  -4  -6  -3  214.82    3.88
  -5  -6  -4   46.74    3.05
  -4  -8 -12    3.04    1.16
  -3  -8 -11    5.13    1.84
  -3  -8  -8  208.86    4.17
  -2  -7  -5   31.14    2.85
  -5  -8 -11    5.58    1.69
  -5  -8  -9   -1.50    2.49
  -4  -7  -5   18.76    3.15
  -6  -7  -8   95.97    3.09
  -6  -6  -6   49.67    2.60
  -5  -8 -10    1.26    2.06
  -5  -7  -6   41.84    3.49
  -4  -8  -8   20.43    2.24
  -3  -8 -10   53.26    2.68
  -3  -8  -9   33.22    2.92
  -3  -7  -5   11.12    2.94
  -4  -8 -11    3.12    1.80
  -4  -8  -9   20.14    2.72
  -2  -7  -6   36.22    3.01
  -6  -7 -11   -1.05    2.33
  -4  -6  -4   96.35    3.31
  -6  -6  -7   68.85    2.94
  -5  -7  -7   38.97    3.42
  -5  -6  -5   91.77    3.61
  -4  -7  -6  154.50    4.40
  -5  -5  -4   18.71    2.35
  -3  -7  -6   12.26    3.13
  -2  -7  -7   98.15    3.68
  -5  -7  -8  127.32    3.73
  -4  -7 -13   33.65    1.65
  -2  -7  -8    0.48    2.44
  -6  -6  -8   15.23    2.58
  -5  -7 -12   12.29    1.66
  -4  -7  -7  134.60    4.07
  -2  -7 -10    2.28    2.22
  -2  -7  -9   10.87    2.53
  -5  -7  -9   16.57    3.20
  -5  -6  -6  183.95    4.12
  -4  -6  -5   17.97    2.82
  -3  -7 -12  303.39    3.77
  -6  -6  -9   12.35    2.68
  -5  -7 -11   14.56    2.42
  -5  -7 -10    1.30    2.67
  -6  -6 -11    4.19    1.86
  -6  -6 -10   20.46    2.39
  -6  -5  -7  136.92    3.29
  -5  -5  -5  115.10    3.13
  -4  -7  -8   64.94    2.82
  -3  -7  -8   63.72    3.42
  -4  -7  -9  120.18    3.53
  -3  -7 -11   79.13    3.14
  -3  -7  -9   56.96    3.22
  -4  -7 -11   96.94    3.31
  -4  -7 -10   98.47    3.40
  -3  -7 -10  167.82    3.80
  -6  -5  -8   65.75    2.73
  -5  -6 -13    1.66    1.68
  -4  -6  -6   31.82    3.07
  -6  -5 -12   10.81    2.12
  -5  -6  -8   24.65    3.22
  -3  -6  -6   17.66    2.57
  -6  -5 -11    2.17    2.33
  -6  -5  -9  122.99    3.16
  -5  -6 -12    4.55    2.02
  -5  -5  -6   85.10    2.96
  -3  -6 -13   14.67    1.92
  -2  -6 -12    0.31    1.71
  -6  -5 -10   67.36    2.87
  -5  -6  -9   80.60    3.87
  -4  -6 -13   32.69    2.01
  -4  -6  -7   96.54    3.34
  -2  -6  -7   37.58    2.64
  -5  -6 -11   85.55    3.37
  -5  -6 -10  114.85    3.63
  -6  -4 -12    4.33    1.90
  -6  -4  -8   12.68    2.45
  -3  -6  -7    7.38    2.59
  -2  -6 -11   20.11    2.90
  -5  -5  -7  141.57    3.73
  -4  -6 -12   73.98    2.79
  -4  -6  -8   22.34    3.13
  -4  -5 -14   12.97    1.37
  -2  -6  -8   24.19    2.75
  -6  -4 -11    0.59    2.14
  -6  -4  -9   22.62    2.41
  -3  -6 -12   27.83    2.64
  -3  -6  -8   19.07    2.89
  -3  -5 -14   19.22    1.32
  -2  -6 -10   25.87    2.64
  -2  -6  -9    6.98    2.67
  -6  -4 -10    8.89    2.72
  -4  -6 -11   65.52    3.25
  -4  -6 -10   72.65    3.39
  -4  -6  -9   88.90    3.01
  -5  -5  -8  113.21    3.78
  -3  -6 -11   12.03    2.96
  -6  -3 -11   18.41    2.04
  -5  -5 -12  323.42    4.02
  -5  -4  -6   58.81    2.23
  -2  -5 -13   41.92    2.00
  -6  -3 -10   12.86    3.03
  -5  -5 -11   60.63    3.26
  -5  -5 -10   61.24    3.57
  -5  -4 -13    4.13    2.02
  -4  -5 -13    3.11    1.90
  -2  -4 -14   18.85    1.37
  -4  -5  -7   51.61    2.96
  -4  -4 -14   19.06    1.60
  -3  -5 -13    3.03    1.90
  -5  -4  -7   34.29    2.70
  -4  -5 -12    0.20    2.55
  -2  -5 -12   43.09    2.83
  -5  -4 -12  213.49    3.78
  -4  -5  -8   -0.11    2.25
  -3  -4 -14   96.52    2.00
  -5  -4  -8   48.74    3.38
  -4  -5 -11    3.50    3.05
  -4  -5  -9    2.51    2.87
  -5  -2 -13    6.92    1.56
  -4  -5 -10    2.71    2.36
  -4  -3 -14    7.03    1.71
  -2  -5 -11   53.80    3.19
  -5  -4 -10    3.14    3.14
  -5  -4  -9   16.64    2.30
  -4  -4 -13  101.25    2.82
  -3  -5  -8  218.87    3.74
  -2  -5 -10  115.96    3.66
  -3  -5 -10   76.79    3.78
  -3  -5  -9  142.28    4.06
  -2  -5  -9  104.58    2.89
  -2  -4 -13   25.99    2.51
  -5  -3 -12   68.94    2.73
  -5  -3  -7    9.42    2.35
  -2  -3 -14    0.33    1.36
  -3  -3 -14    5.80    1.70
  -5  -3 -11  130.01    3.60
  -5  -3  -8  292.97    4.79
  -4  -4 -12  136.23    3.78
  -5  -2 -12   40.51    2.31
  -5  -1 -12   11.88    1.84
  -5  -3 -10   77.39    3.91
  -5  -3  -9  341.13    5.19
  -4  -4 -11   82.56    4.02
  -4  -4  -8  209.57    4.23
  -4  -3 -13   57.78    2.65
  -2  -4 -12   38.32    3.16
  -1  -4 -11   56.38    2.82
  -1  -3 -13   34.37    1.94
  -3   3  -5 1403.65    7.43
  -2   8   0  116.47    3.68
  -1   6  -3  102.77    3.54
   0   8   0   87.27    2.52
  -4   4  -4   10.02    2.07
  -2   6  -3    6.12    2.56
  -4   5  -3    0.50    1.76
  -3   7  -1    5.50    1.64
  -1   8   0   53.37    2.23
  -1   9   3    1.44    1.05
   0   9   3   62.12    1.91
   1   6  -1  110.39    2.36
   1   7   0   81.65    2.56
   0   6  -2   47.54    2.11
   1   8   2   22.04    2.06
  -3   4  -4  240.90    3.53
  -2   4  -4  664.49    5.10
  -1   9   4    7.27    1.13
   0   8   1   34.94    2.27
   0   9   4    2.13    1.35
  -2   7  -1    7.44    2.07
  -2   8   1  179.01    2.67
  -1   5  -3 1157.46    6.37
  -1   7  -1  158.97    3.44
  -4   6  -1    1.77    1.48
  -3   5  -3   34.66    2.34
  -1   6  -2    4.74    2.45
  -1   8   1   59.68    2.19
   0   9   5   26.15    1.42
  -3   7   0   17.97    1.59
  -2   5  -3  185.27    3.44
  -2   6  -2  134.32    3.07
   1   7   1   22.62    1.90
   1   8   3   17.85    2.06
  -4   4  -3   -0.82    1.67
  -4   5  -2   10.98    1.78
   0   6  -1   17.97    1.50
   0   8   2  119.21    2.78
  -2   8   2   40.36    1.60
  -5   5   0    2.54    1.21
  -2   7   0   33.55    2.38
  -1   7   0   83.61    2.70
  -4   6   0    3.13    1.49
  -3   4  -3   44.66    2.12
  -3   7   1    4.48    1.42
  -1   6  -1   27.47    2.16
   1   7   2   21.66    1.83
  -3   5  -2    6.06    1.83
  -2   6  -1    3.21    1.97
  -2   8   3   82.23    1.98
   0   7   1    4.80    2.31
   0   8   3  194.64    3.11
  -2   5  -2   44.32    2.40
  -4   5  -1    1.53    1.68
  -5   5   1    2.42    1.07
  -4   4  -2   44.88    2.01
  -4   6   1   19.07    1.61
  -2   7   1   32.57    2.20
  -2   8   4   10.41    1.50
  -1   7   1   70.49    2.64
  -3   6   0   93.22    2.49
  -3   7   2    0.86    1.16
   0   8   4   42.89    2.16
   1   7   3    9.33    1.55
  -1   8   4   58.04    2.03
  -1   6   0   43.39    2.49
   0   7   2    5.24    1.57
  -3   4  -2   16.18    1.78
  -2   6   0   15.71    2.08
   0   8   5    1.16    1.59
  -5   4   0  115.25    2.46
  -5   5   2    0.65    1.28
  -4   5   0   76.81    2.18
  -3   7   3    2.83    1.15
  -2   5  -1   56.21    2.36
  -2   7   2   53.99    2.37
  -1   7   2   34.57    2.43
  -1   8   5   41.17    1.91
  -4   3  -2  163.59    2.45
  -3   6   1   74.71    2.47
  -1   8   6   20.92    1.65
   0   8   6   -0.15    1.51
  -5   5   3   21.57    1.37
  -4   4  -1  300.86    3.30
  -3   7   4    6.61    1.50
  -1   8   7   46.53    1.65
   0   7   3   34.81    2.25
  -4   6   3   34.68    1.74
  -2   7   3  119.80    2.79
  -1   6   1   52.45    2.44
  -3   7   5    1.74    1.35
  -2   6   1  353.35    4.02
  -5   4   1   26.74    1.70
  -5   5   4   28.04    1.48
  -4   5   1  214.90    2.99
  -3   7   6   51.57    1.55
  -3   7   7   -0.14    1.09
  -4   6   4   64.51    1.87
  -3   4  -1    0.71    1.57
  -3   6   2  231.94    3.25
  -4   6   5  100.10    1.94
  -2   5   0   89.84    2.09
  -2   7   4   29.55    2.07
   0   7   4   41.92    1.91
  -4   6   6   20.40    1.53
  -4   4   0    7.97    1.84
  -2   6   2   11.05    2.22
  -5   4   2   20.46    1.89
  -4   3  -1  306.67    3.21
  -4   5   2   -0.10    2.08
  -3   6   3  120.44    3.00
  -2   7   5   20.51    2.13
  -1   6   2   25.94    1.74
  -3   5   1   51.55    2.51
  -2   7   9    5.08    0.94
   0   7   5   40.62    2.35
  -2   7   6   29.83    2.05
  -1   7   5   70.72    2.47
  -2   5   1  424.28    3.99
  -2   7   8    2.32    1.31
  -1   7  10  182.06    2.25
  -5   4   3   37.95    1.86
  -3   4   0   10.39    1.84
  -3   6   4   79.70    2.69
  -2   6   3    1.64    2.13
   0   7   6   85.85    2.56
  -5   3   1   18.67    1.75
  -4   4   1   57.04    2.45
  -1   7   6    4.23    2.07
  -3   5   2  100.79    2.95
  -3   6   9   63.96    1.46
  -1   7   7   66.46    2.47
  -1   7   9   77.37    2.09
   0   7   7  528.21    4.47
  -5   4   4   38.95    1.93
  -4   3   0   83.94    2.25
  -4   5   4   13.23    2.10
  -3   6   5   70.76    2.13
  -1   7   8   20.02    1.90
   0   7   8   48.20    2.03
  -5   4   5    0.33    1.59
  -3   6   6   70.81    2.40
  -3   6   8   37.06    1.70
  -2   6   4  103.07    3.04
  -5   4   6  100.95    2.22
  -4   5   8    2.06    1.45
  -3   6   7    5.86    1.78
  -5   3   2   66.86    2.44
  -4   4   2  264.69    3.57
  -4   5   5   20.03    2.08
  -2   5   2  392.86    3.68
  -4   5   6   -0.46    1.80
  -4   5   7    7.52    1.48
  -3   5   3   32.05    2.52
  -2   6   5  120.80    3.13
  -2   6  10    6.71    1.28
   0   6   5    8.94    1.94
  -1   6  11   25.89    1.37
  -5   3   3  134.44    2.81
  -4   3   1    6.39    1.90
  -2   6   6    4.13    2.48
  -1   6   5   42.92    2.68
  -4   4   3   68.42    2.71
  -3   5   4   36.35    2.50
  -3   5  10    8.55    1.09
  -2   5   3  241.69    3.36
  -2   6   9    8.22    1.75
  -2   6   7   12.84    1.72
   0   6   6  750.65    5.51
  -5   3   4  172.31    3.13
  -3   4   2   13.55    1.93
  -1   6   6  544.29    5.02
  -5   3   7    0.82    1.77
  -4   4   9    4.69    1.54
  -3   5   5  190.57    3.67
  -1   6  10   50.25    2.09
  -5   2   2    5.15    1.86
  -5   3   5    3.09    2.01
  -5   3   6    1.34    1.82
  -3   5   9    2.63    1.59
  -1   6   7  256.28    3.75
  -1   6   9   15.74    2.53
   0   6   7    6.48    1.86
  -4   3   2   63.21    2.43
  -3   5   6  246.43    3.88
  -2   5   4  290.27    3.63
  -2   5  11   28.69    1.52
  -1   6   8   94.68    2.89
   0   6   8   53.69    2.24
  -4   4   5    9.01    1.71
  -4   4   8   12.59    1.54
  -3   5   7  183.90    3.43
  -3   5   8   85.36    2.55
  -4   4   6   27.29    2.39
  -4   4   7   29.91    2.01
  -3   4   3   37.18    2.48
  -2   5   5  538.82    5.00
  -5   2   3  149.12    3.07
  -4   3  10   46.15    1.47
  -5   2   8    3.73    1.50
  -4   3   3   63.30    2.62
  -2   5  10   69.15    2.22
  -3   4   4   51.55    2.61
  -2   5   6   51.57    2.86
  -5   2   4  632.46    5.05
  -3   4  10    5.50    1.53
  -2   5   7   95.85    3.14
  -1   5  11   31.18    1.81
  -5   2   5    5.49    2.02
  -5   2   7    0.92    1.70
  -2   5   8  105.55    3.05
  -4   3   4   81.86    2.44
  -5  -2 -11   25.92    2.43
  -5   1 -11   29.40    1.94
  -3   0 -11   37.59    2.43
  -4   1 -11    6.02    1.57
  -3  -2 -10  126.01    3.19
  -2   0 -10   11.57    2.30
  -2   1 -10   79.09    2.78
  -5  -1 -11   96.71    2.71
  -5   0 -11    2.98    1.61
  -4   0 -11   65.73    2.60
  -2   3  -9   12.67    2.10
  -1   3  -8   10.94    1.93
  -5   2 -10   17.77    1.34
  -2  -1  -9  194.17    3.34
  -2   4  -8   18.76    1.95
  -6  -2 -10   43.77    1.95
  -4  -2 -10   28.79    2.60
  -4   2 -10    0.63    1.80
  -3  -1 -10   35.48    2.15
  -3   1 -10  148.82    3.66
  -2   2  -9  132.04    3.18
  -1   2  -8  200.08    3.03
  -6   0 -10    1.39    1.43
  -5  -2 -10   79.49    2.91
  -4   4  -8   36.84    1.67
  -3  -2  -9    2.68    1.61
  -3   0 -10   20.56    2.17
  -3   3  -9   25.36    2.26
  -2   0  -9   17.77    2.36
  -6  -1 -10   25.65    1.84
  -3   4  -8    4.17    1.82
  -2   1  -9  127.71    3.31
  -5   1 -10  126.54    3.01
  -4   1 -10    4.45    2.42
  -5  -1 -10   12.21    2.19
  -4   0 -10   47.01    2.76
  -1   3  -7    3.03    1.90
  -5   0 -10  238.97    3.75
  -2   3  -8    4.57    2.32
  -6  -2  -9   33.09    2.70
  -4  -2  -9    3.99    2.70
  -3  -1  -9  161.50    2.95
  -3   2  -9   12.81    2.51
  -6   1  -9   69.20    2.16
  -5   2  -9    3.67    1.59
  -2   4  -7   26.77    2.31
  -5  -2  -9  214.13    3.80
  -4   2  -9   -0.28    2.21
  -4   5  -6    2.60    0.97
  -3   0  -9    5.90    2.45
  -3   1  -9   16.42    2.70
  -5   3  -8   65.22    1.98
  -2   1  -8  187.72    3.50
  -7  -1  -8    7.57    1.37
  -7   0  -8    4.52    1.39
  -6  -1  -9   74.94    2.68
  -6   0  -9    2.69    1.92
  -6   2  -8    1.18    1.43
  -4  -1  -9  102.48    3.32
  -3   3  -8  187.26    3.19
  -5   1  -9   65.05    2.89
  -4   1  -9   12.36    2.78
  -4   4  -7  103.80    2.61
  -3   4  -7   24.60    2.36
  -5  -1  -9   14.77    2.55
  -4   0  -9   44.55    2.93
  -5   0  -9   34.57    2.69
  -2   3  -7    9.14    2.21
  -7   1  -7   10.32    1.42
  -6  -2  -8   69.60    2.91
  -3   2  -8  108.33    3.34
  -5  -2  -8  145.29    3.21
  -2   4  -6   60.05    2.40
  -6   1  -8   35.45    1.83
  -5   2  -8   15.03    1.75
  -5   4  -6   16.14    1.51
  -4   2  -8    2.10    2.35
  -3   0  -8   62.50    2.25
  -3   1  -8   28.80    2.58
  -2   2  -7  122.86    2.87
  -7  -1  -7  204.78    3.43
  -7   0  -7  100.30    2.39
  -6  -1  -8  171.34    3.37
  -4   5  -5    2.38    1.51
  -6   0  -8    1.05    1.99
  -5   3  -7    4.69    1.32
  -4  -1  -8   31.11    2.58
  -3   3  -7  125.58    3.23
  -6   2  -7    2.48    1.53
  -6   3  -6    4.38    1.36
  -5  -1  -8    9.34    2.62
  -5   1  -8  113.68    3.34
  -4   1  -8   14.16    2.67
  -3   5  -5   56.17    2.52
  -4   0  -8   44.49    2.29
  -4   4  -6   31.96    2.19
  -3   4  -6   14.61    2.32
  -2   3  -6   12.82    2.16
  -7   1  -6   41.48    1.91
  -5  -2  -7  192.38    3.34
  -3   2  -7  158.33    3.56
  -7   2  -5   13.67    1.55
  -6   1  -7   16.02    2.12
  -7  -1  -6   67.61    2.49
  -6  -1  -7   37.74    2.45
  -5   2  -7   42.12    2.25
  -4   2  -7    1.84    2.39
  -3   1  -7   51.21    2.39
  -2   4  -5  151.88    3.07
  -7   0  -6  100.53    2.48
  -6   0  -7  133.03    3.29
  -6   2  -6    8.81    1.85
  -5   3  -6    2.54    1.39
  -4   5  -4   -0.47    1.59
  -3   3  -6  222.13    3.94
  -6   3  -5    6.89    1.27
  -5  -1  -7   34.33    2.36
  -5   1  -7  108.75    3.31
  -4   0  -7   61.47    2.61
  -4   1  -7   16.13    2.45
  -3   5  -4    9.41    1.87
  -5   5  -3   20.03    1.26
  -4   3  -6   46.69    2.76
  -4   4  -5    6.62    1.80
  -3   4  -5   -3.61    2.01
  -7   1  -5    1.63    1.26
  -7   2  -4   22.44    1.78
  -7  -1  -5   28.21    2.22
  -6   1  -6  748.16    5.36
  -6   4  -3    3.59    1.06
  -3   2  -6  154.93    3.02
  -7   0  -5   22.00    1.71
  -6  -1  -6   53.82    2.34
  -5   2  -6   88.01    3.13
  -6   0  -6   14.33    1.98
  -4   2  -6   79.63    2.79
  -6   2  -5   42.50    2.10
  -6   3  -4    3.05    1.51
  -5   3  -5    2.47    1.94
  -2   4  -4  606.39    4.49
  -5  -1  -6   40.42    2.10
  -5   1  -6  105.63    3.05
  -4   5  -3   -1.65    1.66
  -4   6  -1    4.24    1.00
  -7   1  -4    0.29    1.31
  -7   2  -3   12.30    1.66
  -5   5  -2   30.96    1.49
  -4   1  -6  170.73    3.19
  -3   3  -5 1414.80    7.10
  -6   4  -2   24.99    1.37
  -4   3  -5   63.32    2.18
  -4   4  -4   30.50    2.05
  -3   5  -3   32.24    2.07
  -7   0  -4   17.64    1.66
  -6   1  -5   32.71    2.17
  -3   4  -4  227.24    3.26
  -6  -1  -5   14.25    1.85
  -6   0  -5    1.55    2.00
  -5   2  -5  220.45    3.45
  -7   1  -3    1.17    1.63
  -6   2  -4   61.76    2.25
  -6   3  -3   38.62    1.83
  -5   3  -4   12.69    1.94
  -4   2  -5  676.00    5.15
  -5   5  -1    9.13    1.40
  -4   5  -2   11.69    1.66
  -4   6   0    2.98    1.17
  -7   0  -3    8.27    1.82
  -6   4  -1   54.06    1.43
  -5   1  -5   71.02    2.72
  -5   0  -5   69.78    2.48
  -4   3  -4  948.13    5.89
  -3   3  -4    5.46    1.77
  -4   4  -3    4.57    1.79
  -3   5  -2    5.24    1.69
  -7   1  -2    4.00    1.72
  -6  -1  -4    2.41    1.57
  -6   3  -2   13.62    1.63
  -3   4  -3   43.51    2.02
  -6   0  -4    2.29    1.47
  -6   2  -3   88.07    2.45
  -6   4   0  102.11    1.96
  -5   2  -4    4.00    1.65
  -5   4  -2  133.45    2.58
  -5   5   0    1.74    1.21
  -7   0  -2    4.08    1.83
  -5   3  -3   42.82    2.21
  -4   6   1   14.89    1.31
  -4   2  -4  162.38    2.94
  -4   5  -1    4.59    1.80
  -7   1  -1    2.53    1.83
  -5   1  -4  110.28    2.77
  -6   3  -1  120.96    2.50
  -6   4   1   31.55    1.40
  -7   0  -1   27.83    2.08
  -6  -1  -3   21.65    1.94
  -5   0  -4   87.47    2.01
  -5   5   1    2.25    1.22
  -4   3  -3  246.33    3.40
  -4   4  -2   45.14    2.32
  -3   5  -1   14.24    1.75
  -7   1   0   15.05    2.19
  -6   0  -3   38.88    2.22
  -6   2  -2   12.14    1.43
  -5   4  -1  101.97    2.14
  -4   6   2   15.76    1.30
  -6   4   2   36.56    1.54
  -5   2  -3   10.21    1.58
  -5   3  -2   26.01    2.21
  -3   4  -2   15.72    1.91
  -7   0   0   15.14    2.23
  -6   4   3    9.16    1.46
  -4   5   0   71.28    2.31
  -7   1   1   26.34    2.03
  -6   3   0   52.78    2.26
  -6  -7  -9    2.69    2.34
  -4  -7  -6  162.45    3.84
  -4  -6  -4   92.76    2.96
  -6  -7 -10   -0.24    1.75
  -5  -7  -7   30.89    3.16
  -1  -6  -7   73.59    2.87
  -5  -6  -5   89.60    2.94
  -3  -7  -7    5.39    2.98
  -1  -6  -8   88.94    3.02
  -5  -7 -12   10.60    1.74
  -4  -7  -7  132.10    3.80
  -3  -7 -11   75.77    3.14
  -6  -6  -7   56.75    2.55
  -3  -7  -8   61.91    3.46
  -5  -7 -11   13.66    2.13
  -5  -7  -9   18.99    2.70
  -4  -7  -8   74.15    3.43
  -3  -7  -9   65.04    3.39
  -3  -6 -13   11.56    1.66
  -5  -7 -10    3.81    2.31
  -4  -7 -11  105.21    3.22
  -4  -6  -5   17.22    2.59
  -5  -6  -6  170.12    3.74
  -4  -7 -10  104.34    3.60
  -4  -7  -9  126.41    3.85
  -6  -6  -8   19.28    2.52
  -2  -6 -11   19.52    2.45
  -5  -6 -13    5.09    1.44
  -6  -6  -9   13.45    2.51
  -3  -6  -6   19.50    2.49
  -2  -6 -10   25.10    2.85
  -6  -6 -10   20.13    2.04
  -5  -6  -7  360.96    5.06
  -3  -6 -12   23.47    2.59
  -2  -6  -9    5.29    2.84
  -2  -6  -8   23.58    3.03
  -5  -6 -12    4.66    2.01
  -5  -5  -5  120.70    3.04
  -3  -6  -7   10.96    2.90
  -6  -5  -7  133.61    3.08
  -4  -6 -12   84.28    3.04
  -4  -6  -7   96.80    3.47
  -3  -6 -11   14.13    2.87
  -5  -6 -11   91.95    3.18
  -3  -6  -8   20.97    3.18
  -2  -5 -12   37.16    2.29
  -5  -6 -10  111.94    3.46
  -5  -6  -9   68.75    2.85
  -4  -6 -11   72.46    3.31
  -4  -6  -8   27.56    3.08
  -3  -6  -9   13.89    3.23
  -3  -5 -13    1.68    1.83
  -6  -5  -8   67.29    2.88
  -5  -5 -13  188.06    2.74
  -3  -4 -14   77.59    1.71
  -6  -5 -11    4.78    2.12
  -5  -5  -6   87.27    3.11
  -4  -6 -10   72.10    3.00
  -4  -6  -9   94.53    3.22
  -6  -5 -10   88.04    3.24
  -6  -5  -9  124.95    3.28
  -2  -5 -11   51.87    2.75
  -4  -4 -14   21.21    1.34
  -3  -5 -12  164.69    3.40
  -5  -5 -12  272.01    3.66
  -5  -5  -7  150.70    3.86
  -2  -5 -10  122.91    3.56
  -4  -5 -12    4.10    2.57
  -2  -5  -9  127.17    3.61
  -5  -5 -11   58.87    3.24
  -5  -5  -8  125.74    4.01
  -5  -4 -13    3.66    1.66
  -3  -3 -14    3.33    1.26
  -6  -4 -11    2.15    2.05
  -6  -4  -8   12.01    2.40
  -5  -5 -10   65.99    3.47
  -4  -5  -7   52.22    2.77
  -3  -5 -11   62.69    3.48
  -3  -4 -13  152.92    3.04
  -6  -4 -10    9.38    2.57
  -4  -5 -11   -3.41    3.06
  -2  -4 -12   36.76    2.38
  -6  -4  -9   20.08    2.54
  -6  -3 -12    4.20    1.88
  -4  -5  -8    2.17    2.76
  -4  -4 -13   95.77    2.63
  -3  -5  -9  148.70    4.13
  -3  -5  -8  252.61    4.50
  -5  -4  -6   80.24    2.94
  -4  -5 -10   -0.56    2.43
  -4  -5  -9    5.36    2.77
  -2  -3 -13    1.30    1.56
  -5  -4 -12  211.71    3.73
  -5  -3 -13   20.09    1.68
  -2  -4 -11   12.73    2.54
  -6  -3 -11   19.33    2.27
  -3  -4 -12  423.48    4.89
  -5  -4 -11  135.32    3.57
  -5  -4  -7   32.85    2.87
  -4  -4 -12  122.69    2.84
  -6  -3 -10   19.78    3.02
  -6  -3  -9    6.17    2.49
  -6  -3  -8    3.59    2.26
  -5  -2 -13    8.30    1.74
  -4  -3 -13   53.21    2.47
  -3  -3 -13   12.63    2.26
  -2  -4 -10   31.03    2.73
  -6  -2 -11   25.46    2.07
  -5  -4 -10    1.76    2.38
  -5  -4  -8   47.06    2.56
  -5  -3 -12   73.11    2.76
  -4  -4 -11   86.05    3.54
  -2  -4  -9   20.00    2.53
  -2  -3 -12   21.82    2.38
  -2  -2 -13   28.54    2.01
  -6  -1 -11   26.93    1.86
  -6  -2 -10   52.82    2.99
  -4  -4 -10   37.41    3.47
  -3  -4 -10   16.18    3.19
  -4  -4  -9   38.62    3.12
  -4  -4  -8  184.06    3.82
  -4  -2 -13   19.98    1.97
  -3  -4  -9    5.39    2.91
  -6  -2  -9   56.96    3.03
  -6  -2  -8   73.44    3.04
  -5  -3 -11  108.11    2.78
  -4  -3 -12  123.03    3.39
  -3  -3 -12   16.06    2.73
  -3  -2 -13  112.43    2.91
  -6  -1 -10   32.59    2.03
  -5  -2 -12   38.67    2.03
  -2  -3 -11   93.87    3.05
  -2  -1 -13   45.08    2.08
  -5  -3 -10   78.66    3.57
  -5  -3  -7   10.05    2.39
  -4  -1 -13   27.56    1.72
  -5  -3  -9  389.71    5.24
  -5  -3  -8  297.16    4.52
  -5  -1 -12   14.74    1.71
  -6  -1  -9   81.98    2.93
  -5   0 -12    7.87    1.48
  -4  -3 -11  167.86    3.46
  -3  -1 -13   56.81    1.95
  -2  -2 -12    8.88    2.46
  -5  -2 -11   39.22    2.67
  -4  -2 -12   28.02    2.46
  -2  -3 -10   29.95    2.79
  -4  -3 -10  180.98    4.10
  -3   0 -13   87.52    1.85
  -3  -3 -10   90.22    3.55
  -4  -3  -9   65.42    3.43
  -5  -1 -11  116.73    2.83
  -5   1 -11   82.03    1.88
  -4  -3  -8  104.56    3.12
  -1  -2 -10 1025.12    6.38
  -5  -2  -9  218.47    4.30
  -4  -2 -11   35.81    3.01
  -4  -1 -12   34.07    1.80
  -3  -3  -9    1.60    2.04
  -2  -2 -11   18.59    2.57
  -2  -1 -12    8.91    2.16
  -5  -2  -8  143.13    3.77
  -5  -2  -7  196.33    3.58
  -4   1 -12    6.70    1.30
  -4   0 -12   98.96    2.41
  -3  -2 -11   82.73    3.32
  -1  -1 -11   26.43    2.09
  -4  -2 -10   24.35    2.90
  -3   2 -12   30.52    1.40
  -5  -1  -9   15.71    2.62
  -5   0 -10  204.70    3.20
  -4  -1 -11   47.55    2.80
  -3   0 -12   94.16    2.62
  -2  -2 -10   55.98    2.41
  -2   0 -12    0.38    2.00
  -5   1 -10  140.53    2.42
  -4  -2  -9    7.44    2.67
  -3  -2 -10  117.97    3.54
  -3   1 -12   -0.05    1.55
  -2   2 -12   37.70    1.33
  -5  -1  -8    9.94    2.62
  -4   2 -11   -0.48    1.50
  -2  -1 -11   11.31    2.63
  -2   1 -12   35.21    1.92
  -5  -1  -7   31.00    2.43
  -4  -2  -8    0.42    1.63
  -4   0 -11   72.11    2.69
  -3  -1 -11   47.44    2.93
  -7  -5   0   28.72    2.71
  -5  -7   0   80.38    3.41
  -5  -5   2   40.09    3.38
  -4  -8  -2    4.35    2.46
  -4  -7   0  162.87    4.06
  -3  -6   1   -0.05    2.46
  -5  -8  -2   -2.29    2.60
  -5  -6   1  309.98    5.84
  -8  -6  -3    2.48    1.80
  -7  -7  -2   18.13    2.11
  -7  -6  -1    6.29    2.27
  -7  -4   0    3.50    2.19
  -4  -6   1    8.96    3.29
  -4  -5   2  221.99    5.06
  -3  -7  -1   88.23    3.59
  -7  -8  -4   54.24    2.28
  -6  -7  -1    4.10    2.73
  -6  -8  -3   32.26    2.69
  -6  -6   0   -1.52    2.22
  -8  -5  -3   31.64    2.57
  -6  -4   1    1.71    2.86
  -5  -3   2  341.56    4.87
  -4  -7  -1   21.91    3.11
  -7  -8  -5   30.15    2.08
  -7  -5  -1   16.37    2.73
  -6  -3   1    7.55    2.44
  -5  -8  -3    6.85    2.51
  -5  -5   1   45.35    3.64
  -3  -6   0    1.90    2.64
  -7  -7  -3   25.10    2.47
  -5  -6   0   24.40    3.51
  -4  -4   2  117.66    3.03
  -7  -6  -2    2.81    2.44
  -6  -8  -4   20.33    2.47
  -6  -7  -2    4.53    2.90
  -6  -5   0   61.09    3.52
  -7  -4  -1   17.03    2.76
  -6  -6  -1    3.51    3.14
  -4  -5   1    8.72    3.03
  -8  -5  -4    2.67    2.20
  -8  -4  -4    7.82    1.97
  -5  -8  -4   27.01    2.92
  -7  -7  -4   26.37    2.64
  -6  -4   0   34.01    3.38
  -4  -7  -2   20.23    3.00
  -7  -5  -2   69.12    3.08
  -6  -8  -5  104.09    3.57
  -7  -6  -3    5.67    2.46
  -6  -7  -3   19.33    2.94
  -6  -3   0    4.89    2.58
  -5  -6  -1   32.91    3.63
  -5  -5   0   28.74    3.31
  -5  -3   1  104.37    3.61
  -8  -5  -5    0.15    2.11
  -6  -5  -1   25.21    3.39
  -5  -8  -5   22.06    2.77
  -7  -7  -5   14.59    2.50
  -7  -4  -2  114.66    3.44
  -7  -3  -2    1.39    2.73
  -6  -8  -6   63.44    2.96
  -6  -6  -2   -0.05    3.22
  -8  -4  -5   14.28    1.88
  -5  -7  -3   13.99    3.23
  -8  -6  -7    3.31    2.11
  -4  -7  -3   30.85    3.22
  -8  -5  -6    7.46    2.79
  -7  -6  -4    4.23    2.74
  -6  -8  -7   42.76    2.26
  -6  -7  -4    3.92    3.17
  -5  -8  -6   22.09    2.54
  -7  -7  -6    0.20    2.17
  -6  -4  -1   56.28    3.34
  -8  -4  -6   24.77    2.35
  -6  -8  -8   12.21    2.03
  -5  -6  -2   50.20    3.05
  -5  -5  -1    6.21    2.80
  -8  -5  -7    2.33    2.86
  -7  -4  -3  114.75    3.54
  -6  -8  -9   33.78    2.00
  -6  -6  -3   27.27    3.41
  -6  -5  -2    7.78    3.41
  -6  -3  -1   26.64    2.82
  -5  -8  -7    1.09    2.00
  -4  -6  -2  153.76    3.87
  -7  -3  -3   -0.33    3.00
  -5  -7  -4    5.44    2.96
  -4  -7  -4  116.53    3.55
  -8  -4  -7   17.54    3.04
  -7  -7  -7   12.25    1.80
  -7  -6  -5    5.01    2.65
  -6  -7  -5   24.78    2.47
  -7  -7  -8   19.67    2.17
  -7  -7  -9   12.56    1.82
  -6  -6  -4  734.98    7.36
  -6  -4  -2   32.16    3.41
  -5  -7  -5   17.72    3.18
  -5  -6  -3   35.27    3.50
  -5  -4  -1   25.23    2.54
  -7  -6  -6    4.08    2.70
  -7  -4  -4   97.26    3.50
  -6  -5  -3 1261.45    8.51
  -5  -5  -2    1.56    2.67
  -4  -7  -5   16.81    2.53
  -4  -6  -3  208.21    3.92
  -7  -5  -5   27.90    2.31
  -7  -3  -4    0.72    2.33
  -6  -3  -2   16.83    2.73
  -7  -6  -7    3.32    2.60
  -6  -6  -5   39.56    3.46
  -5  -7  -6   37.36    3.28
  -7  -4  -5   96.02    3.36
  -6  -7  -8   87.79    3.32
  -5  -6  -4   41.08    2.83
  -4  -7  -6  138.10    3.71
  -7  -6  -8    1.94    2.29
  -7  -5  -6    8.07    2.92
  -6  -7 -11    1.82    1.43
  -6  -5  -4  101.11    3.85
  -7  -6 -10    0.24    1.91
  -7  -6  -9    1.53    2.07
  -7  -3  -5   -0.55    2.67
  -6  -7 -10    0.78    2.05
  -6  -7  -9    2.71    2.63
  -5  -7  -7   30.14    3.14
  -5  -5  -3    2.83    2.72
  -4  -6  -4   92.55    3.37
  -6  -6  -6   47.95    3.36
  -7  -5  -7   24.31    2.83
  -6  -3  -3    5.50    2.85
  -7  -4  -6   79.17    3.48
  -6  -2  -3  275.91    3.96
  -5  -7 -11   11.74    2.00
  -5  -7  -8  113.52    3.49
  -6  -5  -5   14.07    3.03
  -5  -7  -9   17.05    2.72
  -7  -5 -11   37.18    2.45
  -7  -5  -8   55.50    3.12
  -7  -3  -6    1.46    2.83
  -6  -6  -7   71.56    3.43
  -5  -7 -10    4.14    2.16
  -7  -5 -10    4.21    2.03
  -7  -5  -9    1.69    2.30
  -7  -4  -7   86.78    3.60
  -5  -5  -4   19.46    3.06
  -4  -6  -5   19.02    2.98
  -7  -2  -7   49.82    3.06
  -6  -6 -12   -0.21    1.55
  -7  -3  -7    3.03    2.98
  -6  -6  -8   17.65    3.15
  -6  -3  -4    4.84    2.84
  -7  -4 -11   15.13    2.43
  -7  -2  -8    4.06    2.50
  -6  -6  -9   10.30    3.01
  -6  -5  -6  112.00    4.02
  -7  -4 -10   10.60    2.90
  -7  -3  -8   11.14    3.39
  -7  -2  -9   10.90    2.53
  -6  -6 -10   26.51    3.04
  -6  -4  -5   -2.71    3.08
  -6  -2  -4  225.73    4.08
  -7  -3 -10   47.03    4.42
  -7  -3  -9    6.77    3.50
  -5  -6  -7  366.04    5.82
  -4  -6  -6   29.38    2.88
  -6  -5  -7  140.15    4.32
  -5  -5  -5  112.54    3.43
  -6  -4  -6   95.10    4.04
  -6  -3  -5   67.10    3.50
  -5  -6 -12    1.51    1.98
  -5  -6  -8   28.55    3.38
  -6  -5 -12   10.53    1.92
  -6  -5  -8   68.56    3.84
  -4  -6  -7   91.27    3.53
  -6  -2  -5  254.08    4.45
  -5  -6 -11   82.24    3.21
  -5  -6 -10  115.44    3.71
  -5  -6  -9   78.36    3.50
  -5  -5  -6   86.14    3.95
  -6  -5 -11    6.82    2.57
  -6  -5 -10   73.54    3.48
  -6  -5  -9  123.62    4.12
  -6  -4  -7  100.49    4.15
  -6  -3  -6   -2.40    3.48
  -4  -6  -8   20.05    3.11
  -5  -5 -13  180.72    3.07
  -5  -4  -5   18.43    3.09
  -4  -6 -11   63.28    2.98
  -4  -6  -9  102.36    3.63
  -6  -4 -12    2.00    2.03
  -5  -5  -7  147.54    4.68
  -4  -6 -10   74.61    3.49
  -6  -4  -8   12.40    2.61
  -6  -2  -6  108.71    3.93
  -4   5  -5    0.72    1.40
  -1   5  -6   39.04    2.30
  -1   8  -3   36.21    1.80
   0   7  -4   79.86    2.63
   0   9  -1   15.34    1.11
   1   6  -4  128.33    2.92
  -2   5  -6  178.98    3.49
   1   8  -2    8.04    1.69
  -4   3  -6   25.95    2.30
  -2   7  -4   -0.10    1.43
   1   7  -3  116.09    2.87
  -2   6  -5   23.03    2.30
  -1   4  -6   19.67    2.01
  -1   6  -5    2.02    1.79
  -1   7  -4   61.47    2.47
   0   5  -5    0.62    2.48
   1   5  -4  212.53    3.45
  -3   4  -6   12.16    2.29
  -3   7  -3    1.06    1.62
  -2   4  -6   70.61    2.97
  -2   8  -2   30.29    1.95
   0   4  -5   60.75    2.39
  -4   4  -5    4.71    2.21
  -4   6  -3   32.32    1.78
  -3   3  -6  217.48    3.58
   0   8  -2   11.88    2.10
  -3   5  -5   94.25    2.77
   1   6  -3    5.71    2.18
  -4   5  -4    1.50    1.60
  -1   5  -5   25.53    2.14
  -1   8  -2   17.29    1.77
   0   7  -3  287.59    4.35
   0   9   0    3.27    1.33
   1   8  -1   30.92    2.11
  -2   5  -5  254.39    4.15
   1   7  -2  193.06    3.24
  -4   3  -5   56.21    2.24
  -2   7  -3    8.64    1.99
  -1   6  -4   50.38    2.96
  -2   6  -4   53.45    2.73
  -1   4  -5   28.87    2.03
  -1   7  -3  111.27    3.10
  -3   4  -5   -1.50    2.36
  -3   7  -2   13.37    1.63
  -2   4  -5  177.52    3.56
  -2   8  -1   28.60    1.82
  -4   4  -4   25.10    2.03
  -4   6  -2  129.15    2.27
  -3   3  -5 1452.94    7.55
  -1   9   1   -1.31    1.13
   0   8  -1   11.04    2.26
   0   9   1    3.76    1.31
  -1   8  -1   59.09    2.22
   1   6  -2  199.16    3.20
   1   8   0    1.14    1.95
  -4   5  -3    1.89    1.75
  -1   5  -4   55.84    2.27
   0   7  -2  687.34    5.73
  -2   5  -4  271.99    4.06
  -2   7  -2   -1.96    2.04
   1   7  -1  143.19    2.89
  -4   3  -4  690.10    6.41
  -2   6  -3    3.79    2.38
  -1   6  -3  104.49    3.33
  -1   7  -2   44.10    2.69
  -3   7  -1    5.51    1.64
  -2   8   0  182.13    3.36
  -4   6  -1    2.71    1.43
  -3   4  -4  250.07    3.72
   0   9   2   22.94    1.65
  -2   4  -4  677.67    5.33
   0   8   0   87.03    2.64
  -4   4  -3    4.16    1.84
  -1   8   0   51.96    2.24
   1   8   1   14.75    2.07
  -4   5  -2   12.98    1.90
   0   7  -1  120.48    3.15
  -2   7  -1   12.19    2.14
  -1   5  -3 1161.49    6.77
  -1   9   3    2.38    1.11
   1   7   0   73.26    2.36
  -3   7   0   19.84    1.71
  -2   5  -3  193.83    3.18
  -2   8   1  174.90    2.86
  -1   7  -1  168.96    3.55
   0   9   3   71.46    2.20
  -4   3  -3  215.58    3.23
  -4   6   0    4.04    1.61
  -2   6  -2  125.87    2.76
  -1   6  -2    8.02    1.95
   0   8   1   37.97    2.51
  -3   4  -3   49.61    2.48
  -1   8   1   52.12    2.37
  -1   9   4    7.58    1.14
  -4   5  -1    3.35    1.74
  -3   6  -1   55.94    1.96
   1   8   2   18.90    2.08
  -4   4  -2   47.90    1.76
  -3   7   1    4.31    1.77
  -2   7   0   33.16    2.55
  -2   8   2   41.60    1.86
   0   6  -1   16.25    2.17
   0   7   0   63.29    2.90
   0   9   4    5.08    1.54
  -4   6   1   18.41    1.73
  -1   9   5    0.41    1.16
  -2   5  -2   44.06    2.53
  -1   7   0   85.07    2.92
   1   7   1   22.37    2.01
  -2   6  -1    2.38    1.74
  -1   6  -1   26.22    2.63
  -1   8   2   71.89    2.46
   0   8   2  124.58    2.98
  -2   8   3   83.32    2.18
   0   9   5   34.46    1.77
  -3   6   0   89.48    2.66
  -3   7   2    2.82    1.76
   1   8   3   23.69    2.12
  -4   5   0   76.23    2.35
  -4   6   2   15.98    1.78
  -3   4  -2   14.54    1.49
  -2   7   1   37.41    2.40
  -4   4  -1  295.14    3.44
   0   7   1    7.30    2.35
   0   9   6   32.17    1.44
  -2   8   4    9.72    1.42
  -1   7   1   71.89    2.81
  -1   8   3   22.89    2.09
   0   6   0  186.59    3.18
   0   9   7   16.49    1.35
  -3   7   3    5.65    1.72
  -2   6   0   14.67    2.26
   0   8   3  190.65    3.28
   1   7   2   26.34    1.94
  -4   6   3   30.09    1.83
  -2   5  -1   58.11    2.50
  -1   6   0   46.05    2.55
  -4   5   1  208.52    3.10
  -3   6   1   70.43    2.18
  -2   7   2   58.59    2.60
  -2   8   5    9.25    1.37
   1   8   4   37.63    2.14
  -4   4   0    6.45    1.78
  -4   6   4   63.65    1.91
  -3   4  -1    0.25    1.66
  -3   7   4    5.20    1.58
  -2   8   6    5.45    1.31
  -1   8   4   56.75    2.36
  -2   8   7   44.36    1.56
  -1   7   2   36.58    2.76
   0   7   2    6.08    1.76
   0   8   4   46.00    2.27
  -4   6   5   84.51    2.12
  -4   6   6   17.27    1.57
  -3   7   5   -0.27    1.46
  -4   5   2    0.42    1.89
  -3   6   2  228.82    3.47
  -2   6   1  354.35    3.78
  -2   7   3  117.40    3.04
   1   7   3   11.10    1.88
   1   8   5   70.94    2.42
  -3   7   6   55.54    1.88
  -3   7   7    1.06    1.32
  -2   5   0   89.41    2.57
  -1   6   1   50.80    2.57
   0   8   5    3.54    2.08
  -4   4   1   51.72    1.88
  -4   5   3   -0.96    1.94
  -3   6   3  129.53    2.97
  -2   7   4   35.01    2.48
  -1   7   3   61.82    2.33
   0   7   3   37.51    2.49
   1   8   6   96.22    2.73
  -3   4   0   11.39    1.84
  -2   6   2   11.81    2.30
   0   8   6    2.51    1.97
   1   7   4   13.39    1.85
   1   8   7   63.72    2.46
  -4   5   4    9.60    1.96
  -3   6   4   78.06    2.82
  -2   5   1  427.19    4.17
  -2   7   5   19.46    2.32
  -1   6   2   25.43    2.39
  -1   7   4  154.52    3.48
   0   8   7   38.21    2.26
  -4   4   2  254.78    3.57
   0   7   4   50.11    2.62
   0   8  10   -0.70    1.08
  -4   5   0   72.36    2.13
  -3   7   4    4.69    1.46
  -5   5   2    2.72    1.18
  -2   7   3  115.81    2.74
  -1   7   3   62.27    2.60
  -3   7   5    1.29    1.35
  -3   7   7    0.96    0.97
  -1   6   1   41.04    1.84
   0   7   4   43.86    2.45
  -3   7   6   56.13    1.58
  -2   6   1  352.91    3.94
  -5   5   3   20.35    1.34
  -4   4  -1  296.39    3.14
  -3   5   0   21.86    2.23
  -3   6   2  237.08    3.41
  -2   7   4   29.06    1.79
  -1   7   4  137.15    3.09
   0   7   5   48.33    2.37
  -4   5   1  217.93    3.08
  -4   6   4   63.92    1.85
  -2   5   0   91.63    2.37
  -5   5   4   25.58    1.59
  -5   5   5    1.50    1.41
  -4   6   5   97.55    1.97
  -4   6   6   21.88    1.51
  -3   4  -1    1.35    1.62
  -2   7   5   19.48    1.98
  -1   6   2   33.36    2.51
  -5   4   1   31.23    1.78
  -2   6   2   13.70    2.16
  -2   7   6   26.79    2.12
  -2   7   8    3.53    1.34
  -1   7   9   78.12    1.88
   0   7   6   78.19    2.50
   0   7   7  502.10    4.45
  -3   6   3  113.20    2.44
  -1   7   6    3.58    1.87
  -1   7   8   19.36    1.87
  -4   4   0   10.22    1.96
  -4   5   2   -1.98    2.04
  -1   7   7   65.44    2.34
  -2   6   3    2.41    2.42
  -1   6   3    6.28    2.30
  -6   3   3    6.24    1.35
  -5   4   2   24.16    1.94
  -3   6   4   77.40    2.71
  -2   5   1  426.77    4.12
  -2   6  10    6.98    1.19
  -6   3   4    1.82    1.34
  -3   4   0   10.04    2.08
  -3   6   5   72.89    2.68
  -3   6   8   35.35    1.73
  -3   6   6   70.88    2.41
  -3   6   7    7.33    1.69
  -2   6   4  100.87    3.03
  -1   6   4    2.43    2.30
   0   6   5   12.84    2.07
  -5   4   3   37.02    2.11
  -4   4   1   59.40    2.49
  -3   5   2   86.38    2.51
  -4   5   4   11.90    2.22
  -4   5   8    2.56    1.28
  -5   4   4   34.29    2.05
  -5   4   7   22.63    1.37
  -2   5   2  392.42    3.83
  -2   6   5  117.75    3.21
  -2   6   9    8.62    1.73
   0   6   6  728.96    5.52
  -5   3   1   20.86    2.02
  -4   5   5   21.94    1.95
  -4   5   7    9.77    1.60
  -5   4   6  105.95    2.40
  -4   3   0   88.95    2.40
  -4   5   6    1.12    1.31
  -3   5   3   27.39    2.63
  -2   6   6    7.53    1.84
  -2   6   8    4.41    2.14
   0   6   7    5.02    1.89
  -4   4   2  274.74    3.71
  -3   4   1   40.02    2.21
  -1   6   6  475.49    4.73
  -1   6   9   12.48    1.97
  -2   5   3  243.87    3.45
  -1   6   7  237.40    3.59
  -1   6   8   92.96    2.75
  -3   5   4   35.04    2.62
  -6   2   3   13.39    1.69
  -5   3   2   64.53    2.35
  -4   4   9    2.35    1.21
  -6   2   4  104.61    2.24
  -6   2   5   12.28    1.60
  -5   3   8   11.03    1.29
  -3   5   5  178.03    3.17
  -3   5   8   98.53    2.68
  -2   5   4  315.65    4.07
  -5   3   3  141.82    3.00
  -4   3   1    9.14    1.93
  -3   5   6  244.72    3.85
  -3   5   7  190.12    3.32
  -2   5  10   64.52    1.94
  -4   4   4    9.64    2.50
  -5   2   1   23.41    1.94
  -4   4   8   13.19    1.70
  -2   5   5  539.60    5.02
  -5   3   4  166.40    3.01
  -5   3   7    2.07    1.52
  -4   4   5    3.22    2.19
  -2   5   9   90.72    2.68
  -1   5  10   81.67    2.17
  -5   3   6    2.76    1.90
  -4   4   6   25.64    2.50
  -4   4   7   29.14    2.25
  -3   4   3   36.33    2.65
  -3   4  10    3.55    1.31
  -2   5   6   54.41    2.94
  -4   3   2   66.54    2.46
  -2   5   8  122.14    3.20
  -1   5   6  237.08    3.47
  -2   4  11   37.81    1.51
  -1   5   9  238.94    3.55
  -6   1   3  813.58    5.17
  -6   1   6   20.53    1.96
  -5   2   2    4.24    2.02
  -1   5   7   10.83    2.17
  -1   5   8   73.83    2.78
  -3   3  11   19.72    1.09
  -3   4   4   50.60    2.30
  -6   1   4   21.95    1.92
  -6   1   5   24.68    1.99
  -5   2   8    1.88    1.52
  -4   3   3   63.39    3.00
  -4   3   9   48.22    1.80
  -3   4   5  950.98    6.71
  -5   2   3  152.65    3.17
  -3   4   6   29.20    2.89
  -3   4   8    3.23    1.84
  -2   4  10   58.82    2.26
  -4   3   8  101.19    2.69
  -3   4   7   22.56    2.07
  -5   2   4  656.71    5.58
  -5   2   7    2.12    1.33
  -4   2  10   33.40    1.42
  -5   2   5    0.80    2.37
  -4   3   5  598.11    5.61
  -4   3   7  142.38    3.42
  -3   3  10   46.97    2.12
  -2   4   9   35.21    2.68
  -1   4  10   25.68    2.14
  -4   3   6  212.06    3.79
  -6   0   6   11.88    1.57
  -2   3  11   34.75    1.88
  -2   4   6   78.44    2.90
  -2   4   8   47.58    2.95
  -6   0   3    0.10    1.94
  -3   2  11   15.69    1.39
  -1   4   9  122.04    2.96
  -6   0   4    0.17    1.96
  -6   0   5    3.24    1.91
  -5   1   2   67.47    2.66
  -5   1   8  166.27    2.62
  -4   2   9   22.24    1.91
  -5   0   9   15.24    1.41
  -3   3   9    5.32    1.70
  -1   4   8  110.38    3.03
  -5   1   3  267.54    4.07
  -5   1   7   52.89    2.43
  -4   1  10    0.83    1.28
  -4   2   3   51.54    2.45
  -3   3   5  513.96    5.17
  -3   3   8   15.25    2.89
  -2   3  10   41.34    2.44
  -4   2   8   55.32    2.68
  -3   3   6  283.20    4.30
  -3   3   7  257.41    4.41
  -6  -1   6   21.45    1.60
  -5   1   4   41.88    2.78
  -2   1  12   22.71    1.17
  -5   1   5   26.24    2.87
  -4   2   7   32.19    2.90
  -3   1  11   40.88    1.78
  -6  -1   5   21.83    2.29
  -5   0   8   16.30    1.78
  -4   2   5   37.12    2.99
  -4   2   6   27.91    2.80
  -2   2  11   91.36    2.37
  -2   3   9   10.82    2.66
  -1   3  10  260.05    3.67
  -6  -1   4   29.11    2.58
  -4   0  10   43.58    1.71
  -4   1   9   12.16    1.63
  -2   3   8    6.01    3.03
  -4   6   4   66.87    1.92
  -3   6   2  225.84    3.43
  -2   7   4   32.63    2.09
  -5   5   4   33.74    1.72
  -4   5   1  214.96    3.04
  -2   5   0   94.90    2.49
   0   7   5   45.27    2.34
  -5   4   1   32.43    1.91
  -4   6   5  102.39    1.94
  -4   6   6   19.16    1.40
  -3   4  -1    3.41    1.64
  -2   7   5   16.12    2.14
  -1   6   2   27.19    2.37
  -2   6   2    8.82    2.38
  -3   6   3  132.61    3.00
  -2   7   8    4.97    1.38
  -1   7   5   67.93    2.36
   0   7   6   85.36    2.50
  -4   4   0    9.37    1.91
  -2   7   7   23.19    1.72
  -1   7   9   71.34    1.80
  -6   3   3    2.64    1.24
  -5   3   0   43.02    1.95
  -3   5   1   52.23    2.60
  -1   7   6    3.18    2.15
   0   7   7  439.73    4.07
  -5   4   2   21.61    1.82
  -4   3  -1  324.35    3.27
  -1   7   7   71.36    2.26
  -1   7   8   22.24    1.91
  -3   6   4   78.82    2.74
  -2   5   1  408.49    3.81
  -2   6   3    5.12    1.61
  -1   6   3    4.71    1.60
  -4   5   3   -0.41    2.01
  -3   4   0   11.04    1.88
  -3   6   5   72.73    2.61
  -5   4   3   36.00    2.03
  -4   4   1   55.61    2.49
  -3   5   2   97.93    3.00
  -3   6   8   35.13    1.66
  -2   6   4   97.70    3.04
  -5   3   1   21.38    2.03
  -4   5   4   16.55    2.12
  -3   6   6   60.42    1.91
  -3   6   7    7.38    1.76
  -2   6  10    5.55    1.04
  -5   4   4   38.31    2.01
  -5   4   7   20.48    1.51
  -4   5   8   -0.16    1.30
  -2   5   2  420.93    4.10
  -4   3   0   88.50    2.26
  -4   5   5   22.63    1.97
  -2   6   5  120.98    3.18
  -4   5   6   -0.11    1.83
  -4   5   7    6.23    1.61
  -1   6   5   42.07    2.63
  -4   4   2  276.58    3.72
  -3   5   3   25.66    2.05
  -2   6   9    9.27    1.69
   0   6   6  718.71    5.26
  -5   3   2   65.55    2.35
  -3   5  10    9.45    1.00
  -2   6   8    3.75    2.04
  -1   6   6  524.87    4.92
   0   6   7    8.21    1.84
  -6   2   4   89.10    2.23
  -6   2   5   13.07    1.48
  -3   5   4   33.95    2.89
  -2   5   3  230.62    3.19
  -1   6   9   16.35    1.82
  -2   5  11   25.20    1.10
  -1   6   7  230.05    3.55
  -1   6   8   93.37    2.66
  -5   3   3  139.19    3.01
  -4   3   1    7.52    2.14
  -5   2   1   22.40    2.00
  -4   4   9    2.19    1.18
  -3   4   2   14.55    2.03
  -3   5   5  191.12    3.68
  -4   4   4    5.53    2.60
  -3   5   6  244.97    3.89
  -3   5   8   97.63    2.72
  -2   5   4  307.79    3.98
  -5   3   4  172.16    3.06
  -5   3   7    0.91    1.79
  -3   5   7  183.39    3.33
  -5   3   5    4.76    2.07
  -4   4   8   15.64    1.71
  -2   5  10   68.70    1.99
  -4   4   5    5.16    1.63
  -4   4   7   25.50    2.26
  -2   5   5  537.03    4.96
  -6   1   6   17.06    1.80
  -5   2   2    3.91    2.00
  -4   3   2   63.40    2.55
  -4   4   6   25.95    1.94
  -3   4   3   34.03    2.07
  -6   1   4   22.54    1.88
  -2   5   6   52.63    2.90
  -2   5   9   88.61    2.55
  -6   1   5   22.86    1.70
  -2   5   8  120.03    3.21
  -1   5  10   87.59    2.33
  -3   4   4   53.87    2.82
  -1   5   6  242.01    3.44
  -5   2   3  153.76    3.13
  -5   2   8    3.03    1.63
  -4   3   3   66.80    2.88
  -2   4  11   40.90    1.78
  -1   5   7   14.53    2.29
  -1   5   8   75.94    2.86
  -1   5   9  252.33    3.71
  -4   3   9   42.95    1.80
  -3   3  11   22.46    1.39
  -3   4   5  967.34    6.75
  -3   4   9    3.02    1.49
  -5   2   4  659.11    5.68
  -3   4   8    3.73    2.23
  -6   0   6   11.25    1.43
  -5   2   5    2.96    2.16
  -4   3   8   96.62    2.64
  -3   4   6   30.22    2.29
  -3   4   7   23.02    2.89
  -2   3  12    3.09    1.03
  -4   3   5  601.65    5.51
  -6   0   4   -2.40    1.79
  -6   0   5    1.65    1.90
  -5   1   2   64.46    2.44
  -4   2  10   35.22    1.41
  -4   3   6  219.64    3.79
  -4   3   7  143.49    3.30
  -2   4  10   58.26    2.54
  -1   4  11  185.83    2.69
  -3   3  10   51.30    2.17
  -2   4   9   36.62    2.59
  -5   1   8  160.44    2.61
  -2   4   6   80.67    3.03
  -6  -1   6   18.65    1.67
  -5   0   9   14.82    1.41
  -5   1   3  264.05    4.05
  -1   4  10   25.54    2.37
  -4   2   3   52.48    2.44
  -4   2   9   24.26    1.97
  -2   3  11   36.92    2.00
  -3   3   9    8.21    2.36
  -6  -1   5   18.84    1.91
  -5   1   4   33.64    2.65
  -5   1   6    6.13    2.45
  -4   1  10    1.97    1.20
  -3   3   5  523.62    5.43
  -2   2  12   22.29    1.34
  -1   4   9  118.26    3.31
  -5   1   5   31.34    2.74
  -4   2   8   54.30    2.73
  -3   3   8    9.91    2.65
  -1   4   8  112.07    3.11
  -3   3   6  263.36    3.86
  -3   3   7  243.66    4.19
  -4   2   5   33.35    2.33
  -4   2   6   29.71    3.01
  -4   2   7   30.47    2.28
  -2   3  10   42.81    2.48
  -3   2  10   76.79    2.53
  -1   3  11   63.49    2.31
  -4   1   9   11.36    2.01
  -2   3   9   11.70    2.78
  -1   2  12   20.32    1.52
  -5   0   3   48.85    2.60
  -4   0  10   41.35    1.64
  -2   1  12   28.02    1.47
  -2   2  11   88.23    2.64
  -5   0   6   34.93    2.59
  -3   2   9  559.27    5.25
  -1   3  10  278.04    3.91
  -5   0   4   23.84    2.82
  -5   0   5   78.65    3.44
  -4   1   8   44.01    2.86
  -2   3   7   -1.31    1.72
  -7   0  -7  110.46    2.47
  -7  -1  -7  217.53    3.47
  -5  -1  -8   11.78    2.57
  -3   2  -7  174.45    3.90
  -2   4  -5  166.51    3.44
  -4   5  -4   -0.35    1.76
  -5   2  -7   42.34    2.86
  -3   5  -4   11.74    2.08
  -7   2  -5   17.80    1.60
  -6   1  -7   21.91    2.32
  -5   3  -6    2.73    1.86
  -5   5  -3   18.47    1.33
  -4   2  -7    0.58    2.74
  -3   1  -7   47.64    2.20
  -3   4  -5   -0.44    2.29
  -6   2  -6    8.18    1.68
  -6   3  -5    8.10    1.43
  -4   3  -6   44.22    2.78
  -4   4  -5    6.53    1.90
  -7   0  -6  122.05    2.50
  -6  -1  -7   37.57    2.24
  -6   0  -7  130.75    2.98
  -5   1  -7  126.07    3.32
  -4   1  -7   18.59    2.38
  -7  -1  -6   96.54    2.26
  -5  -1  -7   33.77    2.29
  -5   0  -7   49.58    2.66
  -3   2  -6  156.37    2.96
  -2   4  -4  608.52    4.54
  -7   2  -4   26.02    1.62
  -4   5  -3   -1.18    1.65
  -6   1  -6  732.02    5.05
  -5   2  -6   91.92    2.98
  -5   5  -2   30.15    1.40
  -3   5  -3   32.80    2.00
  -5   3  -5    1.43    1.76
  -4   2  -6   67.01    2.59
  -6   2  -5   40.91    1.99
  -6   3  -4    4.62    1.37
  -4   4  -4   28.01    1.91
  -3   4  -4  225.07    3.22
  -7   0  -5   21.44    1.77
  -6   0  -6   12.93    1.85
  -4   3  -5   59.54    2.55
  -7  -1  -5   32.47    1.96
  -6  -1  -6   49.97    2.10
  -5   1  -6  102.69    2.96
  -4   1  -6  171.24    2.96
  -7   2  -3   15.09    1.32
  -5  -1  -6   40.75    2.01
  -5   0  -6   10.46    2.17
  -5   5  -1    7.27    1.18
  -4   5  -2   11.76    1.63
  -5   2  -5  224.30    3.51
  -3   5  -2    5.79    1.53
  -6   1  -5   32.20    1.67
  -6   3  -3   39.61    1.73
  -5   3  -4   12.28    1.78
  -7   0  -4   17.99    1.95
  -6   2  -4   63.15    2.15
  -4   2  -5  650.73    4.67
  -7   2  -2   26.44    1.45
  -4   3  -4  939.78    5.68
  -4   4  -3    4.61    1.73
  -3   3  -4    6.20    1.75
  -3   4  -3   44.16    2.11
  -7  -1  -4   32.09    1.71
  -6  -1  -5   14.28    1.79
  -6   0  -5    3.01    1.37
  -5   5   0    2.19    1.27
  -5   1  -5   78.07    2.58
  -4   5  -1    1.60    1.53
  -6   1  -4    5.50    1.92
  -6   3  -2   13.21    1.63
  -5   0  -5   70.29    2.30
  -5   2  -4    0.02    2.18
  -7   0  -3   11.51    1.79
  -7   2  -1    7.28    1.35
  -6   2  -3   86.95    2.44
  -5   3  -3   43.41    2.17
  -5   5   1    2.67    1.37
  -3   5  -1   12.77    1.59
  -4   2  -4  161.15    2.55
  -4   4  -2   43.64    2.16
  -6   0  -4    0.22    1.48
  -4   3  -3  239.33    3.32
  -4   5   0   71.79    2.10
  -3   4  -2   13.89    1.88
  -7   2   0   21.82    1.59
  -6  -1  -4    3.78    1.81
  -6   3  -1  134.45    2.37
  -5   1  -4  115.83    2.81
  -5   5   2    3.26    1.11
  -7   0  -2    7.29    1.78
  -6   1  -3   24.02    2.25
  -6   2  -2   12.26    2.02
  -5   2  -3    9.73    2.21
  -5   3  -2   26.16    2.38
  -7   2   1   41.11    1.94
  -5   0  -4   96.75    2.55
  -5   5   3   19.66    1.27
  -3   5   0   18.55    1.75
  -7   2   2   27.66    1.72
  -6   3   0   46.51    2.02
  -4   4  -1  309.13    3.59
  -6   0  -3   31.34    2.22
  -5   5   4   24.47    1.14
  -4   5   1  206.66    2.96
  -7   0  -1   36.00    2.30
  -4   3  -2  169.28    2.96
  -6  -1  -3   26.13    1.92
  -6   2  -1   89.84    2.72
  -3   4  -1    0.66    1.75
  -7  -1  -1   23.82    2.00
  -6   3   1    1.84    1.61
  -5   1  -3  122.29    2.58
  -5   3  -1   32.73    2.54
  -5   2  -2   25.12    2.55
  -7   0   0   16.39    2.25
  -4   5   2   -0.40    1.77
  -3   5   1   46.58    2.08
  -6   0  -2   14.72    2.21
  -4   4   0    4.23    2.18
  -7  -1   0   14.55    2.03
  -6   2   0  126.87    2.98
  -6   3   2   14.65    1.32
  -7   0   1    4.94    2.37
  -6  -1  -2  489.09    4.43
  -6   1  -1    5.48    2.42
  -4   3  -1  317.71    3.69
  -6   3   3    7.25    1.51
  -5   3   0   49.33    2.21
  -4   5   3   -0.83    2.01
  -7  -1   1   28.38    2.42
  -7   0   2  352.20    4.97
  -6   3   4    3.35    1.41
  -6   3   5   -0.06    1.45
  -5   1  -2  139.40    2.81
  -5   2  -1   22.13    2.48
  -7   0   3   61.03    2.88
  -6   2   1   15.29    2.40
  -3   5   2   93.26    2.49
  -7  -1   2   17.10    2.76
  -7  -1   3   28.94    2.08
  -6   0  -1   18.37    2.58
  -4   4   1   57.19    2.21
  -4   5   4   11.10    2.00
  -6   1   0  130.43    3.31
  -5   3   1   21.96    2.68
  -6  -1  -1    7.02    2.07
  -6   2   2   21.76    2.46
  -5   4   5    2.85    1.72
  -5   4   6  105.17    2.16
  -4   3   0   87.92    2.62
  -4   5   5   20.89    1.91
  -4   5   7    7.41    1.38
  -5   1  -1  134.54    3.24
  -5   2   0    4.74    2.59
  -4   5   6   -1.73    1.57
  -3   5   3   25.77    2.09
  -6   0   0   -5.44    2.76
  -6   1   1   78.10    3.12
  -6   2   3   15.07    2.36
  -6   2   6    2.99    1.62
  -4   4   2  265.39    3.86
  -6   2   4   95.34    3.05
  -5   3   2   69.81    3.07
  -5  -4  -9   20.01    2.86
  -5  -4  -8   41.17    2.72
  -4  -4 -10   32.38    2.63
  -4  -3 -12  134.21    3.46
  -3  -4  -9    8.19    2.27
  -3   0 -13   77.73    1.84
  -6  -3 -10   16.66    2.47
  -4  -1 -13   29.63    1.65
  -6  -2 -11   19.06    1.78
  -4  -4  -8  192.31    3.67
  -1  -2 -10 1060.54    6.72
  -1  -1 -11   24.58    2.14
  -6  -3  -9    9.18    2.34
  -5  -3 -11  136.71    3.46
  -5  -2 -12   40.79    2.05
  -3  -3 -11 1340.29    8.01
  -2  -1 -12    7.48    2.30
  -4  -3 -11  186.25    4.08
  -6  -1 -11   18.92    1.89
  -4  -2 -12   24.70    2.46
  -2  -2 -11   16.91    2.71
  -5  -1 -12   11.75    1.50
  -2   0 -12    0.65    1.75
  -2   1 -12   30.66    1.69
  -6  -2 -10   54.16    2.27
  -5  -3 -10   63.47    2.53
  -5   0 -12    5.73    1.38
  -3  -3 -10   84.58    2.84
  -4  -3 -10  186.72    4.14
  -5  -3  -9  407.44    5.02
  -5  -2 -11   34.92    2.61
  -4  -1 -12   35.51    2.35
  -3  -2 -11   81.18    3.37
  -1  -1 -10  989.90    6.39
  -6  -2  -9   57.83    2.63
  -4   1 -12    3.44    1.27
  -3  -3  -9    4.67    1.92
  -2  -2 -10   63.06    3.07
  -6  -1 -10   33.71    1.86
  -5  -3  -8  318.20    4.55
  -5  -3  -7    6.95    2.12
  -4  -3  -9   64.26    3.22
  -4  -2 -11   38.09    3.00
  -4   0 -12   98.39    2.38
  -3   0 -12   90.02    2.35
  -3   1 -12   -0.72    1.36
  -2  -1 -11   14.57    2.41
  -6  -2  -8   88.61    3.09
  -6   0 -10    1.07    1.96
  -5  -1 -11  113.81    2.70
  -4  -3  -8  130.19    3.30
  -5   1 -11   81.76    2.10
  -3  -2 -10  130.56    3.62
  -6  -1  -9   77.91    2.66
  -5   0 -11    3.14    1.46
  -4  -2 -10   25.02    2.80
  -3  -1 -11   47.81    2.91
  -2   0 -11    9.28    2.33
  -1   0 -10   69.52    2.53
  -4  -1 -11   41.14    2.31
  -5  -2  -9  219.41    3.90
  -4   2 -11    1.07    1.23
  -2  -1 -10   61.76    3.19
  -2   1 -11   48.16    2.40
  -2   2 -11   69.63    2.01
  -6   0  -9    0.33    1.72
  -6   1  -9   72.95    2.03
  -5  -1 -10    6.27    2.39
  -5  -2  -8  148.38    3.50
  -4  -2  -9    2.92    2.73
  -4   0 -11   63.46    2.24
  -4   1 -11    4.78    1.67
  -3  -2  -9    0.53    1.74
  -3   2 -11   58.31    1.96
  -1   1 -10  134.51    2.82
  -5   2 -10   21.70    1.53
  -5  -2  -7  229.45    4.08
  -5   0 -10  225.78    3.47
  -4  -1 -10   55.49    3.12
  -3  -1 -10   39.28    3.04
  -6   0  -8   -3.07    2.16
  -5   1 -10  140.89    2.57
  -2   0 -10   15.54    2.40
  -6   1  -8   37.12    1.89
  -4   3 -10   28.63    1.40
  -1   0  -9  222.34    4.32
  -6   0  -7  132.58    3.08
  -4   0 -10   48.07    3.03
  -2   3 -10    7.95    1.89
  -5  -1  -8   10.51    2.58
  -4  -1  -9   99.56    3.61
  -4   2 -10    1.82    1.67
  -3  -1  -9  171.81    3.76
  -3   0 -10   22.12    2.18
  -3   3 -10    1.72    1.38
  -2   1 -10   83.58    2.99
  -6   1  -7   17.22    2.18
  -6   2  -7    4.78    1.40
  -4   1 -10    2.88    2.26
  -2   2 -10  110.09    2.72
  -5   1  -9   73.71    2.52
  -5   2  -9    5.41    1.61
  -3   1 -10  161.67    3.36
  -1   1  -9  270.31    3.69
  -5  -1  -7   35.39    2.69
  -2   0  -9   20.33    2.54
  -4  -1  -8   29.88    2.61
  -6   2  -6    8.95    1.69
  -5   0  -8   10.07    2.47
  -5   3  -8   69.74    1.99
  -4   0  -9   38.17    2.80
  -1   2  -9  211.89    3.44
  -1   3  -9  253.09    3.74
  -5  -1  -6   43.69    2.49
  -4   3  -9   34.23    1.88
  -3   0  -9    2.60    2.74
  -2   4  -9   16.19    1.71
  -4   1  -9   11.54    2.10
  -4   2  -9    0.51    2.24
  -2   1  -9  121.98    3.19
  -5   0  -7   58.16    2.89
  -4   4  -8   35.87    1.63
  -3   1  -9   16.60    2.74
  -4   0  -8   47.68    2.87
  -4   5  -7    0.63    1.22
  -3   3  -9   23.07    2.19
  -2   2  -9  123.38    3.09
  -2   3  -9   11.48    2.18
  -3   0  -8   67.03    2.74
  -3   2  -9    8.91    1.91
  -2   5  -8   68.87    2.06
  -5   0  -6    9.63    2.32
  -5   1  -7  114.17    3.08
  -2   6  -7    0.79    1.16
  -5   2  -7   45.22    2.37
  -5   4  -6   15.78    1.71
  -4   1  -8   13.50    2.52
  -4   3  -8   66.45    2.45
  -1   2  -8  185.72    3.27
  -1   4  -8   81.30    2.56
  -5   0  -5   70.59    2.76
  -4   2  -8    1.18    1.83
  -3   4  -8    6.48    2.03
  -2   1  -8  187.72    3.31
  -1   3  -8   11.15    1.96
  -3   1  -8   30.82    2.74
  -2   4  -8   38.49    2.26
  -5   1  -6  104.40    3.00
  -5   3  -6    5.00    1.98
  -4   4  -7   88.68    2.43
  -5   2  -6  107.00    2.88
  -5   4  -5   32.78    2.09
  -4   5  -6    2.95    1.32
  -3   2  -8  109.75    3.24
  -3   3  -8  165.83    3.00
  -3   5  -7   62.16    2.05
  -3   6  -6   51.05    1.62
  -2   2  -8  117.74    3.27
  -2   3  -8    1.55    2.18
  -4   1  -7   22.84    2.60
  -5   1  -5   76.45    2.69
  -5   5  -3   18.02    1.80
  -4   3  -7   78.05    2.78
  -1   5  -7    1.92    1.60
  -4   2  -7    0.98    1.83
  -2   5  -7   83.82    2.59
  -5   2  -5  224.61    3.63
  -5   3  -5    3.02    2.19
  -3   1  -7   52.23    2.50
  -2   7  -5    1.14    0.97
  -5   4  -4   98.98    2.42
  -4   6  -4  130.79    2.33
  -3   4  -7   22.45    2.14
  -2   6  -6    2.66    1.45
  -4   4  -6   25.77    2.06
  -1   3  -7    1.14    1.81
  -1   4  -7    7.10    1.98
  -1   6  -6   32.32    1.85
  -3   2  -7  140.46    2.80
  -7  -5  -3   64.15    2.80
  -5  -7 -10    3.51    2.13
  -4  -7  -8   68.30    3.19
  -6  -7 -10   -0.22    1.52
  -6  -7  -6    1.10    2.84
  -4  -7  -7  110.07    2.92
  -8  -5  -6    1.02    1.89
  -6  -5  -2    7.00    2.33
  -5  -7  -6   32.78    3.39
  -5  -6  -3   33.17    3.19
  -4  -6  -3  165.16    3.44
  -6  -7  -9    1.01    2.21
  -6  -7  -8   76.79    2.95
  -6  -7  -7    5.48    1.81
  -5  -7  -9   15.01    2.85
  -8  -4  -5   13.82    1.64
  -6  -6  -4  784.19    7.04
  -5  -7  -8  108.53    3.55
  -8  -5  -7   -1.45    2.07
  -7  -6  -6   -1.20    2.41
  -7  -5  -4   58.83    2.89
  -5  -5  -2    5.46    2.61
  -4  -6  -4   86.73    3.41
  -7  -6 -10    0.43    1.57
  -7  -4  -3   86.77    2.75
  -5  -6  -4   37.37    2.33
  -3  -6  -7   10.51    2.34
  -8  -4  -6   27.62    1.90
  -7  -6  -7    0.29    2.30
  -6  -6  -5   40.32    3.17
  -6  -5  -3 1326.35    8.00
  -7  -6  -9    1.15    1.99
  -7  -6  -8   -1.13    2.28
  -6  -6 -11    6.24    1.66
  -4  -6  -5   15.86    2.59
  -6  -4  -2   26.86    2.33
  -5  -6  -5   79.95    3.38
  -8  -4  -7   17.82    2.29
  -7  -5  -5   21.49    2.12
  -6  -6  -6   43.99    3.37
  -8  -4  -8   27.53    2.27
  -8  -3  -6   30.51    2.31
  -6  -6 -10   23.60    2.64
  -5  -5  -3    5.51    2.59
  -4  -6  -9   99.95    3.20
  -4  -6  -6   22.86    3.07
  -7  -4  -4   75.09    2.84
  -6  -6  -7   59.42    3.41
  -6  -5 -12    8.30    1.20
  -5  -6 -10  116.64    3.40
  -5  -6  -6  166.85    4.34
  -4  -6  -8   20.46    2.96
  -4  -6  -7   85.72    3.34
  -7  -5  -6   10.92    2.74
  -6  -6  -8   17.10    2.69
  -8  -3  -7    6.45    2.30
  -5  -6  -9   84.15    3.78
  -5  -6  -8   24.74    3.04
  -5  -6  -7  317.68    5.07
  -7  -5 -10    1.57    1.87
  -7  -5  -7   23.33    2.52
  -7  -5  -9    4.72    2.20
  -7  -5  -8   51.90    2.99
  -6  -5  -5    8.35    3.29
  -6  -4  -3    3.71    2.38
  -5  -5  -4   23.26    2.90
  -7  -4  -5  105.17    3.34
  -6  -3  -2   13.30    2.40
  -7  -4 -11    8.48    1.41
  -6  -5 -11    7.24    1.98
  -7  -3  -4   -0.28    2.04
  -6  -5  -6   99.47    3.11
  -6  -4 -12    1.63    1.33
  -5  -5 -11   50.16    2.47
  -5  -5  -5  120.55    3.82
  -6  -4  -4    7.74    3.02
  -7  -4 -10   10.56    1.83
  -6  -5  -9  127.90    3.87
  -6  -5  -8   61.10    3.42
  -6  -5  -7  122.06    3.48
  -7  -4  -9    2.78    2.62
  -7  -4  -7   64.74    2.68
  -7  -3 -11    6.02    1.53
  -5  -5 -10   65.07    3.43
  -5  -5  -6   83.15    3.73
  -5  -4 -12  161.52    3.04
  -7  -4  -8   24.80    2.07
  -7  -3  -5   -0.19    2.46
  -7  -2  -4   70.87    2.76
  -6  -3  -3    3.42    2.37
  -4  -5  -9    9.63    2.74
  -5  -5  -9   44.15    3.26
  -5  -5  -7  130.75    4.00
  -4  -5  -8    7.00    2.70
  -4  -5  -7   42.27    2.27
  -6  -4 -11    4.93    1.95
  -7  -3 -10   42.77    2.31
  -7  -3  -6    2.29    2.49
  -6  -3 -12    5.23    1.32
  -6  -4  -6   99.56    3.97
  -7  -3  -9    9.73    2.50
  -7  -3  -8   12.73    2.76
  -7  -2  -5   57.93    2.92
  -6  -4 -10    6.40    3.09
  -5  -4 -11  129.37    3.47
  -7  -2 -10    1.46    1.77
  -6  -4  -7   92.80    3.97
  -6  -3  -4    3.93    2.05
  -6  -4  -9   14.01    2.44
  -6  -4  -8   13.00    3.41
  -6  -2 -12    6.40    1.21
  -5  -4  -5   15.85    2.22
  -7  -2  -6   35.16    3.05
  -6  -2  -3  319.44    4.23
  -5  -3 -12   58.00    2.18
  -7  -2  -9   12.76    2.48
  -7  -2  -7   55.53    3.34
  -5  -4 -10    0.58    2.87
  -5  -4  -6   72.12    3.25
  -4  -4 -10   30.94    2.79
  -7  -2  -8    3.27    2.88
  -6  -3  -5   56.82    2.79
  -7  -1  -9   11.16    2.63
  -7  -1  -6  139.56    3.85
  -5  -4  -9   23.47    3.32
  -5  -4  -8   46.37    3.48
  -5  -4  -7   37.83    3.26
  -7  -1  -7  222.11    4.80
  -7   0  -8   -1.34    2.96
  -7   0  -6  154.64    3.92
  -6  -3 -10   18.22    2.90
  -6  -3  -6    6.42    3.11
  -4  -4  -9   37.18    3.37
  -7   0  -7  112.11    4.33
  -6  -2 -11   22.86    2.12
  -6  -2  -4  238.43    4.11
  -5  -3 -11  105.31    3.26
  -4  -4  -8  188.00    4.17
  -6  -3  -9   10.16    3.35
  -6  -3  -8   -2.93    3.39
  -6  -3  -7  188.99    4.46
  -5  -2 -12   35.83    2.09
  -4  -3 -11  180.00    3.72
  -6  -1 -11   27.35    1.72
  -6  -2 -10   54.66    2.75
  -6  -2  -5  251.41    4.42
  -5  -3 -10   78.62    3.37
  -5  -1 -12   13.71    1.56
  -6  -2  -9   58.30    3.48
  -6  -1  -4    3.15    2.38
  -5  -3  -6   94.52    3.46
  -6  -2  -8   89.48    4.01
  -6  -2  -7   39.77    3.60
  -6  -1 -10   32.14    2.44
  -5  -3  -8  289.19    5.19
  -5  -3  -7    8.06    3.12
  -5  -2 -11   36.09    2.82
  -4  -3 -10  172.33    3.81
  -6   0 -10    4.36    1.63
  -6  -1  -5   16.84    2.83
  -4  -3  -9   58.64    3.04
  -4  -1 -12   32.15    2.11
  -6  -1  -9   78.03    3.26
  -6   0  -4    7.86    2.39
  -4  -2 -11   36.23    2.43
  -6  -1  -6   46.40    3.24
  -6   1  -9   71.85    2.40
  -6   2  -8    3.42    1.85
  -5  -1 -11  109.39    2.83
  -4  -3  -8  114.08    3.32
  -6  -1  -8  189.19    4.47
  -6  -1  -7   37.01    3.42
  -6   0  -9    3.75    2.28
  -4   0 -12   88.25    2.06
  -4   6   0    3.06    1.81
  -2   8   2   40.59    1.80
  -5   3  -2   28.64    2.45
  -3   4  -3   49.40    2.77
  -3   6  -1   53.14    2.61
  -2   7   0   39.09    2.22
  -5   4  -1  102.84    2.85
  -3   5  -2    6.05    2.28
  -3   7   1    4.31    1.90
  -1   7   0   78.40    2.57
  -1   8   2   47.54    2.38
  -4   5  -1    4.18    2.18
  -4   4  -2   52.98    2.68
  -2   5  -2   47.86    2.64
  -1   6  -1   26.95    1.89
  -5   2  -2   24.10    1.60
  -4   6   1   18.79    1.95
  -2   8   3   78.36    2.05
  -5   3  -1   30.36    2.42
  -5   4   0  156.70    2.96
  -5   5   2    0.53    1.34
  -3   6   0   88.96    2.69
  -3   7   2    1.20    1.66
  -2   7   1   34.50    2.22
  -1   8   3   14.43    1.73
  -5   5   3   20.27    1.58
  -4   5   0   77.14    2.64
  -4   6   2   15.21    1.94
  -3   4  -2   13.76    1.65
  -3   5  -1   16.42    2.32
  -2   8   4   10.64    1.52
  -1   7   1   67.86    2.28
  -4   4  -1  312.77    3.95
  -5   2  -1   18.38    1.91
  -5   4   1   31.43    2.25
  -5   5   4   18.48    1.75
  -3   7   3    7.17    1.58
  -5   3   0   41.68    2.40
  -2   5  -1   60.11    2.33
  -2   8   5    7.82    1.39
  -1   6   0   42.76    1.92
  -4   6   3   30.72    1.83
  -3   6   1   74.51    2.78
  -2   7   2   53.17    2.51
  -4   5   1  191.48    3.39
  -2   8   6    6.47    1.15
  -1   8   4   45.03    2.23
  -5   4   2   20.40    2.22
  -3   7   4    3.88    1.72
  -1   7   2   32.06    2.20
  -5   2   0    4.08    1.97
  -4   3  -1  330.12    3.80
  -4   4   0    6.40    2.35
  -4   6   4   55.81    1.75
  -3   4  -1    0.48    2.04
  -3   5   0   21.28    1.91
  -5   3   1   21.61    2.33
  -4   6   5   95.75    2.27
  -3   7   5    1.18    1.50
  -5   4   3   32.77    2.27
  -4   6   6   15.87    1.81
  -3   6   2  225.58    3.81
  -1   8   5   41.58    2.07
  -5   4   6   85.24    2.38
  -4   5   2    0.83    2.23
  -3   7   6   52.21    1.88
  -3   7   7    1.42    1.39
  -2   5   0   95.72    2.68
  -1   6   1   55.45    2.44
  -5   4   4   35.68    2.20
  -5   4   5    2.15    2.07
  -5   2   1   19.83    2.73
  -5   3   2   65.99    2.75
  -1   8   6   23.39    1.89
  -4   3   0   94.29    2.71
  -4   5   3   -0.41    2.32
  -3   5   1   49.04    2.48
  -3   6   3  126.30    3.37
  -1   7   3   66.93    2.57
  -3   4   0   11.99    2.20
  -1   8   7   53.65    2.21
  -5   3   3  129.06    3.34
  -2   6   2    9.89    1.96
  -1   8   8   61.26    2.11
  -4   5   4   16.08    2.40
  -5   2   2    2.52    2.33
  -4   5   8    1.45    1.71
  -3   6   4   76.47    3.18
  -5   3   4  146.23    3.72
  -5   3   6    2.16    1.43
  -3   5   2   90.75    3.50
  -2   5   1  435.19    4.12
  -1   6   2   27.12    1.89
  -1   7   4  165.15    3.53
   0   8   7   27.12    2.19
  -5   3   5    3.67    2.18
  -4   3   1    6.94    2.19
  -4   5   5   19.12    1.83
   0   7   4   38.13    2.68
  -3   4   1   34.02    2.46
  -3   6   5   63.15    2.96
  -2   6   3    3.18    2.57
  -2   7   6   31.54    2.36
  -3   6   9   59.07    1.92
  -2   7   7   23.60    2.17
  -2   7   9    3.58    1.47
   0   8   8    0.35    1.42
   0   8   9   -0.53    1.43
  -3   6   6   67.97    2.69
  -2   7   8    2.61    1.67
  -3   5   3   26.36    2.67
  -3   6   7    5.23    1.91
  -3   6   8   29.92    1.77
  -1   7   5   68.35    2.37
  -6   1  -4    2.22    1.35
  -1   6  -1   15.73    1.55
  -6   4  -1   44.95    1.66
  -3   7   1    3.14    1.23
  -5   5  -1    7.56    1.27
  -3   6  -1   49.74    2.08
  -4   3  -4  921.80    5.69
  -4   5  -2   13.01    1.85
  -2   6  -1    3.26    1.76
  -6   2  -3   82.93    2.15
  -6   3  -2   14.35    1.51
  -5   2  -4    3.72    2.06
  -4   4  -3    3.61    2.02
  -4   6   0    3.14    1.35
  -3   3  -4    4.68    1.28
  -2   7   1   21.03    1.61
  -6   4   0   98.72    2.18
  -5   4  -2  129.08    2.68
  -2   5  -2   45.73    2.34
  -5   3  -3   42.13    2.28
  -3   4  -3   44.32    2.47
  -3   5  -2    4.91    1.62
  -3   7   2    2.90    1.33
  -6   1  -3   20.60    1.79
  -5   1  -4  107.78    2.62
  -5   5   0    2.75    1.49
  -6   3  -1  132.49    2.58
  -6   4   1   31.68    1.88
  -4   5  -1    2.11    2.01
  -3   6   0   86.45    2.41
  -2   7   2   42.90    2.01
  -6   2  -2   14.03    1.84
  -3   7   3    0.68    1.48
  -2   6   0   16.79    1.93
  -5   2  -3   12.39    2.16
  -5   4  -1  102.28    2.73
  -5   5   1    2.63    1.54
  -4   3  -3  258.04    3.25
  -4   4  -2   48.76    2.56
  -6   4   2   34.74    1.91
  -3   5  -1   19.03    2.28
  -5   3  -2   25.61    1.83
  -3   4  -2   16.75    2.15
  -3   7   4    4.28    1.29
  -2   5  -1   64.26    2.26
  -6   1  -2    1.05    2.16
  -6   3   0   55.11    2.18
  -6   4   3    8.62    1.47
  -3   6   1   81.62    2.37
  -2   7   3  101.96    2.43
  -6   2  -1   95.33    2.51
  -5   1  -3  117.63    2.61
  -5   5   2    2.31    1.53
  -4   5   0   70.70    2.57
  -3   7   5    0.85    1.09
  -3   7   6   42.40    1.40
  -2   6   1  360.37    3.89
  -5   4   0  143.87    2.81
  -6   3   1    1.22    1.73
  -5   2  -2   26.88    2.36
  -5   5   3   20.35    1.57
  -4   3  -2  178.91    3.17
  -4   4  -1  306.25    3.62
  -5   3  -1   29.66    2.37
  -3   6   2  227.82    3.27
  -2   7   4   24.49    1.73
  -6   1  -1    4.23    1.96
  -6   2   0  123.99    2.74
  -5   5   4   26.14    1.42
  -4   5   1  199.02    3.30
  -2   5   0   96.37    2.39
  -6   3   2   17.49    1.78
  -5   4   1   33.17    2.31
  -5   5   5    2.04    1.45
  -3   4  -1    0.26    1.99
  -5   1  -2  136.06    2.72
  -4   6   6   19.14    1.13
  -2   6   2    9.21    2.10
  -2   7   5   12.09    1.54
  -6   3   3    6.24    1.53
  -5   3   0   47.89    2.63
  -4   4   0    7.46    1.86
  -4   5   2    0.70    2.00
  -3   6   3  122.59    2.70
  -6   1   0  113.07    2.96
  -6   2   1   11.91    2.13
  -6   3   4    2.38    1.79
  -6   3   5    1.74    1.45
  -5   2  -1   16.23    2.41
  -5   4   2   19.37    2.27
  -4   3  -1  323.20    3.84
  -2   5   1  426.83    4.20
  -6   2   2   18.06    2.39
  -5   4   3   35.52    2.30
  -4   5   3    0.02    2.04
  -3   4   0   12.44    2.03
  -3   6   4   77.29    2.45
  -2   6   3    4.49    2.21
  -5   3   1   24.76    2.65
  -4   4   1   55.30    2.87
  -6   1   1   70.30    2.89
  -5   1  -1  134.48    2.76
  -3   4  -9    1.57    1.42
  -2   4  -9   18.57    1.93
  -1   5  -8    3.79    1.61
  -4  -1  -8   31.64    2.67
  -4   3  -9   29.50    1.81
  -3   0  -9    5.90    2.67
  -5   3  -8   52.45    1.99
  -3   5  -8   13.50    1.30
  -2   1  -9  121.73    3.26
  -1   6  -7    2.56    1.16
  -5   0  -8   14.33    1.99
  -2   5  -8   75.86    2.04
  -4   1  -9   14.32    2.01
  -4   2  -9    2.94    1.93
  -3   1  -9   16.50    2.66
  -3   3  -9   17.55    2.22
  -2   2  -9  125.86    3.24
  -2   6  -7    1.72    0.99
  -5   1  -8  126.72    2.90
  -5   2  -8   14.69    2.10
  -4   4  -8   31.83    1.60
  -3   2  -9   10.03    2.48
  -1   4  -8   89.84    2.57
  -4   5  -7    1.16    1.14
  -1   2  -8  178.36    3.45
  -4   0  -8   49.39    2.85
  -3   0  -8   69.65    2.68
  -1   3  -8   13.43    2.26
  -5   0  -7   50.48    2.42
   0   3  -7   68.81    2.16
  -4   3  -8   66.23    2.44
  -3   4  -8    3.02    1.87
  -2   1  -8  173.73    3.36
  -5   3  -7    8.46    1.55
  -1   5  -7    0.61    2.37
  -5   1  -7  123.56    2.90
  -4   2  -8    1.86    2.62
  -3   1  -8   33.46    2.63
  -2   2  -8  112.80    3.14
  -5   2  -7   50.24    2.25
  -5   4  -6   14.77    1.61
  -4   0  -7   69.15    2.69
  -3   3  -8  169.54    3.69
  -3   5  -7   58.41    2.08
  -3   6  -6   48.67    1.64
  -4   4  -7   83.13    2.41
  -3   2  -8  101.57    3.43
  -2   5  -7   88.39    2.51
  -2   7  -5   -0.33    0.97
  -1   6  -6   38.21    1.90
  -1   7  -5    6.40    1.14
  -4   5  -6    2.73    1.26
  -2   6  -6    3.90    1.46
  -1   4  -7    9.48    1.75
  -5   3  -6    3.82    2.04
  -4   1  -7   15.48    2.80
  -1   3  -7    2.80    2.00
   0   4  -6   35.23    2.26
  -5   1  -6  101.95    2.87
  -5   5  -4   35.96    1.60
  -4   3  -7   85.39    2.75
  -3   4  -7   23.60    2.45
  -5   2  -6  104.61    2.83
  -5   4  -5   31.24    1.82
  -4   2  -7    0.80    2.67
  -3   1  -7   55.43    2.58
  -2   2  -7  122.67    3.03
  -3   2  -7  167.75    3.60
  -3   3  -7  120.10    3.57
  -3   5  -6  211.34    3.49
  -2   3  -7    8.93    1.94
  -1   5  -6   40.68    2.63
  -4   4  -6   28.69    2.13
  -3   6  -5   15.29    1.58
  -5   1  -5   73.13    2.65
  -5   3  -5    4.61    1.93
  -4   5  -5    2.38    1.49
  -5   5  -3   18.88    1.77
  -4   1  -6  159.99    2.84
  -2   7  -4   -1.01    1.35
  -1   4  -6   22.97    2.45
  -1   6  -5    5.81    1.98
  -5   2  -5  223.55    3.58
  -5   4  -4   89.07    2.47
  -4   3  -6   44.21    2.81
  -1   7  -4   62.51    2.35
   0   5  -5    1.06    1.76
  -3   4  -6   11.93    2.57
  -3   7  -3   -0.74    1.28
  -2   4  -6   67.22    2.99
  -2   8  -2   55.57    1.75
  -4   4  -5    7.74    2.19
  -4   6  -3   39.81    1.79
  -3   2  -6  160.02    3.34
  -3   3  -6  205.94    3.80
  -2   3  -6   11.02    2.37
  -5   3  -4   13.60    2.15
  -5   5  -2   29.16    1.61
  -3   5  -5   89.38    2.95
  -3   6  -4   12.01    1.73
   0   6  -4   84.11    2.69
  -5   2  -4    1.75    1.96
  -4   5  -4    1.76    1.77
  -1   5  -5   26.75    2.46
  -5   4  -3  107.53    2.62
  -2   5  -5  254.27    4.14
  -1   8  -2   14.16    1.49
  -6  -6   2    3.27    2.17
  -5  -7   3    7.11    1.79
  -4  -2   4    4.25    1.91
  -3  -8   3    8.53    1.75
  -2  -7   4   -0.44    2.12
  -6  -5   2   19.90    2.26
  -5  -8   2   -1.11    1.48
  -5  -3   3  174.48    3.56
  -3  -7   4   54.77    2.54
  -1  -5   5   58.69    2.62
  -4  -6   4   23.00    2.75
  -3  -5   5    6.73    2.60
  -5  -6   3   47.46    2.59
  -4  -9   1   50.80    1.75
  -4  -3   4   75.94    2.96
  -3  -4   5    6.20    2.68
  -3  -3   5   22.59    2.06
  -2  -5   5  310.10    4.66
  -6  -7   1   37.13    1.94
  -5  -4   3   50.60    2.66
  -3  -9   1  106.88    2.36
  -5  -5   3    8.34    2.52
  -4  -5   4    1.41    2.45
  -5  -9   0    2.66    1.59
  -4  -8   2   10.45    2.13
  -4  -7   3  109.45    2.94
  -4  -4   4   21.66    2.16
  -3  -6   4   29.33    3.19
  -2  -4   5   15.17    2.38
  -6  -6   1    6.72    2.27
  -6  -5   1   11.04    2.09
  -5  -7   2   16.99    2.25
  -2  -6   4   29.30    2.97
  -5  -8   1    7.70    2.01
  -3  -8   2  184.27    3.56
  -2  -7   3    6.69    2.31
  -3  -7   3   15.36    2.72
  -4  -6   3   53.64    3.48
  -3  -5   4   68.42    3.39
  -1  -5   4  246.70    4.26
  -6  -7   0   51.48    2.61
  -5  -6   2    2.92    2.68
  -5  -4   2    6.45    2.97
  -3  -4   4   20.34    2.71
  -5  -5   2   36.41    2.94
  -2  -5   4  146.45    4.14
  -6  -5   0   44.58    3.01
  -4  -7   2  282.78    5.40
  -4  -5   3    0.32    3.16
  -3  -9   0   22.04    2.05
  -6  -6   0    2.94    2.65
  -5  -9  -1   22.27    2.02
  -5  -7   1    7.64    2.75
  -4  -8   1    9.55    2.75
  -3  -6   3    0.79    3.41
  -2  -8   1  655.07    6.47
  -5  -8   0    5.70    2.44
  -2  -6   3   56.19    2.97
  -6  -9  -3   25.54    2.32
  -3  -8   1    6.18    2.62
  -2  -7   2  171.26    3.98
  -6  -7  -1    7.95    2.67
  -5  -4   1   16.82    2.72
  -4  -6   2   80.48    4.07
  -3  -5   3  136.41    4.20
  -5  -5   1   41.94    3.08
  -6  -1   6   18.85    1.73
  -4   2   5   35.56    2.87
  -6   0   5    2.47    1.49
  -4  -1   8   33.91    2.22
  -3   2   6   82.93    3.26
  -3   0   8   43.48    2.37
  -5  -1   7   83.15    2.76
  -5   1   5   27.98    2.33
  -4   2   4  160.37    3.43
  -7  -2   4    4.61    1.40
  -4   2   3   52.43    3.12
  -3   1   7  162.85    3.71
  -6  -3   6   11.24    1.17
  -6   0   4   -3.47    2.34
  -5  -3   7  113.53    2.22
  -5   0   6   36.58    2.60
  -4   1   6   59.98    3.48
  -7  -1   2   20.41    2.42
  -5  -2   7   19.41    1.80
  -5   1   4   45.00    3.39
  -4   0   7   87.19    2.95
  -6  -1   5   22.54    2.35
  -7  -3   4   20.35    1.69
  -7  -1   1   30.73    2.82
  -7  -2   3   32.89    2.29
  -7  -1   0   17.58    2.54
  -5   1   2   76.78    3.79
  -4   1   5   42.89    3.31
  -6   0   2   75.69    3.62
  -5   0   5   91.90    3.91
  -5   1   1  112.32    3.11
  -4  -1   7   44.16    2.90
  -3   0   7   26.53    2.74
  -6  -2   5   67.83    2.78
  -6   0   0    1.55    2.69
  -6   0   1   16.03    3.06
  -6  -1   4   39.46    3.20
  -8  -4   0   24.14    2.47
  -4  -2   7    2.54    2.22
  -4   1   4   11.30    2.49
  -7  -3   3    4.73    1.95
  -6  -4   5   -0.55    1.78
  -5  -2   6   20.15    2.35
  -5   0   4   27.41    3.33
  -3  -1   7   73.00    3.05
  -5  -4   6  517.54    4.78
  -8  -4  -1   62.67    3.06
  -7  -5   3   18.76    1.44
  -7  -2   1   15.44    2.90
  -6  -1   3   66.08    3.38
  -5  -3   6   27.35    2.32
  -8  -4  -2   17.68    2.27
  -7  -4   3    7.61    1.47
  -6  -2   4  103.47    3.42
  -5  -1   5    2.25    2.27
  -4   0   5   16.84    2.99
  -7  -2   0    2.25    2.61
  -5   0   3   42.19    2.81
  -4  -1   6   65.72    3.25
  -7  -3   2   25.08    2.20
  -8  -5  -1   12.97    1.88
  -2  -3  -4   10.12    1.49
  -1  -5  -7  485.04    5.80
  -1  -2  -4   18.88    1.55
   0  -3  -6 1234.21    6.69
   2  -2  -5  329.85    3.94
   0  -2  -5 1042.53    5.04
   2   0  -2    5.42    0.79
  -2  -6  -7   24.75    2.97
   0  -4  -7  107.80    3.13
   1  -4  -7   44.35    2.87
   2  -3  -6   -0.52    2.16
   1  -1  -4 2120.96    5.96
   2  -1  -4 1451.36    5.39
  -3  -5  -5   49.16    2.20
  -1  -4  -7  153.38    3.54
  -1  -3  -6 2650.95    9.02
   1   0  -2  475.58    2.04
  -2  -5  -7  165.47    3.44
  -2  -2  -2 9477.64    8.91
  -1  -5  -8  485.75    5.85
  -1  -1  -2    5.36    0.55
  -3  -4  -4  962.41    5.07
   0  -1  -4   21.43    1.46
   1  -3  -7   78.12    2.94
   1  -2  -6   40.44    2.25
  -1  -2  -5  100.12    2.34
   0  -3  -7  329.70    3.84
   0  -4  -8  178.77    4.10
   0  -2  -6  214.15    2.87
  -3  -5  -6   32.25    2.27
   2  -2  -6  153.07    2.90
  -3  -6  -7    3.28    2.37
  -2  -2  -3 2544.29    5.62
  -3  -4  -5  418.74    3.67
  -1  -4  -8   18.38    1.89
  -1  -3  -7  248.01    3.60
   1  -1  -5   30.43    1.56
  -1  -1  -3   67.53    1.39
   2  -1  -5  104.07    2.38
   2   0  -3  119.66    1.51
  -3  -5  -7  156.41    3.26
  -1  -2  -6  205.93    2.51
   0  -1  -5    6.73    1.60
   1  -3  -8    4.49    2.36
   1  -2  -7    7.10    2.20
   1   0  -3  557.38    2.60
  -3  -4  -6   14.22    1.98
   0  -2  -7   12.92    2.02
   0   0  -1  234.55    1.02
  -2  -4  -8   53.75    2.15
  -1  -3  -8  107.84    3.04
  -1  -1  -4    4.60    1.30
  -2  -3  -7    0.10    2.06
  -3  -5  -8  250.95    4.10
  -3  -3  -3  153.81    1.68
   0   0  -2  294.84    1.63
   1  -1  -6  144.88    2.55
  -3  -4  -7   86.99    2.72
  -3  -3  -4   69.63    1.67
  -1  -2  -7  110.73    2.71
   0  -1  -6  127.94    2.37
  -2  -4  -9   17.43    2.66
   1   0  -4  811.91    3.56
   2   0  -4  614.74    3.16
  -3  -3  -5  140.00    2.35
  -1  -1  -5   68.88    1.57
   0   0  -3  611.17    2.74
   1  -2  -8    6.35    2.48
  -2  -3  -8   18.52    2.55
  -2  -2  -6  664.79    4.23
  -1  -3  -9  182.72    3.66
  -3  -4  -8   64.29    2.66
  -3  -3  -6    8.44    1.70
  -1  -2  -8  273.22    4.07
   1  -1  -7  547.59    4.33
  -1  -1  -6  495.70    3.50
   0   0  -4   10.16    0.96
   1   0  -5  158.60    2.15
  -2  -2  -7   49.33    2.09
  -3  -3  -7    7.36    2.00
  -2  -3  -9   27.49    1.97
   0  -2  -9   46.80    2.54
   2   0  -5   15.58    1.49
   0   0  -5   91.77    1.87
  -1  -2  -9  662.73    5.66
  -1  -1  -7   60.57    2.42
  -3  -3  -8   50.25    2.34
  -2  -2  -8  102.21    2.75
   0  -1  -8  139.39    3.07
   1  -1  -8  314.96    4.05
  -2  -1  -5  481.04    3.28
  -2  -1  -3  304.64    1.94
   1   0  -6  189.72    2.43
  -3  -2  -5   82.79    1.91
  -3  -2  -4  561.56    3.29
  -3  -3  -9    7.26    2.00
  -3  -2  -6   77.27    2.09
  -2  -1  -6  660.89    4.26
  -1  -1  -8   36.12    2.29
  -1   0  -4  246.64    2.31
  -1   0  -3   14.59    1.22
  -2  -2  -9  127.31    3.01
  -2  -1  -2  852.03    2.45
  -1   0  -5  424.47    3.19
  -3  -2  -7   41.42    2.24
  -2  -1  -7  298.47    3.46
   0  -1  -9  151.18    3.26
   1   0  -7  222.88    3.07
  -3  -2  -3  488.64    2.30
  -1   0  -2  268.29    1.62
   0   0  -7  139.18    2.68
  -1  -1  -9  840.48    6.09
  -1   0  -6    5.30    1.69
  -3  -2  -8    1.44    2.03
  -2  -1  -8  331.89    3.91
   1   1  -3  183.31    1.63
  -1   0  -7   70.65    2.37
   1   1  -4  235.08    2.10
  -3  -2  -9    2.18    2.17
   0   0  -8  119.71    2.65
   1   0  -8   94.99    2.54
   1   1  -2    5.89    0.65
   2   1  -3   48.49    0.95
  -4  -3  -8  113.85    2.82
   1   1  -5   45.77    1.54
  -2  -1  -9  179.56    3.39
   0   1  -4 1268.82    4.55
  -1   0  -8  198.17    3.42
   0   1  -3 1741.32    4.71
   2   1  -2   22.53    0.57
  -3  -1  -6 1853.80    7.00
  -2   0  -5  632.94    3.87
  -3  -1  -7  299.30    3.57
  -3  -1  -5  125.34    2.18
  -2   0  -6  116.64    2.37
  -2   0  -4  647.68    3.49
   1   1  -6   15.43    1.62
   0   1  -6  230.98    2.88
  -3  -1  -4  383.89    2.62
  -2   0  -7   13.71    2.14
  -1   0  -9  246.90    3.51
  -1   0  -1  471.55    1.47
   0   1  -2   11.04    0.68
  -4  -2  -7   69.42    2.35
  -2   0  -8   32.67    2.36
   0   1  -7  154.08    2.79
   1   1  -7    0.43    1.74
  -4  -2  -8   -0.34    2.17
  -4  -2  -6  363.97    3.44
  -1   1  -5   58.60    1.55
  -1   1  -4 1899.02    5.92
  -1   1  -6   48.80    1.80
  -1   1  -7  386.49    3.67
  -1   1  -3  230.77    2.14
   0   1  -8   46.33    2.42
   1   1  -1    7.01    0.44
  -3  -1  -3  523.32    2.45
  -2  -1  -1 4239.99    3.28
  -1   1  -8  237.39    3.27
  -3   0  -6   84.37    2.40
  -3   0  -5  779.68    4.43
  -2   0  -2   23.99    0.86
  -2   1  -6  584.01    4.61
  -4  -1  -7   12.61    2.05
  -2   1  -7  594.86    4.89
  -2   1  -5  704.62    4.27
  -1   1  -2  226.22    1.80
   1   2  -5  395.43    3.10
   1   2  -4    7.38    1.22
   0   1  -1   65.82    0.80
   0   2  -6   11.18    1.98
   0   2  -5    8.37    1.37
  -4  -1  -6   68.11    2.28
  -3   0  -4  310.51    2.63
  -2   1  -8  177.23    3.35
  -2   1  -4   50.36    1.42
   1   2  -6  238.06    2.81
   1   2  -3  957.06    3.61
   0   2  -7    3.23    1.42
   0   2  -3  282.39    2.38
  -4  -1  -5   93.52    1.86
  -1   2  -6   40.88    2.19
  -1   2  -5   77.10    2.32
  -2   1  -3    7.13    1.25
  -1   2  -7  272.03    3.70
  -1   2  -4  144.84    2.41
   1   2  -2 1463.95    3.73
  -3   0  -3  292.14    2.15
  -1   2  -3    0.97    1.52
   0   2  -2  148.31    1.50
  -4   0  -7   53.92    2.10
  -3  -1  -2  285.27    1.36
  -3   1  -5   13.05    1.96
  -2   2  -6   99.87    2.77
  -4   0  -6  107.55    2.51
  -2   2  -7  116.74    3.06
  -2   2  -5  304.52    3.65
  -1   1  -1  382.62    1.82
  -3   1  -4    5.71    1.57
  -2   2  -4  373.83    3.37
  -4   0  -5  112.32    2.30
   0   3  -6   11.82    2.07
   0   3  -5  106.84    2.29
   1   3  -5  625.76    4.11
  -1   2  -2   98.11    1.42
   0   3  -4  437.19    3.71
   1   3  -4  893.74    4.47
  -2   0  -1   16.07    0.55
  -1   3  -6   17.32    1.85
  -1   3  -5    9.71    2.13
  -2   2  -3  531.73    3.35
  -1   3  -4   25.18    2.10
   1   3  -3    9.89    1.31
   2   2  -2  204.91    1.24
  -3   1  -3    4.81    1.30
   0   2  -1  367.50    1.90
  -4   0  -4   17.01    1.37
  -3   0  -2  143.86    1.41
   1   2  -1  960.38    2.59
  -4   1  -6  169.24    3.25
  -3   2  -5  246.34    3.19
  -1   3  -3   17.59    1.80
   0   3  -2 2183.17    6.00
  -4   1  -5  138.63    2.62
  -2   3  -5   21.28    1.89
   1   3  -2  771.19    3.35
  -3   2  -4  224.28    2.83
  -2   2  -2   78.77    1.67
  -1   2  -1  418.19    2.41
  -2   1  -1  112.77    1.29
  -2   3  -4   26.35    1.78
  -1   3  -2   34.92    1.69
   0   4  -5   66.04    2.65
   0   4  -4    7.10    2.09
  -4   1  -4  168.39    2.53
  -3   1  -2    7.65    1.11
  -3   2  -3  274.13    2.98
  -2   3  -3   26.92    1.91
  -1   4  -5   35.57    2.69
   0   1   0    8.16    0.42
   1   4  -4   68.27    2.11
   0   4  -3  116.47    2.56
  -1   4  -4  204.13    3.11
   0   3  -1 1930.62    5.24
  -2  -4   2  854.76    6.40
  -1  -6   0  148.11    3.81
   0  -2  -2 1316.05    3.48
  -2  -3   2  235.31    3.22
   1  -4  -3  550.33    3.93
  -2  -4   1  110.61    2.95
   1  -3  -3  770.25    3.77
  -2  -5   2   13.88    2.43
  -1  -6  -1  120.16    3.51
   1  -1  -2  315.10    1.27
  -2  -5   1    6.54    2.21
  -2  -3   1 1233.02    5.49
  -1  -5  -2   15.92    2.32
  -1  -4  -2   66.17    1.75
  -1  -2  -1  796.24    3.01
   0  -4  -3   11.18    1.72
   1  -5  -3   25.21    2.22
  -2  -4   0  249.10    3.37
   0  -5  -3   12.07    2.29
  -2  -5   0  152.30    3.42
  -2  -6   1    0.87    2.63
  -1  -6  -2  225.77    4.14
  -1  -3  -2   13.35    1.37
   0  -3  -3  268.36    2.37
  -2  -6   0    5.05    2.27
  -2  -5  -1  323.53    4.00
  -2  -3   0  282.54    2.68
   0  -6  -3  274.03    4.32
  -2  -4  -1  173.76    2.75
  -2  -2   2  198.73    1.78
  -2  -6  -1   68.04    3.24
  -1  -5  -3    6.86    2.15
  -1  -1   0    2.03    0.53
   1  -2  -3  295.80    1.95
  -1  -6  -3  179.18    4.01
  -1  -4  -3  107.64    2.36
  -2  -5  -2 1144.53    6.50
   0  -5  -4   78.73    2.59
   1  -4  -4  145.43    2.40
  -2  -6  -2   75.96    2.60
  -2  -2   1  273.17    2.00
  -2  -4  -2  135.56    2.54
  -2  -3  -1   63.24    1.39
   0  -6  -4  112.72    3.27
   0  -4  -4   12.32    1.18
  -1  -3  -3  101.88    1.90
  -1  -2  -2  189.25    1.83
  -2  -6  -3  864.51    6.69
  -2  -5  -3  292.41    3.90
   0  -2  -3   60.79    1.16
   1  -3  -4  335.69    2.63
  -3  -6   0    4.92    3.42
  -3  -5   0  312.73    5.89
  -1  -4  -4    4.67    1.67
  -3  -6  -1   30.43    3.77
  -2  -2   0   22.91    1.14
   0  -3  -4  134.40    1.96
  -3  -5  -1  180.32    4.10
  -3  -4   1   81.15    3.05
  -2  -4  -3    1.08    1.85
  -2  -3  -2   38.18    1.70
  -3  -4   0  484.78    4.77
  -2  -6  -4  489.16    5.43
   0  -6  -5    6.01    2.73
   0  -5  -5   -1.15    2.08
  -3  -6  -2   39.82    3.48
   0  -1  -2  215.15    1.24
  -3  -5  -2  149.73    3.60
  -2  -5  -4  839.30    5.85
  -1  -6  -5  341.10    4.80
  -3  -4  -1  547.75    4.75
  -1  -5  -5  368.42    4.27
   0  -4  -5   82.91    2.17
  -3  -6  -3    2.43    2.03
  -2  -4  -4  309.07    3.37
  -1  -3  -4   72.29    1.52
  -1  -1  -1    1.60    0.68
  -3  -5  -3  212.12    3.46
  -3  -4  -2  735.81    5.33
  -2  -6  -5  116.70    3.06
  -2  -3  -3   13.60    1.59
  -3  -3   1    9.20    1.52
  -1  -4  -5    4.65    1.36
  -1  -2  -3   11.82    1.28
  -3  -6  -4    2.76    2.71
  -3  -3   0    0.56    1.47
  -2  -5  -5  113.06    2.92
  -1  -6  -6  415.69    5.49
  -3  -5  -4   89.43    3.14
  -3  -4  -3 1037.55    6.04
  -1  -5  -6  744.92    5.88
  -3  -3  -1   22.33    1.74
   0  -3  -5  592.21    3.63
  -4  -6  -2  205.67    5.59
  -3  -6  -5   58.07    3.17
  -2  -2  -2 9456.75   11.73
   0  -2  -4  126.62    1.57
   1  -2  -4  389.00    2.19
  -2  -4  -5  127.33    2.30
  -4  -5  -1   50.87    3.62
  -2  -3  -4    7.87    1.26
  -4  -6  -3  229.23    5.46
  -3  -5  -5   48.20    2.91
  -3  -3  -2  192.43    2.86
  -1  -3  -5   24.66    1.77
   0  -4  -6  235.60    3.06
  -4  -5  -2  205.04    4.33
  -3  -4  -4  896.46    5.94
  -1  -4  -6    1.89    1.89
  -4  -6  -4   98.49    4.00
  -4  -5  -3   -2.31    2.91
  -3  -6  -6   18.45    2.70
  -2  -6  -7   30.86    3.33
  -1  -2  -4   18.50    1.35
  -1  -1  -2    8.92    1.01
  -3  -3  -3  208.63    2.91
  -2  -2  -3 2777.73    6.95
  -1  -5  -7  434.20    4.83
  -4  -4  -1  838.76    6.19
  -4  -5  -4   37.57    3.02
  -4  -4  -2 1877.49    8.85
  -3  -5  -6   36.31    2.32
  -3  -4  -5  433.85    4.68
  -2  -3  -5  287.88    3.22
  -2  -5  -7  158.15    3.40
   0  -1  -3   46.48    0.98
  -2  -1   1   18.49    0.70
  -4  -4  -3  945.48    6.70
  -4  -5  -5   14.85    2.87
  -3  -3  -4   66.12    1.92
  -3  -2   0   26.52    1.20
  -2  -1   0 1990.15    4.28
   0  -3  -6 1220.46    5.44
   1  -1  -3  529.47    1.54
  -3  -2  -1  305.01    2.72
  -1  -4  -7  161.17    3.08
  -1  -3  -6 2242.19    7.46
  -3  -5  -7  168.89    3.86
  -3  -4  -6   12.69    2.57
  -2  -2  -4  964.21    4.59
  -4  -4  -4   87.79    2.63
   0  -2  -5  924.44    3.87
  -3  -2  -2  348.51    3.08
  -2  -4  -7  655.82    5.47
  -1  -2  -5  105.33    2.04
  -4  -5  -6  101.53    2.87
  -2  -3  -6    0.96    2.23
  -1  -1  -3   71.57    1.50
  -3  -3  -5  141.64    2.51
  -2  -5  -8  208.53    4.01
  -4  -4  -5  184.40    3.83
  -4  -3  -2 1487.75    6.94
  -4  -3  -1  939.06    5.42
  -3  -2  -3  591.60    3.98
  -4  -3  -3  352.60    3.97
  -3  -4  -7   92.91    3.23
  -5  -5  -4   18.87    3.17
  -4  -5  -7   49.63    3.09
  -3  -5  -8  235.02    4.01
  -2  -2  -5 1826.89    6.67
  -2  -1  -2  805.61    3.39
  -4  -4  -6   15.54    2.04
  -3  -3  -6    4.08    2.46
  -1  -3  -7  261.68    3.25
  -4  -3  -4  398.67    4.07
  -3  -2  -4  576.93    4.30
  -2  -4  -8   52.99    2.53
  -2  -3  -7    0.86    1.58
  -2  -1  -3  373.16    2.85
  -1  -2  -6  212.50    2.59
  -1  -1  -4    3.02    1.23
   0  -1  -4   19.74    0.94
  -5  -4  -3    2.96    2.40
  -4  -3  -5  382.47    4.46
  -5  -4  -4   -2.22    2.73
  -4  -4  -7  164.37    3.66
  -3  -3  -7    0.14    2.29
  -3  -2  -5   89.40    2.58
  -2  -2  -6  666.55    4.47
   0  -2  -6  234.51    2.44
  -5  -4  -5   11.93    3.04
  -4  -3  -6   62.81    2.34
  -2  -1  -4    8.37    1.63
  -5  -4  -6   73.80    3.30
  -4  -2  -2   18.91    1.84
  -2  -4  -9   21.23    2.57
  -2  -3  -8   23.08    2.46
  -4  -2  -3   35.13    2.20
  -4  -2  -1  145.30    2.44
  -3  -2  -6   80.53    2.87
  -3  -1  -2  340.03    2.93
  -3  -1  -1  142.15    1.99
  -1  -1  -5   72.76    1.76
  -4  -2  -4  176.90    3.25
  -5  -3  -3   14.07    2.60
  -4  -3  -7  155.77    3.21
  -3  -1  -3  535.66    3.78
  -2  -2  -7   53.57    2.24
  -1  -2  -7  123.89    2.37
  -5  -3  -4   15.99    2.56
  -2  -1  -5  476.93    3.42
  -5  -3  -5   93.62    3.50
  -4  -2  -5    0.57    2.54
  -3  -1   0   15.36    0.94
  -1   0  -1  377.87    1.70
   0  -1  -5    5.79    1.03
  -3  -1  -4  402.30    3.68
  -3  -2  -7   43.87    2.11
  -1   0  -2  261.60    1.92
  -1   0   0  322.09    1.31
  -5  -3  -6  103.13    3.63
  -4  -3  -8  130.28    3.35
  -2  -3  -9   32.19    2.46
  -4  -2  -6  387.73    4.23
  -3  -3  -9    9.19    1.88
  -3  -1  -5  135.61    2.37
  -2  -1  -6  766.39    4.66
  -1  -1  -6  605.21    3.78
   0   0  -2  273.53    1.34
  -2  -2  -8  120.74    2.85
  -1   0  -3   16.78    1.29
  -4  -2  -7   84.42    3.05
  -2   0  -2   24.51    1.06
  -1  -2  -8  293.18    3.25
  -3  -1  -6 2236.44    8.61
  -2   0  -3  582.08    3.40
  -5  -2  -4   23.02    2.29
  -5  -2  -3   71.06    2.51
  -4  -1  -3  395.14    3.64
  -5  -2  -5   10.56    2.49
  -4  -1  -4    2.00    2.13
  -4  -1  -2  527.60    3.78
  -2  -1  -7  321.90    3.41
  -1   0  -4  224.20    1.92
   0   0  -3  541.17    2.12
  -2   0  -4  662.18    3.82
   0  -1  -6  115.91    1.55
  -5  -2  -6   19.43    2.40
  -4  -2  -8    0.29    1.62
  -4  -1  -5   89.08    2.94
  -1  -1  -7   66.55    1.92
  -3  -2  -9    2.78    2.20
  -3  -1  -7  327.22    3.77
  -2  -2  -9  135.05    2.81
  -2   0   0  229.33    1.51
  -4  -1  -1  526.81    3.11
  -4  -1  -6   58.69    2.14
  -3   0  -2  151.51    2.14
  -2   0  -5  565.57    3.49
  -3   0  -4  293.28    3.06
   0   0  -4   14.60    1.01
  -2  -1  -8  349.95    3.53
  -4  -1  -7   19.27    2.10
  -3   0  -5  735.17    4.65
  -3   0  -1  154.88    1.71
  -2   0  -6  111.96    2.15
   1   1   6  527.89    4.48
   2   2   8   96.81    3.20
  -1   4   6   83.17    3.46
  -1   5   6  235.26    4.67
   0   1   5    4.32    2.13
   0   4   8  148.87    3.67
   0   0   2  286.66    1.99
  -1   1   3  557.25    4.01
  -1   2   5  586.86    5.25
   0   2   7   10.84    2.86
   1   2   8  258.66    4.73
   1   3   9  181.17    4.72
   0   3   8  359.51    5.04
   1   0   4  245.19    2.32
  -1   4   7   37.42    3.36
   2   0   4  616.34    2.65
   2   1   7  285.72    3.47
  -1   1   4 2255.54    8.40
   0   0   3  638.79    3.48
   0   1   6  124.99    3.13
   1   1   7   60.01    2.79
  -2   3   3   26.58    2.96
  -1   2   6   38.07    2.51
  -1   3   7   78.59    3.83
   2   2   9  123.03    3.52
  -2   3   4   11.13    2.89
   0   0   4   16.10    1.79
   0   2   8   29.97    3.49
  -2   2   2  496.72    4.53
  -2   2   3 1363.20    7.30
  -1   1   5   27.89    2.58
   1   0   5  431.55    3.42
   1   2   9  702.81    7.31
  -2   4   5  121.51    3.83
  -2   2   1  256.81    2.70
  -2   2   4  921.29    6.43
  -2   3   5    1.04    2.96
  -1   2   7    7.22    3.06
  -1   3   8    0.73    3.19
  -2   4   6   86.62    4.15
  -1   1   6  126.35    3.57
   1   1   8   27.74    3.09
  -2   2   5  268.94    4.35
  -2   3   6   -3.66    3.22
  -1   0   2  351.96    2.80
  -1   0   3  529.71    4.04
   1   0   6    4.98    1.87
  -1   2   8    9.00    3.11
  -2   1   2 1924.61    7.42
  -1   0   4  791.85    5.28
   0   1   8  160.22    4.33
  -1   0   1  655.65    2.96
  -1   1   7  505.85    5.98
   0   0   6  140.31    3.25
  -2   1   1  296.56    2.64
  -2   1   5   91.97    3.19
  -1   0   5  203.78    3.68
   1   1   9  862.14    7.44
   1   0   7   53.44    2.50
  -1   1   8  289.20    5.30
   0   0   7  149.30    3.62
   0   1   9  165.45    4.86
  -2   1   6  273.87    4.23
  -1   0   6  168.10    3.23
  -2   0   3  108.55    3.04
  -2   0   4  508.97    5.11
  -2   1   7  139.10    4.02
  -3   2   4   82.20    4.17
  -2   0   2    7.73    2.00
  -1   0   7  225.49    4.82
   0   0   8  118.92    3.62
  -3   2   3  227.94    4.94
  -3   2   5   83.23    3.87
  -2   0   5   11.39    2.13
   0  -1   4 1360.83    5.81
  -2   0   6   80.70    3.71
   0  -1   5   55.52    2.26
  -3   1   3    0.32    2.65
  -3   1   4   22.37    3.23
  -2   1   0  125.44    1.31
  -1  -1   3  229.82    3.10
  -1  -1   4  237.51    3.32
  -3   1   5   24.26    3.22
  -1  -1   5   47.00    2.58
  -1   0   0  292.24    1.44
   0  -1   6  248.94    3.54
   0   0   9  160.36    4.34
  -3   1   2   -5.25    2.60
  -3   1   6  176.02    4.41
  -2   0   7   33.53    2.63
  -1  -1   2    5.89    1.83
   1  -1   5   63.98    2.05
   1  -1   4 1615.10    5.10
  -3   0   3  200.66    4.05
  -2  -1   3   55.79    2.81
  -2  -1   4  374.81    4.19
  -2  -1   5  348.11    4.98
   0  -1   7  150.42    3.69
  -1  -1   7    1.40    2.72
  -3   0   6    8.79    3.38
  -2  -1   2   23.66    2.15
  -3   0   2  245.81    3.54
  -3   1   1   38.86    1.60
  -2  -1   6  245.67    4.17
   1  -1   3  203.61    1.61
   0  -1   8   48.74    2.82
  -2  -1   7  177.72    4.62
  -1  -1   1    3.72    1.44
  -1  -1   8 1161.34    8.72
  -3  -1   4  523.14    5.94
  -2   0   0  213.52    1.79
  -3  -1   3    8.01    2.69
  -3  -1   5  637.15    6.78
  -3   0   1  180.78    2.60
  -2  -1   1   17.73    1.80
  -3  -1   6  196.51    4.73
  -1  -2   5  395.87    4.64
  -2  -2   4  646.55    5.89
  -2  -2   5  309.28    4.73
  -1  -2   6  261.83    4.30
  -4   0   4   -0.94    3.59
  -2  -2   3  329.08    4.18
  -4   0   3   14.43    3.13
   0  -2   4 1780.24    6.94
   0  -2   5   13.36    2.00
  -1  -2   7    2.17    2.84
   0  -2   6   11.10    2.26
   0  -1   1   69.35    0.98
  -3  -1   1  189.83    2.96
  -2  -2   2  229.61    3.28
  -4  -1   4  172.02    4.51
  -4   0   2   68.30    2.97
  -3  -2   4    7.92    3.19
  -3  -2   5   20.86    3.01
  -1  -2   2 1488.55    5.67
  -4  -1   3   37.31    3.50
  -3  -2   3   25.81    2.43
   0  -2   3  267.77    2.61
  -3  -2   2   92.67    3.01
  -3   0   0   98.47    1.68
  -2  -1   0 2063.01    5.48
  -4  -1   2   77.60    3.16
  -2  -2   1  271.15    2.77
  -1  -1   0    1.57    0.88
  -3  -2   1   76.82    2.42
  -2  -3   5   90.48    3.50
  -3  -1   0   16.92    1.55
  -2  -3   3   50.36    2.66
  -1  -2   1  960.33    4.20
  -4  -1   1  150.82    3.07
  -3  -3   4   24.56    3.14
  -2  -3   6   20.80    2.32
  -1  -3   4  886.35    6.15
  -1  -3   5  706.70    6.02
   0  -2   2  188.65    2.08
  -4  -2   2  185.72    3.59
  -3  -3   3   89.32    3.67
  -1  -3   6  386.37    4.99
  -2  -3   2  191.53    3.35
  -1  -3   3    8.71    1.95
  -3  -3   2   -0.66    2.75
  -4  -2   1   25.82    2.01
  -2  -2   0   24.82    1.30
  -4  -3   3  136.53    3.99
  -4  -3   2  374.79    5.58
  -4  -1   0  283.94    3.13
  -3  -3   1   10.37    2.36
  -2  -3   1 1115.92    5.83
  -1  -3   2  791.44    4.78
   0  -3   4  445.88    3.70
  -2   0  -1   15.84    0.55
  -4  -2   0   15.23    1.53
  -3  -4   3  387.11    5.62
  -2  -4   4    9.45    2.16
  -3  -1  -1  162.01    1.98
  -2  -4   3   40.39    3.15
  -1  -2   0  897.27    3.50
  -5  -2   1  126.36    3.52
  -3  -4   2   28.08    2.80
  -3  -3   0   -1.18    2.11
  -3   0  -1  170.69    1.52
   0  -3   3 1110.62    4.87
  -4  -4   2  110.12    3.96
  -2  -3   0  274.01    3.03
  -1  -4   4   59.17    2.95
   0  -2   1  441.26    2.19
  -3  -4   1   84.00    3.19
  -3  -2  -1  275.70    2.61
  -5  -3   1  109.96    3.82
  -1  -4   3    6.04    2.28
  -4  -4   1  193.50    4.28
  -2  -2  -1 6845.31    9.79
  -4  -2  -1  149.30    2.55
  -4  -1  -1  498.72    3.37
  -2  -4   1   88.30    2.20
   0  -3   2 2273.58    6.20
  -3  -4   0  469.05    4.84
  -3  -3  -1   22.24    1.89
  -1  -4   2    4.62    1.88
  -5  -3   0  260.05    4.32
  -4  -4   0  466.17    5.32
  -4  -3  -1 1072.35    6.19
  -2  -5   3   21.11    2.96
  -2  -4   0  227.81    3.17
  -1  -3   0  111.11    1.62
  -2  -3  -1   70.44    1.59
  -3  -5   1   48.51    2.60
  -2  -5   2   17.75    2.61
  -1  -1  -1    1.61    0.60
  -4  -4  -1  922.15    6.51
  -3  -4  -1  532.46    4.57
  -1  -4   1   79.64    2.14
   0  -1   0    7.96    0.45
  -5  -3  -1  190.40    3.41
  -4  -5   0   11.94    2.89
  -3  -5   0  243.71    4.19
  -3  -2  -2  353.36    2.72
  -1  -2  -1  800.75    3.02
  -4  -2  -2   19.12    1.58
  -2  -5   1    7.98    1.89
  -2   2  -1  719.86    3.31
  -2   4  -1  208.16    3.09
  -1   2   1  310.53    2.19
   0   4   3    8.24    1.22
   0   5   3   12.46    2.21
   1   5   4  113.82    2.32
   1   6   4  191.84    3.70
   2   3   4    9.38    1.01
  -1   4   2  665.28    4.51
   0   3   3  270.00    2.51
   0   6   3  306.46    4.27
   2   5   5  107.11    2.48
   2   6   5  123.96    2.99
  -2   3   0 1037.61    5.01
  -2   4   0  146.64    2.90
  -1   3   2  655.43    3.99
  -2   5   0  102.21    3.18
   0   5   4   66.26    2.73
   2   4   5  138.49    2.22
   0   4   4   13.63    1.92
   0   6   4  110.74    3.31
  -2   2   0  270.34    2.41
  -2   1  -1  118.89    1.38
  -2   4   1  517.66    4.71
  -1   4   3  572.35    4.66
  -1   5   3   27.48    2.77
  -1   2   2  106.76    1.93
   1   4   5    5.80    1.92
  -2   3   1  452.46    3.75
  -2   5   1  459.99    5.17
   0   2   3   59.54    1.29
   2   6   6  115.66    3.16
  -1   1   1  896.31    3.06
  -1   3   3  818.64    4.86
   0   3   4  128.88    2.04
   2   5   6   85.89    2.74
   0   5   5    1.03    2.42
   0   6   5    9.32    2.51
   0   1   2  214.07    1.48
   1   6   6  427.64    5.34
  -2   4   2  133.41    3.18
  -2   5   2  452.60    5.19
  -1   5   4   13.77    2.64
  -2   2   1  229.05    2.54
   0   4   5   77.84    2.82
   1   5   6  733.02    5.93
  -2   3   2   45.55    2.23
  -1   4   4  132.96    2.69
   2   3   5  300.83    2.45
   1   3   5   21.37    1.42
   1   2   4   17.26    1.26
   2   4   6   54.13    2.00
  -2   1   0  127.03    1.62
  -1   2   3  325.38    3.10
   1   4   6    3.50    2.13
   2   6   7   34.82    2.90
  -2   4   3  105.61    3.26
  -2   5   3  232.43    4.64
  -1   3   4  343.33    3.82
  -1   5   5  392.62    5.27
   0   5   6    1.26    2.86
   2   2   4  964.58    3.01
   0   2   4  139.82    2.37
   0   3   5  538.44    4.25
   2   5   7  156.87    3.28
  -1   1   2  377.70    2.79
  -1   4   5   80.92    2.79
   0   4   6  218.20    4.11
   1   5   7  453.27    5.34
  -3   3   1   46.00    3.04
  -3   2   0  358.28    3.53
  -2   1   1  285.81    2.53
  -3   4   2   16.92    2.90
  -1   2   4  393.29    3.88
  -1   3   5   50.16    2.79
   0   1   3   69.97    1.59
   1   3   6 2645.74    8.89
   1   4   7  159.87    3.47
   2   4   7  681.08    5.04
  -1   4   6   83.36    3.45
   0   3   6 1111.28    7.12
   1   1   3   72.80    1.11
   2   3   6   -0.35    1.62
  -3   2   1  170.14    2.99
  -3   3   2   59.60    2.85
   1   2   5  103.43    1.93
  -2   4   5  128.79    3.87
   0   2   5 1027.75    5.44
  -3   4   3   37.95    3.14
  -1   1   3  628.12    3.92
   1   5   8  503.09    6.00
  -1   0   0  278.50    1.33
  -3   3   3  159.41    3.59
  -1   3   6   37.44    3.06
  -3   2   2   47.23    1.85
  -2   2   4  920.50    5.90
  -2   3   5    3.44    1.81
  -1   2   5  601.03    4.76
  -3   1   0   45.32    2.04
  -1   4   7   35.04    3.09
   0   1   4   19.01    1.57
   1   3   7  250.11    3.42
   1   4   8   16.49    2.75
   0   3   7  361.08    4.31
   2   2   5 1718.85    4.68
  -3   3   4    7.56    3.01
  -2   1   3 1692.00    6.97
   0   4   8  170.52    4.19
  -3   1   1   36.37    1.97
  -3   2   3  188.93    3.68
  -1   0   1  579.10    2.58
  -1   1   4 2168.92    7.41
  -2   3   6   -0.60    2.66
   1   2   6  213.27    2.79
  -2   0  -1   17.05    0.70
  -2   2   5  241.56    3.62
  -1   3   7   69.41    3.44
  -2   0   0  189.53    1.74
  -1   2   6   42.81    2.38
   1   1   4   -0.16    1.05
  -3   1   2    0.92    2.37
  -3   2   4   88.42    3.16
  -2   1   4 1460.05    7.27
   0   3   8  412.65    5.40
  -1   0   2  349.25    2.50
  -1   1   5   29.51    2.36
   1   3   8  103.09    3.02
   1   4   9   32.08    2.91
  -2   2   6  153.17    3.81
   0   0   1  223.57    1.11
   0   2   7   12.03    2.51
  -3   1   3    0.26    2.25
  -1   3   8   10.35    3.29
  -3   2   5   96.51    3.52
  -2   0   2    4.88    1.68
  -1   2   7    3.48    2.81
  -2   1   5  111.83    3.43
   1   2   7  115.72    2.70
  -1   0   3  601.58    3.81
   0   0   2  327.50    1.99
  -3   1   4   29.32    2.67
   1   1   5   73.21    1.78
  -2   0   3  129.18    2.75
  -1   1   6  146.69    3.30
   0   1   6  141.45    2.90
  -3   0   0  104.41    1.87
  -3   0   1  177.15    2.58
  -2   2   7   17.80    3.03
   0   3   9  271.85    4.85
   0   2   8   31.05    2.75
  -3   0   2  257.29    3.30
  -2   1   6  338.26    4.95
  -1   0   4  841.87    4.87
   0   0   3  538.69    2.83
  -3   0  -1  164.26    1.59
  -2   0   4  569.77    4.41
  -4   1   3   26.10    2.58
  -3   0   3  204.86    3.48
   1   2   8  285.90    3.89
  -1   1   7  510.25    4.98
   0   0   4   15.18    1.52
   0   1   7  147.99    3.08
   1   1   6  576.80    3.77
  -1   0   5  219.60    3.23
  -4   1   4    9.59    2.52
  -3   1   6  201.88    4.54
  -2   0   5   17.35    2.45
  -2   1   7  160.36    3.73
   0   2   9   48.27    3.01
  -4   0   2   60.33    2.65
  -1   0   6  194.91    3.29
  -3   0   5  153.42    3.34
  -2   0   6   85.25    3.24
   0   1   8  146.44    3.36
   1   1   7   54.50    1.91
  -4   0   3   13.24    2.57
  -2  -1   2   23.85    1.83
  -2  -1   3   58.38    2.23
   0   0   6  134.07    2.62
  -4   0   4    6.03    2.55
  -3  -1   2  403.34    3.64
  -3   0   6   14.08    2.88
  -3  -1   1  177.23    2.47
  -2  -1   4  448.70    4.10
  -2   0   7   36.02    2.91
  -1  -1   2    5.70    1.13
  -1  -1   3  182.22    2.21
  -1  -1   4  259.63    3.06
   0   1   9  133.59    3.27
   1   1   8   27.03    1.91
  -3  -1   0   16.17    1.43
  -2  -1   0 2045.47    4.69
  -2  -1   5  353.69    4.29
   0   0   7  135.58    2.92
  -1  -1   1    8.16    1.10
  -3  -1   5  734.01    6.11
  -1  -1   5   48.37    2.21
  -1   0   8   80.62    3.00
   1   0   4  195.77    1.68
  -4  -1   2   59.00    2.45
  -4  -1   3   34.80    2.40
   1   0   5  400.89    2.78
  -4  -1   1  151.57    2.59
  -2  -1   6  248.15    3.84
  -4  -1   4  199.27    3.66
  -1  -1   6   18.34    2.23
   1   0   3   13.67    0.68
  -3  -1   6  213.85    3.95
   0   0   8  112.03    2.80
   1   0   6    4.69    1.18
  -2  -1   7  157.14    3.39
   0  -1   3 1543.49    4.68
   0  -1   5   56.74    1.88
  -3  -2   2   82.47    2.28
  -3  -2   4    5.66    2.38
  -3  -1  -1  140.52    1.23
  -2  -2   3  287.34    3.19
  -2  -2   4  660.11    4.75
   1   0   7   56.11    1.75
  -2  -2   2  211.29    2.65
   0  -1   6  211.55    2.74
   0   0   9  136.97    3.05
  -1   0   7  200.52    3.79
   0  -1   6  241.80    3.57
   1  -1   7  414.52    4.82
  -2   1   6  263.94    3.74
   2  -1   7  580.32    5.18
  -1  -1   4  222.75    3.19
   0  -1   7  154.39    3.49
  -1  -1   3  225.84    2.85
  -1  -1   5   42.91    2.47
  -1   0   8   47.87    3.59
  -2   0   4  500.43    4.20
  -2   1   2 1826.80    4.43
  -2   1   7  128.56    3.24
   1  -1   8  244.73    4.32
  -2   0   5   10.79    2.15
  -1  -1   6   14.99    2.49
   2  -1   8  178.15    3.77
  -2   0   3  123.05    2.31
   0  -1   8   53.72    3.20
  -2   0   6   61.23    2.93
  -1  -1   2    7.70    1.51
  -1  -1   7   -0.14    2.78
  -2   0   7   36.48    2.78
   0  -1   1   68.41    1.04
  -2   0   2    5.45    1.21
   1  -2   5   73.18    2.55
   2  -1   2  486.96    1.68
   1  -2   4  134.63    2.58
   1  -2   6   52.06    2.71
  -1  -2   4    4.68    2.28
  -1  -2   5  368.86    4.55
   1  -2   7  266.25    4.44
   1  -1   1  334.61    1.36
  -1  -2   6  240.40    4.48
   1  -2   3    1.01    1.43
  -2  -1   7  157.54    3.91
  -1  -2   3 1040.90    5.55
  -1  -1   1    4.36    1.12
  -1  -2   7    1.65    3.06
  -1  -2   2 1817.74    6.16
  -3   0   5  142.11    3.89
  -2  -2   4  700.52    5.86
  -2  -2   5  222.90    3.74
  -3   0   4  176.91    3.51
  -2  -2   6  176.39    3.73
  -2  -2   3  326.64    3.83
   0  -3   5  129.40    3.38
   0  -3   6    9.03    2.95
   1  -2   2  100.16    1.50
  -3  -1   4  643.52    5.82
  -3  -1   5  506.64    5.31
  -3  -1   6  178.86    4.03
  -2   0   1  782.83    2.60
  -1  -3   4  843.46    6.26
  -1  -3   5  650.20    6.05
   0  -3   4  463.61    4.71
  -3   0   3  195.84    2.65
  -1  -3   6  308.41    4.49
  -2  -2   2  226.38    2.98
   1  -3   5    9.46    2.38
   1  -3   6   22.14    2.43
  -3  -1   3   11.17    1.90
  -1  -3   3    6.87    1.57
   0  -3   3 1341.20    6.39
  -2  -3   5   90.25    3.59
  -1  -2   1  938.47    4.06
   1  -3   4   23.04    2.03
  -3  -2   4    8.45    2.71
  -3  -2   5   17.48    3.10
  -2  -3   4  278.29    4.24
  -2  -3   3   26.92    2.14
  -1  -3   2  793.49    4.95
  -3  -2   3   24.08    2.54
  -3  -1   2  427.78    3.36
  -2  -2   1  301.18    2.86
   0  -3   2 1772.06    6.27
   1  -3   3   16.40    1.61
  -2  -3   2  187.43    3.18
  -1  -4   5  220.25    4.50
  -3  -2   2   88.91    2.45
  -1  -1   0    0.45    0.73
   0  -4   5   65.69    3.26
   0  -4   4    9.25    2.53
  -2  -4   4    9.99    2.33
  -1  -3   1  273.17    2.97
  -2  -4   3   38.22    2.99
  -2  -3   1 1083.19    5.55
   0  -4   3  116.96    2.93
   0  -1   0    9.40    0.51
   1  -2   1  375.38    1.89
  -4  -2   4   -2.36    3.55
  -3  -1   1  174.94    2.21
  -2  -4   2  801.52    6.17
  -1  -2   0  788.08    3.17
   0  -3   1 2028.44    5.97
   1  -3   2   27.65    1.31
  -3  -2   1   69.15    1.92
  -3  -4   3  387.75    5.59
  -2  -1   0 1993.52    4.53
  -4  -2   3   29.97    2.75
  -2  -2   0   21.31    1.13
   0  -4   2  294.96    3.32
  -4  -3   3  159.62    4.11
  -3  -4   2   31.93    2.70
  -2  -4   1  106.85    2.84
  -2  -5   3   23.77    3.44
  -2  -3   0  269.61    2.94
  -1  -3   0  141.25    2.17
  -4  -2   2  184.76    3.22
  -1  -5   3   47.03    3.23
  -4  -3   2  376.95    4.57
  -3  -4   1   84.82    3.00
  -2  -5   2   14.96    3.19
  -1  -5   2   37.76    2.84
  -3  -2   0   20.89    1.09
   0  -4   1  933.76    4.81
  -4  -4   2  117.57    3.74
  -3  -5   2  357.92    4.95
  -2  -4   0  226.53    3.25
  -4  -3   1  201.11    3.28
  -4  -2   1   22.72    2.15
  -2  -5   1    3.72    2.92
   0  -3   0  529.99    2.83
  -2   0   0  206.92    1.09
   1  -3   1    5.70    1.01
  -3  -5   1   45.18    3.14
  -3  -4   0  394.13    3.96
  -3  -1   0   13.02    1.02
  -1  -5   1   36.92    2.56
  -4  -4   1  180.72    3.23
  -2  -3  -1   76.69    1.93
  -2  -5   0  141.56    3.20
  -2  -2  -1 7405.90    9.79
  -3  -5   0  237.90    4.25
  -1  -2  -1  848.54    3.10
  -4  -3   0  295.17    3.36
  -2  -4  -1  166.60    2.75
  -1  -3  -1   81.53    1.46
  -4  -4   0  431.49    4.55
  -1  -5   0   43.91    2.31
  -3  -4  -1  512.84    4.37
  -2  -6   1    2.49    2.00
   0  -5   1   16.70    2.21
   0  -4   0  280.26    2.58
  -4  -2   0   14.39    1.42
  -3  -2  -1  310.45    2.56
  -3  -5  -1  150.17    3.50
  -2  -5  -1  328.64    3.79
  -1  -6   1  133.03    3.37
  -3  -6   0    5.87    1.86
  -2  -6   0   12.84    2.62
  -2  -1  -1 4219.33    5.82
  -4  -4  -1  873.36    5.84
  -1  -1  -1    1.09    0.60
  -4  -3  -1 1000.07    5.06
  -1  -5  -1    5.10    1.76
  -5  -4   0   11.83    2.25
  -3  -6  -1   35.58    2.66
  -2  -4  -2  134.24    2.39
  -2  -3  -2   34.87    1.56
  -1  -6   0  148.90    3.17
   0  -3  -1   39.77    1.09
  -3  -4  -2  560.02    4.02
  -2  -6  -1   69.59    2.94
   0  -5   0  160.40    2.47
  -3  -5  -2  133.64    3.27
  -2  -5  -2 1184.05    6.04
   1  -2   0  289.81    1.24
  -4  -2  -1  130.77    1.90
  -3  -1  -1  144.29    1.48
   0  -4  -1 3927.53    7.86
  -4  -4  -2 1727.13    7.35
  -2  -2  -2 9501.74   10.48
  -1  -3  -2   13.87    0.95
   1  -3   0   43.03    0.82
  -5  -4  -1   26.13    2.20
  -3  -6  -2   38.41    2.67
  -1  -6  -1  136.32    2.82
  -4  -3  -2 1406.52    5.58
  -3  -2  -2  321.39    2.41
  -2  -6  -2   89.91    2.80
  -1  -5  -2   12.02    1.24
  -3  -5  -3  199.48    3.33
  -3  -4  -3  979.13    5.22
  -1  -2  -2  193.85    1.69
   0  -5  -1   67.84    1.83
  -2  -4  -3    3.00    1.55
  -2  -5  -3  287.70    3.14
  -5  -4  -2    2.56    1.66
  -4  -4  -3  890.80    5.30
  -3  -6  -3    3.19    1.63
  -4  -6  -3  178.78    3.20
  -2  -3  -3    9.80    1.00
  -1  -6  -2  227.08    3.08
  -2  -6  -3  872.89    5.57
  -4  -2  -2   15.17    1.07
   0  -4  -2   99.66    1.57
  -5  -5  -3    4.69    2.20
  -4  -3  -3  327.42    2.77
  -1  -5  -3    2.92    1.54
   0  -3  -2   82.98    1.18
   0  -1  -1 3974.55    3.77
  -3  -5  -4   81.02    2.04
  -4  -6  -4   92.88    2.98
  -3  -6  -4    4.22    2.11
  -3  -4  -4  862.80    4.80
  -1  -3  -3   80.79    1.28
   0   5   7   16.35    3.63
   1   3   8   99.43    3.47
  -1   2  -1  413.74    2.34
  -1   2   3  297.60    3.87
  -1   3   4  346.39    4.90
  -1   5   3   16.41    3.95
   0   4   7  104.19    3.36
   1   1   6  488.91    3.93
  -1   5   4   11.86    4.04
   0   3   7  377.29    5.67
  -1   4   5   88.66    4.46
   1   4   9   30.24    3.82
  -1   2   4  380.36    4.59
  -1   3   5   53.01    3.73
   0   1   5    4.97    2.12
   1   0   4  243.24    1.84
  -1   1   1  943.19    4.46
  -1   5   5  398.02    6.33
   0   0   2  306.88    1.98
  -1   1   2  332.97    3.43
   0   4   8  205.49    5.01
  -1   4   6   87.40    4.30
   1   2   8  240.42    4.59
   1   3   9  189.99    4.74
  -1   1   3  569.15    4.53
  -1   2   5  620.03    5.91
  -1   3   6   40.69    3.64
   0   2   7   12.78    3.01
   0   3   8  455.45    6.00
  -1   4   7   41.86    3.92
   0   1   6  139.58    3.10
   1   1   7   60.57    2.27
  -1   1   4 2282.77    8.90
  -1   2   6   40.79    3.19
  -1   3   7   82.91    4.05
  -2   3   2   53.76    4.72
  -2   3   3   34.78    4.00
  -2   4   3   95.10    5.45
  -2   3   1  579.08    5.89
  -2   4   2  173.62    5.98
  -2   4   4  308.68    6.52
   0   2   8   33.20    3.15
  -1   1   5   23.70    2.54
   0   0   4   16.29    1.55
   0   3   9  221.03    4.34
   1   0   5  413.17    2.67
  -2   2   3 1342.86    8.48
  -2   4   5  132.12    5.06
  -2   2   1  276.76    4.06
  -2   3   5    4.97    3.93
   0   1   7  116.11    3.31
  -2   2   4  876.41    6.93
  -2   2   5  269.89    5.03
  -2   3   6    2.96    3.49
  -1   0   2  427.78    3.50
  -1   1  -1  371.81    1.56
   0   0   5   96.27    2.21
  -2   1   2 1808.59    8.52
  -2   1   3 1463.32    8.09
  -2   2   0  309.99    3.14
  -1   0   3  543.09    4.13
   0   2   9   62.07    3.58
  -1   2   8    7.29    3.44
  -2   1   4 1325.58    8.15
  -2   2   6  138.32    4.47
  -1   0   1  674.22    3.43
   0   1   8  136.53    3.73
  -1   1   7  512.10    5.94
  -2   1   5   91.08    3.12
   0   0   6  118.56    2.58
  -2   2   7   17.45    3.52
  -1   0   5  215.77    3.68
  -3   3   3  214.69    6.68
  -2   1   0  131.59    2.26
  -3   3   4    2.23    4.11
  -2   1   6  307.46    5.10
  -3   2   3  194.28    5.49
  -3   3   2   73.01    4.92
  -3   2   2   73.62    4.40
  -2   0   3  108.32    3.25
  -1   0   6  178.42    3.62
  -1   1   8  300.55    5.23
  -3   2   5   88.55    4.59
  -2   0   2    5.67    2.56
  -2   2  -1  720.22    3.32
  -2   0   4  517.79    4.96
  -2   1   7  136.92    4.40
  -1   0   0  313.91    1.93
  -3   1   3    2.96    3.18
  -3   2   1  192.88    3.95
  -3   1   4   23.58    3.70
  -2   0   1  868.88    4.82
  -2   0   5   11.84    2.93
  -3   1   1   44.69    2.81
  -3   1   5   21.13    2.64
  -1   0   7  225.91    4.17
  -2   0   6   76.81    3.78
  -3   1   6  185.27    4.83
  -3   2   0  356.48    4.06
  -3   0   3  181.82    4.31
  -2   0   0  218.91    2.49
  -2   1  -1  117.51    1.61
  -3   0   2  257.02    4.53
  -3   0   4  132.01    3.51
  -1  -1   4  245.40    3.13
  -3   0   5  155.87    4.44
  -3   1   0   54.61    2.23
  -2   0   7   34.21    2.70
  -4   2   3   65.56    6.11
  -3   0   1  191.73    3.49
  -1  -1   2    6.32    1.56
  -1  -1   5   44.72    2.26
  -4   2   2    3.30    3.87
  -2  -1   3   50.51    2.03
   0  -1   4 1431.65    4.91
  -4   1   3   30.36    4.46
  -2  -1   2   29.00    2.35
  -4   1   2    0.76    3.93
  -2  -1   5  362.44    4.74
   0  -1   3 1216.83    3.95
   0  -1   5   58.68    1.78
  -1  -1   6   15.43    2.34
  -4   1   1   89.39    3.66
  -3  -1   3   10.67    2.92
  -3   0   0  101.53    2.75
  -2  -1   1   19.29    1.53
  -2  -1   6  264.57    4.34
  -4   0   3   11.53    3.95
  -4   0   4    4.29    3.46
  -3  -1   2  458.80    5.25
  -3  -1   4  494.13    5.51
  -1  -1   1    5.21    1.41
  -3   1  -1   20.08    1.62
  -4   0   1  986.94    7.64
  -3  -1   1  192.24    3.51
  -2  -1   7  154.09    3.88
  -2   0  -1   15.54    1.22
  -4   1   0  149.62    3.39
  -3  -1   6  207.62    5.12
   0  -1   2   16.82    0.88
  -4  -1   3   32.02    3.59
  -2  -1   0 2098.77    6.53
  -4  -1   2   73.08    4.12
  -4  -1   4  173.26    4.94
  -3   0  -1  173.77    2.53
  -4   0   0  891.91    6.09
  -3  -1   0   16.85    2.09
  -4  -1   1  163.97    4.08
  -2  -2   3  315.69    4.03
  -2  -2   4  669.56    5.45
  -3  -2   3   23.67    2.88
  -3  -2   2   93.71    3.29
  -3  -2   4    2.74    2.24
  -2  -2   2  220.63    3.30
  -2  -2   5  312.84    4.42
  -3  -2   5   20.37    3.09
  -1   0  -1  433.08    1.53
  -5   0   1  138.81    4.55
  -4  -1   0  302.66    4.58
  -1  -2   4    3.62    1.62
  -3  -2   1   81.47    2.90
  -1  -2   3 1012.62    4.99
  -1  -2   5  305.86    3.31
  -1  -1   0    2.45    1.01
  -4  -2   2  192.48    4.81
  -4  -2   3   29.70    2.76
  -4  -2   4    2.04    3.71
  -4   0  -1 1560.34    7.37
  -2  -2   1  305.29    3.39
  -5  -1   1   55.41    3.55
  -4  -2   1   22.58    3.23
  -5   0   0  124.34    3.56
  -2  -1  -1 4242.35    8.00
  -1  -2   2 1760.97    5.80
  -4  -1  -1  520.53    4.62
  -3  -2   0   24.82    1.81
  -5  -1   0    2.17    2.19
  -4  -2   0   15.69    1.98
  -3   0  -2  155.60    2.14
  -2  -2   0   20.79    1.40
  -5  -2   1  124.80    4.70
  -3  -3   3   89.71    3.48
  -3  -3   4   22.08    2.69
  -4  -3   2  291.49    4.77
  -3  -3   5   20.44    2.96
  -3  -2  -1  324.79    3.51
  -5  -2   0  280.05    4.61
  -5  -1  -1    3.99    2.48
  -4  -3   1  184.72    4.39
  -3  -3   1    4.41    2.51
  -2  -3   3   33.73    2.31
  -2  -3   4  281.48    3.90
  -2   0  -2   24.82    0.90
  -3  -1  -2  357.94    2.93
  -2  -3   2  189.39    3.11
  -4  -1  -2  477.74    4.09
  -4  -3   0  298.00    4.71
  -5  -2  -1  161.85    4.00
  -3  -3   0    0.38    2.29
  -2  -2  -1 7279.93   11.05
  -5  -3   0  256.71    4.99
  -5  -1  -2    3.07    2.38
  -4  -2  -2   17.51    2.15
  -4  -3  -1  910.90    6.24
  -4  -4   2  105.84    3.99
  -3  -3  -1   22.07    2.24
  -3  -2  -2  292.84    2.74
  -5  -2  -2   88.25    2.98
  -4  -4   1  186.91    4.45
  -3  -4   3  337.20    4.69
  -2  -3   0  255.06    2.99
  -1  -2   0  852.61    3.35
  -1  -1  -1    0.71    0.71
  -3  -4   2   24.23    2.28
  -1  -3   3    6.25    1.40
   0  -2   3  217.34    1.57
  -4  -4   0  373.12    4.83
  -4  -3  -2 1561.98    7.71
  -1   1  -6   42.46    2.22
  -1   1  -5   52.97    2.01
  -1   1  -4 1768.61    5.81
  -2  -2  -7   59.25    2.62
  -1   1  -7  346.62    3.85
  -2  -2  -8  135.26    3.17
  -2  -2  -6  704.10    4.15
  -1   1  -8  172.05    3.83
  -2  -2  -9  133.82    3.07
  -2  -1  -7  297.42    3.94
  -2  -1  -6  659.36    4.45
  -1   1  -3  222.05    2.09
  -2  -1  -8  360.19    4.27
  -1   0  -2  264.75    1.45
   0   3  -5  108.90    2.75
   0   3  -4  400.13    3.70
  -2  -2  -5 1837.28    4.86
   0   3  -6   10.95    2.18
   1   4  -5  157.41    3.37
   1   4  -4   63.12    2.25
  -2  -1  -9  182.93    3.63
  -2  -1  -5  546.30    3.29
   0   3  -3 1181.51    5.09
   1   4  -3    5.38    1.53
  -1   2  -6   30.33    2.50
  -1   2  -5   68.75    2.46
  -1   2  -7  207.91    4.02
  -2   0  -8   32.79    2.12
  -1   2  -4  137.00    2.48
   1   4  -2    4.29    1.24
  -2   0  -5  725.58    4.25
   1   3   0  130.82    1.14
  -1   1  -2  212.22    1.81
   0   3  -2 2003.93    5.72
  -2  -1  -4    5.90    1.02
  -1   2  -3    2.28    1.03
  -2  -2  -4  933.85    2.80
  -2   0  -4  670.99    3.54
  -2   1  -7  474.64    5.03
  -2   1  -6  558.07    5.12
  -2   1  -8  154.84    3.36
  -2   1  -5  721.10    4.66
  -1   3  -6   11.34    2.63
   0   1   0    6.77    0.36
   0   4  -5   42.86    2.07
   0   4  -4    8.65    2.00
   1   4  -1   75.13    1.44
  -2   1  -4   56.79    2.00
  -1   2  -2  107.57    1.78
   0   3  -1 1847.75    4.89
   0   4  -3  101.87    2.39
  -3  -1  -9  172.63    5.10
  -3  -1  -8   17.60    3.49
  -3  -1  -7  331.45    4.43
  -2   2  -7   46.25    3.76
  -2   2  -6   81.21    3.24
  -3  -2  -7   51.66    2.08
  -2   0  -3  567.52    2.91
  -2   2  -5  289.72    3.93
  -2  -1  -3  361.13    1.95
   0   4  -2  251.76    2.72
  -3  -1  -6 2268.66    8.33
  -3   0  -8   59.83    3.07
  -3   0  -7   29.19    2.88
  -2   1  -3    7.52    1.49
  -2   2  -4  368.72    3.86
  -1   1  -1  368.65    1.97
  -3  -2  -6   82.83    1.87
  -3   0  -6  101.06    3.01
  -1   0  -1  494.57    1.64
  -1   4  -5   29.97    2.99
  -1   4  -4  209.33    3.66
  -3  -1  -5  143.93    2.32
   1   4   0   12.11    0.82
  -3   1  -6   92.79    2.93
  -2   2  -3  616.04    4.19
  -2   3  -5   23.23    2.67
  -1   2  -1  310.25    2.11
   0   4  -1  859.84    4.14
  -3   1  -5   10.90    2.11
  -2   3  -4   25.84    2.69
  -1   4  -3  181.72    2.84
  -3  -2  -5   85.30    1.55
   0   3   0  482.59    2.38
  -2   0  -2   26.45    1.13
  -2   1  -2  524.41    3.06
  -3   2  -6  135.33    3.95
  -3  -1  -4  375.14    2.86
  -3   1  -4    5.48    2.01
  -2  -2  -3 2500.30    3.62
  -2   3  -3   25.55    2.29
  -1   4  -2  331.10    3.55
  -3   2  -5  271.57    4.39
  -2   2  -2   76.56    1.98
  -4  -1  -7   19.23    2.56
  -4   0  -7   81.35    3.69
  -3   2  -4  246.06    3.80
  -2   4  -4  631.52    6.07
  -2  -1  -2  826.97    2.58
  -4   0  -6  118.84    3.37
  -3   1  -3    4.84    1.75
  -2   3  -2    2.49    1.91
  -1   5  -3 1175.64    7.41
   0   4   0  283.35    2.32
  -4  -1  -6   81.39    2.65
  -1   4  -1  394.48    3.43
   1   3   1   68.08    0.65
  -2   4  -3  163.90    3.36
  -1   2   0  371.57    2.26
  -3  -2  -4  506.71    2.65
  -3   2  -3  269.00    3.62
  -2   1  -1  109.90    1.73
  -4   0  -5  116.03    3.14
  -3   3  -4    5.25    1.81
  -2   2  -1  700.55    3.89
  -1   1   0  546.89    2.22
  -1   5  -2  222.27    3.39
  -3  -1  -3  527.20    3.04
  -1   3   0   64.72    1.60
  -4  -1  -5   96.03    2.46
  -2   3  -1  237.63    2.89
  -2   4  -2  333.77    3.64
  -3   1  -2    4.53    1.70
  -3   3  -3   30.11    1.96
  -2   0  -1   16.88    1.05
  -4   0  -4   18.03    2.22
  -3   2  -2  345.94    3.72
  -1   4   0  595.70    3.81
  -1   5  -1  101.88    2.52
   0   3   1   22.56    0.87
  -4  -1  -4    4.08    1.46
  -4   2  -4  168.08    3.64
   0   2   1    3.26    0.56
  -3   3  -2   36.43    1.99
  -2   4  -1  181.52    2.75
   0   4   1 3887.44    7.18
  -4   1  -3  271.96    3.78
  -2   2   0  260.83    2.32
  -4   0  -3  343.08    3.56
  -4   2  -3   56.12    2.80
  -3   1  -1   20.80    1.67
  -3   2  -1  217.94    2.72
  -2   1   0  123.37    1.75
  -3  -2  -3  580.27    2.70
  -3  -1  -2  333.43    2.41
  -1   0   0  330.23    1.47
  -1   3   1  322.33    2.48
  -1   5   0  101.85    2.38
  -3   3  -1   31.38    2.22
  -1   2   1  330.93    2.14
  -2   4   0  137.12    2.73
  -2   5  -1   57.52    2.61
  -4  -2  -4  159.00    2.05
  -4  -1  -3  386.92    3.13
  -4   1  -2   94.07    2.61
  -3   0  -1  165.00    2.12
  -1   4   1  498.19    3.37
  -4   2  -2   29.99    2.42
  -3   4  -1    0.82    2.17
  -2  -1  -1 4275.19    5.77
  -5   0  -4   91.95    3.17
  -4   0  -2  167.73    2.33
  -3   2   0  343.35    3.52
  -3   3   0   37.94    2.40
  -2   0   0  202.32    1.65
  -2   5   0   87.26    2.82
  -5  -1  -4    7.60    1.81
  -3   1   0   49.82    1.87
  -2   2   1  216.73    2.17
  -1   1   1 1039.06    3.20
  -1   5   1   54.35    1.95
  -4   2  -1   96.35    2.83
  -2   4   1  482.72    4.07
  -5   0  -3   97.50    2.97
  -4   1  -1  629.39    4.45
  -3   4   0   11.71    2.09
  -4  -1  -2  493.14    3.48
  -3  -1  -1  165.88    1.92
  -2  -2  -2 9389.60    6.13
  -2   1   1  277.29    2.35
  -4  -2  -3   35.64    1.40
  -1   3   2  642.33    3.32
   0   4   2  102.31    1.46
  -3   0   0  106.94    1.90
  -2   5   1  370.73    4.12
  -1   4   2  683.76    3.83
   0   3   2   83.24    1.12
  -5  -1  -3   -0.09    1.78
  -3   2   1  161.69    2.88
  -3   3   1   40.13    2.57
   0   1   1 4008.12    3.63
  -4   2   0   27.03    2.30
  -5   0  -2  196.67    3.58
  -3  -2  -2  308.87    1.99
  -1   2   2  106.76    1.54
  -4   1   0  150.86    2.50
  -3   4   1   33.42    1.99
  -3   1   1   40.00    1.49
  -2   4   2  137.56    2.62
  -2   2   2  498.98    3.20
  -4  -1  -1  522.44    3.67
  -5  -1  -2    4.58    1.84
  -2   0   1  874.71    3.46
  -2   5   2  404.29    4.10
  -5   0  -1  115.61    2.71
  -4  -2  -2   18.43    1.37
  -4   2   1    3.31    1.53
  -3   3   2   57.85    2.10
   0   2   2 1320.20    3.00
  -2  -2  -8  104.83    2.56
  -1  -1  -8   25.05    2.40
   2   1  -6  285.13    3.39
  -1   0  -4  253.12    2.33
  -1   0  -5  421.20    3.18
   1   1  -6   14.49    2.13
  -1   0  -3   15.87    1.10
   0   0  -8  110.46    3.03
  -2  -2  -9  125.27    2.64
  -2  -1  -5  467.14    3.12
  -1  -1  -9  831.05    6.23
  -1   0  -6    4.85    1.72
  -2  -1  -6  655.68    4.03
   0   1  -4 1244.76    4.72
   2   1  -7  181.25    3.16
  -2  -1  -4    9.66    1.07
   0   1  -5   54.13    1.89
   0   1  -3 1468.98    4.44
   1   1  -7   -0.22    2.14
  -2  -1  -7  295.63    3.23
  -1   0  -7   59.97    2.05
   0   1  -6  226.07    3.15
   2   2  -3  297.84    2.44
  -2  -1  -8  298.53    3.43
  -1   0  -8  196.87    3.42
  -1   0  -2  268.87    1.46
   0   1  -2   12.67    0.75
   2   2  -4  667.25    3.91
   0   1  -7  139.77    3.01
   1   1  -8 1195.43    7.26
   2   2  -2  238.82    1.95
  -2  -1  -3  379.20    1.81
   2   2  -5  319.52    3.21
  -3  -2  -7   43.55    2.07
  -3  -2  -6   68.74    2.18
  -2  -1  -9  168.15    3.24
  -3  -2  -8    3.79    1.85
   1   2  -4    7.79    1.53
   0   1  -8   44.80    2.07
   1   2  -5  364.91    3.19
   1   2  -3 1082.69    4.36
   2   2  -6  262.00    3.27
  -3  -2  -9    0.50    2.01
  -3  -2  -5   91.78    1.43
  -1   1  -6   51.10    2.33
  -1   1  -5   62.03    2.04
   1   2  -6  242.48    3.00
  -1   1  -4 1887.71    5.93
  -1   1  -7  429.36    4.34
   1   2  -7    5.44    2.23
   1   2  -2 1867.93    4.68
   2   2  -1  311.15    1.55
  -1   1  -8  232.20    3.77
   0   2  -5   11.48    1.77
  -2   0  -4  609.59    3.07
  -1   1  -3  230.59    2.12
   0   1  -1   57.47    0.69
   0   2  -6   10.52    2.14
   0   2  -4 1348.32    5.40
  -3  -1  -7  275.59    3.53
  -3  -1  -8   19.34    1.99
  -3  -1  -6 2026.27    7.02
   0   2  -7    2.37    2.14
   0   2  -3  283.93    2.54
   2   3  -4  304.83    3.29
  -3  -1  -5  139.46    1.87
   1   2  -1  873.17    2.70
   2   3  -5   95.04    2.33
  -2   0  -3  551.37    2.53
  -2   1  -7  547.87    4.90
  -2   1  -6  565.09    4.71
   1   3  -5  709.11    4.98
   2   3  -3   40.40    1.57
  -2   1  -8  165.97    3.51
  -1   1  -2  220.26    1.77
  -1   2  -6   40.77    2.79
  -1   2  -5   79.44    2.62
   0   2  -2  169.00    1.83
   1   3  -6  395.80    4.21
   1   3  -4  891.28    5.04
  -2   1  -5  719.67    4.26
  -1   2  -7  239.77    3.43
  -2  -1  -2  877.21    1.87
  -1   0  -1  427.88    1.30
  -1   2  -4  151.80    2.49
   1   3  -3    9.04    1.46
  -3   0  -8   60.33    2.67
  -3   0  -7   22.30    2.20
  -3   0  -6   96.33    2.32
   2   3  -2  185.90    1.88
  -3  -1  -4  350.58    2.13
  -1   2  -3   -2.28    1.54
   0   3  -4  389.63    3.42
  -3   0  -5  792.03    4.28
   1   3  -2  833.51    3.72
   0   3  -3 1091.85    4.89
  -2   2  -7  113.38    3.26
  -2   2  -6  100.55    3.09
   0   2  -1  417.90    2.20
  -2   2  -5  301.33    3.55
  -1   3  -6   15.87    2.37
  -3   1  -7   52.45    2.89
  -2   0  -2   24.18    0.82
  -1   3  -5    7.68    2.34
  -3   0  -4  307.21    2.47
  -3   1  -6   90.25    2.76
  -1   2  -2  110.23    1.79
   1   4  -5  235.80    3.77
  -1   3  -4   24.22    2.27
   0   3  -2 2111.80    6.19
   1   4  -4   83.82    2.46
   2   3  -1  970.18    3.16
  -2   2  -4  321.80    3.03
  -1   1  -1  338.43    1.68
  -3   1  -5   12.85    1.85
   1   3  -1  265.54    2.05
   1   4  -3    4.73    1.86
   0   4  -5   64.14    2.72
  -1   3  -3   19.08    1.37
   0   4  -4    8.49    2.40
  -2   2  -3  637.11    3.88
   1   2   0  867.40    2.21
  -3  -1  -3  481.84    1.97
  -3   1  -4    5.45    1.56
  -2   3  -5   21.82    2.44
   0   1   0    7.15    0.32
   1   4  -2    5.36    1.55
  -3   2  -6  166.97    3.72
   0   3  -1 1928.20    5.45
  -3   0  -3  291.77    2.13
  -1   2  -1  415.58    2.48
  -1   3  -2   30.64    1.81
  -3   2  -5  284.77    3.69
  -2   3  -4   31.98    2.19
  -1   4  -4  193.83    3.24
  -2   2  -2   74.39    1.45
   0   2   0  324.74    1.69
   1   4  -1   73.77    1.76
   1   5  -4  246.88    3.80
  -3   1  -3    5.95    1.38
  -3   2  -4  249.42    3.33
  -2   3  -3   28.89    1.96
  -1   4  -3  200.18    3.01
   2   4  -1  101.03    1.75
   1   3   0  142.65    1.43
   1   5  -3   51.13    2.36
  -1   3  -1    3.74    1.06
  -1   4  -2  384.67    3.96
   0   5  -3  119.54    3.04
   1   5  -2   34.75    2.23
   0   3   0  499.51    2.77
   2   3   0  229.23    1.33
  -3   2  -3  250.02    2.82
  -2   0  -1   16.93    0.72
  -2   3  -2    0.67    1.38
   0   5  -2   29.50    2.29
  -3   3  -4    7.42    1.70
  -2   2  -1  725.07    3.54
  -2   4  -3  171.28    3.34
  -1   1   0  543.76    2.01
  -1   2   0  355.33    2.07
   1   4   0   18.45    1.27
  -3   0  -2  144.51    1.45
  -3   1  -2    7.04    1.19
  -1   4  -1  453.22    3.90
   1   5  -1   43.44    2.11
  -3   3  -3   26.21    2.23
  -1   3   0   65.31    1.69
   0   5  -1   11.50    2.17
   2   4   0  242.41    1.94
  -3   2  -2  353.64    3.14
  -2   3  -1  249.32    2.78
  -2   4  -2  351.53    4.02
  -1   5  -2  237.27    3.76
  -4   2  -4  182.15    3.18
  -3   3  -2   35.35    2.23
  -1   4   0  676.18    4.31
  -1   5  -1  120.35    2.95
   1   5   0   50.60    1.70
  -2   4  -1  206.09    3.15
   0   3   1   38.46    1.27
   0   5   0  180.07    2.82
   1   3   1   87.96    1.18
   1   6  -1  120.64    2.73
  -3  -1  -2  323.52    1.35
  -2   2   0  268.60    2.06
   0   2   1    3.50    0.57
  -4   2  -3   61.42    2.11
  -3   2  -1  221.83    2.50
  -2   3   0  972.11    4.59
   0   4   1 3879.82    8.14
   0   6  -1   22.77    2.51
   1   4   1   29.29    0.98
  -3   1  -1   16.20    1.16
  -1   0   0  312.58    1.03
  -1   3   1  318.49    2.55
  -1   5   0  103.49    2.68
  -3   3  -1   26.94    2.02
  -1   2   1  333.89    2.11
   1   2   1  818.86    1.96
  -2   4   0  126.75    2.66
   1   5   1    5.37    1.31
   1   6   0  156.93    2.73
  -1   4   1  453.92    3.22
   0   6   0  200.74    3.51
  -4   2  -2   25.24    1.70
  -3   0  -1  143.10    1.28
  -3   4  -1    2.15    2.05
  -2   2  -3  564.56    3.63
  -2   3  -4   28.62    2.49
   2   5   2 1287.31    5.55
  -2   0  -3  594.34    1.94
   0   3   1   39.57    1.42
   1   6   0  146.36    3.10
   0   2   1    5.30    0.92
   0   5   0  163.71    3.43
  -1   4  -1  452.84    3.95
  -2   3  -3   30.99    2.22
   0   4   1 3773.74    9.44
   2   6   2   89.24    2.71
  -2   2  -2   75.80    1.71
  -2   4  -4  647.02    6.01
  -1   2   0  319.74    2.08
  -1   3   0   56.64    1.43
   1   5   2   16.13    1.89
   1   2   2  189.75    1.20
  -2   1  -2  463.86    2.39
  -2   3  -2    2.34    1.69
  -1   5  -1  113.94    3.29
   0   5   1   73.46    2.54
   0   6   0  196.77    3.92
  -2   4  -3  145.39    2.86
  -1   4   0  551.44    3.96
   2   4   3    1.92    1.00
   2   5   3  306.04    2.82
   1   6   2  255.28    3.62
  -2   4  -2  369.46    4.24
  -1   1   0  502.19    2.05
  -1   5   0  101.27    2.91
   0   4   2  102.83    2.17
   0   6   1  104.06    3.06
  -2   3  -1  247.94    2.88
   0   1   1 3993.39    4.28
   0   3   2   86.24    1.63
   2   6   3  863.72    5.26
  -2   2  -1  627.66    3.45
   0   5   2  352.16    3.84
   1   4   3  112.60    1.87
   2   3   3   12.83    0.64
  -1   3   1  251.02    2.35
  -1   4   1  488.24    3.97
   1   5   3    3.52    1.73
  -2   4  -1  201.98    3.38
  -1   2   1  332.25    2.38
  -1   5   1   50.77    2.59
   0   6   2   24.26    2.39
   1   6   3  189.47    3.24
   1   3   3  104.66    1.39
  -3   2  -3  279.55    3.13
  -2   1  -1  105.49    1.36
   0   2   2 1347.85    3.67
  -2   0  -2   20.52    0.55
   2   5   4  875.14    4.32
  -1   4   2  670.23    4.59
   0   4   3    7.77    1.10
   0   5   3   11.78    1.64
   2   6   4  496.53    4.10
  -1   5   2   56.82    2.67
  -3   3  -2   43.85    2.42
  -1   3   2  644.10    3.93
  -3   2  -2  356.19    3.28
   1   5   4  105.40    2.03
   2   4   4  296.56    2.18
  -3   4  -2   15.44    2.54
   0   3   3  235.51    2.13
   1   6   4  173.52    2.79
  -2   4   1  482.77    4.57
   1   4   4    3.28    1.36
  -2   3   1  395.50    3.26
  -3   3  -1   30.87    2.29
  -2   5   1  392.96    4.84
  -3   4  -1   -0.66    2.46
  -1   1   1 1043.21    3.37
  -1   2   2  105.65    1.82
  -1   4   3  559.25    4.48
  -1   5   3   22.44    2.43
  -3   1  -2    5.64    1.14
  -3   2  -1  225.25    2.89
  -2   1   0  108.92    1.62
  -2   2   1  229.40    2.46
   0   6   4  111.93    3.22
  -2   4   2  132.24    2.91
  -3   3   0   43.40    2.49
  -3   4   0   11.77    2.43
  -2   5   2  320.34    4.18
  -1   3   3  757.52    4.29
   1   2   3   12.68    0.69
   1   6   5  347.59    4.13
  -2   3   2   38.07    2.08
   1   3   4   81.34    1.56
   1   5   5  375.08    3.65
   0   2   3   69.40    1.43
  -1   5   4   16.88    2.49
  -3   2   0  348.56    3.48
  -3   1  -1   19.40    1.39
  -3   4   1   31.63    3.04
  -2   0  -1   17.78    0.77
  -1   4   4  155.27    3.07
   0   5   5   -0.34    2.27
   0   6   5   11.73    2.48
  -3   3   1   43.44    2.45
  -2   4   3  102.76    2.99
   1   4   5    5.71    1.51
  -2   2   2  525.16    3.71
   0   1   2  230.61    1.48
   2   3   4    8.77    0.76
  -2   1   1  276.94    2.45
  -1   2   3  318.54    2.96
  -2   3   3   38.47    2.26
  -1   0   0  314.20    1.35
   0   4   5   67.28    2.01
  -1   3   4  339.94    3.63
   1   6   6  419.04    4.72
  -3   2   1  167.56    2.87
  -3   4   2   12.73    2.51
  -1   1   2  373.29    2.63
  -1   5   5  330.53    4.18
   1   5   6  709.00    5.10
  -3   1   0   44.80    1.74
  -3   3   2   64.41    2.81
  -2   4   4  259.02    3.59
  -1   4   5   94.58    2.88
  -3   0  -2  151.35    1.57
   0   5   6    1.41    2.34
  -2   2   3 1533.32    6.55
   0   3   5  636.71    4.38
   1   3   5   22.85    1.36
  -3   2   2   59.53    2.53
  -2   3   4    4.59    1.86
  -2   0   0  182.05    1.71
  -2   1   2 1584.87    5.67
  -1   2   4  405.18    3.69
   0   4   6  230.29    3.66
   1   4   6    3.40    1.62
  -3   1   1   39.99    1.93
  -1   3   5   47.26    1.91
  -2   4   5  128.45    3.33
  -3   0  -1  172.91    2.03
   1   2   4   15.69    0.96
  -1   1   3  591.14    3.57
   0   5   7   12.24    2.55
  -4   2   1    2.18    2.20
  -2   2   4  908.11    5.46
   0   1   3   63.32    1.37
  -3   3   4    6.17    2.74
  -2   3   5    5.66    1.87
  -3   1   2    2.94    2.30
  -2   1   3 1759.57    6.80
   0   3   6 1183.73    6.18
  -4   1   0  120.04    2.55
  -3   0   0   99.74    1.88
  -1   2   5  633.35    4.82
  -1   3   6   38.99    2.64
   0   4   7  107.73    3.28
  -4   2   2    3.08    2.46
   1   3   6 2431.62    7.45
   1   4   7  149.70    2.77
  -4   1   1   84.60    2.54
  -3   2   4   86.20    3.25
  -1   4   7   35.64    2.34
  -2   2   5  260.54    4.06
  -2   3   6   -0.21    2.53
  -1   1   4 2253.73    7.24
  -3   0   1  169.53    2.53
  -2   1   4 1419.23    6.73
  -4   2   3   38.25    2.73
  -2   0   2    3.80    1.54
  -4   1   2    0.84    2.19
  -1   0   2  414.91    2.65
   0   1   4   16.59    1.30
   0   3   7  373.51    4.19
   1   2   5   97.48    1.60
  -1   2   6   40.09    2.37
  -3   2   5   84.63    3.13
   0   2   6  215.05    2.84
   0   4   8  162.05    3.57
  -4   0   0  835.49    4.83
  -3   0   2  234.84    3.07
  -2   2   6  141.11    3.47
  -3   1   4   18.59    1.88
  -1   1   5   21.93    2.03
  -4   1   3   24.87    2.40
  -2   0   3  106.97    1.93
  -2   1   5   85.72    2.50
   1   3   7  218.06    2.80
  -4   0   1  838.13    5.29
  -1   0   3  540.04    3.27
  -1   3   8    2.62    2.58
   1   1   3   61.42    0.88
  -3   1   5   20.87    2.75
   0   0   1  265.25    1.11
   0   3   8  345.76    4.37
  -4   0   2   60.60    2.64
  -4   1   4   10.32    2.54
  -2   2   7   21.28    2.54
   1   2   6  172.46    2.10
  -2   0   4  532.23    4.14
   0   2   7   11.73    1.38
  -2   1   6  277.98    3.63
  -1   1   6  116.58    2.22
   0   4  -5   44.95    2.71
   0   4  -4    7.01    2.25
   0   3  -1 1786.60    5.21
  -2   1  -7  557.63    4.90
  -2   1  -6  560.48    4.49
  -1   3  -6   19.37    2.43
  -1   3  -5    9.16    2.53
   0   4  -3   90.94    2.75
   2   4   1  158.26    1.66
  -2   1  -5  793.46    4.47
  -1   3  -4   19.91    1.59
   0   2   0  363.79    1.88
   1   4   0   16.95    1.38
   2   5   0  137.59    2.34
  -2   0  -4  673.99    2.85
  -1   2  -2  100.36    1.46
   0   4  -2  263.12    3.26
  -2  -1  -4    6.83    0.52
  -1   3  -3   19.27    1.91
   1   3   1   84.11    1.16
  -2   1  -4   51.27    1.65
   1   5  -1   40.51    2.27
  -2   2  -7  115.82    3.26
  -2   2  -6   95.41    2.84
  -2   2  -5  316.13    3.86
   0   4  -1  835.12    4.75
  -1   3  -2   34.61    1.84
  -1   4  -5   33.39    2.98
   0   3   0  423.62    2.53
   0   5  -3   96.99    3.35
   2   6  -1    6.25    2.35
  -1   1  -1  393.99    1.93
  -1   4  -4  200.27    3.98
  -2   2  -4  396.51    3.66
   1   5   0   45.06    2.06
   2   3   2   31.28    0.63
   2   5   1  331.94    2.92
  -1   2  -1  411.39    2.57
  -1   4  -3  218.56    3.73
   0   5  -2   27.28    2.69
   1   4   1   38.50    1.34
  -2   1  -3   10.35    1.23
  -2   0  -3  590.53    2.41
   2   6   0    9.10    1.89
  -2   3  -5   20.77    2.64
   0   4   0  287.43    2.87
  -1   3  -1    5.42    1.57
  -1   4  -2  385.61    4.23
   0   5  -1   12.77    2.47
   1   6  -1  132.34    3.43
   2   4   2  117.84    1.34
  -2   3  -4   26.45    2.67
  -1   0  -1  477.94    1.46
   1   5   1    5.02    1.69
  -1   4  -1  454.02    4.15
   0   3   1   37.25    1.29
   1   6   0  150.87    2.83
   0   2   1    3.35    0.79
  -2   1  -2  479.97    2.65
  -1   5  -2  228.80    4.21
  -3   1  -5   13.66    2.03
  -1   2   0  391.50    2.50
  -2   3  -2   -2.10    1.84
  -1   3   0   62.33    1.49
   1   3   2   15.39    0.83
   1   4   2   78.37    1.54
  -3   2  -5  312.01    4.38
  -2   4  -3  178.27    3.79
  -1   5  -1  117.17    3.21
   1   6   1  142.05    3.00
  -1   4   0  683.30    4.77
  -3   1  -4    5.22    1.62
  -3   2  -4  265.87    3.72
   0   5   1   73.52    2.55
   0   6   0  203.93    3.82
   1   5   2   14.74    1.64
  -2   0  -2   27.50    0.85
  -2   4  -2  332.11    4.04
  -1   1   0  562.70    2.36
  -2   2  -1  749.65    3.99
  -2   3  -1  263.16    3.20
  -2  -1  -3  376.08    1.23
  -3   0  -4  307.53    2.46
  -3   3  -4    4.06    2.02
  -1   5   0   97.30    2.54
  -3   2  -3  280.77    3.56
  -2   4  -1  227.79    3.66
  -3   1  -3    1.50    1.48
  -1   3   1  334.02    2.92
   0   4   2  110.98    2.22
   0   6   1  113.16    3.40
   1   6   2  256.00    3.47
  -3   3  -3   34.95    2.78
  -1   4   1  518.64    4.15
   0   5   2  376.80    3.85
   1   2   2  191.20    1.07
  -1   2   1  359.86    2.53
   0   1   1 3686.98    4.10
  -2   3   0 1035.43    5.45
  -1   5   1   58.50    2.93
  -3   2  -2  377.88    3.86
  -3   3  -2   43.21    2.71
  -2   4   0  146.43    3.24
  -2   2   0  265.79    2.47
   1   5   3    3.10    1.40
  -3   0  -3  299.18    2.47
   0   6   2   22.72    2.36
   1   4   3  119.05    1.74
  -3   1  -2    5.89    1.51
  -2   5   0   98.35    3.25
  -1   4   2  701.57    4.62
   0   2   2 1435.12    3.75
  -3   2  -1  240.61    3.20
  -2   1   0  129.97    1.80
  -2   3   1  451.76    3.86
  -2   4   1  510.89    4.82
  -1   3   2  625.67    3.67
   0   5   3    7.87    2.12
  -2   0  -1   17.03    0.92
   0   4   3    9.60    1.10
  -2   5   1  447.96    5.00
  -1   1   1 1097.41    3.55
   0   6   3  349.54    4.23
   1   3   3  105.07    1.29
  -4   2  -3   72.72    2.78
  -2   2   1  238.71    2.67
  -3   1  -1   22.68    1.55
  -3   3   0   40.71    2.71
   0   3   3  285.75    2.44
  -3   0  -2  155.51    1.86
  -3   4   0   13.43    2.03
  -1   2   2  109.03    1.84
  -2   4   2  129.37    3.13
  -1   5   3   21.34    1.84
   1   5   4  124.85    2.18
  -4   2  -2   31.84    2.40
  -2   3   2   46.31    2.18
  -2   5   2  424.57    4.98
  -1   3   3  849.22    4.62
   0   5   4   71.70    2.33
  -3   3   1   46.05    2.55
  -3   4   1   28.68    2.29
   0   6   4  119.35    3.01
  -4   1  -2   96.07    2.45
  -2   1   1  291.24    2.58
   0   4   4   10.76    1.55
   1   4   4    4.57    1.12
  -4   2  -1  109.86    2.85
  -3   1   0   46.23    1.93
  -3   2   1  178.18    3.06
  -2   2   2  465.45    3.37
  -3   0  -1  169.26    2.15
  -2   4   3   97.41    2.83
  -1   5   4   14.72    2.10
  -3   4   2   15.21    2.42
  -2   3   3   34.52    2.35
  -4   1  -1  670.74    4.78
  -3   3   2   58.62    2.65
  -4   2   0   27.00    2.62
  -1   2   3  306.54    2.60
  -2  -1  -2  839.54    1.86
  -1   1   2  349.95    2.28
   0   3   4  141.16    1.98
  -4   0  -2  182.00    2.63
   0   5   5   -1.14    1.89
  -3   2   2   59.67    2.35
  -1   3   4  322.47    3.07
  -2   4   4  269.96    4.01
   0   1   2  223.47    1.36
  -2   1   2 1886.39    6.10
  -2   2   3 1439.26    6.01
  -1   5   5  383.82    4.48
  -4   1   0  152.47    2.92
  -3   0   0  108.65    1.94
   0   4   5   79.48    2.06
   1   3   4   80.47    1.31
  -4   2   1    0.52    1.61
  -3   3   3  155.75    3.01
  -2   3   4    8.27    1.56
  -1   4   5   93.71    2.84
  -4   0  -1 1632.06    6.25
  -3  -1  -2  344.67    2.04
  -2   0   1  864.26    3.56
   1   4   5    6.64    1.17
  -3   1   2    1.32    2.09
  -3   2   3  191.15    3.37
   1   2   3   12.69    0.62
  -1   0   1  615.20    2.33
  -1   2   4  369.49    3.18
  -4   1   1   70.20    2.16
  -4   2   2    6.88    2.32
   0   5   6    0.40    1.79
  -3   3   4    7.88    2.21
  -2   2   4  908.15    5.36
   0   3   5  580.32    3.59
  -3   0   1  178.37    2.60
  -2   1   3 1648.45    6.17
  -1   1   3  508.87    2.89
  -1   5   6  229.74    3.85
   0   2   4  121.44    1.66
  -4   0   0  813.00    4.83
  -2   3   5   -1.62    1.78
  -1   4   6   85.61    2.75
   0   4   6  212.12    2.92
  -1   3  -3   17.58    1.85
   1   2   2  162.21    0.82
   1   3   2   12.25    0.73
   2   6   1   60.52    2.26
   0   5  -3   66.20    2.70
   2   3   3    8.56    0.37
   0   5  -2   18.71    2.42
   1   5   1    4.96    1.61
   1   6  -1  110.53    3.07
  -1   3  -2   29.64    1.90
   0   4   0  218.51    2.44
   2   4   3    2.01    0.84
  -2   1  -6  728.54    6.43
  -1   4  -5   25.40    2.26
  -1   4  -4  166.32    3.37
   0   5  -1   12.44    2.14
   1   4   2   71.93    1.42
   1   6   0  146.58    3.31
  -2   1  -5  821.85    5.36
  -1   2  -1  373.28    2.39
  -1   4  -3  188.31    3.58
  -1   1  -1  376.35    2.03
   0   2   1    1.60    0.73
   0   3   1   35.53    1.26
  -2   0  -5  663.36    3.43
  -1   3  -1    3.98    1.67
  -2   1  -4   56.67    1.97
  -2   2  -6  110.47    3.46
  -2   2  -5  271.73    4.22
  -1   4  -2  322.18    3.80
   1   6   1  135.13    2.90
  -2   2  -4  373.18    3.99
   1   5   2   12.14    1.52
  -2   0  -4  648.81    3.02
  -2   3  -6   14.88    2.74
  -2   3  -5   22.42    3.13
  -1   4  -1  391.06    3.78
  -2   3  -4   26.07    3.15
  -2   1  -3    9.15    1.45
  -1   5  -2  188.65    4.30
   0   5   1   75.26    2.52
  -1   2   0  382.14    2.62
  -1   3   0   57.86    1.56
   0   6   0  169.20    3.57
   1   6   2  245.50    3.46
  -1   4   0  648.00    4.90
  -1   5  -1  106.94    3.36
  -2   2  -2   84.31    2.20
  -2   4  -4  570.42    7.00
  -2   3  -2    1.39    2.01
   0   4   2  104.40    2.11
   1   4   3   95.00    1.55
  -2   4  -3  150.46    3.60
   0   1   1 3930.47    4.11
   0   3   2   81.46    1.51
   0   6   1  111.86    3.44
  -2   0  -3  551.51    2.65
  -1   5   0  101.96    3.43
   1   5   3    2.17    1.50
  -2   4  -2  362.70    5.02
   0   5   2  376.42    4.02
  -1   0  -1  436.18    1.66
  -1   1   0  527.76    2.50
  -2   3  -1  257.40    3.50
  -1   3   1  315.53    3.04
  -1   4   1  500.56    4.18
   1   3   3  103.52    1.23
  -2   2  -1  724.76    4.47
  -3   2  -5  286.19    5.66
  -2   4  -1  208.63    3.99
  -3   1  -5   14.11    2.42
   0   6   2   23.62    2.41
  -3   2  -4  269.27    4.50
  -1   2   1  334.99    2.60
  -3   3  -4    3.48    3.38
  -3   1  -4    2.44    1.97
  -3   2  -3  299.07    4.23
  -3   3  -3   28.82    3.16
  -2   1  -1   97.17    1.57
  -2   3   0  955.22    5.45
  -2   4   0  140.10    3.53
   0   4   3    8.28    1.46
   0   5   3   12.85    1.76
  -2   0  -2   24.50    1.10
  -2   2   0  297.05    3.09
  -3   1  -3    4.60    1.87
  -2   5   0   92.56    3.34
  -1   5   2   54.90    2.93
  -1   3   2  649.07    4.04
   0   6   3  326.98    4.18
  -3   2  -2  316.94    3.84
  -2  -1  -4    4.92    0.51
   0   3   3  267.54    2.29
  -3   0  -4  297.44    2.80
  -2   3   1  441.85    4.12
  -2   4   1  421.82    4.31
  -3   3  -1   31.22    3.00
  -2   5   1  419.00    5.46
  -3   1  -2    8.04    1.82
  -3   4  -1   -1.22    3.10
   1   4   4    2.59    1.00
  -3   2  -1  237.05    3.67
  -2   1   0  121.44    2.05
  -1   1   1 1035.04    3.72
  -2   2   1  222.12    2.86
  -1   2   2  102.17    1.93
  -1   5   3   26.44    2.36
  -1   4   3  507.02    4.04
   0   5   4   66.96    2.25
  -3   0  -3  252.74    2.68
  -4   2  -4  189.14    4.77
  -3   3   0   36.46    2.20
  -3   4   0   10.67    2.16
  -2   4   2  119.89    2.84
   0   4   4   13.24    1.56
  -4   2  -3   62.19    3.53
  -3   2   0  349.50    4.05
  -2   3   2   39.09    1.77
  -4   1  -4  167.62    3.55
  -3   0  -2  151.91    2.34
  -3   4   1   37.24    3.10
  -1   0   0  327.26    1.67
  -4   1  -3  261.36    4.00
  -4   2  -2   24.18    2.47
  -3   3   1   39.47    2.44
  -1   5   4   10.58    2.29
  -2  -1  -3  368.40    1.62
  -2   1   1  271.41    2.78
  -2   2   2  507.37    3.99
  -2   5   3  218.38    4.02
   0   2   3   64.27    1.27
  -1   4   4  147.22    2.92
  -3   1   0   49.35    2.09
  -3   2   1  175.77    3.42
  -4   1  -2   89.13    3.02
  -4   2  -1   97.68    3.45
   0   3   4  135.37    1.87
  -3   4   2   12.60    2.95
  -2   3   3   31.38    1.93
  -3   3   2   60.03    3.06
   1   3   4   62.75    0.97
  -3   0  -1  170.97    2.61
  -2   0   0  212.44    2.23
  -1   1   2  341.10    2.58
  -4   0  -3  329.58    3.72
  -1   3   4  328.99    3.36
   0   1   2  210.51    1.31
  -4   1  -1  576.69    4.94
  -2   4   4  269.48    3.90
  -1   5   5  350.88    4.19
   0   4   5   77.24    2.02
  -3   1   1   35.25    1.79
  -3   2   2   56.01    2.21
  -2   2   3 1439.69    6.63
  -4   0  -2  183.08    2.99
  -2   1   2 1846.18    6.66
  -3  -1  -3  523.08    3.06
  -1   4   5   85.70    2.78
  -4   2   1    6.04    2.76
  -3   3   3  147.49    3.22
  -2  -1  -2  867.18    2.73
  -5   1  -2  136.52    4.10
  -4   0  -1 1617.58    7.73
  -3   1   2    2.89    2.52
  -3   2   3  184.18    3.91
  -2   0   1  835.45    4.13
  -1   2   4  372.08    3.42
  -3  -1  -2  355.23    2.73
  -2   4   5  120.27    3.33
  -1   0   1  644.27    2.72
  -4   1   1   83.59    3.42
  -4   2   2    2.86    2.69
  -1   3   5   47.38    2.20
  -1   1   3  556.01    3.43
   0   2   4  108.95    1.58
   0   3   5  570.46    3.50
  -3   0   1  185.30    3.14
  -2   1   3 1657.69    6.96
  -4  -1  -3  377.21    3.49
  -4   0   0  883.78    6.21
  -2   3   5   -1.08    2.47
  -5   0  -2  190.53    3.92
  -3  -1  -1  161.79    2.27
  -2  -1  -1 4233.86    7.03
  -1   4   6   82.29    2.89
  -4  -1  -2  505.66    4.17
  -4   1   2   -2.84    2.82
  -3   1   3    1.26    2.61
  -3   2   4   93.07    3.53
   0  -2  -8   35.00    2.33
  -2  -3  -6   -1.96    1.66
  -2  -3  -1   85.33    1.07
  -1  -1  -4    2.69    1.49
  -1  -1  -1    0.86    0.60
  -2  -4  -8   46.90    3.03
  -1  -2  -7  106.92    2.32
   0   0  -4   12.43    1.17
  -3  -5  -5   50.91    3.57
  -2  -3  -7    3.06    2.43
   0  -1  -7  153.56    2.81
  -3  -6  -7   -2.31    3.49
  -3  -5  -6   52.76    3.54
  -1  -1  -5   67.85    1.68
   1   0  -6  206.54    2.65
  -2  -2  -4  897.12    4.64
  -3  -5  -7  195.11    4.53
  -2  -4  -9   19.92    2.69
   0  -2  -9   44.09    2.63
  -2  -2  -5 1780.58    6.83
   0   0  -5   96.09    1.77
  -3  -4  -5  421.42    4.88
  -2  -3  -8   25.74    2.55
  -1  -1  -6  580.94    4.09
  -3  -5  -8  259.57    4.79
  -3  -4  -6   17.86    2.71
  -3  -4  -4  982.67    5.80
  -2  -2  -6  655.03    4.66
  -2  -2  -2 9999.00   10.43
   0  -1  -8  149.76    2.98
   1   1  -2    5.50    0.48
  -3  -4  -8   66.30    3.21
  -3  -4  -3 1047.86    4.54
  -2  -3  -9   27.99    1.95
  -2  -2  -7   49.99    2.07
  -1  -2  -9  594.46    5.25
   0   0  -6  130.27    2.14
   1   1  -3  192.18    1.34
  -3  -3  -5  141.44    2.97
  -2  -2  -8  100.59    2.91
  -3  -3  -7    0.60    2.24
  -3  -3  -4   69.61    2.12
   1   1  -4  234.72    1.76
  -1  -1  -8   36.58    2.42
   0   0  -7  140.55    2.49
  -3  -3  -8   49.71    2.39
  -2  -1  -5  476.00    3.77
  -2  -1  -4    7.96    1.66
  -1   0  -4  252.12    2.42
  -1   1  -3  217.65    1.99
   0   2  -7    1.02    1.57
   0   2  -3  265.22    2.37
   2   3  -4  268.54    2.93
  -2   0  -4  661.16    3.12
   1   2  -1  931.67    2.78
   2   3  -5   94.54    2.40
   2   3  -3   38.39    1.56
  -3  -1  -7  265.55    3.39
   2   3  -6   20.04    2.12
  -3  -1  -8   13.02    1.98
   1   3  -5  722.79    5.04
   1   3  -4  898.64    5.05
  -3  -1  -6 2078.98    6.81
   1   3  -6  408.61    4.65
   2   3  -2  203.65    2.14
   0   2  -2  152.33    1.57
   1   3  -3    8.07    1.60
  -1   2  -7  256.50    3.80
  -1   2  -6   31.78    2.05
  -1   2  -5   75.21    2.54
  -2   1  -8  165.93    3.48
  -1   1  -2  217.63    1.74
  -2   0  -3  575.17    2.52
  -1   2  -4  147.86    2.43
   0   3  -6   12.74    2.24
   0   3  -5  130.75    2.91
   2   2   0   24.79    0.45
   0   3  -4  442.27    3.83
   1   3  -2  813.64    3.74
  -3   0  -8   58.64    2.41
  -3   0  -7   27.65    2.10
  -1   0  -1  439.52    1.27
  -1   2  -3   -0.91    1.45
  -3   0  -6   98.36    2.41
   0   3  -3 1237.41    5.24
   2   3  -1 1045.93    3.32
   0   2  -1  388.28    2.08
   2   4  -4    5.23    1.93
   1   4  -5  225.73    3.53
  -3   0  -5  787.00    4.11
  -2   2  -6   92.76    2.87
  -1   3  -6   18.83    2.28
   1   4  -4   77.08    2.68
   2   4  -3   39.22    1.88
  -3  -1  -4  359.74    2.00
  -2   2  -5  304.76    3.64
  -1   3  -5    9.52    1.73
   0   3  -2 2120.76    6.15
   1   3  -1  259.63    1.99
  -2  -1  -2  853.02    1.70
  -1   2  -2  107.79    1.74
   1   2   0  827.15    2.17
   1   4  -3    3.79    1.92
  -3   1  -7   50.27    2.71
  -1   3  -4   20.62    1.80
   0   0   0    0.00    0.00

;
_shelx_hkl_checksum              25745
loop_
_space_group_symop_operation_xyz
'x, y, z'
'-x, -y, -z'
loop_
_atom_site_label
_atom_site_type_symbol
_atom_site_fract_x
_atom_site_fract_y
_atom_site_fract_z
_atom_site_U_iso_or_equiv
_atom_site_adp_type
_atom_site_occupancy
_atom_site_site_symmetry_order
_atom_site_calc_flag
_atom_site_refinement_flags_posn
_atom_site_refinement_flags_adp
_atom_site_refinement_flags_occupancy
_atom_site_disorder_assembly
_atom_site_disorder_group
Mn1 Mn 0.38176(6) -0.14996(5) 0.99778(3) 0.02548(19) Uani 1 1 d . . . . .
C1 C 0.4409(5) 0.1480(4) 0.7061(3) 0.0268(6) Uani 1 1 d . . . . .
C2 C 0.3951(4) 0.2699(3) 0.5882(2) 0.0233(6) Uani 1 1 d . . . . .
C3 C 0.4963(4) 0.2223(4) 0.4820(2) 0.0249(6) Uani 1 1 d . . . . .
H3 H 0.5897 0.1105 0.4852 0.030 Uiso 1 1 calc R U . . .
C4 C 0.4611(4) 0.3392(4) 0.3694(2) 0.0246(5) Uani 1 1 d . . . . .
H4 H 0.5311 0.3064 0.2969 0.030 Uiso 1 1 calc R U . . .
C5 C 0.3247(4) 0.5012(4) 0.3648(2) 0.0235(6) Uani 1 1 d . . . . .
C6 C 0.2892(4) 0.6265(4) 0.2481(2) 0.0242(6) Uani 1 1 d . . . . .
C7 C 0.0349(4) 0.8411(3) 0.3509(2) 0.0238(5) Uani 1 1 d . . . . .
C8 C 0.0790(4) 0.7182(3) 0.4684(2) 0.0223(5) Uani 1 1 d . . . . .
C9 C -0.0184(4) 0.7657(4) 0.5735(2) 0.0250(6) Uani 1 1 d . . . . .
H9 H -0.1117 0.8775 0.5705 0.030 Uiso 1 1 calc R U . . .
C10 C 0.0192(4) 0.6497(4) 0.6858(2) 0.0249(6) Uani 1 1 d . . . . .
H10 H -0.0476 0.6843 0.7579 0.030 Uiso 1 1 calc R U . . .
C11 C 0.1514(4) 0.4871(4) 0.6917(2) 0.0235(5) Uani 1 1 d . . . . .
C12 C 0.1904(4) 0.3659(4) 0.8107(2) 0.0263(6) Uani 1 1 d . . . . .
C13 C 0.2557(4) 0.4351(3) 0.5843(2) 0.0226(5) Uani 1 1 d . . . . .
C14 C 0.2203(4) 0.5523(3) 0.4716(2) 0.0223(5) Uani 1 1 d . . . . .
N1 N 0.3414(4) 0.2118(3) 0.8083(2) 0.0256(5) Uani 1 1 d . . . . .
N2 N 0.1534(4) 0.7848(3) 0.2479(2) 0.0242(5) Uani 1 1 d . . . . .
O1 O 0.5599(4) 0.0046(3) 0.7159(2) 0.0362(5) Uani 1 1 d . . . . .
O2 O 0.3931(3) 0.1090(3) 0.91632(17) 0.0294(5) Uani 1 1 d . . . . .
O3 O 0.0969(3) 0.4017(3) 0.90573(18) 0.0322(5) Uani 1 1 d . . . . .
O4 O -0.0934(3) 0.9795(2) 0.34017(17) 0.0287(4) Uani 1 1 d . . . . .
O5 O 0.1221(3) 0.8974(3) 0.13984(17) 0.0299(5) Uani 1 1 d . . . . .
O6 O 0.3827(3) 0.5951(3) 0.14959(17) 0.0291(4) Uani 1 1 d . . . . .
O1W O 0.1827(3) -0.1995(3) 0.90748(18) 0.0310(5) Uani 1 1 d . . . . .
H1WA H 0.1216 -0.1105 0.8445 0.047 Uiso 1 1 calc R U . . .
H1WB H 0.1575 -0.3100 0.9312 0.047 Uiso 1 1 calc R U . . .
O2W O 0.6525(3) -0.3249(3) 0.92298(18) 0.0299(4) Uani 1 1 d . . . . .
H2WA H 0.6169 -0.4077 0.9134 0.045 Uiso 1 1 d R U . . .
H2WB H 0.7347 -0.3769 0.9752 0.045 Uiso 1 1 d R U . . .
loop_
_atom_site_aniso_label
_atom_site_aniso_U_11
_atom_site_aniso_U_22
_atom_site_aniso_U_33
_atom_site_aniso_U_23
_atom_site_aniso_U_13
_atom_site_aniso_U_12
Mn1 0.0306(3) 0.0236(3) 0.0197(3) -0.00650(18) -0.00412(17) -0.00374(18)
C1 0.0298(15) 0.0260(14) 0.0259(14) -0.0081(11) -0.0076(11) -0.0060(11)
C2 0.0242(14) 0.0240(13) 0.0242(14) -0.0073(11) -0.0063(10) -0.0073(10)
C3 0.0235(14) 0.0240(13) 0.0275(14) -0.0086(11) -0.0061(10) -0.0037(10)
C4 0.0256(14) 0.0279(14) 0.0228(13) -0.0116(11) -0.0031(10) -0.0065(10)
C5 0.0252(14) 0.0255(13) 0.0211(13) -0.0083(11) -0.0035(10) -0.0068(10)
C6 0.0264(14) 0.0257(13) 0.0217(13) -0.0088(10) -0.0041(10) -0.0065(10)
C7 0.0260(14) 0.0243(14) 0.0220(13) -0.0073(10) -0.0030(10) -0.0078(10)
C8 0.0233(14) 0.0230(13) 0.0213(13) -0.0054(10) -0.0042(10) -0.0075(10)
C9 0.0247(14) 0.0240(13) 0.0253(13) -0.0070(10) -0.0047(10) -0.0047(10)
C10 0.0256(14) 0.0279(14) 0.0220(13) -0.0097(10) -0.0030(10) -0.0061(10)
C11 0.0227(13) 0.0275(14) 0.0207(13) -0.0065(10) -0.0036(10) -0.0074(10)
C12 0.0245(14) 0.0295(14) 0.0243(14) -0.0070(11) -0.0045(10) -0.0067(11)
C13 0.0234(13) 0.0228(13) 0.0225(14) -0.0070(10) -0.0049(10) -0.0062(10)
C14 0.0228(13) 0.0234(13) 0.0218(13) -0.0080(10) -0.0030(10) -0.0064(10)
N1 0.0310(13) 0.0246(12) 0.0193(11) -0.0032(9) -0.0072(9) -0.0057(9)
N2 0.0274(12) 0.0242(11) 0.0190(11) -0.0051(9) -0.0056(8) -0.0038(9)
O1 0.0472(13) 0.0241(11) 0.0326(11) -0.0082(8) -0.0153(9) 0.0032(9)
O2 0.0410(12) 0.0265(10) 0.0208(10) -0.0017(8) -0.0125(8) -0.0082(8)
O3 0.0364(12) 0.0351(11) 0.0194(10) -0.0072(8) -0.0046(8) -0.0029(9)
O4 0.0313(11) 0.0235(10) 0.0250(10) -0.0059(8) -0.0060(8) 0.0007(8)
O5 0.0370(11) 0.0290(10) 0.0162(9) -0.0032(8) -0.0048(7) -0.0020(8)
O6 0.0366(11) 0.0281(10) 0.0201(10) -0.0068(8) -0.0023(8) -0.0075(8)
O1W 0.0370(12) 0.0298(11) 0.0254(10) -0.0065(8) -0.0098(8) -0.0055(8)
O2W 0.0299(11) 0.0311(10) 0.0260(10) -0.0112(8) -0.0040(8) -0.0021(8)
loop_
_atom_type_symbol
_atom_type_description
_atom_type_scat_dispersion_real
_atom_type_scat_dispersion_imag
_atom_type_scat_source
C C 0.0181 0.0091 'International Tables Vol C Tables 4.2.6.8 and 6.1.1.4'
H H 0.0000 0.0000 'International Tables Vol C Tables 4.2.6.8 and 6.1.1.4'
N N 0.0311 0.0180 'International Tables Vol C Tables 4.2.6.8 and 6.1.1.4'
O O 0.0492 0.0322 'International Tables Vol C Tables 4.2.6.8 and 6.1.1.4'
Mn Mn -0.5299 2.8052 'International Tables Vol C Tables 4.2.6.8 and 6.1.1.4'
loop_
_geom_angle_atom_site_label_1
_geom_angle_atom_site_label_2
_geom_angle_atom_site_label_3
_geom_angle
_geom_angle_site_symmetry_1
_geom_angle_site_symmetry_3
_geom_angle_publ_flag
O2 Mn1 O5 97.86(8) . 1_546 ?
O2 Mn1 O2W 110.37(8) . . ?
O5 Mn1 O2W 150.15(8) 1_546 . ?
O2 Mn1 O1W 106.76(8) . . ?
O5 Mn1 O1W 88.72(8) 1_546 . ?
O2W Mn1 O1W 92.17(8) . . ?
O2 Mn1 O2 74.16(8) . 2_657 ?
O5 Mn1 O2 95.00(8) 1_546 2_657 ?
O2W Mn1 O2 83.92(8) . 2_657 ?
O1W Mn1 O2 176.03(7) . 2_657 ?
O2 Mn1 O6 157.73(8) . 1_546 ?
O5 Mn1 O6 70.69(7) 1_546 1_546 ?
O2W Mn1 O6 79.46(7) . 1_546 ?
O1W Mn1 O6 92.36(8) . 1_546 ?
O2 Mn1 O6 87.57(7) 2_657 1_546 ?
O1 C1 N1 120.9(3) . . ?
O1 C1 C2 123.5(3) . . ?
N1 C1 C2 115.6(2) . . ?
C3 C2 C13 120.2(3) . . ?
C3 C2 C1 119.7(2) . . ?
C13 C2 C1 120.1(2) . . ?
C2 C3 C4 120.3(2) . . ?
C2 C3 H3 119.8 . . ?
C4 C3 H3 119.8 . . ?
C5 C4 C3 119.8(2) . . ?
C5 C4 H4 120.1 . . ?
C3 C4 H4 120.1 . . ?
C4 C5 C14 120.8(2) . . ?
C4 C5 C6 120.7(2) . . ?
C14 C5 C6 118.5(2) . . ?
O6 C6 N2 118.7(2) . . ?
O6 C6 C5 122.6(2) . . ?
N2 C6 C5 118.6(2) . . ?
O4 C7 N2 120.4(2) . . ?
O4 C7 C8 124.4(2) . . ?
N2 C7 C8 115.3(2) . . ?
C9 C8 C14 120.4(2) . . ?
C9 C8 C7 119.7(2) . . ?
C14 C8 C7 120.0(2) . . ?
C8 C9 C10 120.4(2) . . ?
C8 C9 H9 119.8 . . ?
C10 C9 H9 119.8 . . ?
C11 C10 C9 120.5(2) . . ?
C11 C10 H10 119.7 . . ?
C9 C10 H10 119.7 . . ?
C10 C11 C13 120.3(2) . . ?
C10 C11 C12 120.1(2) . . ?
C13 C11 C12 119.6(2) . . ?
O3 C12 N1 121.6(2) . . ?
O3 C12 C11 121.9(3) . . ?
N1 C12 C11 116.4(2) . . ?
C2 C13 C14 119.6(2) . . ?
C2 C13 C11 121.2(2) . . ?
C14 C13 C11 119.2(3) . . ?
C5 C14 C13 119.3(3) . . ?
C5 C14 C8 121.5(2) . . ?
C13 C14 C8 119.3(2) . . ?
O2 N1 C12 116.5(2) . . ?
O2 N1 C1 117.1(2) . . ?
C12 N1 C1 126.4(2) . . ?
O5 N2 C6 117.7(2) . . ?
O5 N2 C7 116.3(2) . . ?
C6 N2 C7 126.0(2) . . ?
N1 O2 Mn1 127.62(16) . . ?
N1 O2 Mn1 122.82(16) . 2_657 ?
Mn1 O2 Mn1 105.84(8) . 2_657 ?
N2 O5 Mn1 112.68(15) . 1_564 ?
C6 O6 Mn1 110.75(17) . 1_564 ?
Mn1 O1W H1WA 120.0 . . ?
Mn1 O1W H1WB 120.0 . . ?
H1WA O1W H1WB 120.0 . . ?
Mn1 O2W H2WA 109.3 . . ?
Mn1 O2W H2WB 109.4 . . ?
H2WA O2W H2WB 104.6 . . ?
loop_
_geom_bond_atom_site_label_1
_geom_bond_atom_site_label_2
_geom_bond_distance
_geom_bond_site_symmetry_2
_geom_bond_publ_flag
Mn1 O2 2.111(2) . ?
Mn1 O5 2.148(2) 1_546 ?
Mn1 O2W 2.157(2) . ?
Mn1 O1W 2.188(2) . ?
Mn1 O2 2.266(2) 2_657 ?
Mn1 O6 2.320(2) 1_546 ?
C1 O1 1.212(4) . ?
C1 N1 1.409(4) . ?
C1 C2 1.489(4) . ?
C2 C3 1.390(4) . ?
C2 C13 1.408(4) . ?
C3 C4 1.410(4) . ?
C3 H3 0.9500 . ?
C4 C5 1.380(4) . ?
C4 H4 0.9500 . ?
C5 C14 1.412(4) . ?
C5 C6 1.472(4) . ?
C6 O6 1.246(3) . ?
C6 N2 1.360(4) . ?
C7 O4 1.208(3) . ?
C7 N2 1.412(3) . ?
C7 C8 1.485(4) . ?
C8 C9 1.374(4) . ?
C8 C14 1.419(4) . ?
C9 C10 1.408(4) . ?
C9 H9 0.9500 . ?
C10 C11 1.371(4) . ?
C10 H10 0.9500 . ?
C11 C13 1.422(4) . ?
C11 C12 1.486(4) . ?
C12 O3 1.224(4) . ?
C12 N1 1.381(4) . ?
C13 C14 1.412(4) . ?
N1 O2 1.362(3) . ?
N2 O5 1.351(3) . ?
O2 Mn1 2.266(2) 2_657 ?
O5 Mn1 2.148(2) 1_564 ?
O6 Mn1 2.320(2) 1_564 ?
O1W H1WA 0.9500 . ?
O1W H1WB 0.9500 . ?
O2W H2WA 0.8702 . ?
O2W H2WB 0.8705 . ?
loop_
_geom_torsion_atom_site_label_1
_geom_torsion_atom_site_label_2
_geom_torsion_atom_site_label_3
_geom_torsion_atom_site_label_4
_geom_torsion
_geom_torsion_site_symmetry_1
_geom_torsion_site_symmetry_2
_geom_torsion_site_symmetry_3
_geom_torsion_site_symmetry_4
_geom_torsion_publ_flag
O1 C1 C2 C3 -2.0(4) . . . . ?
N1 C1 C2 C3 175.9(2) . . . . ?
O1 C1 C2 C13 -179.6(3) . . . . ?
N1 C1 C2 C13 -1.7(4) . . . . ?
C13 C2 C3 C4 0.3(4) . . . . ?
C1 C2 C3 C4 -177.3(2) . . . . ?
C2 C3 C4 C5 -0.3(4) . . . . ?
C3 C4 C5 C14 0.3(4) . . . . ?
C3 C4 C5 C6 178.7(3) . . . . ?
C4 C5 C6 O6 -2.0(4) . . . . ?
C14 C5 C6 O6 176.3(3) . . . . ?
C4 C5 C6 N2 -180.0(2) . . . . ?
C14 C5 C6 N2 -1.6(4) . . . . ?
O4 C7 C8 C9 -5.1(4) . . . . ?
N2 C7 C8 C9 175.8(2) . . . . ?
O4 C7 C8 C14 174.5(3) . . . . ?
N2 C7 C8 C14 -4.6(4) . . . . ?
C14 C8 C9 C10 -0.7(4) . . . . ?
C7 C8 C9 C10 179.0(2) . . . . ?
C8 C9 C10 C11 -0.8(4) . . . . ?
C9 C10 C11 C13 1.4(4) . . . . ?
C9 C10 C11 C12 179.8(3) . . . . ?
C10 C11 C12 O3 5.1(4) . . . . ?
C13 C11 C12 O3 -176.4(3) . . . . ?
C10 C11 C12 N1 -173.5(2) . . . . ?
C13 C11 C12 N1 5.0(4) . . . . ?
C3 C2 C13 C14 -0.3(4) . . . . ?
C1 C2 C13 C14 177.3(2) . . . . ?
C3 C2 C13 C11 -179.6(2) . . . . ?
C1 C2 C13 C11 -2.0(4) . . . . ?
C10 C11 C13 C2 178.8(2) . . . . ?
C12 C11 C13 C2 0.3(4) . . . . ?
C10 C11 C13 C14 -0.5(4) . . . . ?
C12 C11 C13 C14 -179.0(2) . . . . ?
C4 C5 C14 C13 -0.3(4) . . . . ?
C6 C5 C14 C13 -178.7(2) . . . . ?
C4 C5 C14 C8 -179.8(2) . . . . ?
C6 C5 C14 C8 1.9(4) . . . . ?
C2 C13 C14 C5 0.3(4) . . . . ?
C11 C13 C14 C5 179.6(2) . . . . ?
C2 C13 C14 C8 179.7(2) . . . . ?
C11 C13 C14 C8 -1.0(4) . . . . ?
C9 C8 C14 C5 -179.0(2) . . . . ?
C7 C8 C14 C5 1.3(4) . . . . ?
C9 C8 C14 C13 1.5(4) . . . . ?
C7 C8 C14 C13 -178.1(2) . . . . ?
O3 C12 N1 O2 -5.5(4) . . . . ?
C11 C12 N1 O2 173.1(2) . . . . ?
O3 C12 N1 C1 171.9(3) . . . . ?
C11 C12 N1 C1 -9.5(4) . . . . ?
O1 C1 N1 O2 3.2(4) . . . . ?
C2 C1 N1 O2 -174.7(2) . . . . ?
O1 C1 N1 C12 -174.1(3) . . . . ?
C2 C1 N1 C12 7.9(4) . . . . ?
O6 C6 N2 O5 2.4(4) . . . . ?
C5 C6 N2 O5 -179.6(2) . . . . ?
O6 C6 N2 C7 179.8(2) . . . . ?
C5 C6 N2 C7 -2.1(4) . . . . ?
O4 C7 N2 O5 3.5(4) . . . . ?
C8 C7 N2 O5 -177.4(2) . . . . ?
O4 C7 N2 C6 -174.0(3) . . . . ?
C8 C7 N2 C6 5.2(4) . . . . ?
C12 N1 O2 Mn1 122.5(2) . . . . ?
C1 N1 O2 Mn1 -55.1(3) . . . . ?
C12 N1 O2 Mn1 -82.4(3) . . . 2_657 ?
C1 N1 O2 Mn1 100.0(2) . . . 2_657 ?
C6 N2 O5 Mn1 -25.9(3) . . . 1_564 ?
C7 N2 O5 Mn1 156.42(18) . . . 1_564 ?
N2 C6 O6 Mn1 20.2(3) . . . 1_564 ?
C5 C6 O6 Mn1 -157.7(2) . . . 1_564 ?
