#------------------------------------------------------------------------------
#$Date: 2022-07-23 03:06:45 +0300 (Sat, 23 Jul 2022) $
#$Revision: 276834 $
#$URL: file:///home/coder/svn-repositories/cod/cif/7/71/07/7710721.cif $
#------------------------------------------------------------------------------
#
# This file is available in the Crystallography Open Database (COD),
# http://www.crystallography.net/
#
# All data on this site have been placed in the public domain by the
# contributors.
#
data_7710721
loop_
_publ_author_name
'Li, Ying'
'Xu, Yan-Jun'
'Fan, Ming-Yue'
'Feng, Zhen-Jie'
'Li, Jun-Jun'
'Wu, Xue-Song'
'Sun, Jing'
'Wang, Xinlong'
'Su, Zhong-Min'
_publ_section_title
;
 Three layered cucurbit[6]uril-based metal-organic rotaxane networks
 functionalized by sulfonic groups for proton conduction
;
_journal_name_full               'Dalton Transactions'
_journal_paper_doi               10.1039/D2DT01283A
_journal_year                    2022
_chemical_formula_moiety         'C17 H21 Cu N2 O9 S, C18 H18 N12 O6, 4(H2 O)'
_chemical_formula_sum            'C35 H47 Cu N14 O19 S'
_chemical_formula_weight         1063.46
_chemical_name_systematic        CUST-712
_space_group_crystal_system      monoclinic
_space_group_IT_number           14
_space_group_name_Hall           '-P 2yn'
_space_group_name_H-M_alt        'P 1 21/n 1'
_atom_sites_solution_hydrogens   mixed
_atom_sites_solution_primary     iterative
_audit_creation_date             2022-07-10
_audit_creation_method
;
Olex2 1.2
(compiled 2018.05.29 svn.r3508 for OlexSys, GUI svn.r5506)
;
_audit_update_record
;
2022-07-13 deposited with the CCDC.	2022-07-14 downloaded from the CCDC.
;
_cell_angle_alpha                90
_cell_angle_beta                 109.559(2)
_cell_angle_gamma                90
_cell_formula_units_Z            4
_cell_length_a                   15.5994(18)
_cell_length_b                   16.5057(19)
_cell_length_c                   17.149(2)
_cell_measurement_reflns_used    3669
_cell_measurement_temperature    296.15
_cell_measurement_theta_max      22.20
_cell_measurement_theta_min      2.16
_cell_volume                     4160.7(8)
_computing_cell_refinement       'SAINT v8.34A (Bruker, 2013)'
_computing_data_collection       'APEX3 Ver. 2016.5-0 (Bruker-AXS, 2016)'
_computing_data_reduction        'SAINT v8.34A (Bruker, 2013)'
_computing_molecular_graphics    'Olex2 (Dolomanov et al., 2009)'
_computing_publication_material  'Olex2 (Dolomanov et al., 2009)'
_computing_structure_refinement  'ShelXL (Sheldrick, 2015)'
_computing_structure_solution    'olex2.solve (Bourhis et al., 2015)'
_diffrn_ambient_temperature      296.15
_diffrn_measured_fraction_theta_full 0.991
_diffrn_measured_fraction_theta_max 0.991
_diffrn_measurement_device_type  'Bruker APEX-II CCD'
_diffrn_measurement_method       '\f and \w scans'
_diffrn_radiation_type           MoK\a
_diffrn_radiation_wavelength     0.71073
_diffrn_reflns_av_R_equivalents  0.0485
_diffrn_reflns_av_unetI/netI     0.0535
_diffrn_reflns_Laue_measured_fraction_full 0.991
_diffrn_reflns_Laue_measured_fraction_max 0.991
_diffrn_reflns_limit_h_max       18
_diffrn_reflns_limit_h_min       -17
_diffrn_reflns_limit_k_max       19
_diffrn_reflns_limit_k_min       -18
_diffrn_reflns_limit_l_max       20
_diffrn_reflns_limit_l_min       -17
_diffrn_reflns_number            23782
_diffrn_reflns_point_group_measured_fraction_full 0.991
_diffrn_reflns_point_group_measured_fraction_max 0.991
_diffrn_reflns_theta_full        25.102
_diffrn_reflns_theta_max         25.102
_diffrn_reflns_theta_min         1.529
_diffrn_standards_number         0
_exptl_absorpt_coefficient_mu    0.676
_exptl_absorpt_correction_T_max  0.874
_exptl_absorpt_correction_T_min  0.850
_exptl_absorpt_correction_type   multi-scan
_exptl_crystal_colour            'clear blue'
_exptl_crystal_colour_lustre     clear
_exptl_crystal_colour_primary    blue
_exptl_crystal_density_diffrn    1.698
_exptl_crystal_description       block
_exptl_crystal_F_000             2208
_exptl_crystal_size_max          0.24
_exptl_crystal_size_mid          0.22
_exptl_crystal_size_min          0.2
_refine_diff_density_max         0.414
_refine_diff_density_min         -0.451
_refine_diff_density_rms         0.065
_refine_ls_extinction_method     none
_refine_ls_goodness_of_fit_ref   1.040
_refine_ls_hydrogen_treatment    mixed
_refine_ls_matrix_type           full
_refine_ls_number_parameters     705
_refine_ls_number_reflns         7352
_refine_ls_number_restraints     163
_refine_ls_restrained_S_all      1.029
_refine_ls_R_factor_all          0.0687
_refine_ls_R_factor_gt           0.0449
_refine_ls_shift/su_max          0.001
_refine_ls_shift/su_mean         0.000
_refine_ls_structure_factor_coef Fsqd
_refine_ls_weighting_details
'w=1/[\s^2^(Fo^2^)+(0.0541P)^2^+2.7634P] where P=(Fo^2^+2Fc^2^)/3'
_refine_ls_weighting_scheme      calc
_refine_ls_wR_factor_gt          0.1101
_refine_ls_wR_factor_ref         0.1243
_reflns_Friedel_coverage         0.000
_reflns_number_gt                5332
_reflns_number_total             7352
_reflns_threshold_expression     'I > 2\s(I)'
_cod_data_source_file            d2dt01283a2.cif
_cod_data_source_block           2
_cod_database_code               7710721
_shelx_shelxl_version_number     2016/4
_shelx_space_group_comment
;
The symmetry employed for this shelxl refinement is uniquely defined
by the following loop, which should always be used as a source of
symmetry information in preference to the above space-group names.
They are only intended as comments.
;
_shelx_estimated_absorpt_t_max   0.877
_shelx_estimated_absorpt_t_min   0.855
_olex2_refinement_description
;
1. Fixed Uiso
 At 1.2 times of:
  All C(H) groups, {H37A,H37B} of C37, {H35B,H35A} of C35, {H36A,H36B} of C36,
   {H1AA,H1AB} of C1A, {H38A,H38B} of C38, {H34C,H34D} of C34A, {H25A,H25B} of
  C25, {H29A,H29B} of C29, {H31A,H31B} of C31, {H23A,H23B} of C23, {H20A,H20B}
  of C20, {H30A,H30B} of C30, {H32A,H32B} of C32, {H34A,H34B} of C34B, All C(H,
  H,H,H) groups, All N(H,H) groups
 At 1.5 times of:
  All O(H,H) groups, {H1BA,H1BB} of C1B
2. Restrained distances
 C1A-C1B
 1.568 with sigma of 0.001
 C1B-H1BB
 0.97 with sigma of 0.001
 C1B-H1BA
 0.97 with sigma of 0.001
 C1A-H1BA
 2.11 with sigma of 0.001
 C1A-H1BB
 2.11 with sigma of 0.001
 C38-H34B
 1.2453 with sigma of 0.0001
 C1B-C1A \\sim C37-C1A
 with sigma of 0.001
 C34A-C28 \\sim C28-C1B_$1 \\sim C38-C28 \\sim C34B-C28
 with sigma of 0.001
 C36-C34B_$1 \\sim C36-C35
 with sigma of 0.001
3. Uiso/Uaniso restraints and constraints
C34B \\sim C34A \\sim C37 \\sim C1A \\sim C1B \\sim C35 \\sim C36 \\sim C38:
within 2A with sigma of 0.01 and sigma for terminal atoms of 0.01
Uanis(C34A) \\sim Ueq, Uanis(C1B) \\sim Ueq: with sigma of 0.001 and sigma for
terminal atoms of 0.002
Uanis(C36) \\sim Ueq: with sigma of 0.001 and sigma for terminal atoms of 0.002
Uanis(C34B) \\sim Ueq, Uanis(C38) \\sim Ueq: with sigma of 0.001 and sigma for
terminal atoms of 0.002
4. Rigid body (RIGU) restrains
 C34A, C28, C37, C1A, C1B
 with sigma for 1-2 distances of 0.001 and sigma for 1-3 distances of 0.001
 C34B, C38, C37, C35, C36, C1B, C1A
 with sigma for 1-2 distances of 0.004 and sigma for 1-3 distances of 0.004
5. Others
 Fixed Sof: H28C(0.5) H28D(0.5) H28A(0.5) H28B(0.5) C34B(0.25) H34A(0.25)
 H34B(0.25) C34A(0.25) H34C(0.25) H34D(0.25) C37(0.25) H37A(0.25) H37B(0.25)
 C1A(0.25) H1AA(0.25) H1AB(0.25) C1B(0.25) H1BA(0.25) H1BB(0.25) C35(0.25)
 H35B(0.25) H35A(0.25) C36(0.25) H36A(0.25) H36B(0.25) C38(0.25) H38A(0.25)
 H38B(0.25)
6.a Riding coordinates:
 C34B(H34A,H34B), C35(H35B,H35A), C36(H36A,H36B)
6.b Free rotating group:
 O13(H13A,H13B), O17(H17A,H17B), O18(H18A,H18B), O19(H19A,H19B)
6.c Rotating group:
 O2(H2A,H2B), O11(H11A,H11B)
6.d Ternary CH refined with riding coordinates:
 C16(H16), C17(H17), C19(H19), C21(H21), C22(H22), C24(H24)
6.e Secondary CH2 refined with riding coordinates:
 N12(H12A,H12B), C20(H20A,H20B), C23(H23A,H23B), C25(H25A,H25B), C28(H28C,
 H28D), C28(H28A,H28B), C29(H29A,H29B), C30(H30A,H30B), C31(H31A,H31B),
 C32(H32A,H32B), C34A(H34C,H34D), C37(H37A,H37B), C1A(H1AA,H1AB), C38(H38A,H38B)
6.f Aromatic/amide H refined with riding coordinates:
 C3(H3), C6(H6), C9(H9), C12(H12), C15(H15), C27(H27), C33(H33)
;
_shelx_res_file
;
TITL 1_a.res in P2(1)/n
 1.res created by SHELXL-2016/4 at 12:47:46 on 10-Jul-2022
REM Old TITL 1 in P2(1)/n
REM SHELXT solution in P2(1)/n
REM R1 0.163, Rweak 0.006, Alpha 0.031, Orientation as input
REM Formula found by SHELXT: C43 N12 O13 S Cu
CELL 0.71073 15.5994 16.5057 17.1489 90 109.559 90
ZERR 4 0.0018 0.0019 0.0021 0 0.002 0
LATT 1
SYMM 0.5-X,0.5+Y,0.5-Z
SFAC C H Cu N O S
UNIT 140 188 4 56 76 4
EQIV $1 2-X,-Y,1-Z
DFIX 1.568 0.001 C1A C1B
DFIX 0.97 0.001 C1B H1Bb
DFIX 0.97 0.001 C1B H1Ba
DFIX 2.11 0.001 C1A H1Ba
DFIX 2.11 0.001 C1A H1Bb
DFIX 1.2453 0.0001 C38 H34b
SADI 0.001 C1B C1A C37 C1A
SADI 0.001 C34A C28 C28 C1B_$1 C38 C28 C34B C28
SADI 0.001 C36 C34B_$1 C36 C35
SIMU 0.01 0.01 2 C34B C34A C37 C1A C1B C35 C36 C38
RIGU 0.001 0.001 C34A C28 C37 C1A C1B
RIGU C34B C38 C37 C35 C36 C1B C1A
ISOR 0.001 0.002 C34A C1B
ISOR 0.001 0.002 C36
ISOR 0.001 0.002 C34B C38

L.S. 99
PLAN  20
SIZE 0.24 0.22 0.2
TEMP 23
BIND C34B H34a
BIND H34b C34B
BIND C35 H35a
FREE H38b H34b
FREE H38b H34a
BIND H35b C35
BIND C36 C34B_$1
FREE C36 C35_$1
BIND C38 C35
FREE C38 H34b
FREE C38 H34a
FREE H38a H34b
CONF
list 4
MORE -1
BOND $H
fmap 2 53
acta
REM <olex2.extras>
REM <HklSrc "%.\\1.hkl">
REM </olex2.extras>

WGHT    0.054100    2.763400
FVAR       0.28665
CU1   3    0.455200    0.268631    0.485158    11.00000    0.02527    0.04173 =
         0.02412   -0.00351   -0.00119    0.00475
S1    6    0.925428    0.504879    0.649168    11.00000    0.03504    0.03754 =
         0.04703   -0.00490    0.01384   -0.00741
O1    5    0.540918    0.333543    0.574082    11.00000    0.02369    0.04858 =
         0.02440    0.00041    0.00075   -0.00561
O2    5    0.372309    0.361427    0.444911    11.00000    0.03435    0.04651 =
         0.03405   -0.00339   -0.00074    0.00592
AFIX   7
H2A   2    0.348356    0.376405    0.481830    11.00000   -1.50000
H2B   2    0.325121    0.346808    0.403149    11.00000   -1.50000
AFIX   0
O3    5    1.208279    0.169771    0.685841    11.00000    0.02852    0.04746 =
         0.05057   -0.00539    0.01583   -0.00286
O4    5    1.169221    0.051008    0.336571    11.00000    0.02964    0.05732 =
         0.04353    0.00159    0.00951    0.00176
O5    5    0.904743    0.290937    0.879582    11.00000    0.03128    0.05644 =
         0.02769    0.00863   -0.00733   -0.01179
O6    5    0.774603    0.224590    0.822186    11.00000    0.02938    0.06140 =
         0.03798    0.01512   -0.00148   -0.01047
O7    5    1.179176    0.214944    0.481893    11.00000    0.02498    0.05858 =
         0.04802    0.00041    0.00777   -0.00075
O8    5    0.762495    0.021697    0.255566    11.00000    0.03412    0.05971 =
         0.04440   -0.00227    0.01470   -0.00286
O9    5    0.803237    0.139609    0.612872    11.00000    0.03550    0.05274 =
         0.05698   -0.01531    0.01720   -0.00858
O10   5    0.771448    0.173312    0.406424    11.00000    0.03175    0.05775 =
         0.05947   -0.01416    0.01332   -0.00953
N1    4    0.531320    0.171334    0.533838    11.00000    0.02568    0.04189 =
         0.02492   -0.00381    0.00146    0.00677
O11   5    0.362100    0.233204    0.564101    11.00000    0.02872    0.06364 =
         0.06735    0.01047    0.00800    0.00161
AFIX   7
H11A  2    0.375182    0.184485    0.585081    11.00000   -1.50000
H11B  2    0.305266    0.228657    0.531964    11.00000   -1.50000
AFIX   0
N2    4    1.039261    0.224132    0.379848    11.00000    0.02807    0.03651 =
         0.03630    0.00300    0.00701   -0.00056
O12   5    0.885078    0.583031    0.627540    11.00000    0.06025    0.03702 =
         0.08509    0.00889    0.02579   -0.00359
N3    4    0.874605    0.109628    0.248883    11.00000    0.03011    0.04591 =
         0.03806    0.00356    0.00715    0.00183
N4    4    1.055439    0.274772    0.503478    11.00000    0.02953    0.04061 =
         0.04156   -0.00168    0.00812   -0.00118

AFIX   6
O13   5    1.118789    0.625737    0.808434    11.00000    0.03865    0.06455 =
         0.05655    0.00209    0.01250   -0.01063
H13A  2    1.082946    0.587741    0.784508    11.00000   -1.50000
H13B  2    1.165428    0.618943    0.794141    11.00000   -1.50000
AFIX   0

O14   5    0.950327    0.465710    0.584940    11.00000    0.07226    0.06422 =
         0.07740   -0.01803    0.04981   -0.01630
N5    4    1.101240    0.157515    0.750846    11.00000    0.03518    0.04673 =
         0.04017   -0.00712    0.01705   -0.00116
N6    4    1.037191    0.122842    0.276468    11.00000    0.03373    0.04677 =
         0.03175    0.00166    0.00830   -0.00042
N7    4    0.892900    0.255272    0.473660    11.00000    0.02962    0.03575 =
         0.04723   -0.00762    0.01215   -0.00190
N8    4    0.875123    0.216507    0.345759    11.00000    0.02789    0.04896 =
         0.03834    0.00059    0.00279   -0.00030
N9    4    0.877309   -0.017107    0.206838    11.00000    0.03379    0.05301 =
         0.03322   -0.00073    0.01149   -0.00337
O15   5    0.598247    0.372505    0.478330    11.00000    0.04261    0.13256 =
         0.02607    0.01110    0.00284   -0.01923
N10   4    0.913665    0.233597    0.618326    11.00000    0.03415    0.04169 =
         0.04416   -0.01133    0.01124   -0.00492
N11   4    1.077316    0.245414    0.647528    11.00000    0.03406    0.04280 =
         0.04828   -0.00327    0.01783    0.00200
N12   4    0.749581    0.017954    0.497253    11.00000    0.03065    0.05007 =
         0.05275   -0.01567    0.01426   -0.00393
AFIX  23
H12A  2    0.751576    0.070144    0.484931    11.00000   -1.20000
H12B  2    0.779320    0.012372    0.551196    11.00000   -1.20000
AFIX   0
N13   4    0.937558    0.147402    0.722577    11.00000    0.03582    0.05001 =
         0.04351   -0.01025    0.01733   -0.00715
N14   4    1.042290   -0.005354    0.240004    11.00000    0.03544    0.05155 =
         0.03848   -0.00603    0.01361   -0.00238
O16   5    1.001907    0.506313    0.726055    11.00000    0.04133    0.08363 =
         0.06214    0.00528   -0.00324   -0.02545

AFIX   6
O17   5    0.256866    0.407695    0.536048    11.00000    0.08498    0.07033 =
         0.06812    0.00108    0.03025   -0.00219
H17A  2    0.239192    0.444849    0.561455    11.00000   -1.50000
H17B  2    0.211824    0.399735    0.492217    11.00000   -1.50000
AFIX   0

C1    1    0.804920    0.336244    0.749788    11.00000    0.02347    0.03594 =
         0.02281   -0.00347    0.00602    0.00040
C2    1    0.828791    0.279256    0.822333    11.00000    0.02183    0.04432 =
         0.02310   -0.00188    0.00381    0.00109
C3    1    0.719525    0.329979    0.689035    11.00000    0.02176    0.04312 =
         0.02609   -0.00340    0.00738   -0.00143
AFIX  43
H3    2    0.678142    0.292459    0.695891    11.00000   -1.20000
AFIX   0
C4    1    0.842862    0.440190    0.668424    11.00000    0.02673    0.03027 =
         0.02877   -0.00530    0.00861   -0.00148
C5    1    0.603562    0.364378    0.550639    11.00000    0.02596    0.06608 =
         0.01550    0.00047    0.00262   -0.01235
C6    1    0.866884    0.392458    0.739116    11.00000    0.02413    0.03548 =
         0.02332   -0.00584    0.00439    0.00046
AFIX  43
H6    2    0.924028    0.397918    0.779195    11.00000   -1.20000
AFIX   0
C7    1    0.612990    0.050215    0.528584    11.00000    0.01964    0.03517 =
         0.04549   -0.00356    0.00825   -0.00251
C8    1    1.136069    0.188144    0.693507    11.00000    0.03080    0.03723 =
         0.03665   -0.01886    0.00883   -0.01068
C9    1    0.757462    0.433205    0.608481    11.00000    0.02875    0.03905 =
         0.02763    0.00386    0.00942    0.00599
AFIX  43
H9    2    0.742184    0.465442    0.561322    11.00000   -1.20000
AFIX   0
C10   1    0.694511    0.377863    0.618907    11.00000    0.02302    0.04160 =
         0.02142   -0.00057    0.00529    0.00009
C11   1    1.099043    0.235970    0.457634    11.00000    0.03266    0.02892 =
         0.04250    0.00367    0.01001   -0.00664
C12   1    0.561592    0.116492    0.491451    11.00000    0.02514    0.04754 =
         0.02885   -0.00684    0.00280    0.00204
AFIX  43
H12   2    0.547337    0.123449    0.434700    11.00000   -1.20000
AFIX   0
C13   1    0.831439    0.036002    0.239469    11.00000    0.03134    0.05657 =
         0.02064    0.00597   -0.00089    0.00382
C14   1    1.090729    0.055350    0.289360    11.00000    0.03956    0.05262 =
         0.02824    0.00536    0.01886   -0.00206
C15   1    0.553644    0.160916    0.615675    11.00000    0.03031    0.05423 =
         0.03052   -0.00264    0.00915    0.00632
AFIX  43
H15   2    0.533833    0.199063    0.645760    11.00000   -1.20000
AFIX   0
C16   1    0.954919    0.267434    0.367559    11.00000    0.03476    0.03111 =
         0.04986    0.01410    0.00953    0.00577
AFIX  13
H16   2    0.947363    0.312184    0.328263    11.00000   -1.20000
AFIX   0
C17   1    0.964599    0.298605    0.454762    11.00000    0.03249    0.02190 =
         0.05320    0.00011    0.00784    0.00072
AFIX  13
H17   2    0.956375    0.357432    0.455430    11.00000   -1.20000
AFIX   0
C18   1    0.839595    0.211240    0.408245    11.00000    0.02977    0.03532 =
         0.04319   -0.00002    0.00562    0.00840
C19   1    0.948562    0.109857    0.214721    11.00000    0.03557    0.05408 =
         0.02572    0.01020    0.00586    0.00046
AFIX  13
H19   2    0.936896    0.147336    0.167989    11.00000   -1.20000
AFIX   0
C20   1    0.849288   -0.100017    0.186737    11.00000    0.03592    0.06152 =
         0.02919   -0.00884    0.00667   -0.00461
AFIX  23
H20A  2    0.857479   -0.113997    0.134742    11.00000   -1.20000
H20B  2    0.784953   -0.104542    0.178955    11.00000   -1.20000
AFIX   0
C21   1    1.017598    0.197696    0.748281    11.00000    0.03730    0.04764 =
         0.03900   -0.01967    0.01888   -0.00600
AFIX  13
H21   2    1.024324    0.225477    0.800504    11.00000   -1.20000
AFIX   0
C22   1    0.952126    0.021029    0.188262    11.00000    0.03754    0.06082 =
         0.02335    0.00056    0.01040   -0.00363
AFIX  13
H22   2    0.944486    0.016852    0.129308    11.00000   -1.20000
AFIX   0
C23   1    0.832005    0.182201    0.264488    11.00000    0.03205    0.05390 =
         0.03600    0.00847   -0.00197    0.00829
AFIX  23
H23A  2    0.769058    0.170207    0.257766    11.00000   -1.20000
H23B  2    0.832175    0.222415    0.223293    11.00000   -1.20000
AFIX   0
C24   1    1.000857    0.258710    0.675793    11.00000    0.03420    0.03534 =
         0.05110   -0.01935    0.01704   -0.00362
AFIX  13
H24   2    0.999039    0.314669    0.694276    11.00000   -1.20000
AFIX   0
C25   1    1.070444    0.200528    0.312159    11.00000    0.03702    0.04662 =
         0.03931    0.01194    0.01344   -0.00467
AFIX  23
H25A  2    1.051362    0.241414    0.269155    11.00000   -1.20000
H25B  2    1.136420    0.199336    0.332225    11.00000   -1.20000
AFIX   0
C26   1    0.877288    0.169756    0.647902    11.00000    0.03637    0.04195 =
         0.05125   -0.01919    0.02340   -0.00021

AFIX   6
O18   5    1.105574    0.380000    0.812611    11.00000    0.05457    0.12578 =
         0.09009    0.01039    0.00711    0.00732
H18A  2    1.162745    0.372200    0.828666    11.00000   -1.50000
H18B  2    1.097215    0.421502    0.781705    11.00000   -1.50000
AFIX   0

C27   1    0.633265    0.040282    0.613039    11.00000    0.03635    0.04889 =
         0.05280    0.01983    0.01948    0.01089
AFIX  43
H27   2    0.666420   -0.004534    0.639650    11.00000   -1.20000
AFIX   0
C28   1    0.798200   -0.028698    0.451732    11.00000    0.03054    0.04816 =
         0.04895   -0.00362    0.01685    0.00545
PART 2
AFIX  23
H28C  2    0.759969   -0.030024    0.394004    10.50000   -1.20000
H28D  2    0.803687   -0.084023    0.471889    10.50000   -1.20000
AFIX  23
PART 0
PART -2
H28A  2    0.769227   -0.022012    0.392498    10.50000   -1.20000
H28B  2    0.799102   -0.085878    0.465040    10.50000   -1.20000
AFIX   0
PART 0
C29   1    1.099110    0.297389    0.589148    11.00000    0.03343    0.03687 =
         0.05043   -0.00922    0.00998   -0.00870
AFIX  23
H29A  2    1.164481    0.296897    0.601337    11.00000   -1.20000
H29B  2    1.081560    0.352413    0.596776    11.00000   -1.20000
AFIX   0
C30   1    0.653038   -0.004937    0.480701    11.00000    0.02619    0.04330 =
         0.05516   -0.01075    0.01123   -0.00276
AFIX  23
H30A  2    0.649381   -0.060676    0.497236    11.00000   -1.20000
H30B  2    0.619352   -0.000267    0.422012    11.00000   -1.20000
AFIX   0
C31   1    0.864965    0.275778    0.543770    11.00000    0.02867    0.03554 =
         0.06527   -0.01370    0.01505    0.00140
AFIX  23
H31A  2    0.873045    0.333560    0.553872    11.00000   -1.20000
H31B  2    0.800630    0.264033    0.529713    11.00000   -1.20000
AFIX   0
C32   1    1.081616   -0.082327    0.229558    11.00000    0.04061    0.05945 =
         0.04642   -0.01050    0.02627   -0.00164
AFIX  23
H32A  2    1.058686   -0.097096    0.171477    11.00000   -1.20000
H32B  2    1.147036   -0.076022    0.245214    11.00000   -1.20000
AFIX   0
C33   1    0.604295    0.096710    0.657184    11.00000    0.03517    0.06885 =
         0.03382    0.01638    0.01492    0.01279
AFIX  43
H33   2    0.618688    0.091578    0.714144    11.00000   -1.20000
AFIX   6

O19   5    0.645338   -0.019544    0.091960    11.00000    0.08699    0.10967 =
         0.10840   -0.00494   -0.00378   -0.01457
H19A  2    0.624558   -0.034543    0.129597    11.00000   -1.50000
H19B  2    0.598289   -0.008627    0.050746    11.00000   -1.50000
AFIX   0

PART 2
C34B  1    0.893464   -0.000410    0.455270    10.25000    0.03619    0.03665 =
         0.03659   -0.00007    0.01260    0.00032
PART 0
PART -2
AFIX   3
H34A  2    0.918454    0.024470    0.509420    10.25000   -1.20000
H34B  2    0.883314    0.040850    0.412850    10.25000   -1.20000
AFIX   0
PART 0
PART -1
C34A  1    0.898543   -0.007511    0.498007    10.25000    0.03257    0.03262 =
         0.03247    0.00007    0.01207    0.00100
AFIX  23
H34C  2    0.916482   -0.025349    0.555125    10.25000   -1.20000
H34D  2    0.908101    0.050505    0.497161    10.25000   -1.20000
AFIX   0
C37   1    0.953770   -0.052356    0.451818    10.25000    0.03334    0.03635 =
         0.04009   -0.00028    0.01785    0.00054
AFIX  23
H37A  2    0.942720   -0.027656    0.398010    10.25000   -1.20000
H37B  2    0.934317   -0.108448    0.443309    10.25000   -1.20000
AFIX   0
C1A   1    1.057931   -0.048607    0.502840    10.25000    0.03402    0.03633 =
         0.04566   -0.00200    0.01708    0.00077
AFIX  23
H1AA  2    1.090509   -0.083782    0.477076    10.25000   -1.20000
H1AB  2    1.067613   -0.068924    0.558211    10.25000   -1.20000
AFIX   0
C1B   1    1.098120    0.039149    0.509043    10.25000    0.03491    0.03577 =
         0.03700    0.00093    0.01290    0.00122
H1BA  2    1.078971    0.064547    0.454915    10.25000   -1.50000
H1BB  2    1.062340    0.076485    0.529252    10.25000   -1.50000
PART 0
PART -2
C35   1    0.951215    0.001466    0.542207    10.25000    0.03144    0.03239 =
         0.03192   -0.00071    0.01691    0.00199
PART 0
PART 1
AFIX   3
H35B  2    0.926145    0.018146    0.584367    10.25000   -1.20000
H35A  2    0.970005   -0.054784    0.550907    10.25000   -1.20000
AFIX   0
PART 0
PART -2
C36   1    1.041966    0.037783    0.554147    10.25000    0.03467    0.03504 =
         0.03542   -0.00062    0.01305    0.00028
AFIX   3
H36A  2    1.025866    0.079773    0.512187    10.25000   -1.20000
H36B  2    1.060376    0.062483    0.608597    10.25000   -1.20000
AFIX   0
C38   1    0.895378    0.006072    0.480130    10.25000    0.03470    0.03506 =
         0.03516   -0.00021    0.01243    0.00032
AFIX  23
H38A  2    0.922226   -0.014838    0.440716    10.25000   -1.20000
H38B  2    0.887430    0.063743    0.469229    10.25000   -1.20000
AFIX   0
HKLF 4




REM  1_a.res in P2(1)/n
REM R1 =  0.0449 for    5332 Fo > 4sig(Fo)  and  0.0687 for all    7352 data
REM    705 parameters refined using    163 restraints

END

WGHT      0.0541      2.7692

REM Highest difference peak  0.414,  deepest hole -0.451,  1-sigma level  0.065
Q1    1   0.5761  0.4061  0.5493  11.00000  0.05    0.41
Q2    1   0.8809  0.5072  0.5387  11.00000  0.05    0.41
Q3    1   0.5671  0.4787  0.5269  11.00000  0.05    0.39
Q4    1   1.0042  0.4704  0.6663  11.00000  0.05    0.36
Q5    1   0.3602  0.1981  0.5224  11.00000  0.05    0.35
Q6    1   0.5962  0.3425  0.5783  11.00000  0.05    0.31
Q7    1   0.7446  0.2210  0.3757  11.00000  0.05    0.29
Q8    1   0.3791  0.2811  0.4239  11.00000  0.05    0.29
Q9    1   0.6461  0.3660  0.5739  11.00000  0.05    0.29
Q10   1   1.1006  0.0421  0.6181  11.00000  0.05    0.28
Q11   1   0.5198  0.2798  0.5586  11.00000  0.05    0.25
Q12   1   0.5982  0.3447  0.5274  11.00000  0.05    0.24
Q13   1   0.7838  0.0013  0.4004  11.00000  0.05    0.23
Q14   1   0.9167  0.1042  0.2377  11.00000  0.05    0.23
Q15   1   0.3562  0.1998  0.6066  11.00000  0.05    0.22
Q16   1   1.0924  0.2660  0.4922  11.00000  0.05    0.21
Q17   1   0.9541  0.2394  0.6459  11.00000  0.05    0.21
Q18   1   0.7940  0.0996  0.3809  11.00000  0.05    0.20
Q19   1   0.7522  0.1647  0.4183  11.00000  0.05    0.20
Q20   1   1.0000  0.0000  0.0000  10.50000  0.05    0.20
;
_shelx_res_checksum              84260
_shelx_hkl_file
;
   1   0   0   -4.70    0.50
  -2   0   0 4303.07  134.19
   2   0   0 4336.77  134.29
  -3   0   0   -3.00    0.50
   3   0   0   -0.20    1.40
  -4   0   0 4154.58  126.79
   4   0   0 4051.79  129.09
  -5   0   0   -0.90    0.60
   5   0   0   -0.90    1.30
  -6   0   0 2101.59   66.49
   6   0   0 2173.08   70.19
   7   0   0    1.30    2.10
  -7   0   0   -0.50    0.60
   8   0   0   38.50    5.10
  -8   0   0   33.90    1.90
   9   0   0    3.20    2.60
  10   0   0  612.34   26.10
  11   0   0    2.30    3.10
  12   0   0  529.05   25.90
  12   0   0  519.25   24.60
  13   0   0    0.50    3.50
  13   0   0   -2.60    3.20
  14   0   0  219.68   15.70
  14   0   0  245.58   17.10
  15   0   0    2.90    4.60
  15   0   0   -5.50    4.90
  16   0   0   -6.50    4.70
  16   0   0    2.70    6.00
  17   0   0   -4.30    4.40
  17   0   0    3.60    5.10
   0   1   0   -3.60    0.10
   0   1   0   -2.80    0.40
   1   1   0  319.27   10.80
   1   1   0  326.77   11.20
   2  -1   0  763.82   25.20
   2   1   0  765.82   24.80
   2   1   0  810.92   25.80
  -2   1   0  772.52   24.90
   3  -1   0  259.77    9.70
  -3  -1   0  246.28    8.80
   3   1   0  258.17   10.30
  -3   1   0  256.47    9.00
  -4  -1   0  391.46   13.00
   4  -1   0  380.16   14.50
  -4   1   0  380.56   13.10
   4   1   0  392.16   15.10
   5  -1   0  710.03   25.50
  -5  -1   0  726.63   23.30
  -5   1   0  714.13   23.50
   5   1   0  728.83   26.10
  -6  -1   0   25.80    2.00
   6  -1   0   27.50    4.00
  -6   1   0   30.40    2.20
   6   1   0   32.30    4.50
   7  -1   0  675.73   25.70
  -7  -1   0  694.03   22.10
   7   1   0  679.23   26.30
  -7   1   0  671.13   22.30
  -8  -1   0  302.27   10.10
   8  -1   0  303.37   14.30
  -8   1   0  294.17   10.50
   8   1   0  283.07   14.50
   9  -1   0   12.00    3.70
   9   1   0   10.40    3.90
  -9   1   0    7.60    1.20
  10  -1   0  165.98   11.10
  10   1   0  177.58   11.90
  11  -1   0   54.99    7.50
  11   1   0   47.80    7.50
  12  -1   0  254.37   16.50
  12  -1   0  246.88   15.20
  12   1   0  253.37   15.70
  12   1   0  244.88   16.00
  13  -1   0   86.29   11.50
  13  -1   0  100.69   11.40
  13   1   0   82.59   10.40
  13   1   0   81.69   10.70
  14  -1   0   78.59   11.70
  14  -1   0  107.69   12.20
  14   1   0   68.99   10.40
  14   1   0   98.89   11.70
  15  -1   0   78.49   11.20
  15  -1   0   68.39   11.30
  15   1   0   68.89   11.30
  15   1   0   67.19   10.50
  16  -1   0   60.79   11.10
  16  -1   0   65.29   10.90
  16   1   0   75.19   11.70
  16   1   0   64.39   10.70
  17  -1   0   -2.40    5.20
  17  -1   0   -3.10    5.60
  17   1   0   -1.40    4.90
  17   1   0   -0.20    5.80
   0  -2   0 2323.67   72.39
   0   2   0 2335.07   73.49
  -1   2   0    5.90    1.40
   1   2   0    2.00    1.20
   1   2   0    7.70    1.50
   2   2   0 1976.30   61.69
   2   2   0 1879.91   60.89
   3  -2   0   67.29    3.80
  -3   2   0   69.59    3.90
   3   2   0   71.99    3.70
   3   2   0   64.09    4.60
   4  -2   0   37.00    3.40
  -4   2   0   39.00    2.80
   4   2   0   34.70    2.70
   4   2   0   42.90    4.50
   5  -2   0  417.36   15.90
  -5  -2   0  407.36   14.40
   5   2   0  410.66   16.80
  -5   2   0  411.36   14.70
  -6  -2   0   37.30    3.00
   6  -2   0   38.30    4.30
   6   2   0   33.10    4.70
  -6   2   0   37.70    3.20
  -7  -2   0  166.78    7.00
   7  -2   0  168.38    9.30
   7   2   0  160.18    9.90
  -7   2   0  176.98    7.30
  -8  -2   0  389.66   14.10
   8  -2   0  392.96   17.20
   8   2   0  415.86   18.70
  -8   2   0  409.76   14.50
   9  -2   0   43.30    5.80
  -9  -2   0   33.30    2.50
   9   2   0   39.90    6.20
  -9   2   0   39.50    3.30
  10  -2   0   10.80    3.70
 -10   2   0   14.60    2.00
  10   2   0   10.70    4.40
  11  -2   0   43.80    6.80
  11   2   0   74.79    9.10
  12  -2   0  512.75   23.90
  12  -2   0  534.95   26.40
  12   2   0  534.85   25.50
  12   2   0  500.25   24.90
  13  -2   0   27.20    7.10
  13  -2   0   41.70    7.60
  13   2   0   37.80    7.60
  13   2   0   35.00    7.20
  14  -2   0   92.39   10.90
  14  -2   0   83.19   11.90
  14   2   0   95.39   11.80
  14   2   0  107.99   12.90
  15  -2   0   53.59   10.50
  15  -2   0   55.89    9.80
  15   2   0   62.39   10.40
  15   2   0   39.30    8.60
  16  -2   0   39.40    9.40
  16  -2   0   56.19   10.40
  16   2   0   51.49   10.10
  16   2   0   44.50    9.50
  17  -2   0   -3.50    5.80
  17  -2   0   -7.30    3.80
  17   2   0    2.60    5.60
  17   2   0   -1.10    5.80
   0  -3   0    0.70    0.70
   0   3   0    0.30    0.60
   0   3   0   -1.00    1.20
   1   3   0 2312.27   72.49
   1   3   0 2259.37   72.29
  -1   3   0 2254.67   72.49
  -2   3   0 2422.96   76.09
   2   3   0 2420.56   75.89
   2   3   0 2321.67   76.29
   3   3   0  684.23   24.50
   3   3   0  682.23   23.50
   4  -3   0  183.78    8.30
   4   3   0  191.68    9.60
   4   3   0  194.38    8.30
  -4   3   0  198.38    8.50
   5  -3   0   79.39    5.00
   5   3   0   85.09    4.80
   5   3   0   85.29    7.20
  -5   3   0   75.19    4.80
   6  -3   0    4.90    2.00
  -6  -3   0    9.60    2.00
   6   3   0    9.20    3.00
  -6   3   0    6.60    2.00
  -7  -3   0   23.40    3.00
   7  -3   0   26.70    3.90
   7   3   0   21.70    4.30
  -7   3   0   32.70    3.50
   8  -3   0    2.30    2.20
  -8  -3   0    1.70    1.50
   8   3   0    3.10    2.80
  -8   3   0    0.40    1.50
  -9  -3   0    7.40    2.00
   9  -3   0    7.70    3.20
   9   3   0    4.80    3.30
  -9   3   0    4.60    1.90
  10  -3   0  158.58   10.00
 -10  -3   0  148.09    6.70
 -10   3   0  141.19    7.00
  10   3   0  108.69   11.10
  11  -3   0   49.50    6.80
  11  -3   0   58.99    8.90
  11   3   0   31.00    6.50
  12  -3   0   40.90    7.00
  12  -3   0   22.70    6.10
  12   3   0   22.10    6.00
  12   3   0   35.00    6.70
  13  -3   0   42.00    8.20
  13  -3   0   63.49    8.80
  13   3   0   65.79    9.50
  13   3   0   71.29    9.60
  14  -3   0   14.10    6.20
  14  -3   0   11.80    5.50
  14   3   0    9.90    5.70
  14   3   0   -0.40    4.10
  15  -3   0   19.20    7.20
  15  -3   0   17.80    6.30
  15   3   0   15.20    7.00
  15   3   0   21.50    7.00
  16  -3   0   95.29   13.90
  16  -3   0  114.59   13.40
  16   3   0   91.79   13.00
  16   3   0  112.19   14.40
  17  -3   0    6.30    6.10
  17  -3   0   -2.90    5.50
  17   3   0    6.20    6.00
  17   3   0   -0.70    4.70
   0  -4   0 5848.71  178.88
   0   4   0 5713.73  181.08
   1  -4   0   57.09    3.60
  -1   4   0   61.19    3.70
   1   4   0   62.69    4.30
  -1   4   0   49.90    4.70
   1   4   0   59.39    4.50
   2   4   0 1681.23   55.19
   2   4   0 1673.83   55.29
  -2   4   0 1703.13   55.29
  -3   4   0   94.49    5.80
   3   4   0   96.69    6.20
   3   4   0   93.79    5.70
   4  -4   0  329.17   12.70
   4   4   0  341.47   14.50
   4   4   0  338.17   13.30
  -4   4   0  297.87   13.10
   5  -4   0    3.10    1.60
   5   4   0   -0.30    1.90
  -5   4   0    2.00    1.70
   5   4   0   -0.90    1.40
   6  -4   0    0.20    1.60
  -6   4   0    1.20    1.70
   6   4   0   -0.40    1.50
   6   4   0    3.30    2.60
  -7  -4   0  262.57   11.20
   7  -4   0  259.97   12.10
   7   4   0  262.27   13.90
  -7   4   0  261.67   11.60
  -8  -4   0  165.38    8.10
   8  -4   0  166.28    9.50
  -8   4   0  163.88    8.40
   8   4   0  173.48   11.20
  -9  -4   0   40.20    4.10
   9  -4   0   45.30    5.70
  -9   4   0   34.40    4.20
   9   4   0   32.50    5.90
  10  -4   0  584.74   24.40
 -10  -4   0  571.34   21.10
  10   4   0  639.74   27.10
 -10   4   0  580.74   21.70
  11  -4   0  114.19   10.50
  11  -4   0   94.39   11.10
  11   4   0   92.09   10.80
  12  -4   0   51.69    7.60
  12  -4   0   47.20    8.70
  12   4   0   53.49    8.30
  12   4   0   48.60    8.80
  13  -4   0    9.70    5.40
  13  -4   0    4.50    4.50
  13   4   0   12.00    5.40
  13   4   0    7.50    4.60
  14  -4   0   -1.60    4.20
  14  -4   0    1.20    3.90
  14   4   0    2.10    5.00
  14   4   0    2.60    4.00
  15  -4   0   -3.20    4.40
  15  -4   0    1.50    5.10
  15   4   0   -1.40    4.80
  15   4   0    1.50    4.80
  16  -4   0    0.50    5.40
  16  -4   0    5.90    5.60
  16   4   0    3.60    5.50
  16   4   0    4.50    4.80
  17  -4   0   29.70   10.10
  17   4   0   21.80    8.70
  17   4   0   26.00    9.00
   0  -5   0    0.90    0.90
   0   5   0    1.60    1.90
   0   5   0    0.60    1.10
   1  -5   0   37.50    3.30
   1   5   0   44.70    4.40
   1   5   0   40.30    4.60
  -1   5   0   42.80    4.70
  -1   5   0   33.90    3.40
   2  -5   0  267.27   11.10
  -2   5   0  276.17   12.20
   2   5   0  268.87   12.00
   2   5   0  262.87   12.00
  -3   5   0  140.69    8.00
   3   5   0  143.29    7.90
   3   5   0  145.59    8.30
  -4   5   0  766.72   28.40
   4   5   0  786.52   28.20
   4   5   0  799.72   29.40
   5  -5   0   57.69    5.00
   5   5   0   66.89    5.90
  -5   5   0   65.39    5.90
   5   5   0   70.49    7.20
   6  -5   0  741.23   26.80
   6   5   0  738.93   26.90
   6   5   0  743.13   29.20
  -6   5   0  736.33   27.20
   7  -5   0   40.30    4.70
   7   5   0   36.80    5.90
   7   5   0   44.00    4.80
  -7   5   0   39.90    4.80
   8  -5   0  321.27   14.60
  -8  -5   0  331.17   13.90
  -8   5   0  305.87   14.00
   8   5   0  320.27   16.80
   9  -5   0   23.40    4.30
  -9  -5   0   36.70    4.30
  -9   5   0   29.60    4.30
   9   5   0   39.20    6.50
  10  -5   0   86.09   10.50
  10  -5   0   86.99    8.70
 -10  -5   0  113.49    6.70
 -10   5   0   97.99    6.90
  10   5   0   94.49   10.70
  11  -5   0  282.67   17.80
  11  -5   0  294.57   15.30
  11   5   0  258.37   16.70
  12  -5   0   65.29   10.00
  12  -5   0   60.79    8.00
  12   5   0   42.40    8.10
  13  -5   0  135.99   14.70
  13  -5   0  129.59   12.10
  13   5   0  115.39   13.10
  13   5   0  122.79   12.60
  14  -5   0   -1.00    4.10
  14  -5   0    4.00    4.60
  14   5   0   -0.10    3.80
  14   5   0    2.40    5.30
  15  -5   0   93.99   11.60
  15  -5   0   82.49   13.00
  15   5   0   90.69   11.80
  15   5   0   89.29   12.80
  16  -5   0   94.29   14.20
  16   5   0  107.39   13.80
  16   5   0  143.99   16.10
   0  -6   0   82.79    4.10
   0   6   0   75.49    5.20
   0   6   0   76.99    6.00
  -1  -6   0  100.79    3.90
   1  -6   0   96.59    5.20
  -1   6   0  104.59    6.00
   1   6   0   99.19    6.90
  -1   6   0  113.69    7.30
   1   6   0   97.09    6.40
   2  -6   0  194.08    9.10
  -2   6   0  199.08   10.50
   2   6   0  193.98   10.10
   2   6   0  204.88   10.40
   3  -6   0   56.29    5.50
   3   6   0   47.30    5.50
   3   6   0   58.49    6.00
  -3   6   0   52.89    5.70
   4  -6   0  339.27   14.90
  -4   6   0  326.27   14.80
   4   6   0  311.07   14.50
   4   6   0  328.17   15.30
   5  -6   0  221.38   11.80
   5   6   0  212.28   12.10
   5   6   0  212.68   11.00
   6  -6   0   27.70    3.80
   6   6   0   16.40    4.10
   6   6   0   14.70    3.40
  -6   6   0   22.70    4.20
   7  -6   0   58.59    5.70
   7  -6   0   61.49    7.70
   7   6   0   60.59    7.60
   7   6   0   59.99    6.10
  -7   6   0   58.39    6.40
   8  -6   0    3.90    2.50
  -8  -6   0    7.80    2.70
   8  -6   0   -1.80    2.50
  -8   6   0    4.00    2.50
   8   6   0    6.00    2.60
   8   6   0    3.50    3.20
   9  -6   0   49.80    6.00
   9  -6   0   57.99    8.20
  -9  -6   0   54.19    5.80
   9   6   0   42.50    7.10
  -9   6   0   54.59    6.30
  10  -6   0   89.49   10.80
  10  -6   0   79.39    8.00
 -10  -6   0   80.49    6.90
 -10   6   0   75.59    7.30
  10   6   0   67.99    7.90
  10   6   0   83.89   10.20
  11  -6   0    5.60    4.60
  11  -6   0    7.90    3.80
  11   6   0   -0.50    3.50
  11   6   0    2.50    3.70
  12  -6   0   -1.10    3.10
  12  -6   0    0.70    3.90
  12   6   0    4.70    4.70
  12   6   0    1.80    3.50
  13  -6   0   -2.50    3.30
  13  -6   0   -5.50    4.00
  13   6   0    0.50    4.20
  13   6   0    4.40    4.20
  14  -6   0   57.39    8.70
  14  -6   0   43.80    9.60
  14   6   0   47.10    9.60
  14   6   0   65.49    9.90
  15  -6   0   17.20    7.10
  15   6   0    1.70    3.60
  15   6   0   13.10    6.90
  16  -6   0   -0.70    5.60
  16   6   0   -0.10    5.30
  16   6   0   -1.40    3.90
   0  -7   0    0.20    1.00
   0   7   0    0.30    1.40
   0   7   0   -3.30    1.50
   1  -7   0   32.50    3.60
  -1  -7   0   36.00    2.10
   1   7   0   39.30    5.30
  -1   7   0   31.10    4.90
   1   7   0   38.00    4.70
  -1   7   0   31.30    3.90
   2  -7   0  475.15   18.60
  -2   7   0  491.65   20.70
   2   7   0  496.25   20.80
   2   7   0  499.85   20.20
   3  -7   0  319.57   14.10
   3   7   0  342.87   15.50
   3   7   0  316.57   15.20
  -3   7   0  314.37   15.20
   4  -7   0  177.58   10.10
   4   7   0  206.08   11.50
  -4   7   0  163.88   10.30
   4   7   0  202.08   10.90
   5  -7   0   89.29    8.50
   5   7   0   79.09    8.50
  -5   7   0   80.29    7.80
   5   7   0   89.19    7.90
   6  -7   0    8.90    2.50
   6  -7   0   11.70    3.90
   6   7   0    2.80    2.90
   6   7   0    9.70    3.20
  -6   7   0    0.60    1.30
   7  -7   0   25.40    5.50
   7  -7   0   16.10    3.50
   7   7   0   24.50    4.30
  -7   7   0   22.10    4.30
   7   7   0   18.90    4.90
   8  -7   0   17.80    4.90
   8  -7   0   26.90    4.40
   8   7   0   24.10    4.50
  -8   7   0   27.20    4.80
   8   7   0   19.00    5.00
   9  -7   0  373.56   20.30
  -9  -7   0  376.86   17.20
   9  -7   0  393.76   17.50
   9   7   0  385.06   17.30
  -9   7   0  375.66   17.80
   9   7   0  423.56   21.10
  10  -7   0  153.38   10.60
 -10  -7   0  191.38   10.80
  10  -7   0  178.68   15.70
 -10   7   0  180.68   10.90
  10   7   0  180.98   11.20
  10   7   0  194.58   14.00
  11  -7   0   -0.50    2.70
  11  -7   0    3.50    4.20
  11   7   0   -0.50    3.40
  11   7   0   -1.30    3.40
 -11   7   0    2.20    3.20
  12  -7   0    4.30    4.80
  12  -7   0   -1.40    3.10
  12   7   0    2.80    3.80
  12   7   0    4.80    4.80
  13  -7   0   61.19   10.70
  13  -7   0   66.99    8.90
  13   7   0   72.69   11.10
  13   7   0   59.09    8.50
  14  -7   0   94.19   13.30
  14   7   0   85.89   12.70
  14   7   0   93.59   11.30
  15  -7   0    0.10    5.30
  15   7   0    2.40    5.60
  16  -7   0   -6.40    4.40
  16   7   0    1.40    6.20
   0  -8   0 2304.47   72.59
   0   8   0 2245.58   77.19
   0   8   0 2308.17   75.59
  -1  -8   0   19.00    1.70
   1  -8   0   17.90    3.00
  -1   8   0   10.10    2.70
   1   8   0   22.50    4.50
  -1   8   0   10.80    3.70
   1   8   0   16.80    3.50
   2  -8   0 1161.48   39.50
   2   8   0 1132.09   41.30
   2   8   0 1135.89   42.10
  -2   8   0 1176.98   42.30
   3  -8   0   99.89    6.90
  -3   8   0  110.79    8.40
   3   8   0  112.29    9.60
   3   8   0  110.09    8.40
   4  -8   0   76.69    7.30
   4   8   0   64.59    7.50
   4   8   0   70.79    7.70
  -4   8   0   95.39    8.90
   5  -8   0  182.38   10.90
  -5   8   0  185.48   11.30
   5   8   0  163.78   10.50
   5   8   0  173.78    7.00
   5   8   0  164.68   11.30
   6  -8   0  266.47   14.40
   6   8   0  258.47   10.50
  -6   8   0  259.97   14.10
   6   8   0  250.07   14.70
   6   8   0  259.57   13.90
   7  -8   0    2.70    3.60
   7  -8   0    1.20    2.10
   7   8   0    4.50    3.20
   7   8   0    0.00    2.80
  -7   8   0   -1.30    1.40
   7   8   0    0.00    1.80
   8  -8   0   34.80    5.20
   8  -8   0   28.20    5.90
  -8   8   0   30.50    5.70
   8   8   0   30.50    6.30
   8   8   0   37.50    5.90
   8   8   0   39.20    4.70
   9  -8   0   11.90    3.60
   9  -8   0    1.90    3.30
   9   8   0    0.50    3.60
   9   8   0    6.80    3.60
  -9   8   0    2.00    2.90
   9   8   0    9.70    3.40
  10  -8   0   18.00    4.30
 -10  -8   0   12.40    3.90
  10  -8   0   17.10    5.60
  10   8   0   16.80    4.50
 -10   8   0   15.90    4.30
  10   8   0   16.20    5.70
  11  -8   0   64.99    7.80
  11  -8   0   58.29    9.60
  11   8   0   64.09    7.90
 -11   8   0   69.99    8.20
  11   8   0   40.90    8.40
  12  -8   0   56.69    7.90
  12  -8   0   53.59   10.00
  12   8   0   42.30    8.80
  13  -8   0   32.70    8.20
  13   8   0   28.40    8.20
  14  -8   0   -3.30    5.00
  14   8   0    0.40    5.10
  15  -8   0   14.20    7.40
  15   8   0   11.40    6.90
   0  -9   0    0.50    1.30
   0   9   0   -3.50    1.90
   0   9   0    0.70    1.90
  -1  -9   0   19.40    1.80
   1  -9   0   19.40    3.00
  -1   9   0   14.00    4.30
   1   9   0   15.20    4.30
  -1   9   0    7.20    2.60
   1   9   0   25.70    4.40
   2  -9   0  122.59    7.50
  -2   9   0  118.19   10.80
   2   9   0  129.89    9.00
   2   9   0  155.68   10.20
   3  -9   0  262.87   12.70
   3   9   0  253.17   14.30
  -3   9   0  278.07   15.00
   3   9   0  262.47   14.10
   4  -9   0    5.10    2.50
  -4   9   0    9.10    3.70
   4   9   0   12.10    4.10
   4   9   0    6.30    3.70
   5  -9   0  127.19    9.10
   5   9   0  123.39    9.30
   5   9   0  111.49   10.80
   5   9   0  116.89    4.60
  -5   9   0  121.69    9.40
   6  -9   0   49.60    6.90
   6   9   0   46.80    6.90
   6   9   0   57.69    3.80
  -6   9   0   53.69    7.50
   6   9   0   55.29    8.00
   7  -9   0    6.80    3.80
   7  -9   0    0.50    2.20
   7   9   0    2.40    3.40
   7   9   0    2.50    2.00
   7   9   0    2.00    2.90
  -7   9   0    0.50    2.80
   8  -9   0  113.29   11.80
   8  -9   0  116.29    8.10
   8   9   0   96.69   11.00
  -8   9   0  121.99   11.20
   8   9   0  124.29   10.80
   8   9   0  100.99    6.80
   9  -9   0   90.59   11.00
   9  -9   0   90.99    8.70
   9   9   0  113.99   10.50
   9   9   0  103.79   11.80
  -9   9   0  112.99   10.80
  10  -9   0   18.20    6.00
 -10  -9   0   30.80    5.80
  10  -9   0   21.30    4.60
 -10   9   0   33.50    6.20
  10   9   0   22.00    6.40
  11  -9   0  136.09   14.90
  11  -9   0  142.99   10.40
 -11   9   0  142.79   10.90
  11   9   0  135.89   14.50
  12  -9   0   27.10    7.60
  12   9   0   30.10    7.70
  13  -9   0  206.08   19.30
  13   9   0  172.88   17.40
  14  -9   0   58.09   11.00
  14   9   0   64.99   11.40
  15  -9   0   75.49   12.80
  15   9   0   37.20   10.20
   0 -10   0   12.90    2.40
   0  10   0    5.80    3.50
   0  10   0    6.70    2.90
   1 -10   0   12.20    2.70
   1  10   0   15.60    4.60
  -1  10   0   11.70    4.40
  -1  10   0    5.60    2.50
   1  10   0   17.40    4.30
   2 -10   0   -0.10    2.00
   2  10   0   -0.30    2.60
   2  10   0    1.30    2.30
  -2  10   0    5.60    3.40
   3 -10   0   17.80    3.70
  -3  10   0   17.00    4.90
   3  10   0   15.60    4.20
   3  10   0    9.80    4.20
   4 -10   0   15.70    3.80
   4  10   0    9.70    3.90
   4  10   0   12.10    4.20
  -4  10   0   11.50    4.50
   5 -10   0  566.64   24.10
   5  10   0  548.05   25.50
   5  10   0  561.34   25.30
  -5  10   0  572.54   25.70
   6 -10   0   -0.90    2.20
  -6  10   0    1.50    3.00
   6  10   0    2.70    3.30
   6  10   0    2.50    3.10
   7 -10   0   76.09    9.00
   7  10   0   64.49    8.40
   7  10   0   82.79   10.30
  -7  10   0   73.29    9.20
   8 -10   0   38.40    5.50
   8 -10   0   45.60    8.00
   8  10   0   27.00    6.80
  -8  10   0   34.30    6.40
   8  10   0   42.00    7.00
   9 -10   0   25.80    6.40
   9 -10   0   22.60    4.80
  -9  10   0   20.40    5.60
   9  10   0   27.80    6.80
   9  10   0   20.90    5.60
 -10 -10   0    3.30    3.80
  10 -10   0    9.90    5.20
  10 -10   0    4.80    3.70
  10  10   0    7.20    3.90
 -10  10   0    2.50    3.50
  10  10   0    1.10    4.00
  11 -10   0   31.10    7.90
 -11  10   0   37.40    7.40
  11  10   0   39.80    8.50
  12 -10   0   45.40    9.30
  12  10   0   44.00    9.60
  13 -10   0   47.50   10.30
  13  10   0   49.70   10.20
  14 -10   0   27.90    8.80
  14  10   0   26.20    8.60
  15 -10   0    9.40    6.90
  15  10   0   12.20    7.50
   0 -11   0    1.10    1.50
   0  11   0   -0.50    2.50
   0  11   0    0.60    3.00
   1 -11   0  452.25   17.80
   1  11   0  420.76   20.40
   1  11   0  478.15   22.60
  -1  11   0  471.65   22.70
   2 -11   0   -2.60    1.80
   2  11   0    0.20    2.50
   2  11   0    4.40    3.60
  -2  11   0    2.70    3.30
   3 -11   0   86.69    7.90
   3  11   0   84.39    9.30
  -3  11   0   96.79   10.90
   3  11   0   94.89   10.20
   4 -11   0   -0.60    2.40
   4  11   0    3.50    3.30
   4  11   0    0.60    2.70
  -4  11   0    3.30    3.70
   5 -11   0   -1.30    2.40
  -5  11   0    0.10    3.20
   5  11   0    3.60    3.50
   5  11   0   -1.40    2.90
   6 -11   0    7.50    3.90
   6  11   0   13.30    4.80
   6  11   0    6.80    4.10
  -6  11   0   12.70    4.70
   7 -11   0  160.28   11.80
   7  11   0  126.29   13.50
  -7  11   0  134.89   13.10
   7  11   0  156.68   12.00
   8 -11   0    7.50    3.50
   8 -11   0   18.00    5.70
  -8  11   0   14.80    5.00
   8  11   0   18.10    5.70
   8  11   0   16.90    5.90
   9 -11   0   98.79   11.90
   9 -11   0  107.59    9.60
   9  11   0   90.49   10.30
   9  11   0   85.89   11.80
  10 -11   0   15.50    6.00
  10  11   0   23.70    6.10
  10  11   0   30.10    8.00
 -10  11   0   20.90    5.80
  11 -11   0    1.00    5.30
 -11  11   0    6.30    4.80
  11  11   0    0.80    4.80
  12 -11   0   -4.50    3.90
  12  11   0    0.70    4.90
  13 -11   0   16.40    7.90
  13  11   0   24.20    7.90
  14 -11   0    2.70    6.40
  14  11   0   15.80    7.10
   0 -12   0   43.30    4.00
   0  12   0   44.70    6.70
   0  12   0   32.20    6.80
   1 -12   0    7.70    2.70
  -1  12   0   13.50    5.00
  -1  12   0    8.10    3.20
   1  12   0   13.60    4.10
   1  12   0    8.40    4.70
   2 -12   0   16.40    3.50
   2  12   0   19.80    5.10
   2  12   0   15.20    5.20
  -2  12   0   19.80    5.90
   3 -12   0   77.99    7.70
   3  12   0   75.49    9.40
  -3  12   0   73.99    9.90
   3  12   0   75.99   10.00
   4 -12   0  109.49    9.70
   4  12   0   72.89    9.80
   4  12   0  101.19   11.10
  -4  12   0  119.89   12.40
   5 -12   0   40.50    6.70
  -5  12   0   48.50    8.40
   5  12   0   51.39    8.40
   5  12   0   35.30    6.90
   6 -12   0  159.18   11.60
   6  12   0  146.99   13.90
  -6  12   0  171.78   13.10
   6  12   0  152.58   14.90
   7 -12   0  158.58   14.00
   7  12   0  140.09   14.30
   7  12   0  147.49   13.70
  -7  12   0  155.58   14.60
   8 -12   0   -1.30    3.40
   8 -12   0    6.80    4.70
   8  12   0    6.60    4.10
   8  12   0   -0.60    3.80
  -8  12   0    4.70    4.70
   9 -12   0   10.70    5.00
   9  12   0   17.70    5.80
  -9  12   0    7.00    5.00
   9  12   0   12.30    5.90
  10 -12   0    2.80    4.60
 -10  12   0   -2.50    3.40
  10  12   0    2.10    4.30
  10  12   0    2.70    4.70
  11 -12   0   25.20    7.60
  11  12   0   16.90    6.90
 -11  12   0   25.30    6.80
  12 -12   0   12.20    6.50
  12  12   0    4.40    5.50
  13 -12   0  167.68   18.60
  13  12   0  138.69   16.90
   0  13   0    1.50    3.80
   0  13   0   -1.70    2.20
  -1  13   0   36.20    7.70
  -1  13   0   45.90    6.80
   1  13   0   51.89    9.00
   1  13   0   49.30    7.40
   2 -13   0   10.60    3.20
   2  13   0    9.90    5.10
  -2  13   0   15.00    5.70
   2  13   0    9.00    4.10
   3 -13   0   98.39    9.00
  -3  13   0   93.39   11.80
   3  13   0  106.69   12.10
   3  13   0  112.59   11.80
   4 -13   0    4.40    3.40
   4  13   0    2.10    3.50
  -4  13   0   14.60    5.40
   4  13   0   -0.90    3.70
   5 -13   0   25.00    5.80
   5  13   0    9.10    5.10
  -5  13   0   36.90    7.90
   5  13   0   23.20    6.20
   6 -13   0   -4.30    2.90
   6  13   0    5.10    4.00
  -6  13   0   -1.90    3.80
   6  13   0   -3.30    3.70
   7 -13   0   43.00    7.80
  -7  13   0   47.20    9.10
   7  13   0   41.90    8.60
   7  13   0   43.30    8.50
   8 -13   0    1.50    4.30
   8  13   0    1.60    4.70
   8  13   0   -2.80    3.60
  -8  13   0    0.00    3.90
   9 -13   0    4.70    4.80
   9  13   0    3.40    5.20
   9  13   0   -2.20    4.00
  -9  13   0   -0.60    4.10
  10 -13   0    3.80    4.80
 -10  13   0   -4.70    3.60
  10  13   0    8.40    5.80
  10  13   0    7.10    5.50
  11 -13   0   77.09   12.20
 -11  13   0   86.49   11.80
  11  13   0   83.89   13.00
  12 -13   0    2.10    6.60
  12  13   0   10.30    6.40
  13 -13   0   95.59   14.60
  13  13   0   99.99   15.10
   0  14   0   37.10    6.80
   0  14   0   20.70    6.80
   1  14   0   40.00    7.10
  -1  14   0   32.00    7.60
  -1  14   0   40.80    6.60
   1  14   0   53.99    9.30
   2  14   0   12.20    5.50
  -2  14   0   15.10    6.00
   2  14   0   16.10    5.10
   3  14   0   74.99   10.90
   3  14   0   71.49    9.90
  -3  14   0   64.89   10.30
   4 -14   0    4.40    3.80
  -4  14   0    9.10    5.50
   4  14   0    8.00    4.60
   4  14   0   11.20    5.60
   5 -14   0  396.06   20.00
   5  14   0  417.26   22.50
  -5  14   0  373.96   22.50
   5  14   0  394.66   22.80
   6 -14   0    5.20    4.20
   6  14   0    2.20    4.30
  -6  14   0    1.50    5.00
   6  14   0    5.30    4.80
   7 -14   0   30.60    6.80
   7  14   0   35.70    8.00
   7  14   0   29.30    7.50
  -7  14   0   47.40    9.70
   8 -14   0   10.20    4.90
   8  14   0    3.70    4.80
  -8  14   0   11.90    5.80
   8  14   0   10.20    5.60
   9 -14   0   25.00    7.40
  -9  14   0   33.10    7.90
   9  14   0   29.70    8.10
   9  14   0   37.80    8.30
  10 -14   0    6.60    5.50
 -10  14   0   -6.20    4.30
  10  14   0   -0.90    5.10
  10  14   0   -8.40    3.70
  11 -14   0   15.00    7.00
 -11  14   0   -3.00    3.60
  11  14   0   12.30    6.90
  12 -14   0   21.70    8.30
  12  14   0   19.40    8.00
   0  15   0    0.90    3.00
   0  15   0   -5.80    3.90
  -1  15   0  130.39   12.30
  -1  15   0  107.09   13.80
   1  15   0  111.49   12.20
   1  15   0  119.49   14.10
  -2  15   0   11.10    6.00
   2  15   0   19.10    6.00
   2  15   0   16.90    6.40
   3  15   0   19.30    5.80
  -3  15   0   20.40    7.20
   3  15   0   25.90    7.50
  -4  15   0    7.40    5.30
   4  15   0   -1.10    4.60
   4  15   0    2.00    4.30
  -5  15   0    6.70    5.20
   5  15   0    2.90    4.50
   5  15   0    5.80    4.40
   6 -15   0   35.00    6.90
   6  15   0   20.60    7.20
   6  15   0   22.30    6.80
  -6  15   0   24.40    7.40
   7 -15   0  125.69   13.40
  -7  15   0  121.99   15.10
   7  15   0  108.59   14.00
   7  15   0  122.09   14.20
   8 -15   0    2.60    5.20
  -8  15   0    2.70    5.30
   8  15   0   13.20    6.30
   8  15   0    7.80    6.10
   9 -15   0   18.10    7.10
   9  15   0   16.10    7.00
   9  15   0    7.70    6.00
  -9  15   0   13.40    7.20
  10 -15   0    2.10    6.10
  10  15   0   -2.70    4.70
 -10  15   0   -1.10    5.20
  10  15   0    1.00    5.30
  11 -15   0   13.50    7.70
  11  15   0   27.40    9.10
 -11  15   0   21.20    8.20
   0  16   0    4.70    5.00
   0  16   0    0.50    3.40
   1  16   0   21.70    7.40
   1  16   0   16.80    5.60
  -1  16   0   12.00    6.50
  -2  16   0   13.50    6.40
   2  16   0    7.00    5.60
   2  16   0   22.10    6.60
   3  16   0    9.60    5.20
   3  16   0   15.00    6.70
  -3  16   0   19.70    7.60
   4  16   0   11.30    5.90
   4  16   0   19.90    6.70
  -4  16   0    3.60    5.00
   5  16   0   47.60   10.00
   5  16   0   46.00    9.30
  -5  16   0   34.70    8.70
   6  16   0    5.50    5.10
  -6  16   0   -3.90    4.10
   6  16   0    0.40    4.90
  -7  16   0   18.50    7.30
   7  16   0   20.60    7.60
   7  16   0   22.80    7.90
  -8  16   0   -0.40    5.90
   8  16   0    1.50    4.90
   8  16   0   -0.40    5.70
   9 -16   0   10.90    6.50
   9  16   0   27.60    8.60
  -9  16   0   34.30    9.50
   9  16   0   28.00    8.20
  10 -16   0    9.10    6.90
  10  16   0    1.30    6.50
  10  16   0   -1.00    5.20
 -10  16   0    5.90    6.50
   0  17   0   -2.30    4.20
   0  17   0   -0.40    3.40
   1  17   0    6.60    5.90
  -1  17   0   10.10    5.90
   1  17   0   10.90    5.20
  -2  17   0    6.10    6.00
   2  17   0    9.70    5.80
   2  17   0    8.50    6.10
   3  17   0   22.90    7.30
   3  17   0   15.80    7.20
  -3  17   0   23.60    8.10
  -4  17   0    1.40    6.00
   4  17   0   -3.40    4.20
   4  17   0   14.30    5.80
   5  17   0    0.80    5.20
  -5  17   0   -3.40    5.50
   5  17   0   -0.70    5.00
   6  17   0   -0.90    5.10
  -6  17   0   -3.60    4.80
   6  17   0   -2.80    6.10
  -7  17   0   14.50    7.10
   7  17   0   13.00    7.00
   7  17   0   18.40    7.50
   8  17   0   -4.00    4.70
  -8  17   0    3.50    5.80
   8  17   0    0.50    6.00
   0  18   0  192.88   19.90
   1  18   0    0.90    4.50
  -1  18   0   -2.10    5.00
   1  18   0    4.20    5.60
   2  18   0    7.10    5.40
   2  18   0   18.70    7.20
  -2  18   0    5.60    6.50
   3  18   0   14.50    6.60
  -3  18   0   18.30    7.40
   3  18   0    6.20    6.40
  -4  18   0   -2.20    5.50
   4  18   0    2.40    5.50
   4  18   0    1.90    5.20
   5  18   0  119.19   15.10
  -5  18   0   65.59   12.50
   5  18   0   94.49   14.60
  -6  18   0    8.00    6.60
   6  18   0   -6.10    4.20
   6  18   0    2.20    6.20
   7  18   0   37.90   10.40
  -7  18   0   17.90    7.60
   0  19   0    9.40    7.60
   1  19   0   40.00   10.30
  -1  19   0   23.70    8.80
   1  19   0   38.30    8.50
   2  19   0    7.40    5.90
  -2  19   0    1.60    6.20
   2  19   0   11.00    7.30
   3  19   0    0.00    4.90
  -3  19   0    1.20    6.80
   3  19   0    0.50    5.60
   4  19   0   -6.70    3.70
   4  19   0    3.20    7.00
  -4  19   0   -0.20    5.50
  17   0  -1   -6.60    4.90
  17   0  -1    3.40    5.70
  16   0  -1    1.90    5.60
  16   0  -1   -4.60    4.40
  15   0  -1   18.30    6.80
  15   0  -1   15.30    6.50
  14   0  -1    4.30    4.90
  14   0  -1   -2.00    3.90
  13   0  -1  227.98   16.10
  13   0  -1  252.67   15.80
  12   0  -1    1.10    3.60
  12   0  -1   -3.80    3.20
  11   0  -1  848.32   35.20
  11   0  -1  854.41   34.00
  10   0  -1   -0.30    2.40
 -10   0   1    0.60    1.20
  10   0  -1   -3.00    2.60
   9   0  -1  819.42   32.80
   9   0  -1  808.22   31.50
  -9   0   1  843.92   27.50
   8   0  -1   -2.70    2.40
   8   0  -1   -1.90    1.90
  -8   0   1   -0.10    1.00
  -7   0   1 1337.87   41.40
   7   0  -1 1264.27   44.10
   7   0  -1 1212.88   45.00
   6   0  -1   -2.90    1.20
  -6   0   1   -0.40    1.00
   5   0  -1  769.72   27.00
  -5   0   1  782.92   25.60
   5   0  -1  761.32   27.70
   4   0  -1    0.20    1.40
  -4   0   1    0.70    1.00
   4   0  -1   -1.40    1.30
   3   0  -1 2470.65   78.19
  -3   0   1 2476.65   77.19
   3   0  -1 2452.45   77.59
  -2   0   1    0.40    0.60
   2   0  -1    2.60    0.80
   2   0  -1    1.00    0.80
   1   0  -1    1.70    0.40
  -1   0   1    2.80    0.70
   1   0  -1    3.00    0.70
   0   0   1   -0.10    0.30
   1   0   1  176.78    6.60
   1   0   1  172.48    5.90
   2   0   1   -0.70    1.00
   3   0   1   -0.80    1.30
   4   0   1   -0.40    1.40
   5   0   1 1591.74   53.19
   6   0   1   -2.20    1.40
   7   0   1   99.69    7.30
   8   0   1    0.00    2.30
   9   0   1  111.09   10.00
  10   0   1   -1.90    2.30
  11   0   1  241.68   14.70
  12   0   1   -2.80    3.00
  13   0   1  202.18   14.70
  14   0   1    1.40    4.30
  14   0   1   -4.30    3.90
  15   0   1   51.89    9.90
  15   0   1   43.00   10.00
  16   0   1   -4.60    4.80
  16   0   1    3.30    5.00
  17   0   1   -0.10    6.00
  17   0   1    7.20    6.80
  17  -1  -1   -1.50    5.50
  17  -1  -1    6.50    6.40
  17   1  -1    6.40    6.10
  17   1  -1    6.50    5.40
  16  -1  -1   -0.90    4.40
  16  -1  -1   -0.70    4.70
  16   1  -1    1.00    5.10
  16   1  -1    3.80    5.20
  15  -1  -1  154.78   15.80
  15  -1  -1  158.78   14.90
  15   1  -1  128.09   14.40
  15   1  -1  151.38   15.50
  14  -1  -1    8.00    4.60
  14  -1  -1    0.00    4.40
  14   1  -1    6.30    4.50
  14   1  -1    6.80    4.90
  13  -1  -1  129.99   13.50
  13  -1  -1  150.98   13.20
  13   1  -1  164.28   14.40
  13   1  -1  127.69   13.50
  12  -1  -1   80.59   10.10
  12  -1  -1   67.69    8.40
  12   1  -1   87.39   10.40
  12   1  -1   86.39    9.80
  11  -1  -1  344.77   17.30
  11  -1  -1  341.27   18.80
  11   1  -1  344.77   17.90
  11   1  -1  351.96   18.40
  10  -1  -1   83.09    9.20
 -10  -1   1   96.49    4.80
  10  -1  -1   87.09    8.60
 -10   1   1   87.59    4.80
  10   1  -1   90.99    9.50
  10   1  -1   85.99    8.90
  -9  -1   1   94.39    5.10
   9  -1  -1  123.99    8.10
   9  -1  -1  118.09   10.80
   9   1  -1  112.49    9.50
  -9   1   1   99.99    5.30
   9   1  -1  108.49    9.70
   8  -1  -1   14.40    3.20
  -8  -1   1   17.20    2.40
   8  -1  -1    8.70    3.30
  -8   1   1   19.60    2.50
   8   1  -1   20.90    4.20
   8   1  -1   17.00    4.30
   7  -1  -1  700.03   25.60
   7  -1  -1  681.83   27.00
  -7  -1   1  696.33   23.50
  -7   1   1  674.03   23.40
   7   1  -1  695.33   26.30
  -6  -1   1    3.10    1.40
   6  -1  -1    1.50    2.20
   6  -1  -1    2.60    1.80
   6   1  -1    3.80    2.20
  -6   1   1    1.70    1.30
   5  -1  -1  163.58    7.70
  -5  -1   1  163.28    6.90
   5  -1  -1  161.38    8.70
   5   1  -1  162.08    8.30
   5   1  -1  159.08    8.20
  -5   1   1  156.38    6.80
   4  -1  -1  102.49    6.20
   4  -1  -1  103.69    5.30
  -4  -1   1  113.89    5.10
   4   1  -1  109.29    5.90
  -4   1   1  107.79    5.00
   4   1  -1  107.79    5.80
  -3  -1   1  478.45   16.50
   3  -1  -1  500.85   17.70
   3  -1  -1  483.45   16.40
  -3   1   1  475.05   16.50
   3   1  -1  487.25   17.30
   2  -1  -1  154.58    6.60
   2  -1  -1  159.68    5.50
   2   1  -1  151.58    6.40
  -1  -1   1   -2.10    1.40
   1  -1  -1    1.10    1.60
   1   1  -1    1.30    1.10
  -1   1   1   -5.00    1.20
   1   1  -1   -2.90    1.30
   0   1   1    6.90    1.30
   0   1  -1    6.30    1.20
   1   1   1   96.89    4.30
  -1   1  -1   96.69    4.00
   1   1   1   94.59    3.90
   2  -1   1 2140.39   66.89
   2   1   1 2098.69   65.59
   2   1   1 2101.59   66.99
  -2   1  -1 2095.89   65.79
   3  -1   1    2.40    1.70
  -3   1  -1    9.70    1.30
   3   1   1    9.00    2.20
   3   1   1    7.80    1.00
  -4  -1  -1   15.50    1.10
   4  -1   1   21.10    3.00
   4   1   1   18.70    3.10
  -4   1  -1   19.10    1.50
   5  -1   1  123.99    7.20
  -5   1  -1  126.89    4.80
   5   1   1  134.99    7.70
   6  -1   1  237.78   11.50
  -6   1  -1  233.48    8.00
   6   1   1  249.58   12.00
   7  -1   1  120.59    8.00
   7   1   1  130.19    8.80
   8  -1   1   14.20    3.60
   8   1   1   11.20    3.40
   9  -1   1  206.68   12.20
   9   1   1  215.48   12.70
  10  -1   1    8.90    3.90
  10   1   1    3.60    3.60
  11  -1   1   53.29    7.60
  11   1   1   34.70    6.70
  12  -1   1   61.99    8.50
  12   1   1   46.20    8.10
  13  -1   1    1.50    3.90
  13   1   1    0.30    4.00
  14  -1   1    2.40    5.00
  14  -1   1    5.70    5.00
  14   1   1    4.60    4.70
  14   1   1    3.50    5.20
  15  -1   1    5.50    5.30
  15  -1   1    0.80    4.20
  15   1   1   21.10    6.90
  15   1   1    6.60    5.20
  16  -1   1    3.40    4.90
  16  -1   1    8.60    6.80
  16   1   1    5.80    5.80
  16   1   1    3.80    5.30
  17  -1   1   53.19   11.00
  17  -1   1   51.79   11.80
  17   1   1   44.00   10.00
  17   1   1   41.10    9.60
  17  -2  -1   32.50    8.30
  17  -2  -1   22.20    7.20
  17   2  -1   20.50    8.10
  17   2  -1   24.60    7.80
  16  -2  -1   20.30    7.00
  16  -2  -1   16.40    7.00
  16   2  -1   13.90    6.50
  16   2  -1   18.60    7.10
  15  -2  -1   63.09    9.30
  15  -2  -1   49.90    9.50
  15   2  -1   73.19   10.70
  15   2  -1   57.09    9.60
  14  -2  -1  109.79   13.20
  14  -2  -1   96.69   11.10
  14   2  -1   79.19   11.00
  14   2  -1   88.29   11.50
  13  -2  -1   52.69    8.00
  13  -2  -1   52.49    9.00
  13   2  -1   41.90    8.10
  13   2  -1   53.09    8.80
  12  -2  -1   -0.10    3.50
  12  -2  -1    3.80    3.70
  12   2  -1    4.20    3.50
  12   2  -1    3.70    3.80
  11  -2  -1  104.09   11.30
  11  -2  -1  121.49   10.30
  11   2  -1  112.39   10.90
  11   2  -1  128.19   11.60
  10  -2  -1   21.40    4.40
 -10  -2   1   19.90    2.80
  10  -2  -1   23.20    5.10
  10   2  -1   19.70    4.70
  10   2  -1   21.40    5.10
 -10   2   1   21.60    3.00
   9  -2  -1  162.68   10.00
   9  -2  -1  192.08   12.10
  -9  -2   1  175.88    7.90
  -9   2   1  173.48    8.00
   9   2  -1  165.88   10.80
   9   2  -1  181.68   11.10
  -8  -2   1  194.88    8.50
   8  -2  -1  195.98   11.80
   8  -2  -1  191.18   10.20
  -8   2   1  194.48    8.60
   8   2  -1  192.58   10.90
   8   2  -1  192.98   11.10
   7  -2  -1  213.28   10.10
   7  -2  -1  222.48   12.00
  -7  -2   1  185.08    8.70
   7   2  -1  226.58   11.20
   7   2  -1  221.28   11.30
  -7   2   1  202.88    8.90
   6  -2  -1  508.75   18.60
   6  -2  -1  486.55   20.40
  -6  -2   1  488.65   17.70
   6   2  -1  466.35   19.70
   6   2  -1  510.65   19.60
  -6   2   1  511.35   17.90
   5  -2  -1  416.96   15.70
   5  -2  -1  413.06   17.40
  -5  -2   1  429.26   15.50
  -5   2   1  441.56   15.60
   5   2  -1  423.96   17.00
  -4  -2   1 1027.30   34.60
   4  -2  -1 1072.69   34.40
   4  -2  -1 1045.70   36.10
   4   2  -1 1040.00   35.90
  -4   2   1 1080.59   34.80
  -3  -2   1    0.60    1.30
   3  -2  -1    1.60    1.60
   3  -2  -1    0.20    0.90
  -3   2   1    0.50    1.00
   3   2  -1    1.00    1.60
   3   2  -1    1.00    1.10
   2  -2  -1  107.69    5.40
   2   2  -1  108.49    5.30
   2   2  -1  114.49    4.50
   2   2  -1  108.69    5.60
  -2   2   1  100.39    5.20
   1  -2  -1  121.69    5.40
  -1   2   1  131.19    4.70
   1   2  -1  135.79    5.80
  -1   2   1  135.39    5.90
   1   2  -1  137.19    5.90
   0  -2  -1  149.69    6.00
   0   2   1  167.68    6.80
   0   2  -1  152.78    6.50
   0   2  -1  162.68    6.80
   1   2   1   63.79    3.40
   1   2   1   61.99    3.60
  -1   2  -1   53.09    3.30
   2   2   1  347.57   12.90
   2   2   1  330.37   11.80
  -2   2  -1  319.47   11.90
   3  -2   1 2900.51   90.39
   3   2   1 2851.51   90.99
  -3   2  -1 2830.02   89.39
   3   2   1 2834.02   89.19
   4  -2   1    0.50    1.20
   4   2   1    0.40    1.60
  -4   2  -1   -0.10    1.00
   4   2   1   -0.80    0.90
   5  -2   1   23.40    3.30
  -5   2  -1   25.70    2.50
   5   2   1   18.80    3.50
   5   2   1   26.40    2.30
  -6  -2  -1   78.29    3.50
   6  -2   1   65.99    6.20
   6   2   1   60.29    6.50
  -6   2  -1   62.19    3.70
   7  -2   1  159.68    9.40
  -7  -2  -1  168.58    6.30
  -7   2  -1  172.48    6.90
   7   2   1  188.78   10.70
   8  -2   1  647.74   25.50
   8   2   1  616.44   26.10
  -8   2  -1  632.54   20.90
   9  -2   1  397.06   18.00
  -9   2  -1  376.06   12.70
   9   2   1  369.16   18.70
  10  -2   1  107.19   10.10
  10   2   1  121.19   11.40
  11  -2   1  361.36   18.70
  11   2   1  353.16   19.50
  12  -2   1   98.19   10.70
  12   2   1   92.09   11.10
  13  -2   1   22.80    5.90
  13   2   1   39.70    8.10
  14  -2   1   -2.70    4.30
  14  -2   1    1.40    4.70
  14   2   1    1.00    4.50
  14   2   1    0.60    4.70
  15  -2   1    1.60    4.60
  15  -2   1    7.10    5.10
  15   2   1    0.10    5.10
  15   2   1   12.30    5.30
  16  -2   1    2.10    5.80
  16  -2   1   -1.50    5.00
  16   2   1   -5.00    4.60
  16   2   1    7.70    5.90
  17  -2   1    5.50    6.20
  17  -2   1    8.80    6.40
  17   2   1   13.10    7.90
  17   2   1    7.40    7.60
  17  -3  -1   90.29   13.90
  17  -3  -1  103.89   12.90
  17   3  -1   77.79   12.60
  17   3  -1   95.89   13.60
  16  -3  -1   26.20    7.60
  16  -3  -1   22.20    7.10
  16   3  -1   14.60    6.30
  16   3  -1   19.20    7.00
  15  -3  -1   39.70    9.30
  15  -3  -1   42.00    8.30
  15   3  -1   34.30    8.10
  15   3  -1   43.40    8.70
  14  -3  -1  107.69   13.40
  14  -3  -1  140.09   12.80
  14   3  -1  107.39   12.30
  14   3  -1  149.69   14.50
  13  -3  -1   16.50    5.80
  13  -3  -1   16.70    5.30
  13   3  -1   18.30    5.90
  13   3  -1   20.30    5.60
  12  -3  -1  196.58   12.40
  12  -3  -1  183.98   14.00
  12   3  -1  179.08   13.30
  12   3  -1  190.28   13.20
  11  -3  -1   99.09    9.30
  11  -3  -1   92.79   10.90
  11   3  -1  110.09   10.70
 -11   3   1  116.79   10.00
  11   3  -1  104.99   10.90
 -10  -3   1   13.60    2.70
  10  -3  -1   23.30    5.50
  10  -3  -1   26.50    4.80
  10   3  -1   17.80    4.90
  10   3  -1   14.00    4.20
 -10   3   1   25.20    3.40
   9  -3  -1   64.29    6.60
  -9  -3   1   61.09    5.20
   9  -3  -1   60.89    8.00
   9   3  -1   62.89    7.00
   9   3  -1   70.49    8.00
  -9   3   1   63.79    5.50
   8  -3  -1   -0.20    1.70
   8  -3  -1   -0.30    2.40
  -8  -3   1    3.90    1.90
   8   3  -1   -1.70    1.80
  -8   3   1    0.40    1.50
   8   3  -1    1.30    2.60
   7  -3  -1  588.44   24.00
  -7  -3   1  541.45   20.30
   7  -3  -1  565.64   21.20
  -7   3   1  546.75   20.60
   7   3  -1  589.94   23.30
   6  -3  -1   42.80    4.10
  -6  -3   1   48.80    4.40
   6  -3  -1   47.20    5.70
   6   3  -1   42.10    4.60
   6   3  -1   54.59    6.00
  -6   3   1   44.80    4.40
   5  -3  -1  842.82   29.40
   5  -3  -1  807.62   26.90
  -5  -3   1  743.43   27.10
   5   3  -1  811.32   27.50
  -5   3   1  756.02   27.30
   5   3  -1  784.72   28.90
   4  -3  -1  659.33   24.30
   4  -3  -1  675.13   22.30
   4   3  -1  652.13   22.60
  -4   3   1  641.14   23.20
   4   3  -1  642.44   24.20
   4   3  -1  676.13   23.20
   3  -3  -1 1145.29   38.30
   3   3  -1 1141.59   37.80
   3   3  -1 1124.09   38.40
  -3   3   1 1128.79   37.90
   3   3  -1 1145.29   36.50
   2  -3  -1  205.38    8.70
   2   3  -1  208.38    9.10
  -2   3   1  199.88    8.90
   2   3  -1  202.28    7.10
   2   3  -1  200.48    8.80
   1  -3  -1   60.39    3.50
   1   3  -1   70.69    4.20
  -1   3   1   66.29    4.30
   1   3  -1   66.39    4.30
  -1   3   1   62.79    3.20
   0  -3  -1   25.60    1.90
   0   3   1   21.80    2.90
   0   3  -1   20.40    2.80
   0   3  -1   20.70    2.50
   1   3   1 2256.37   73.19
  -1   3  -1 2275.27   73.39
   1   3   1 2374.16   73.19
   2   3   1  151.78    7.30
   2   3   1  134.29    6.50
   3   3   1 1292.37   43.30
  -3   3  -1 1288.97   42.10
   3   3   1 1271.67   41.80
   4  -3   1  599.74   21.70
   4   3   1  591.14   20.80
   4   3   1  598.54   22.70
  -4   3  -1  607.94   21.10
   5  -3   1  703.13   25.50
  -5   3  -1  692.23   24.20
   5   3   1  707.63   26.80
   5   3   1  701.43   23.80
   6  -3   1  139.49    8.00
  -6   3  -1  138.79    6.70
   6   3   1  134.69    8.90
   6   3   1  141.59    6.40
   7  -3   1  217.58   11.40
  -7  -3  -1  221.38    8.90
   7   3   1  227.98   12.70
  -7   3  -1  233.88    9.50
   8  -3   1  253.57   13.30
  -8  -3  -1  297.17   10.40
   8   3   1  259.07   14.70
  -8   3  -1  264.37   10.80
   9  -3   1  110.49    9.70
  -9  -3  -1  126.19    5.20
   9   3   1  105.29   10.40
  -9   3  -1  118.19    5.90
  10  -3   1    6.50    3.20
  10   3   1    4.60    3.60
  11  -3   1   11.50    4.50
  11   3   1   10.90    4.80
  12  -3   1   12.90    4.80
  12   3   1    0.20    4.00
  13  -3   1   10.60    5.40
  13   3   1   16.30    6.10
  14  -3   1   37.70    9.00
  14  -3   1   33.50    7.30
  14   3   1   41.60    8.50
  14   3   1   25.30    7.20
  15  -3   1  138.29   14.30
  15  -3   1  101.99   14.00
  15   3   1  151.98   15.70
  15   3   1  125.09   14.60
  16  -3   1    0.50    4.70
  16  -3   1    1.10    5.10
  16   3   1   -4.90    5.50
  16   3   1    5.30    5.80
  17  -4  -1   14.50    7.90
  17   4  -1    7.10    6.30
  17   4  -1   10.30    6.70
  16  -4  -1   -1.00    5.10
  16  -4  -1   -1.60    4.90
  16   4  -1    2.10    5.20
  16   4  -1   -7.40    4.40
  15  -4  -1    1.30    4.40
  15  -4  -1   -3.40    4.00
  15   4  -1    4.50    5.20
  15   4  -1    1.70    4.90
  14  -4  -1   18.40    6.70
  14  -4  -1   20.00    5.90
  14   4  -1   21.90    5.80
  14   4  -1   17.10    6.30
  13  -4  -1    9.10    5.40
  13  -4  -1    5.70    4.10
  13   4  -1   -0.50    4.20
  13   4  -1    4.50    4.80
  12  -4  -1    6.20    4.40
  12  -4  -1    9.70    4.20
  12   4  -1   13.30    5.30
  12   4  -1    8.70    4.30
  11  -4  -1  504.55   25.10
  11  -4  -1  529.55   22.50
  11   4  -1  510.15   23.30
 -11   4   1  495.75   19.70
  11   4  -1  508.25   24.30
  10  -4  -1   83.29   10.00
 -10  -4   1   83.59    5.90
  10  -4  -1   77.09    7.70
  10   4  -1  101.39   10.30
 -10   4   1   84.59    6.10
  -9  -4   1  359.46   14.80
   9  -4  -1  343.47   15.80
   9  -4  -1  389.76   19.10
   9   4  -1  348.37   17.90
  -9   4   1  370.46   15.20
   8  -4  -1  231.68   13.40
  -8  -4   1  230.48   10.60
   8  -4  -1  224.58   11.00
   8   4  -1  225.68   11.70
   8   4  -1  219.58   12.80
  -8   4   1  224.78   10.70
   7  -4  -1    3.00    2.60
  -7  -4   1    6.50    2.20
   7  -4  -1    1.30    1.70
   7   4  -1    3.30    2.80
  -7   4   1    2.60    2.10
   7   4  -1    7.00    2.50
  -6  -4   1  199.98    9.70
   6  -4  -1  220.48   11.70
   6  -4  -1  204.78    9.20
   6   4  -1  200.68   11.20
   6   4  -1  201.28    9.70
  -6   4   1  199.18    9.80
   5  -4  -1 1411.16   48.90
   5  -4  -1 1384.86   46.30
   5   4  -1 1415.36   49.00
   5   4  -1 1424.66   46.60
  -5   4   1 1434.96   47.70
   5   4  -1 1450.55   47.50
   4  -4  -1   12.00    2.80
   4  -4  -1   10.60    1.80
   4   4  -1   10.10    1.70
  -4   4   1   11.80    2.60
   4   4  -1   12.20    2.90
   4   4  -1   11.30    2.70
   3  -4  -1  526.75   19.90
   3   4  -1  543.05   20.50
   3   4  -1  535.35   17.70
  -3   4   1  519.75   19.90
   3   4  -1  550.74   20.00
   2  -4  -1  380.06   14.40
   2   4  -1  366.76   14.90
   2   4  -1  377.76   15.10
  -2   4   1  389.96   15.20
   1  -4  -1 3365.36  104.79
   1   4  -1 3268.47  105.69
   1   4  -1 3314.77  106.09
  -1   4   1 3333.97  106.09
  -1   4   1 3411.46  104.59
   0  -4  -1   61.99    3.30
   0   4   1   58.29    4.60
   0   4  -1   62.69    4.20
   0   4  -1   62.49    4.70
   1   4   1 2288.47   74.09
   1   4   1 2298.37   73.69
  -1   4  -1 2313.37   74.19
   2   4   1  324.67   13.60
   2   4   1  341.77   13.40
  -2   4  -1  335.77   13.60
  -3   4  -1   -0.40    0.60
   3   4   1    3.00    2.00
   3   4   1    4.20    1.90
   4   4   1  648.44   24.60
  -4   4  -1  646.54   23.20
   4   4   1  631.94   22.90
   5  -4   1  503.15   19.40
   5   4   1  485.55   20.60
  -5   4  -1  494.25   18.80
   5   4   1  514.05   18.60
   6  -4   1  214.38   10.60
   6   4   1  218.38   11.90
  -6   4  -1  196.28    9.50
   6   4   1  211.08    9.30
   7  -4   1  183.08   10.10
   7   4   1  177.98    8.40
  -7   4  -1  194.68    9.00
   7   4   1  180.48   11.30
  -8  -4  -1  194.98    8.50
   8  -4   1  188.38   10.70
   8   4   1  189.48   12.00
  -8   4  -1  173.08    8.80
   9  -4   1    8.70    3.40
  -9  -4  -1    4.20    1.90
  -9   4  -1    3.80    2.10
   9   4   1   13.30    4.50
  10  -4   1   21.70    4.60
  10   4   1   28.20    6.10
 -10   4  -1   20.20    3.80
  11  -4   1  130.69   11.40
  11   4   1  156.28   14.30
  12  -4   1   -2.60    3.40
  12   4   1    1.60    3.90
  13  -4   1   33.00    8.40
  13  -4   1   46.60    7.90
  13   4   1   38.70    8.50
  14  -4   1   28.80    7.60
  14  -4   1   22.00    7.70
  14   4   1   24.60    7.20
  14   4   1   23.60    6.60
  15  -4   1   21.10    6.90
  15  -4   1   27.00    7.30
  15   4   1   14.40    7.20
  15   4   1   25.80    7.70
  16  -4   1    0.80    5.00
  16  -4   1    3.80    5.80
  16   4   1    1.80    6.10
  16   4   1    3.40    6.10
  17  -5  -1   93.89   14.90
  17   5  -1   76.89   13.10
  17   5  -1  100.99   13.50
  16  -5  -1   -1.70    4.60
  16   5  -1    8.90    6.90
  16   5  -1    0.30    5.40
  15  -5  -1    8.20    5.10
  15  -5  -1    0.00    5.30
  15   5  -1    7.70    4.90
  15   5  -1   15.30    6.80
  14  -5  -1   -1.60    3.70
  14  -5  -1    3.00    4.20
  14   5  -1    3.70    4.40
  14   5  -1    5.80    5.30
  13  -5  -1   59.29    9.80
  13  -5  -1   48.70    7.30
  13   5  -1   40.50    8.20
  12  -5  -1  213.68   13.20
  12  -5  -1  233.48   16.30
  12   5  -1  237.18   15.80
  11  -5  -1   39.10    7.70
  11  -5  -1   42.30    6.30
 -11   5   1   59.59    6.10
  11   5  -1   42.50    6.70
  11   5  -1   42.30    7.70
 -10  -5   1    1.10    2.10
  10  -5  -1    0.30    2.30
  10  -5  -1    5.00    3.60
  10   5  -1   -1.10    2.60
  10   5  -1    0.50    3.00
 -10   5   1   -1.20    2.00
  -9  -5   1    3.60    2.40
   9  -5  -1    1.60    3.50
   9  -5  -1    5.00    2.50
   9   5  -1   10.00    3.90
   9   5  -1    8.10    3.10
  -9   5   1    6.10    2.70
  -8  -5   1   97.49    6.80
   8  -5  -1  112.39    7.00
   8  -5  -1  115.09   10.50
   8   5  -1   92.89    9.60
  -8   5   1  105.39    7.10
   8   5  -1  110.69    7.50
   7  -5  -1 1280.67   43.40
   7  -5  -1 1291.17   47.00
  -7  -5   1 1323.27   44.20
   7   5  -1 1225.18   46.40
  -7   5   1 1312.87   44.50
   7   5  -1 1260.07   43.70
   6  -5  -1   45.30    4.30
   6  -5  -1   47.30    6.10
   6   5  -1   48.10    6.20
  -6   5   1   45.70    5.10
   6   5  -1   46.20    5.10
   6   5  -1   52.49    4.70
   5  -5  -1  848.12   28.80
   5  -5  -1  826.22   31.30
   5   5  -1  857.81   31.80
   5   5  -1  844.72   30.40
   5   5  -1  841.72   28.50
   4  -5  -1  359.36   15.70
   4   5  -1  386.26   13.10
  -4   5   1  354.76   15.40
   4   5  -1  358.46   16.10
   4   5  -1  377.56   15.50
   3  -5  -1    7.10    2.30
   3   5  -1    5.80    2.50
   3   5  -1    3.70    0.80
   3   5  -1    4.50    2.10
  -3   5   1    5.70    2.20
   2  -5  -1 1061.19   35.10
   2   5  -1 1034.00   36.00
   2   5  -1 1003.40   36.10
  -2   5   1 1049.59   36.30
   1  -5  -1  889.31   29.30
  -1   5   1  889.41   31.20
   1   5  -1  858.61   31.10
   1   5  -1  866.21   30.60
  -1   5   1  862.41   29.40
   0  -5  -1  363.96   12.70
   0   5  -1  361.16   14.30
   0   5   1  358.96   15.00
   0   5  -1  342.77   14.90
  -1   5  -1  237.98   11.30
   1   5   1  234.38   11.10
   1   5   1  252.57   10.80
   2   5   1 3685.53  117.99
  -2   5  -1 3666.83  118.09
   2   5   1 3751.02  117.99
  -3   5  -1 2076.79   67.49
   3   5   1 2065.79   67.99
   3   5   1 2018.40   67.19
   4   5   1   80.19    5.70
   4   5   1   86.49    7.70
   5  -5   1 1814.72   61.09
   5   5   1 1879.51   60.99
  -5   5  -1 1864.31   61.29
   5   5   1 1825.72   62.89
   6  -5   1    2.10    1.70
  -6   5  -1    3.00    2.10
   6   5   1    1.30    1.90
   6   5   1    1.10    2.60
   7  -5   1  675.03   25.90
  -7   5  -1  680.23   25.00
   7   5   1  655.63   24.40
   7   5   1  667.33   27.80
   8  -5   1  613.54   24.40
  -8  -5  -1  592.54   22.50
  -8   5  -1  622.74   23.10
   8   5   1  596.64   22.40
   8   5   1  631.14   26.80
   9  -5   1   13.50    3.80
  -9  -5  -1   10.00    2.60
   9   5   1   12.60    4.60
  -9   5  -1    8.70    2.80
  10  -5   1  308.77   15.30
 -10   5  -1  265.37   12.40
  10   5   1  268.37   16.70
  11  -5   1    5.30    3.60
  11   5   1    7.50    4.70
  12  -5   1   40.20    7.40
  12   5   1   40.10    8.30
  13  -5   1    1.90    3.80
  13  -5   1    3.30    4.70
  13   5   1   -2.20    4.40
  14  -5   1    9.00    5.50
  14  -5   1   14.30    6.10
  14   5   1   10.50    6.50
  14   5   1   13.40    6.20
  15  -5   1   69.09   12.10
  15  -5   1   78.19   11.00
  15   5   1   66.59   11.30
  15   5   1   81.69   11.50
  16  -5   1   19.00    8.50
  16  -5   1    2.40    4.90
  16   5   1    5.60    6.50
  16   5   1   11.20    6.70
  16  -6  -1   41.00    9.60
  16   6  -1   49.99   10.20
  16   6  -1   11.60    5.40
  15  -6  -1   19.30    7.60
  15   6  -1   24.80    7.30
  15   6  -1   14.70    6.70
  14  -6  -1  107.89   14.10
  14  -6  -1  105.79   12.50
  14   6  -1  117.29   12.30
  14   6  -1  104.59   12.90
  13  -6  -1   81.49    9.20
  13  -6  -1   83.09   11.60
  13   6  -1   71.49   11.00
  13   6  -1   79.49   10.00
  12  -6  -1  312.67   19.90
  12  -6  -1  361.46   17.30
  12   6  -1  326.77   17.70
  12   6  -1  334.87   20.10
  11  -6  -1    6.80    4.80
  11  -6  -1   13.90    3.80
  11   6  -1   19.20    5.10
 -11   6   1   13.80    3.80
  11   6  -1   14.70    5.30
  10  -6  -1   17.40    4.10
  10  -6  -1   19.80    5.90
 -10  -6   1   26.20    4.60
 -10   6   1   27.30    4.90
  10   6  -1   20.90    4.60
  10   6  -1   21.20    5.60
  -9  -6   1    2.70    2.60
   9  -6  -1    0.80    3.20
   9  -6  -1    0.50    2.00
   9   6  -1    2.20    2.60
   9   6  -1    3.60    3.50
  -9   6   1   -0.20    2.10
  -8  -6   1   27.50    4.50
   8  -6  -1   14.90    3.10
   8  -6  -1   12.60    4.30
  -8   6   1   23.70    4.30
   8   6  -1   20.60    4.90
   8   6  -1   14.80    3.50
   7  -6  -1  730.33   29.20
   7  -6  -1  693.03   25.50
   7   6  -1  705.83   25.50
   7   6  -1  676.73   26.60
  -7   6   1  690.93   27.00
   7   6  -1  727.83   29.30
   6  -6  -1  729.33   28.70
   6  -6  -1  714.33   25.60
   6   6  -1  712.23   25.20
   6   6  -1  695.63   27.20
   6   6  -1  753.32   29.20
   5  -6  -1   15.10    3.50
  -5   6   1   12.60    3.30
   5   6  -1   11.40    3.10
   5   6  -1   13.70    2.10
   5   6  -1   17.40    4.00
   4  -6  -1   56.49    6.00
   4   6  -1   62.69    3.20
   4   6  -1   62.89    6.40
   4   6  -1   65.39    6.90
  -4   6   1   65.99    6.60
   3  -6  -1  118.79    7.10
   3   6  -1  123.79    7.90
   3   6  -1  134.59    8.10
  -3   6   1  112.49    7.70
   2  -6  -1   58.59    4.50
   2   6  -1   69.79    6.60
  -2   6   1   66.59    6.50
  -2   6   1   63.79    4.20
   2   6  -1   59.89    6.10
  -1  -6   1  249.18    8.70
   1  -6  -1  258.87   10.50
   1   6  -1  257.87   11.80
  -1   6   1  268.07   10.90
   1   6  -1  256.57   12.40
  -1   6   1  248.08   12.30
   0  -6  -1  286.17   10.80
   0   6  -1  278.37   13.30
   0   6  -1  290.57   12.60
   0   6   1  305.57   13.70
   1   6   1  300.77   13.10
  -1   6  -1  302.37   13.90
   1   6   1  294.67   13.60
   2   6   1 1362.46   47.00
  -2   6  -1 1403.86   47.60
   2   6   1 1358.96   47.20
   3   6   1  132.69    8.40
  -3   6  -1  125.59    8.00
   3   6   1  137.79    8.20
   4   6   1  162.38    9.40
   4   6   1  177.38   10.40
  -4   6  -1  175.48    9.60
   5   6   1  356.86   17.10
   5   6   1  372.46   15.90
   6  -6   1  476.95   19.40
   6   6   1  495.15   21.70
  -6   6  -1  476.35   19.70
   6   6   1  472.65   19.30
   7  -6   1   -3.20    1.70
   7   6   1    5.40    2.50
   7   6   1    7.00    3.70
  -7   6  -1    2.00    2.10
   8  -6   1  272.57   14.10
   8   6   1  297.57   13.40
   8   6   1  298.07   16.50
  -8   6  -1  295.07   13.80
   9  -6   1  112.89    9.60
  -9  -6  -1  110.59    7.20
  -9   6  -1  100.59    7.40
   9   6   1   96.29   10.60
  10  -6   1   65.19    7.60
  10   6   1   67.69    9.40
 -10   6  -1   73.19    6.90
  11  -6   1  128.39   11.40
  11   6   1  126.19   13.30
  12  -6   1   46.80    7.60
  12  -6   1   32.80    8.10
  12   6   1   30.10    7.60
  13  -6   1   69.59   11.10
  13  -6   1   78.89    9.80
  13   6   1   62.09   10.40
  13   6   1   67.19    9.40
  14  -6   1    4.40    5.30
  14  -6   1    0.40    4.10
  14   6   1    1.60    4.00
  14   6   1   12.70    6.50
  15  -6   1   -0.10    5.80
  15  -6   1    3.20    5.30
  15   6   1    9.20    6.30
  15   6   1    0.60    4.10
  16  -6   1   37.10    9.50
  16   6   1   23.70    7.80
  16   6   1   22.10    8.10
  16  -7  -1   -7.10    5.40
  16   7  -1    1.50    5.60
  15  -7  -1    8.20    6.00
  15   7  -1   13.30    6.80
  14  -7  -1    9.90    6.70
  14   7  -1   23.50    7.30
  14   7  -1   13.30    6.00
  13  -7  -1  411.26   24.70
  13   7  -1  443.26   24.80
  13   7  -1  430.86   21.60
  12  -7  -1  269.07   18.60
  12  -7  -1  279.27   15.10
  12   7  -1  315.17   19.20
  12   7  -1  282.57   15.90
  11  -7  -1   33.30    5.60
  11  -7  -1   35.60    7.70
 -11  -7   1   26.70    5.90
  11   7  -1   32.00    7.20
  11   7  -1   27.80    5.50
 -11   7   1   27.20    5.30
  10  -7  -1  522.25   25.80
  10  -7  -1  516.95   21.60
 -10  -7   1  508.35   21.90
 -10   7   1  537.25   22.70
  10   7  -1  542.25   25.90
  10   7  -1  531.95   22.30
  -9  -7   1 1045.60   36.70
   9  -7  -1  938.01   35.10
   9  -7  -1  952.00   39.40
  -9   7   1  981.60   36.70
   9   7  -1  958.30   39.40
   9   7  -1  980.00   35.40
  -8  -7   1  220.28   12.50
   8  -7  -1  228.88   14.30
   8  -7  -1  244.88   11.60
   8   7  -1  253.97   11.70
   8   7  -1  248.48   14.80
  -8   7   1  240.28   13.00
   7  -7  -1  228.18   10.90
   7  -7  -1  247.18   13.90
   7   7  -1  220.98   13.70
   7   7  -1  241.58   10.70
   7   7  -1  242.18   12.70
   6  -7  -1   80.69    8.40
   6  -7  -1   72.39    5.20
   6   7  -1   66.49    7.80
   6   7  -1   74.69    7.50
   6   7  -1   67.79    4.60
  -6   7   1   91.49    8.40
   5  -7  -1  474.65   20.10
   5   7  -1  449.66   20.60
  -5   7   1  465.05   20.10
   5   7  -1  464.75   16.00
   5   7  -1  458.55   19.80
   4  -7  -1 1982.20   66.39
  -4   7   1 1990.90   67.39
   4   7  -1 1971.80   67.19
   4   7  -1 1991.60   67.69
   3  -7  -1   98.09    6.60
   3   7  -1  109.99    7.80
  -3   7   1   99.69    7.60
   3   7  -1  111.79    7.80
   2  -7  -1   10.20    2.60
   2   7  -1   10.00    3.20
   2   7  -1    3.00    2.20
  -2   7   1    4.80    2.00
  -2   7   1   13.10    3.60
  -1  -7   1  214.28    7.60
   1  -7  -1  207.48    9.20
   1   7  -1  211.48   11.60
  -1   7   1  206.98   11.50
  -1   7   1  215.48    9.90
   1   7  -1  210.28   10.80
   0  -7   1   36.60    3.20
   0  -7  -1   41.10    3.00
   0   7  -1   38.40    5.40
   0   7  -1   33.30    4.50
   0   7   1   43.70    5.50
  -1   7  -1  262.27   11.80
  -1   7  -1  241.78   12.80
   1   7   1  251.07   12.00
   1   7   1  250.67   12.80
  -2   7  -1   45.20    5.90
   2   7   1   37.30    5.10
   2   7   1   44.50    5.50
   3   7   1   57.99    6.70
   3   7   1   65.79    6.70
  -3   7  -1   66.49    7.10
   4   7   1  403.16   18.10
   4   7   1  426.86   19.00
  -4   7  -1  424.56   18.50
   5   7   1 1073.99   40.10
  -5   7  -1 1050.19   38.80
   5   7   1 1074.09   38.60
   6  -7   1  237.48   11.90
   6   7   1  226.38   12.20
  -6   7  -1  250.87   12.80
   6   7   1  259.07   14.40
   7  -7   1   56.39    6.10
   7   7   1   60.39    6.60
   7   7   1   55.39    7.70
  -7   7  -1   54.49    6.50
   8  -7   1   93.09    8.20
  -8   7  -1   73.09    7.50
   8   7   1   77.09    9.60
   8   7   1   78.49    7.50
   9  -7   1  232.78   13.00
  -9   7  -1  247.68   13.00
   9   7   1  249.97   12.50
   9   7   1  213.28   14.80
  10  -7   1   51.99    7.00
 -10   7  -1   66.19    7.10
  10   7   1   50.79    8.60
  11  -7   1   -0.20    3.80
  11  -7   1    0.20    2.90
  11   7   1    1.10    4.20
  12  -7   1   43.40    9.10
  12  -7   1   52.59    8.00
  12   7   1   38.80    7.60
  12   7   1   44.00    8.90
  13  -7   1   62.49   10.90
  13  -7   1   62.89    8.90
  13   7   1   59.39    8.90
  13   7   1   45.00    9.30
  14  -7   1   44.50    8.50
  14  -7   1   43.50    9.70
  14   7   1   51.79   10.20
  14   7   1   35.90    7.90
  15  -7   1  134.39   16.30
  15   7   1  131.79   16.00
  16  -8  -1   -0.50    5.90
  16   8  -1    7.70    6.70
  15  -8  -1    0.60    5.10
  15   8  -1   -3.70    5.20
  14  -8  -1    1.20    5.40
  14   8  -1    3.90    5.30
  13  -8  -1   24.00    7.30
  13   8  -1   32.60    7.90
  12  -8  -1    9.30    6.00
  12   8  -1    3.10    4.40
  11  -8  -1  149.49   14.90
  11  -8  -1  158.08   10.20
 -11  -8   1  171.58   11.50
  11   8  -1  161.78   10.60
  11   8  -1  135.99   14.10
 -11   8   1  181.18   11.50
  10  -8  -1   71.39    7.50
  10  -8  -1   82.09   11.00
 -10  -8   1   67.39    7.80
  10   8  -1   71.29    7.30
 -10   8   1   76.09    8.70
  10   8  -1   61.69    9.20
   9  -8  -1  115.49   11.70
   9  -8  -1  100.39    8.30
  -9  -8   1   80.99    8.70
   9   8  -1  100.19   11.30
  -9   8   1  108.69   10.20
   9   8  -1  111.69    7.50
   8  -8  -1   84.19    7.20
   8  -8  -1   98.49   10.70
  -8   8   1   91.19    9.20
   8   8  -1   93.89    9.00
   8   8  -1   79.39    9.80
   8   8  -1   77.39    5.90
   7  -8  -1  287.47   15.90
   7  -8  -1  300.77   13.00
   7   8  -1  269.57   11.60
   7   8  -1  317.47   16.90
   7   8  -1  296.17   15.10
  -7   8   1  249.68   14.60
   6  -8  -1  595.54   25.00
  -6   8   1  592.34   25.00
   6   8  -1  601.04   26.00
   6   8  -1  576.94   20.20
   6   8  -1  574.54   24.60
   5  -8  -1  239.78   13.00
   5   8  -1  247.88    8.70
   5   8  -1  267.67   13.80
  -5   8   1  269.47   14.10
   5   8  -1  235.28   13.80
   4  -8  -1   22.90    4.20
   4   8  -1   24.20    5.10
  -4   8   1   32.50    5.40
   4   8  -1   30.80    5.20
   3  -8  -1  263.77   12.90
  -3   8   1  296.47   15.10
   3   8  -1  287.57   14.60
   3   8  -1  307.67   15.00
   2  -8  -1   28.30    3.80
   2   8  -1   42.10    5.60
   2   8  -1   42.20    6.00
  -2   8   1   38.70    5.80
  -2   8   1   35.90    4.20
  -1  -8   1   13.70    1.60
   1  -8  -1   18.00    2.90
   1   8  -1   21.60    4.00
  -1   8   1   12.70    3.70
   1   8  -1   15.50    4.00
  -1   8   1   15.60    3.20
   0  -8  -1   61.09    4.00
   0  -8   1   59.29    3.90
   0   8   1   52.39    6.60
   0   8  -1   68.99    6.60
   0   8  -1   75.39    7.90
   1  -8   1  276.57   11.60
   1   8   1  277.77   14.20
  -1   8  -1  298.07   14.70
  -1   8  -1  265.47   12.90
   1   8   1  263.97   13.10
   2  -8   1  128.89    7.70
   2   8   1  139.69    9.10
   2   8   1  151.68    9.70
  -2   8  -1  146.09    9.80
  -3   8  -1    8.60    3.30
   3   8   1    7.30    3.10
   3   8   1   10.20    3.40
  -4   8  -1  887.41   34.20
   4   8   1  851.01   33.60
   4   8   1  938.61   34.70
   5   8   1   28.90    5.40
  -5   8  -1   22.70    5.00
   5   8   1   24.30    4.60
  -6   8  -1  377.26   19.30
   6   8   1  487.15   20.20
   6   8   1  477.55   21.90
   7  -8   1   56.49    6.50
   7   8   1   54.09    6.70
  -7   8  -1   75.59    8.00
   7   8   1   57.89    8.20
   8  -8   1    4.90    2.80
   8   8   1   -1.70    2.40
   8   8   1   -2.30    2.70
  -8   8  -1    2.00    2.90
   9  -8   1    9.90    4.70
   9  -8   1    8.20    3.60
  -9   8  -1    8.30    3.90
   9   8   1   10.70    3.80
   9   8   1   12.60    5.40
 -10  -8  -1    2.00    3.20
  10  -8   1   -0.60    3.90
  10  -8   1    1.10    2.80
  10   8   1    0.70    3.50
 -10   8  -1   -2.00    2.80
  11  -8   1  104.79   10.10
  11  -8   1   94.59   12.10
  11   8   1  108.79   10.60
  11   8   1  103.39   12.50
  12  -8   1   13.30    4.70
  12  -8   1    3.10    5.20
  12   8   1    2.20    4.50
  13  -8   1    0.40    5.00
  13  -8   1    9.10    4.70
  13   8   1   13.20    6.70
  14  -8   1   25.20    8.10
  14   8   1   26.00    8.50
  15  -8   1   21.60    8.30
  15   8   1   11.60    7.40
  15  -9  -1    2.90    5.90
  15   9  -1   14.80    7.30
  14  -9  -1    2.80    5.60
  14   9  -1    0.80    5.20
  13  -9  -1    7.20    5.60
  13   9  -1    7.30    5.50
  12  -9  -1   69.49   11.00
  12   9  -1   58.99    9.90
  11  -9  -1    7.90    5.70
 -11  -9   1   16.60    4.90
 -11   9   1   23.60    5.80
  11   9  -1   16.70    5.90
  10  -9  -1   -0.90    2.50
 -10  -9   1   -1.10    3.40
  10  -9  -1    4.30    4.50
 -10   9   1   -2.90    2.70
  10   9  -1    4.20    4.20
   9  -9  -1   36.80    5.30
  -9  -9   1   42.00    6.80
   9  -9  -1   44.00    8.40
   9   9  -1   51.49    7.30
   9   9  -1   46.70    8.20
  -9   9   1   51.69    7.70
   8  -9  -1   36.60    4.80
   8  -9  -1   30.10    6.20
  -8   9   1   34.70    6.30
   8   9  -1   30.70    5.90
   8   9  -1   36.80    4.80
   8   9  -1   28.90    6.30
   7  -9  -1  390.56   19.20
   7  -9  -1  379.96   15.90
  -7   9   1  360.56   18.50
   7   9  -1  371.56   18.50
   7   9  -1  378.86   19.90
   7   9  -1  351.96   13.80
   6  -9  -1   59.49    7.80
   6   9  -1   69.79    8.80
   6   9  -1   64.19    3.40
  -6   9   1   78.29    8.80
   6   9  -1   73.69    8.40
   5  -9  -1   87.59    8.60
  -5   9   1   87.29    9.20
   5   9  -1   77.39    9.00
   5   9  -1   77.79    8.60
   4  -9  -1   57.79    6.30
   4   9  -1   47.90    6.80
   4   9  -1   52.79    7.00
  -4   9   1   68.09    8.10
   3  -9  -1    2.80    2.30
   3   9  -1    2.30    2.50
  -3   9   1    7.00    3.40
   3   9  -1    4.90    3.30
   2  -9  -1  169.08    9.00
   2   9  -1  171.98   10.60
   2   9  -1  175.68   11.30
  -2   9   1  159.38   11.00
  -2   9   1  171.48    9.20
  -1  -9   1   71.59    3.50
   1  -9  -1   62.49    5.30
  -1   9   1   65.49    8.00
   1   9  -1   60.99    7.60
  -1   9   1   72.59    6.70
   1   9  -1   64.69    7.00
   0  -9   1  451.05   16.70
   0  -9  -1  449.16   16.70
   0   9  -1  479.55   19.90
   0   9  -1  471.05   21.40
   0   9   1  470.05   21.20
   1  -9   1   41.10    4.40
   1   9   1   50.99    7.00
  -1   9  -1   38.90    6.10
  -1   9  -1   42.20    5.40
   1   9   1   51.59    6.10
   2  -9   1  409.46   16.90
   2   9   1  392.96   19.30
  -2   9  -1  453.55   20.30
   2   9   1  405.76   18.70
   3  -9   1   19.90    3.80
   3   9   1   20.00    4.70
   3   9   1   30.40    5.20
  -3   9  -1   25.70    5.10
   4  -9   1  222.98   12.30
   4   9   1  234.68   13.80
   4   9   1  263.07   14.00
  -4   9  -1  237.88   13.90
   5  -9   1   12.20    4.00
  -5   9  -1   14.80    4.30
   5   9   1   19.10    4.90
   5   9   1   20.70    4.90
   6  -9   1  485.75   21.70
  -6   9  -1  415.76   20.50
   6   9   1  451.05   21.90
   6   9   1  435.46   20.50
   7  -9   1   74.89    9.20
   7  -9   1   70.29    7.40
   7   9   1   63.09    7.70
   7   9   1   60.19    8.70
   8  -9   1  128.79   12.40
   8  -9   1  104.19    9.40
   8   9   1  106.29    9.90
   8   9   1   91.89   11.20
  -8   9  -1  122.39   11.20
   9  -9   1   54.09    6.90
   9  -9   1   43.90    7.90
   9   9   1   40.00    8.00
  -9   9  -1   43.70    7.10
   9   9   1   42.90    6.70
  10  -9   1  161.88   11.40
  10  -9   1  171.58   16.00
  10   9   1  164.18   17.50
 -10   9  -1  164.58   11.60
  10   9   1  210.18   17.90
  11  -9   1    2.20    3.20
  11  -9   1   -0.10    4.00
  11   9   1   -2.50    4.00
  12  -9   1  252.07   15.40
  12  -9   1  253.67   18.60
  12   9   1  265.27   18.90
  13  -9   1   58.99   11.30
  13   9   1   24.30    7.60
  14  -9   1    0.50    5.60
  14   9   1    4.10    5.90
  15  -9   1    1.40    6.20
  15   9   1    3.90    5.60
  15 -10  -1   -2.70    5.90
  15  10  -1    3.00    5.80
  14 -10  -1  135.09   16.80
  14  10  -1  116.09   15.20
  13 -10  -1   23.60    8.10
  13  10  -1   17.60    6.80
  12 -10  -1   23.80    7.80
  12  10  -1   21.80    7.10
 -11 -10   1    8.10    4.50
  11 -10  -1   15.80    6.30
  11  10  -1    8.80    5.20
 -11  10   1   11.10    5.00
  10 -10  -1   82.29   11.20
 -10 -10   1   95.09   10.30
 -10  10   1   96.89   10.60
  10  10  -1   78.09   11.10
   9 -10  -1   62.69    9.10
   9 -10  -1   43.70    5.80
   9  10  -1   51.29    7.60
   9  10  -1   42.50    8.20
   8 -10  -1  136.19   12.90
   8 -10  -1  134.89    8.60
   8  10  -1  135.49   13.70
   8  10  -1  132.89   12.10
  -8  10   1  124.49   12.20
   7 -10  -1   45.10    7.60
   7  10  -1   54.79    7.90
   7  10  -1   49.80    8.10
  -7  10   1   53.39    7.90
   6 -10  -1  310.17   16.60
   6  10  -1  305.07   16.90
  -6  10   1  302.17   17.20
   6  10  -1  365.46   18.80
   5 -10  -1  155.68   10.60
   5  10  -1  170.58   11.80
  -5  10   1  157.58   11.60
   5  10  -1  169.68   11.90
   4 -10  -1   87.39    8.20
   4  10  -1   70.69    8.80
  -4  10   1   85.99    9.70
   4  10  -1   63.09    8.30
   3 -10  -1   -0.40    1.80
   3  10  -1   -0.60    2.20
   3  10  -1   -0.20    2.70
  -3  10   1    4.40    3.40
   2 -10  -1  319.57   14.10
   2  10  -1  344.17   16.70
   2  10  -1  294.07   16.70
  -2  10   1  305.87   17.00
  -2  10   1  327.97   14.60
  -1 -10   1  348.57   12.10
   1 -10  -1  367.96   14.50
   1  10  -1  357.36   18.30
   1  10  -1  334.77   16.80
  -1  10   1  328.47   17.80
  -1  10   1  332.47   15.60
   0 -10  -1   50.19    4.20
   0 -10   1   43.30    3.90
   0  10   1   35.80    6.30
   0  10  -1   39.80    6.70
   0  10  -1   46.00    6.10
   1 -10   1   -0.70    1.70
  -1  10  -1   -3.60    2.50
   1  10   1   -2.40    1.80
   1  10   1    1.10    2.70
  -1  10  -1    2.10    2.40
   2 -10   1   12.10    3.20
   2  10   1   21.50    4.70
  -2  10  -1    4.40    3.40
   2  10   1    6.30    3.20
   3 -10   1   77.59    7.50
   3  10   1   95.69    9.60
  -3  10  -1   87.89    9.70
   3  10   1   95.79   10.10
   4 -10   1  358.26   16.90
   4  10   1  341.37   18.10
   4  10   1  353.16   18.30
  -4  10  -1  357.26   18.50
   5 -10   1   18.60    4.80
  -5  10  -1   26.00    5.50
   5  10   1   18.50    5.00
   5  10   1   16.50    5.00
   6 -10   1  244.28   14.00
   6  10   1  206.88   13.30
  -6  10  -1  212.48   13.60
   6  10   1  209.88   14.20
   7 -10   1   12.30    4.60
   7  10   1   10.90    4.30
   7  10   1   13.20    4.80
  -7  10  -1    6.90    4.20
   8 -10   1  108.09    9.70
   8 -10   1  112.49   11.80
   8  10   1  110.39   10.80
   8  10   1   92.69   11.50
   9 -10   1  173.08   11.40
   9 -10   1  157.48   14.80
   9  10   1  182.58   12.20
  -9  10  -1  184.68   12.80
   9  10   1  161.18   15.40
  10 -10   1   81.99    9.10
  10 -10   1   67.89   10.30
  10  10   1   95.39   19.10
 -10  10  -1   95.89   10.70
  10  10   1   92.39   11.40
  11 -10   1   71.79   11.40
  11 -10   1   79.69   10.20
  11  10   1   94.39   12.50
  12 -10   1    3.60    5.50
  12  10   1    6.50    5.00
  13 -10   1   27.70    8.30
  13  10   1   17.30    6.60
  14 -10   1   28.60    8.90
  14  10   1   20.90    7.80
  14 -11  -1   47.90   11.30
  14  11  -1   28.30    9.60
  13 -11  -1   29.20    9.10
  13  11  -1   28.40    8.40
  12 -11  -1  144.19   16.10
  12  11  -1  129.79   15.40
 -11 -11   1    8.00    4.80
  11 -11  -1   28.20    7.60
  11  11  -1   14.50    6.30
 -11  11   1   22.10    6.30
 -10 -11   1  103.79   11.30
  10 -11  -1  108.99   13.10
 -10  11   1   95.29   11.20
  10  11  -1   95.09   12.20
   9 -11  -1   33.80    7.30
  -9  11   1   52.39    8.60
   9  11  -1   18.10    6.30
   9  11  -1   48.20    8.20
   8 -11  -1   33.20    5.20
   8 -11  -1   24.10    6.30
   8  11  -1   34.60    6.80
   8  11  -1   31.90    7.50
  -8  11   1   28.30    7.00
   7 -11  -1   48.60    7.70
  -7  11   1   42.90    7.60
   7  11  -1   35.30    7.30
   7  11  -1   45.90    7.80
   6 -11  -1   29.10    5.60
   6  11  -1   21.30    5.50
   6  11  -1   21.90    5.50
  -6  11   1   25.70    6.00
   5 -11  -1    4.40    3.20
   5  11  -1    6.00    3.50
   5  11  -1    5.00    3.60
  -5  11   1    7.10    4.10
   4 -11  -1  179.38   11.00
   4  11  -1  190.88   12.90
   4  11  -1  173.48   12.20
  -4  11   1  170.88   12.80
   3 -11  -1   12.70    3.60
   3  11  -1   16.50    4.50
  -3  11   1   12.00    4.70
   3  11  -1   15.80    5.00
   2 -11  -1  756.42   28.40
  -2  11   1  815.82   33.30
  -2  11   1  743.93   29.10
   2  11  -1  762.32   31.30
   2  11  -1  753.72   32.50
  -1 -11   1  128.99    5.30
   1 -11  -1  118.09    7.20
   1  11  -1  132.99   12.60
  -1  11   1  135.89   12.60
  -1  11   1  129.99    8.90
   1  11  -1  130.09   11.20
   0 -11   1   56.79    4.20
   0 -11  -1   57.09    4.10
   0  11  -1   52.59    8.10
   0  11  -1   57.29    7.20
   0  11   1   55.09    8.10
   1 -11   1   72.39    6.10
  -1  11  -1   44.20    7.70
  -1  11  -1   65.39    7.20
   1  11   1   70.39    7.90
   1  11   1   44.40    7.30
   2 -11   1   43.30    5.30
  -2  11  -1   42.30    7.30
   2  11   1   42.50    6.50
   2  11   1   42.20    6.90
   3 -11   1   -0.70    2.30
   3  11   1   -1.80    2.70
  -3  11  -1    3.30    3.20
   3  11   1    1.60    3.00
   4 -11   1   34.40    5.70
   4  11   1   36.10    6.90
  -4  11  -1   42.90    7.50
   4  11   1   42.20    7.00
   5 -11   1    0.70    3.00
  -5  11  -1    4.60    3.80
   5  11   1   -2.40    2.50
   5  11   1   -1.30    2.70
   6 -11   1   21.70    5.30
   6  11   1    6.00    4.00
  -6  11  -1   11.50    4.80
   6  11   1   16.10    5.60
   7 -11   1   -2.20    3.40
   7  11   1    1.20    3.70
   7  11   1    4.40    3.90
  -7  11  -1   -0.90    3.80
   8 -11   1   10.10    4.90
   8 -11   1   11.80    4.10
  -8  11  -1   11.80    5.10
   8  11   1    8.20    4.70
   8  11   1    6.40    4.30
   9 -11   1   -0.50    3.00
   9 -11   1   -0.10    3.70
   9  11   1    1.70    3.80
  -9  11  -1    0.60    3.50
   9  11   1    0.80    4.20
  10 -11   1  125.69   13.90
  10  11   1   92.99   12.20
  10  11   1  135.89   14.70
 -10  11  -1  104.79   11.80
  11 -11   1    4.60    5.00
  11  11   1   -0.50    3.80
  12 -11   1   98.09   13.70
  12  11   1   55.79   10.80
  13 -11   1   -4.10    4.50
  13  11   1   -1.50    4.70
  14 -11   1    6.00    7.20
  14  11   1   19.30    7.80
  14 -12  -1   -2.80    6.50
  14  12  -1    2.30    6.20
  13 -12  -1   22.60    8.50
  13  12  -1    7.80    6.20
  12 -12  -1   -4.20    4.80
  12  12  -1    0.80    5.20
  11 -12  -1   55.69   10.20
 -11 -12   1   51.79    9.70
  11  12  -1   50.39   10.20
 -11  12   1   47.30    9.10
 -10 -12   1   48.90    8.80
  10 -12  -1   55.39    9.80
  10  12  -1   48.50    8.50
  10  12  -1   57.29   10.10
 -10  12   1   44.50    8.40
   9 -12  -1  160.98   15.50
  -9  12   1  175.98   15.90
   9  12  -1  164.28   16.50
   9  12  -1  171.98   15.30
   8 -12  -1  111.19   12.10
   8  12  -1  115.89   13.40
   8  12  -1  113.89   12.50
  -8  12   1  128.49   13.50
   7 -12  -1    4.20    3.70
   7  12  -1    1.60    3.80
   7  12  -1    2.70    3.80
  -7  12   1    0.40    4.30
   6 -12  -1  257.07   14.90
   6  12  -1  235.58   15.90
   6  12  -1  224.78   15.40
  -6  12   1  228.28   15.90
   5 -12  -1  269.57   15.10
   5  12  -1  266.37   16.60
  -5  12   1  274.57   17.00
   5  12  -1  272.67   16.90
   4 -12  -1   31.70    5.50
   4  12  -1   28.30    6.30
  -4  12   1   22.80    6.00
   4  12  -1   27.20    6.50
   3 -12  -1  240.58   12.60
  -3  12   1  200.98   14.70
   3  12  -1  240.28   15.50
   3  12  -1  219.68   14.30
   2 -12  -1   82.29    7.20
   2  12  -1   65.19    9.20
  -2  12   1   78.09   10.00
  -2  12   1   72.59    7.70
   2  12  -1   75.99    9.10
   1 -12  -1    0.70    1.80
  -1  12   1    2.20    3.30
   1  12  -1    0.60    3.40
  -1  12   1   -2.60    2.00
   1  12  -1    1.70    2.60
   0 -12   1    7.90    2.10
   0 -12  -1    9.30    2.20
   0  12   1   15.70    5.20
   0  12  -1    6.80    4.60
   0  12  -1    7.20    3.50
   0  12   1    0.00    1.40
   1 -12   1    2.20    2.30
   1  12   1    2.90    3.70
   1  12   1    0.70    3.00
  -1  12  -1    1.50    3.30
   2 -12   1   71.49    6.80
   2  12   1   62.79    9.20
   2  12   1   65.09    8.40
  -2  12  -1   57.59    8.80
   3 -12   1    3.20    3.10
   3  12   1    8.30    4.00
   3  12   1    5.90    4.00
  -3  12  -1    6.00    4.30
   4 -12   1  185.38   11.60
  -4  12  -1  202.98   14.30
   4  12   1  194.08   13.60
   4  12   1  179.48   13.40
   5 -12   1   95.19    9.90
  -5  12  -1   94.69   11.30
   5  12   1   99.19   11.30
   5  12   1   95.59   10.90
   6 -12   1   -1.00    3.40
  -6  12  -1   -0.80    3.20
   6  12   1    4.40    4.40
   6  12   1   -0.70    4.10
   7 -12   1   28.10    6.30
   7  12   1   40.00    7.60
  -7  12  -1   34.40    7.80
   7  12   1   33.10    7.30
   8 -12   1    8.80    3.90
   8 -12   1   18.10    5.60
  -8  12  -1   11.40    5.60
   8  12   1    4.30    4.40
   8  12   1    7.80    4.90
   9 -12   1  126.39   13.80
   9  12   1  158.88   14.20
   9  12   1  152.58   16.00
  10 -12   1   -3.40    3.60
 -10  12  -1    1.50    3.90
  10  12   1    7.80    5.30
  11 -12   1   15.50    7.40
  11  12   1   39.30    9.20
  12 -12   1   15.60    6.80
  12  12   1   34.30    9.00
  13 -12   1   -1.90    5.30
  13  12   1    1.60    4.90
  13 -13  -1    4.30    6.00
  13  13  -1   -0.60    5.20
  12 -13  -1   83.59   13.40
  12  13  -1  112.89   14.70
  11 -13  -1    5.50    5.90
 -11  13   1    1.10    3.30
  11  13  -1    7.80    5.50
  10 -13  -1    4.00    4.60
 -10 -13   1    3.80    4.90
  10  13  -1    2.40    5.20
  10  13  -1   24.90    7.50
 -10  13   1    3.30    5.10
   9 -13  -1   11.90    5.60
  -9  13   1    6.50    5.00
   9  13  -1   14.20    5.90
   9  13  -1   19.90    6.80
   8 -13  -1    7.00    4.90
   8  13  -1   16.80    6.10
   8  13  -1    8.60    5.40
  -8  13   1    9.40    5.60
   7 -13  -1   21.70    6.40
   7  13  -1   18.30    5.90
   7  13  -1    1.20    4.00
  -7  13   1   10.70    5.00
   6 -13  -1   17.40    5.10
  -6  13   1   12.40    5.30
   6  13  -1   13.60    6.10
   6  13  -1   10.70    5.10
   5 -13  -1    0.60    3.30
  -5  13   1   -2.00    3.40
   5  13  -1   -1.30    3.80
   5  13  -1   -1.70    3.40
   4 -13  -1   19.20    4.60
  -4  13   1   12.50    5.50
   4  13  -1   31.10    7.20
   4  13  -1   24.10    6.50
   3 -13  -1   -3.20    2.20
   3  13  -1    1.50    4.10
  -3  13   1    3.50    4.00
   3  13  -1    0.10    3.00
   2 -13  -1  171.58   10.00
   2  13  -1  189.98   13.30
  -2  13   1  176.48   13.90
   2  13  -1  187.98   14.30
   1  13  -1   -0.10    3.10
   1  13  -1    4.10    4.50
  -1  13   1    0.40    3.60
  -1  13   1    7.20    3.70
   0  13  -1  316.97   18.80
   0  13  -1  259.27   15.50
   0  13   1  267.97   17.40
   1  13   1   -1.00    2.80
   1  13   1    1.80    3.90
  -1  13  -1   -1.30    3.70
   2 -13   1   99.79    8.40
   2  13   1   83.39   10.00
   2  13   1   96.79   11.40
  -2  13  -1   85.79   11.50
   3 -13   1   15.50    4.10
   3  13   1   19.20    6.30
  -3  13  -1    6.10    4.70
   3  13   1   12.20    4.50
   4 -13   1   10.10    4.00
   4  13   1   15.70    5.20
   4  13   1   17.20    5.70
  -4  13  -1    6.60    4.60
   5 -13   1    4.90    4.00
   5  13   1    8.90    5.20
   5  13   1   11.00    5.10
  -5  13  -1    2.90    3.90
   6 -13   1   35.20    7.00
   6  13   1   26.60    6.90
  -6  13  -1   53.29    9.20
   6  13   1   48.40    8.90
   7 -13   1   13.00    5.10
  -7  13  -1   21.80    6.70
   7  13   1   15.00    6.40
   7  13   1    9.20    4.80
   8 -13   1  136.19   13.80
   8  13   1  134.09   15.00
  -8  13  -1  112.39   13.50
   8  13   1  117.99   12.80
   9 -13   1   12.40    6.00
  -9  13  -1    5.30    5.50
   9  13   1    7.00    5.20
   9  13   1   10.70    5.80
  10 -13   1  223.18   16.40
  10  13   1  215.58   19.80
 -10  13  -1  124.49   14.30
  11 -13   1    3.60    5.80
  11  13   1   -1.20    4.60
  12 -13   1   23.50    8.40
  12  13   1   24.80    8.50
  12 -14  -1    6.70    6.30
  12  14  -1   -0.40    5.30
  11 -14  -1   18.70    7.80
 -11  14   1   24.40    7.70
  11  14  -1   30.60    9.00
  10 -14  -1   -1.00    5.30
 -10  14   1    0.40    4.60
  10  14  -1    4.00    5.10
  10  14  -1   -3.70    4.80
   9 -14  -1    0.50    5.00
   9  14  -1   -0.70    5.20
   9  14  -1   -2.00    4.60
  -9  14   1    0.10    4.70
   8 -14  -1   49.60    9.00
  -8  14   1   63.09   10.30
   8  14  -1   47.40    9.50
   8  14  -1   52.59    9.90
   7 -14  -1   34.30    7.50
   7  14  -1   12.30    5.30
   7  14  -1   22.50    6.70
  -7  14   1   16.30    6.90
   6 -14  -1  267.47   15.70
  -6  14   1  244.58   17.70
   6  14  -1  228.08   16.80
   6  14  -1  229.88   17.00
   5 -14  -1   37.70    6.70
  -5  14   1   30.30    7.40
   5  14  -1   33.50    7.80
   5  14  -1   23.60    6.90
   4 -14  -1  229.08   13.50
   4  14  -1  216.18   15.50
   4  14  -1  220.68   16.30
  -4  14   1  221.98   16.30
   3  14  -1   12.00    4.50
  -3  14   1   18.30    6.20
   3  14  -1    8.40    5.20
  -2  14   1    2.00    4.00
   2  14  -1    4.70    4.80
   2  14  -1    1.90    3.50
  -1  14   1   32.70    7.60
  -1  14   1   25.70    5.60
   1  14  -1   25.30    6.30
   1  14  -1   38.50    8.20
   0  14  -1  183.88   17.00
   0  14  -1  158.98   12.00
   0  14   1  192.98   17.20
   1  14   1  172.58   16.30
  -1  14  -1  184.98   17.00
   1  14   1  183.38   12.70
  -2  14  -1   62.99   10.10
   2  14   1   34.40    7.80
   2  14   1   48.90    7.70
   3  14   1   21.90    6.80
  -3  14  -1   26.60    7.40
   3  14   1   23.60    6.20
   4 -14   1    4.50    3.70
  -4  14  -1   -0.50    3.80
   4  14   1    3.00    3.80
   4  14   1   -3.00    4.10
   5 -14   1   35.90    6.80
  -5  14  -1   35.00    8.10
   5  14   1   35.30    8.20
   5  14   1   44.60    8.40
   6 -14   1   20.60    5.90
   6  14   1   17.70    6.10
   6  14   1   17.10    6.30
  -6  14  -1   18.40    7.10
   7 -14   1    0.30    4.00
   7  14   1   -3.40    8.30
  -7  14  -1   -1.00    4.00
   7  14   1   -0.90    4.00
   8 -14   1   -0.70    4.00
  -8  14  -1    0.00    4.70
   8  14   1   -1.00    4.20
   8  14   1    4.40    5.00
   9 -14   1   66.89   10.70
   9  14   1   71.49   11.10
   9  14   1   48.60    9.80
  -9  14  -1   77.59   11.60
  10 -14   1   19.20    7.20
 -10  14  -1    6.40    5.70
  10  14   1   11.30    6.30
  11 -14   1   73.99   12.00
  11  14   1   56.99   11.50
  11 -15  -1    9.00    7.10
 -11  15   1   -2.20    5.40
  11  15  -1    1.60    6.20
  10 -15  -1  112.29   14.10
  10  15  -1   87.69   13.50
 -10  15   1  112.09   14.60
  10  15  -1  113.29   14.50
   9 -15  -1   -1.30    4.50
  -9  15   1   -2.20    4.70
   9  15  -1    7.40    6.00
   9  15  -1    7.90    5.40
   8 -15  -1   35.40    8.20
   8  15  -1   32.60    8.40
  -8  15   1   20.30    7.20
   8  15  -1   29.60    8.30
   7 -15  -1   23.80    6.50
   7  15  -1   21.90    7.20
  -7  15   1   16.10    6.50
   7  15  -1    3.50    5.20
   6 -15  -1   25.90    6.40
   6  15  -1   13.90    6.20
   6  15  -1    9.00    5.80
  -6  15   1    3.60    5.30
   5  15  -1    5.20    4.70
  -5  15   1   10.20    5.50
   5  15  -1   17.10    6.30
   4  15  -1   75.49   10.80
   4  15  -1   91.79   12.50
  -4  15   1   82.59   12.30
   3  15  -1   57.89    9.30
  -3  15   1   88.99   12.30
   3  15  -1   68.69   10.90
  -2  15   1   -0.50    3.90
   2  15  -1    7.80    5.80
   2  15  -1    2.10    4.10
   1  15  -1    6.00    4.00
   1  15  -1   10.80    5.90
  -1  15   1   11.90    5.70
  -1  15   1   12.70    4.80
   0  15  -1   23.10    7.20
   0  15   1    8.60    5.80
   0  15  -1   19.70    5.80
   0  15   1    7.00    3.70
   1  15   1   27.60    7.40
  -1  15  -1   17.80    6.70
   1  15   1   36.90    7.10
   2  15   1  113.69   14.10
  -2  15  -1  125.19   14.50
   2  15   1  101.69   11.80
   3  15   1   -2.30    4.00
   3  15   1   -1.60    3.70
  -3  15  -1   -3.10    3.80
   4  15   1   -1.70    3.60
   4  15   1   -0.50    4.60
  -4  15  -1   -5.00    3.60
  -5  15  -1   21.80    7.20
   5  15   1   12.90    5.70
   5  15   1   10.40    6.40
   6 -15   1    7.80    4.70
  -6  15  -1   14.80    6.50
   6  15   1   11.50    5.90
   6  15   1    5.10    5.10
   7 -15   1   -1.90    3.50
  -7  15  -1    1.70    4.70
   7  15   1   -0.20    4.50
   7  15   1    0.10    4.60
   8 -15   1   37.70    8.50
   8  15   1   25.00    7.50
  -8  15  -1   30.90    8.50
   8  15   1   28.10    8.30
   9 -15   1   12.10    6.40
   9  15   1   -2.80    5.20
  -9  15  -1    4.60    5.80
   9  15   1    8.90    5.80
  10 -15   1   37.40    9.30
  10  15   1   30.20    8.90
 -10  15  -1   50.49   10.00
  10 -16  -1   -1.40    6.30
  10  16  -1    8.50    6.30
 -10  16   1    0.40    5.00
  10  16  -1    3.90    6.90
   9 -16  -1    0.70    5.10
  -9  16   1    8.60    5.70
   9  16  -1   -0.30    5.90
   9  16  -1    6.70    5.50
  -8  16   1   -0.20    4.70
   8  16  -1   -0.50    5.40
   8  16  -1   -4.40    5.60
  -7  16   1    9.00    5.70
   7  16  -1    7.30    6.10
   7  16  -1    8.80    5.90
   6  16  -1   58.29   10.60
   6  16  -1   55.69   10.30
  -6  16   1   55.29   10.60
   5  16  -1    8.30    6.00
  -5  16   1   12.10    6.60
   5  16  -1   11.60    5.80
  -4  16   1   64.19   11.20
   4  16  -1   64.99   10.40
   4  16  -1   62.39   10.70
  -3  16   1   28.60    7.70
   3  16  -1   16.60    6.60
   3  16  -1   10.60    5.40
   2  16  -1  107.59   12.70
  -2  16   1  143.79   15.90
   2  16  -1  137.79   15.80
  -1  16   1    2.60    4.50
  -1  16   1    0.10    4.50
   1  16  -1    0.00    4.30
   1  16  -1    4.80    4.10
   0  16   1   42.40    9.40
   0  16   1   46.90    7.80
   0  16  -1   51.89   10.10
   0  16  -1   37.20    7.60
  -1  16  -1    7.90    5.70
   1  16   1   11.20    6.20
   1  16   1    8.10    5.00
   2  16   1   62.39   11.10
  -2  16  -1   65.09   11.10
   2  16   1   60.99    9.50
   3  16   1   14.10    5.60
   3  16   1    8.30    5.60
  -3  16  -1   17.20    7.30
   4  16   1   88.19   12.80
   4  16   1   96.69   12.50
  -4  16  -1  107.09   14.40
   5  16   1    1.00    4.10
   5  16   1   -1.30    4.90
  -5  16  -1   -2.80    4.40
  -6  16  -1    4.90    5.70
   6  16   1   -3.80    4.60
   6  16   1    0.80    4.30
   7  16   1    7.20    5.20
   7  16   1   -0.60    6.00
  -7  16  -1    1.90    5.10
  -8  16  -1    1.20    5.10
   8  16   1    0.20    4.90
   8  16   1    8.80    6.00
   9 -16   1    3.70    5.70
  -9  16  -1   -1.70    5.00
   9  16   1   -3.20    6.00
   9  16   1    8.60    6.10
  -9  17   1    0.10    5.20
   9  17  -1   -1.20    6.30
   8  17  -1   22.10    7.90
   8  17  -1   18.90    8.10
  -8  17   1   24.00    8.60
   7  17  -1   27.30    9.00
   7  17  -1   28.80    9.10
  -7  17   1   48.90   10.70
   6  17  -1    0.60    6.00
   6  17  -1    0.40    4.80
  -6  17   1    0.10    5.80
   5  17  -1   18.70    7.60
  -5  17   1   24.40    8.20
   5  17  -1   14.50    6.90
  -4  17   1   26.50    8.60
   4  17  -1   30.50    8.50
   4  17  -1   11.40    5.90
   3  17  -1    0.00    4.50
   3  17  -1    1.70    6.20
  -3  17   1    6.60    6.10
   2  17  -1    7.60    6.20
  -2  17   1   11.90    6.90
   2  17  -1    2.30    5.40
   1  17  -1   -3.30    4.20
  -1  17   1   -1.30    3.80
  -1  17   1    0.90    5.20
   1  17  -1    1.80    4.10
   0  17   1   19.00    7.50
   0  17   1   18.50    6.10
   0  17  -1    5.50    5.50
  -1  17  -1   -2.60    4.80
   1  17   1   -0.90    5.40
   1  17   1    3.80    4.40
   2  17   1    6.80    5.10
  -2  17  -1    5.10    5.90
   2  17   1    5.00    6.00
   3  17   1   29.50    7.20
   3  17   1   34.10    8.90
  -3  17  -1   31.30    8.70
   4  17   1   28.90    7.70
  -4  17  -1   26.40    8.40
   4  17   1   28.70    8.60
   5  17   1   12.50    6.50
   5  17   1   11.50    5.90
  -5  17  -1    9.90    6.40
   6  17   1    0.80    5.00
   6  17   1    1.40    4.60
  -6  17  -1   -0.80    5.20
  -7  17  -1   -2.70    4.80
   7  17   1   -2.60    5.80
   7  17   1    3.50    5.10
   8  17   1   62.69   12.00
  -8  17  -1   77.09   13.20
   8  17   1   70.39   12.50
   7  18  -1    1.90    5.70
   7  18  -1    1.50    6.10
  -7  18   1   -3.60    5.00
  -6  18   1   19.50    8.20
   6  18  -1   14.20    7.40
   6  18  -1   22.00    8.10
  -5  18   1   16.60    7.80
   5  18  -1   33.50    9.10
   5  18  -1   25.80    8.80
  -4  18   1   67.19   12.30
   4  18  -1   68.19   11.70
   4  18  -1   77.69   12.80
  -3  18   1   41.90   10.70
   3  18  -1   25.20    8.50
   3  18  -1   32.90    8.60
   2  18  -1    4.10    6.10
  -2  18   1   -2.30    5.20
   2  18  -1   -5.30    4.20
   1  18  -1   61.09   11.80
  -1  18   1   67.79   12.50
   1  18  -1   52.99    9.70
   0  18  -1   12.90    7.00
   0  18   1   13.00    5.70
   0  18   1    0.40    5.60
   1  18   1    3.50    4.40
  -1  18  -1    0.70    5.50
   1  18   1    4.20    5.80
  -2  18  -1   12.20    6.90
   2  18   1    8.20    5.90
   2  18   1    9.10    5.60
   3  18   1   -3.80    4.20
  -3  18  -1   -6.90    4.00
   3  18   1   -0.40    5.40
   4  18   1   -3.10    6.00
  -4  18  -1   -2.80    5.20
   4  18   1    7.40    5.20
   5  18   1   -7.40    5.10
   5  18   1   -6.30    4.30
  -5  18  -1   -3.80    5.00
  -6  18  -1   12.20    7.30
   6  18   1    6.00    6.80
   6  18   1    4.30    5.60
  -4  19   1    4.20    7.10
   4  19  -1   -1.80    5.20
   4  19  -1   -2.90    6.20
  -3  19   1   66.29   13.00
   3  19  -1   49.90   10.50
   3  19  -1   46.70   12.00
   2  19  -1   55.39   11.90
  -2  19   1   58.59   12.30
   2  19  -1   58.09   10.20
   1  19  -1   -2.40    5.90
  -1  19   1    5.80    6.40
   1  19  -1   10.90    6.00
   0  19   1   37.30   10.10
   0  19  -1   33.40    9.80
   1  19   1    1.80    4.60
  -1  19  -1   13.50    8.10
   1  19   1   16.60    7.80
   2  19   1    4.90    6.70
  -2  19  -1    4.00    5.90
   2  19   1    2.60    5.20
   3  19   1    0.60    6.60
  -3  19  -1    0.90    5.90
   3  19   1   -4.00    4.10
   4  19   1    6.50    6.60
  -4  19  -1    9.90    6.50
  18   0  -2   37.90    8.80
  17   0  -2   -2.00    4.50
  17   0  -2   -3.70    4.20
  16   0  -2   96.39   12.20
  16   0  -2   98.79   13.30
  15   0  -2   -1.50    4.00
  15   0  -2   -0.20    4.10
  14   0  -2  371.86   21.20
  14   0  -2  330.07   19.30
  13   0  -2   -3.00    3.00
  13   0  -2   -3.50    3.30
  12   0  -2  229.48   13.90
  12   0  -2  234.18   15.30
 -11   0   2    1.30    1.70
  11   0  -2   -0.50    3.60
  11   0  -2   -2.10    2.80
  10   0  -2   25.40    4.80
  10   0  -2   26.50    5.10
 -10   0   2   23.00    3.10
   9   0  -2    1.20    2.60
  -9   0   2    0.30    1.40
   9   0  -2    0.50    2.00
   8   0  -2  240.28   12.30
   8   0  -2  273.27   13.80
  -8   0   2  267.07   11.00
   7   0  -2    2.00    2.10
  -7   0   2   -1.40    1.30
   7   0  -2    0.60    1.90
   6   0  -2    6.30    2.40
  -6   0   2    5.80    1.80
   6   0  -2    8.40    2.40
   5   0  -2    1.40    1.50
  -5   0   2   -0.30    1.20
   5   0  -2    1.00    1.90
   4   0  -2   36.30    3.80
   4   0  -2   26.00    2.90
  -4   0   2   27.70    3.10
   3   0  -2    0.90    1.40
  -3   0   2    0.30    0.50
   3   0  -2   -0.50    1.00
  -2   0   2   74.69    4.30
   2   0  -2   75.29    4.30
   2   0  -2   68.39    3.60
  -1   0   2   -0.20    1.70
   1   0  -2   -3.80    1.30
   0   0   2   -2.60    1.00
   1   0   2   -1.00    0.90
   1   0   2   -0.50    0.80
   2   0   2  214.58    7.80
   2   0   2  218.08    9.20
   3   0   2   -0.20    1.30
   3   0   2    0.40    0.60
   4   0   2  407.36   16.40
   4   0   2  408.36   13.00
   5   0   2    0.00    1.70
   6   0   2 1047.40   37.70
   7   0   2   -1.10    2.10
   8   0   2   48.50    6.50
   9   0   2   -2.30    2.40
  10   0   2 1200.58   45.70
  11   0   2   -2.70    3.10
  12   0   2  366.46   20.20
  13   0   2   -1.70    3.60
  14   0   2  226.28   16.60
  15   0   2    6.30    5.50
  16   0   2    0.10    4.90
  16   0   2    3.30    5.80
  17  -1  -2    8.20    6.60
  17  -1  -2    0.60    5.20
  17   1  -2    1.00    5.80
  17   1  -2    0.40    5.20
  16  -1  -2   24.80    7.20
  16  -1  -2   22.60    7.30
  16   1  -2   18.50    7.20
  16   1  -2   23.90    7.80
  15  -1  -2   17.10    6.30
  15  -1  -2   34.00    7.60
  15   1  -2   36.60    8.00
  15   1  -2   46.80    8.60
  14  -1  -2   11.40    5.70
  14  -1  -2   23.00    6.10
  14   1  -2   18.80    5.90
  14   1  -2   17.20    5.80
  13  -1  -2   32.20    6.60
  13  -1  -2   27.00    7.00
  13   1  -2   16.20    5.80
  13   1  -2   22.20    5.70
  12  -1  -2   48.20    8.20
  12  -1  -2   49.60    7.00
  12   1  -2   52.49    7.90
  12   1  -2   70.69    8.90
  11  -1  -2  148.09   10.20
 -11  -1   2  142.79    7.30
  11  -1  -2  154.38   13.60
 -11   1   2  143.59    7.40
  11   1  -2  145.49   11.00
  11   1  -2  131.99   11.50
  10  -1  -2  821.52   33.00
  10  -1  -2  798.42   30.90
 -10  -1   2  793.62   27.90
  10   1  -2  795.42   32.30
  10   1  -2  812.32   31.70
 -10   1   2  791.22   27.90
  -9  -1   2   97.39    5.80
   9  -1  -2   97.49    8.30
   9  -1  -2   82.69    8.80
  -9   1   2   94.79    5.70
   9   1  -2  103.79    9.50
   9   1  -2  100.19    8.90
   8  -1  -2  147.29    8.40
  -8  -1   2  148.29    7.40
   8  -1  -2  132.99    9.40
   8   1  -2  143.09    9.30
  -8   1   2  146.69    7.30
   8   1  -2  129.59    8.60
  -7  -1   2  101.09    5.90
   7  -1  -2  116.59    6.80
   7  -1  -2  109.79    7.80
   7   1  -2  109.19    7.20
  -7   1   2  102.59    5.90
   7   1  -2   93.69    8.00
   6  -1  -2   70.39    6.70
  -6  -1   2   68.69    4.50
   6  -1  -2   67.79    4.70
   6   1  -2   67.49    5.90
  -6   1   2   66.09    4.40
   6   1  -2   74.89    6.40
   5  -1  -2  326.07   13.80
   5  -1  -2  308.37   12.30
  -5  -1   2  330.47   12.50
  -5   1   2  318.67   12.40
   5   1  -2  323.77   13.20
   5   1  -2  308.87   13.20
   4  -1  -2  331.07   13.60
  -4  -1   2  341.77   12.80
   4  -1  -2  328.27   12.10
   4   1  -2  334.67   13.20
   4   1  -2  321.97   13.00
  -4   1   2  347.97   12.80
   3  -1  -2    1.50    1.10
  -3  -1   2   -1.30    0.80
   3  -1  -2    2.40    1.90
  -3   1   2    0.00    1.10
   3   1  -2    0.20    1.40
   3   1  -2   -1.30    1.20
   2  -1  -2    2.20    1.40
   2  -1  -2    1.30    0.60
  -2  -1   2    1.10    1.30
  -2   1   2    1.50    1.30
   2   1  -2    2.00    1.20
   1  -1  -2  251.27    9.60
  -1  -1   2  260.17    9.80
  -1   1   2  261.77    9.80
   1   1  -2  251.27    9.40
   0  -1   2   42.00    2.80
   0   1   2   49.50    2.90
   1  -1   2 1434.76   46.00
   1   1   2 1425.76   45.90
   1   1   2 1461.95   46.50
   2  -1   2   12.50    2.40
   2  -1   2   19.50    2.00
   2   1   2   14.30    2.60
   2   1   2   14.90    1.70
   3  -1   2   85.69    4.10
   3  -1   2  102.39    5.80
   3   1   2   97.29    4.00
   3   1   2  109.49    6.10
   4  -1   2  206.98    7.60
   4  -1   2  206.08   10.00
   4   1   2  225.58   10.50
   4   1   2  212.08    7.30
   5  -1   2  214.28   10.80
   5  -1   2  220.18    7.60
   5   1   2  224.68   11.10
   6  -1   2   60.19    6.30
   6   1   2   74.69    7.20
   7  -1   2   96.59    8.50
   7   1   2   98.99    8.70
   8  -1   2  181.18   11.10
   8   1   2  185.38   11.50
   9  -1   2  276.27   14.80
   9   1   2  264.27   15.10
  10  -1   2   67.19    8.40
  10   1   2   55.29    7.70
  11  -1   2  182.08   12.80
  11   1   2  178.08   15.10
  12  -1   2    9.20    5.10
  12   1   2    2.50    4.00
  13  -1   2    3.90    4.00
  13   1   2   -0.50    3.80
  14  -1   2  130.49   14.20
  14   1   2  118.79   13.70
  15  -1   2    3.30    5.10
  15   1   2    3.80    5.70
  16  -1   2   53.59   11.50
  16  -1   2   33.10    8.80
  16   1   2   37.40    9.50
  16   1   2   40.80    9.60
  17  -2  -2    5.30    5.90
  17  -2  -2   -3.40    4.70
  17   2  -2    5.40    7.20
  17   2  -2    4.90    6.00
  16  -2  -2   75.89   10.50
  16  -2  -2   55.19   11.00
  16   2  -2   58.29   10.00
  16   2  -2   69.09   10.60
  15  -2  -2   22.90    6.50
  15  -2  -2   29.00    7.50
  15   2  -2   24.70    7.10
  15   2  -2   34.90    7.70
  14  -2  -2   36.70    6.70
  14  -2  -2   36.80    8.10
  14   2  -2   37.30    7.90
  14   2  -2   39.00    7.80
  13  -2  -2  157.68   15.00
  13  -2  -2  171.28   12.00
  13   2  -2  165.18   14.20
  13   2  -2  142.69   13.90
  12  -2  -2  386.06   18.80
  12  -2  -2  380.86   21.00
  12   2  -2  375.26   19.70
  12   2  -2  384.96   20.20
  11  -2  -2  135.29    9.40
 -11  -2   2  116.89    6.80
  11  -2  -2  100.29   11.10
  11   2  -2  120.09   10.90
 -11   2   2  109.39    6.70
  11   2  -2  106.59   10.50
  10  -2  -2  622.04   24.40
  10  -2  -2  624.34   26.90
 -10  -2   2  580.34   22.00
 -10   2   2  552.24   21.80
  10   2  -2  636.94   26.00
  10   2  -2  612.44   25.70
  -9  -2   2  182.18    9.20
   9  -2  -2  192.18   10.50
   9  -2  -2  202.58   12.50
   9   2  -2  225.88   12.10
  -9   2   2  176.98    9.10
   9   2  -2  203.48   11.60
   8  -2  -2  302.07   15.30
  -8  -2   2  278.77   12.30
   8  -2  -2  295.17   13.10
   8   2  -2  304.67   14.50
  -8   2   2  294.57   12.40
   8   2  -2  306.37   14.50
  -7  -2   2  151.68    7.90
   7  -2  -2  163.28   10.10
   7  -2  -2  158.68    8.10
   7   2  -2  168.48    9.70
  -7   2   2  162.48    8.10
   7   2  -2  172.18    9.40
   6  -2  -2  674.83   26.00
  -6  -2   2  685.93   24.10
   6  -2  -2  684.43   23.70
   6   2  -2  672.53   25.30
  -6   2   2  688.83   24.00
   6   2  -2  641.64   24.70
   5  -2  -2  261.37   10.10
  -5  -2   2  270.57   11.00
   5  -2  -2  252.27   12.00
   5   2  -2  256.87   11.70
  -5   2   2  261.57   10.90
   4  -2  -2  181.68    8.90
   4  -2  -2  189.58    6.90
   4   2  -2  184.78    8.60
   4   2  -2  152.58    7.70
   3  -2  -2   71.09    3.00
   3  -2  -2   65.59    4.80
  -3  -2   2   77.29    4.70
   3   2  -2   79.99    4.30
   3   2  -2   74.69    4.90
  -3   2   2   77.09    4.80
  -2  -2   2 9561.04  289.67
   2  -2  -2 9297.17  289.67
   2   2  -2 9194.18  289.47
  -2   2   2 9202.68  289.57
   2   2  -2 9469.05  289.97
  -1  -2   2  145.59    6.90
   1  -2  -2  162.38    6.80
   1   2  -2  147.99    6.80
  -1   2   2  147.69    6.90
  -1   2   2  154.28    5.50
   0  -2   2 2644.34   83.39
   0   2   2 2628.24   83.19
   1   2   2  791.22   26.40
   1   2   2  786.52   26.50
   2   2   2   88.89    5.40
   2   2   2   98.79    4.80
  -2   2  -2   96.99    4.90
   3  -2   2  179.58    8.50
  -3   2  -2  170.48    7.30
   3   2   2  174.38    7.10
   3   2   2  181.58    8.80
   4  -2   2  486.25   18.90
   4   2   2  519.35   19.70
  -4   2  -2  488.05   17.00
   4   2   2  484.45   16.70
   5  -2   2   16.20    3.10
   5   2   2   14.40    1.70
  -5   2  -2   17.00    2.00
   5   2   2   14.70    3.40
   6  -2   2  348.07   15.40
   6   2   2  337.37   16.00
   6   2   2  345.07   11.60
   7  -2   2  457.55   19.30
   7  -2   2  427.56   14.90
   7   2   2  443.66   19.90
   8  -2   2  132.99    5.00
   8  -2   2  143.99    9.40
   8   2   2  132.19    9.80
   9  -2   2   40.10    6.10
   9   2   2   46.40    6.90
  10  -2   2  178.08   11.90
  10   2   2  173.38   12.50
  11  -2   2    9.40    4.30
  11   2   2   10.50    4.70
  12  -2   2   30.40    6.90
  12   2   2   35.50    7.50
  13  -2   2   -0.50    3.70
  13   2   2    4.50    5.10
  14  -2   2  199.78   17.10
  14   2   2  197.28   18.00
  15  -2   2   -5.40    4.80
  15   2   2    6.10    5.60
  16  -2   2    5.90    5.60
  16  -2   2    6.70    6.20
  16   2   2   13.90    6.50
  16   2   2   -3.90    5.10
  17  -3  -2   -3.50    4.40
  17   3  -2   -9.60    3.30
  17   3  -2    7.40    6.00
  16  -3  -2    1.30    5.70
  16  -3  -2    4.20    5.30
  16   3  -2    9.20    6.30
  16   3  -2   10.10    5.90
  15  -3  -2   72.79    9.70
  15  -3  -2   50.49   10.00
  15   3  -2   66.99   10.30
  15   3  -2   81.49   11.40
  14  -3  -2    7.50    5.60
  14  -3  -2    4.50    4.20
  14   3  -2   17.30    5.30
  14   3  -2    3.60    4.60
  13  -3  -2  193.18   17.10
  13  -3  -2  195.28   12.80
  13   3  -2  200.28   14.10
  13   3  -2  200.68   14.50
  12  -3  -2    8.90    3.80
  12  -3  -2    9.90    4.70
  12   3  -2    4.30    3.90
  12   3  -2    9.90    4.60
 -11  -3   2   33.70    4.30
  11  -3  -2   19.00    5.60
  11  -3  -2   20.50    4.60
  11   3  -2   25.80    5.50
 -11   3   2   32.40    4.20
  11   3  -2   29.50    6.50
 -10  -3   2  418.76   16.70
  10  -3  -2  409.56   18.00
  10  -3  -2  409.26   20.80
 -10   3   2  424.76   16.90
  10   3  -2  422.06   20.00
  10   3  -2  394.46   19.20
   9  -3  -2  151.68    8.90
  -9  -3   2  162.28    8.50
   9  -3  -2  171.58   11.60
   9   3  -2  161.58   10.60
  -9   3   2  158.88    8.50
   9   3  -2  164.88   10.20
  -8  -3   2  431.76   17.00
   8  -3  -2  423.16   17.10
   8  -3  -2  426.96   19.80
   8   3  -2  405.96   18.90
  -8   3   2  432.86   17.00
   7  -3  -2    2.50    2.60
   7  -3  -2    2.50    1.70
  -7  -3   2    2.00    1.80
   7   3  -2    2.40    2.30
   7   3  -2    0.50    1.30
  -7   3   2    1.50    1.70
   6  -3  -2  243.58    9.90
   6  -3  -2  247.68   12.40
  -6  -3   2  236.28   10.80
  -6   3   2  243.08   10.90
   6   3  -2  229.58   11.90
   6   3  -2  242.08   11.00
   5  -3  -2 1669.73   52.89
  -5  -3   2 1594.04   51.09
   5  -3  -2 1586.94   49.50
   5   3  -2 1579.94   52.19
   5   3  -2 1579.74   50.69
  -5   3   2 1280.37   50.59
   4  -3  -2  136.09    5.50
   4  -3  -2  134.79    7.70
  -4   3   2  143.19    7.30
   4   3  -2  147.99    6.60
   4   3  -2  139.49    7.70
  -3  -3   2 3327.67  102.89
   3  -3  -2 3200.38  100.09
   3  -3  -2 3163.38  102.99
   3   3  -2 3239.68  103.19
  -3   3   2 3280.77  102.99
   3   3  -2 3227.98  101.29
   2  -3  -2 2397.96   75.99
  -2   3   2 2396.86   73.69
   2   3  -2 2395.56   76.39
   2   3  -2 2355.66   76.29
  -2   3   2 2348.97   76.29
   1  -3  -2   31.50    3.20
  -1   3   2   25.70    2.10
   1   3  -2   26.60    3.30
  -1   3   2   41.00    3.90
   1   3  -2   21.00    2.90
   0   3  -2 1003.60   34.00
   0   3   2 1012.90   32.90
   0   3   2 1008.30   33.90
  -1   3  -2  558.24   20.30
   1   3   2  563.74   20.20
   1   3   2  580.94   20.20
   2   3   2  775.92   26.60
   2   3   2  783.72   27.30
   3   3   2    2.20    1.40
  -3   3  -2    4.50    1.70
   3   3   2    5.70    2.20
   4  -3   2 3201.98  105.39
   4   3   2 3346.67  106.39
  -4   3  -2 3287.27  104.09
   4   3   2 3346.47  103.69
   5  -3   2  448.36   18.90
   5   3   2  488.45   16.90
   5   3   2  470.35   19.70
  -5   3  -2  482.35   17.30
   6  -3   2   30.90    4.50
  -6   3  -2   36.50    3.60
   6   3   2   36.20    3.10
   6   3   2   30.40    5.00
   7  -3   2  174.08   10.00
   7   3   2  163.68    6.70
  -7   3  -2  155.38    7.20
   7   3   2  142.69   10.10
  -8  -3  -2   28.60    2.30
   8  -3   2   19.60    4.20
  -8   3  -2   29.40    3.00
   8   3   2   20.40    4.90
   9  -3   2  395.56   18.20
   9  -3   2  351.36   13.00
   9   3   2  356.56   18.70
  10  -3   2    7.40    3.90
  10   3   2    7.30    4.10
  11  -3   2  120.29   11.50
  11   3   2  115.79   12.40
  12  -3   2  205.78   14.20
  12   3   2  220.78   15.90
  13  -3   2    6.60    5.00
  13   3   2    9.40    6.00
  14  -3   2  394.76   22.30
  14   3   2  376.46   23.00
  15  -3   2   29.10    8.20
  15  -3   2   34.90    9.00
  15   3   2   33.00    8.60
  16  -3   2   12.50    6.80
  16  -3   2   14.90    6.80
  16   3   2   11.40    6.60
  16   3   2   10.70    7.00
  17  -4  -2   15.60    7.60
  17   4  -2   22.20    8.20
  17   4  -2   30.60    8.90
  16  -4  -2   49.99   10.50
  16   4  -2   50.69   10.10
  16   4  -2   54.59   10.40
  15  -4  -2   -3.90    3.70
  15  -4  -2   -7.00    3.60
  15   4  -2   -4.50    3.10
  15   4  -2   -1.40    3.80
  14  -4  -2  111.89   11.20
  14  -4  -2   91.39   12.40
  14   4  -2  103.89   11.70
  14   4  -2   99.89   12.10
  13  -4  -2   22.60    6.70
  13  -4  -2   22.80    5.50
  13   4  -2   32.00    7.20
  13   4  -2   32.10    6.70
  12  -4  -2  296.67   18.20
  12  -4  -2  279.27   14.90
  12   4  -2  294.37   16.30
  12   4  -2  271.77   17.00
  11  -4  -2   95.39   11.10
 -11  -4   2   91.49    6.70
  11  -4  -2  108.09    9.20
  11   4  -2   80.89    9.20
 -11   4   2  100.19    7.00
  11   4  -2   80.09    9.60
  10  -4  -2   39.80    5.30
 -10  -4   2   37.10    4.90
  10  -4  -2   44.90    7.60
  10   4  -2   41.30    7.10
 -10   4   2   43.50    5.30
  -9  -4   2    8.90    2.80
   9  -4  -2    8.50    2.80
   9  -4  -2    4.80    3.70
  -9   4   2    8.90    2.80
   9   4  -2   12.50    4.00
   9   4  -2    8.30    3.30
   8  -4  -2   80.49    5.60
   8  -4  -2   82.09    8.90
  -8  -4   2   68.59    6.30
   8   4  -2   82.69    6.20
   8   4  -2   76.29    8.10
  -8   4   2   78.59    6.10
  -7  -4   2  224.18   10.90
   7  -4  -2  224.08   10.00
   7  -4  -2  235.88   12.90
   7   4  -2  235.08   11.20
  -7   4   2  242.98   11.30
   7   4  -2  219.08   12.40
   6  -4  -2  195.98    8.70
   6  -4  -2  209.38   11.40
  -6  -4   2  232.18   10.50
   6   4  -2  197.48   11.20
  -6   4   2  218.58   10.30
   6   4  -2  205.98    9.70
   5  -4  -2  772.32   28.90
   5  -4  -2  760.12   25.60
   5   4  -2  782.12   26.70
   5   4  -2  777.42   29.00
   4  -4  -2 2109.19   69.39
   4  -4  -2 2109.39   66.19
  -4  -4   2 2129.09   69.09
   4   4  -2 2096.39   69.59
   4   4  -2 2132.59   68.99
   4   4  -2 2115.09   66.99
  -4   4   2 2085.19   68.99
   3  -4  -2    5.30    2.00
   3   4  -2    1.10    1.70
   3   4  -2    3.80    2.00
  -3   4   2    2.10    1.70
   3   4  -2    3.60    1.10
   2  -4  -2  300.27   12.80
   2   4  -2  345.77   13.80
  -2   4   2  318.37   11.20
  -2   4   2  337.67   13.70
   2   4  -2  332.67   13.50
   1  -4  -2  116.49    5.90
  -1   4   2  116.99    6.80
   1   4  -2  116.59    6.50
   1   4  -2  113.99    6.70
  -1   4   2  117.29    5.30
   0  -4  -2 3131.19   98.49
   0   4  -2 3026.50  100.09
   0   4   2 3126.79   98.89
   0   4   2 3265.77  100.39
   1   4   2   12.90    2.40
  -1   4  -2   15.50    2.90
   1   4   2   10.10    2.40
   2   4   2   29.30    3.60
  -2   4  -2   27.60    3.70
   2   4   2   44.70    4.60
   3   4   2  339.67   14.20
  -3   4  -2  285.67   12.90
   3   4   2  346.87   13.30
  -4   4  -2  242.78   10.70
   4   4   2  245.98   10.50
   4   4   2  231.58   11.90
   5  -4   2  609.94   24.10
   5   4   2  652.23   22.80
   5   4   2  673.73   25.70
  -5   4  -2  625.74   23.20
   6  -4   2    9.70    2.80
   6   4   2    5.20    2.00
   6   4   2    9.00    3.40
  -6   4  -2    9.50    2.40
   7  -4   2  207.68   11.60
  -7   4  -2  218.38    9.80
   7   4   2  219.68    9.30
   7   4   2  206.98   12.60
   8  -4   2  147.19    9.70
  -8  -4  -2  135.69    6.60
   8   4   2  146.89   12.30
  -8   4  -2  131.09    7.10
  -9  -4  -2    4.00    1.60
   9  -4   2    3.60    2.70
  -9   4  -2    3.70    1.90
   9   4   2   -3.50    2.90
  10  -4   2  431.56   20.10
  10   4   2  389.16   21.10
  11  -4   2   -1.50    2.90
  11   4   2   -2.70    3.40
  12  -4   2  446.46   22.60
  12   4   2  468.85   24.70
  13  -4   2   25.10    6.30
  13   4   2   16.10    6.40
  14  -4   2   59.39    9.30
  14   4   2   74.19   11.70
  15  -4   2   -0.80    5.60
  15  -4   2   -4.10    4.80
  15   4   2    6.60    5.80
  15   4   2    3.00    5.30
  16  -4   2   20.90    7.40
  16  -4   2   13.90    7.10
  16   4   2   20.70    8.00
  16   4   2   15.80    8.20
  17  -5  -2    5.00    6.30
  17   5  -2   23.10    8.10
  17   5  -2   22.30    7.50
  16  -5  -2    4.40    5.60
  16   5  -2    3.60    5.50
  16   5  -2   -5.50    5.00
  15  -5  -2   35.60    9.00
  15   5  -2   43.30    9.20
  15   5  -2   14.00    6.30
  14  -5  -2    2.20    4.50
  14  -5  -2    6.80    4.30
  14   5  -2    2.60    4.90
  14   5  -2    4.70    3.90
  13  -5  -2  107.89   10.30
  13  -5  -2  116.89   13.30
  13   5  -2  116.19   12.80
  12  -5  -2   59.29    7.20
  12  -5  -2   33.90    7.40
  12   5  -2   56.59    8.90
  12   5  -2   48.90    7.50
 -11  -5   2    2.10    2.70
  11  -5  -2   -1.10    3.70
  11  -5  -2    4.20    3.10
  11   5  -2    5.10    3.30
 -11   5   2    4.50    2.50
  11   5  -2   11.10    5.00
 -10  -5   2    7.80    2.90
  10  -5  -2    7.00    2.90
  10  -5  -2   -2.00    3.10
  10   5  -2    7.50    4.10
 -10   5   2    7.30    3.10
  10   5  -2   10.60    3.50
  -9  -5   2  296.67   13.50
   9  -5  -2  268.47   15.80
   9  -5  -2  288.37   12.80
  -9   5   2  301.17   13.80
   9   5  -2  263.47   13.50
   9   5  -2  242.28   15.00
   8  -5  -2  918.31   36.80
  -8  -5   2  989.90   34.40
   8  -5  -2  928.31   33.00
   8   5  -2  993.70   37.00
  -8   5   2  941.31   34.40
   8   5  -2  926.21   34.10
   7  -5  -2   74.09    4.80
   7  -5  -2   82.19    8.50
  -7  -5   2   60.29    6.30
  -7   5   2   73.79    6.90
   7   5  -2   78.89    8.10
   7   5  -2   62.59    5.70
  -6  -5   2   16.00    3.40
   6  -5  -2   25.50    2.90
   6  -5  -2   29.50    5.10
   6   5  -2   21.50    4.40
   6   5  -2   27.50    3.50
   5  -5  -2  477.65   20.60
   5  -5  -2  491.55   17.40
  -5  -5   2  531.05   20.50
   5   5  -2  499.75   18.00
   5   5  -2  513.85   20.20
   5   5  -2  498.35   20.90
  -5   5   2  515.05   20.30
   4  -5  -2 1341.57   46.30
   4   5  -2 1381.16   47.00
   4   5  -2 1366.66   43.40
  -4   5   2 1331.57   46.30
   4   5  -2 1332.47   46.30
   3  -5  -2   22.30    3.40
   3   5  -2   26.00    4.00
  -3   5   2   36.20    4.60
   3   5  -2   28.40    4.10
   2  -5  -2  279.47   12.10
   2   5  -2  303.67   13.30
  -2   5   2  299.57   13.30
  -2   5   2  296.67   10.90
   2   5  -2  288.47   13.00
   1  -5  -2   21.60    2.80
  -1   5   2   22.20    2.60
   1   5  -2   24.10    3.80
  -1   5   2   23.80    3.60
   1   5  -2   15.10    2.90
   0  -5  -2  628.54   21.90
   0   5   2  647.44   22.60
   0   5   2  651.53   24.20
   0   5  -2  625.94   23.90
   0   5  -2  640.84   23.50
  -1   5  -2  178.68    9.40
   1   5   2  183.98    8.80
   1   5   2  185.18    9.30
   2   5   2  354.56   14.90
   2   5   2  355.66   15.00
  -2   5  -2  360.46   15.10
   3   5   2 2292.07   74.09
   3   5   2 2215.58   73.09
  -3   5  -2 2219.58   73.39
   4   5   2 1032.20   37.20
  -4   5  -2  994.00   35.80
   4   5   2 1049.49   35.70
   5  -5   2   34.20    4.50
   5   5   2   45.70    6.20
  -5   5  -2   45.40    5.00
   5   5   2   36.40    4.30
   6  -5   2  169.28    9.90
  -6   5  -2  186.58    9.50
   6   5   2  168.58   11.00
   6   5   2  182.68    9.10
   7  -5   2  173.58   10.50
  -7   5  -2  189.48    9.70
   7   5   2  204.88   12.50
   7   5   2  202.68    9.50
   8  -5   2   25.00    4.80
   8   5   2   22.60    5.50
  -8   5  -2   25.20    3.90
   8   5   2   23.30    3.40
   9  -5   2  231.58   13.00
  -9  -5  -2  210.88    9.70
   9   5   2  225.38   14.40
  -9   5  -2  215.78   10.50
  10  -5   2    5.80    3.30
  10   5   2    4.90    3.90
  11  -5   2  140.99   12.70
  11   5   2  128.19   13.50
  12  -5   2   81.59    9.90
  12   5   2   78.29   10.80
  13  -5   2   10.00    5.10
  13   5   2    7.60    5.60
  14  -5   2  173.68   15.70
  14  -5   2  162.98   17.80
  14   5   2  187.08   18.10
  15  -5   2   23.10    6.80
  15  -5   2   21.50    8.00
  15   5   2   30.30    8.50
  15   5   2   43.00    9.50
  16  -5   2   34.50    9.80
  16  -5   2   17.30    6.60
  16   5   2   35.70    9.90
  16   5   2   15.70    7.40
  17  -6  -2   78.69   14.30
  17   6  -2   88.29   13.60
  16  -6  -2   23.00    7.80
  16   6  -2   21.90    7.60
  16   6  -2   19.70    7.00
  15  -6  -2   12.40    7.00
  15   6  -2   12.70    6.10
  15   6  -2    5.90    5.00
  14  -6  -2   20.30    7.10
  14   6  -2   43.40    8.90
  14   6  -2   26.10    6.80
  13  -6  -2   11.20    4.40
  13  -6  -2    1.30    4.50
  13   6  -2   14.80    6.00
  13   6  -2    4.30    4.80
  12  -6  -2   85.59   11.30
  12  -6  -2   82.19    8.40
  12   6  -2   82.39    9.50
  12   6  -2  113.19   12.30
 -11  -6   2   28.30    4.90
  11  -6  -2   16.90    4.00
  11  -6  -2   12.00    5.30
  11   6  -2   11.90    4.50
  11   6  -2    3.90    4.20
 -11   6   2   15.60    4.10
  10  -6  -2  330.67   14.70
 -10  -6   2  311.17   15.00
  10  -6  -2  311.17   18.10
 -10   6   2  323.97   15.60
  10   6  -2  326.17   15.80
  10   6  -2  306.47   17.70
   9  -6  -2   -2.80    2.80
  -9  -6   2   -0.30    2.30
   9  -6  -2   -0.30    1.90
  -9   6   2   -0.60    2.20
   9   6  -2    2.70    2.50
   9   6  -2    1.90    3.10
   8  -6  -2  337.87   17.10
  -8  -6   2  272.77   14.40
   8  -6  -2  314.47   13.20
   8   6  -2  330.57   14.20
   8   6  -2  308.87   16.60
  -8   6   2  309.07   15.00
  -7  -6   2    1.50    2.40
   7  -6  -2    2.00    1.60
   7  -6  -2    4.40    3.00
   7   6  -2    2.40    1.90
  -7   6   2    0.50    1.50
   7   6  -2   -0.70    2.40
   6  -6  -2   42.00    6.10
   6  -6  -2   57.79    3.90
  -6   6   2   60.89    6.80
   6   6  -2   56.39    4.80
   6   6  -2   46.60    6.40
   6   6  -2   49.20    5.80
   5  -6  -2   31.20    4.90
   5   6  -2   31.10    3.00
   5   6  -2   25.30    4.20
  -5   6   2   22.70    4.30
   5   6  -2   31.80    5.10
   4  -6  -2 1094.79   39.00
   4   6  -2 1095.59   35.10
   4   6  -2 1091.29   39.30
  -4   6   2 1102.39   39.50
   4   6  -2 1125.19   39.80
   3  -6  -2 1367.66   46.00
   3   6  -2 1386.86   47.40
  -3   6   2 1329.87   47.10
   3   6  -2 1327.07   47.00
  -2   6   2   -0.90    1.80
   2   6  -2    2.70    2.10
   2   6  -2    1.30    2.00
   1  -6  -2  556.14   19.90
  -1   6   2  569.24   22.10
   1   6  -2  536.65   21.40
   1   6  -2  550.64   22.00
  -1   6   2  542.35   19.80
   0  -6  -2 1166.38   38.60
   0   6   2 1176.28   39.80
   0   6  -2 1169.18   40.60
   0   6  -2 1203.28   41.60
   0   6   2 1172.48   41.30
  -1   6  -2   15.20    3.50
   1   6   2   17.60    3.60
   1   6   2   12.90    2.80
   2   6   2  303.17   13.60
   2   6   2  275.07   13.10
  -2   6  -2  280.67   13.50
   3   6   2  132.89    8.50
   3   6   2  118.39    7.80
  -3   6  -2  146.69    8.70
  -4   6  -2   14.50    3.20
   4   6   2   22.70    4.50
   4   6   2   24.40    4.00
  -5   6  -2  721.73   26.90
   5   6   2  685.53   26.20
   5   6   2  691.23   28.10
   6  -6   2   84.39    7.70
   6   6   2   77.79    6.00
  -6   6  -2   80.39    7.20
   6   6   2   56.49    7.20
   7  -6   2   -2.50    1.80
   7   6   2   -2.90    2.40
  -7   6  -2   -2.20    2.00
   7   6   2   -1.20    1.90
   8  -6   2   32.20    5.40
   8   6   2   30.60    4.40
   8   6   2   34.60    6.50
  -8   6  -2   39.40    5.10
   9  -6   2   15.80    4.40
   9   6   2    3.50    2.60
  -9   6  -2   13.80    3.40
   9   6   2    3.30    4.10
  10  -6   2   49.90    7.50
  10   6   2   55.29    8.80
  11  -6   2    3.30    3.50
  11   6   2    4.00    4.50
  12  -6   2   54.39    8.30
  12   6   2   59.29    9.90
  13  -6   2    1.90    4.50
  13   6   2    2.80    4.40
  14  -6   2    0.60    4.10
  14  -6   2   -4.10    5.80
  14   6   2   -5.40    4.10
  15  -6   2   21.60    7.80
  15  -6   2   12.50    6.50
  15   6   2    9.60    6.40
  15   6   2   23.90    7.90
  16  -7  -2   32.90    9.70
  16   7  -2   31.20    8.50
  15  -7  -2   91.79   13.70
  15   7  -2  116.89   14.10
  14  -7  -2   -2.50    4.50
  14   7  -2    4.00    4.60
  14   7  -2   -2.30    4.10
  13  -7  -2  165.08   16.70
  13   7  -2  151.68   15.40
  13   7  -2  154.48   11.90
  12  -7  -2  278.37   18.70
  12  -7  -2  289.57   18.70
  12   7  -2  298.47   18.70
 -12   7   2  294.47   16.60
  12   7  -2  305.17   16.40
  11  -7  -2   95.09    8.40
  11  -7  -2  108.69   12.10
 -11  -7   2   91.09    8.90
  11   7  -2   85.89   10.70
  11   7  -2   96.29    9.20
 -11   7   2  103.29    9.90
  10  -7  -2  101.49    7.40
 -10  -7   2  132.09    9.20
  10  -7  -2   99.99   11.30
  10   7  -2   99.79    9.00
  10   7  -2  116.09   12.00
 -10   7   2  122.99   10.70
  -9  -7   2   30.30    5.30
   9  -7  -2   35.80    4.50
   9  -7  -2   30.90    6.40
  -9   7   2   27.40    5.40
   9   7  -2   38.60    6.80
   9   7  -2   34.60    4.80
  -8  -7   2  302.27   14.90
   8  -7  -2  288.07   16.20
   8  -7  -2  296.07   12.50
  -8   7   2  256.47   14.30
   8   7  -2  290.27   12.90
   8   7  -2  279.37   16.10
  -7  -7   2    6.30    2.60
   7  -7  -2   24.80    5.00
   7  -7  -2   27.50    3.40
   7   7  -2   24.60    3.40
   7   7  -2   18.30    4.80
   7   7  -2   19.50    4.10
  -7   7   2   20.00    4.50
   6  -7  -2  281.17   11.00
   6  -7  -2  257.77   14.00
   6   7  -2  246.18   13.30
  -6   7   2  250.17   13.50
   6   7  -2  258.57   14.40
   6   7  -2  254.87   10.50
   5  -7  -2    6.20    2.90
  -5   7   2   13.50    3.70
   5   7  -2    6.70    3.30
   5   7  -2   15.50    1.90
   5   7  -2    4.80    2.70
   4  -7  -2    1.10    2.20
  -4   7   2    2.90    2.50
   4   7  -2    1.50    2.60
   4   7  -2    7.00    3.10
   3  -7  -2   29.00    3.90
   3   7  -2   25.90    4.40
   3   7  -2   26.60    4.70
  -3   7   2   26.00    4.70
   2  -7  -2   86.79    5.80
   2   7  -2   84.89    7.70
   2   7  -2   95.89    8.40
  -2   7   2   89.19    8.10
  -2   7   2   89.69    5.40
   1  -7  -2    7.60    2.10
  -1   7   2    4.20    2.60
  -1   7   2    3.80    1.80
   1   7  -2    3.80    2.20
   1   7  -2    7.80    3.00
   0  -7  -2  205.18    8.70
   0   7   2  197.98    9.80
   0   7   2  190.28   11.10
   0   7  -2  218.08   10.80
   0   7  -2  202.18   11.30
  -1   7  -2   25.00    4.70
   1   7   2   20.20    3.50
   1   7   2   22.90    4.40
  -2   7  -2  155.98    9.90
   2   7   2  161.88    9.50
   2   7   2  170.98    9.90
   3   7   2  982.80   35.90
   3   7   2  987.10   36.20
  -3   7  -2  964.20   36.10
  -4   7  -2   85.19    7.90
   4   7   2   74.99    7.20
   4   7   2  102.29    9.20
   5   7   2  521.65   21.20
   5   7   2  498.45   22.50
   6  -7   2  237.48   12.70
   6   7   2  256.27   12.90
   6   7   2  263.47   14.70
  -6   7  -2  262.47   13.30
   7  -7   2   90.09    8.30
   7   7   2   87.69    9.70
   7   7   2   74.69    7.40
  -7   7  -2   76.19    7.70
   8  -7   2  148.59   10.10
  -8   7  -2  165.68   10.00
   8   7   2  138.49   13.00
   8   7   2  150.08    9.30
   9  -7   2 1098.99   40.40
  -9   7  -2 1023.40   38.60
   9   7   2 1072.69   38.10
   9   7   2 1061.89   43.20
  10  -7   2   32.20    5.80
  10   7   2   15.30    5.90
  11  -7   2  112.29   11.10
  11   7   2  132.09   14.10
  12  -7   2   89.59   10.40
  12   7   2   85.99   11.90
  13  -7   2   -3.40    3.40
  13  -7   2   -7.00    3.90
  13   7   2    4.00    4.90
  14  -7   2   47.60    9.00
  14  -7   2   45.10    9.60
  14   7   2   49.60   10.10
  14   7   2   45.20    9.10
  15  -7   2   15.20    7.10
  15   7   2   23.10    8.30
  16  -8  -2   33.90    9.90
  16   8  -2   32.00    8.60
  15  -8  -2   62.39   11.70
  15   8  -2   61.49   11.20
  14  -8  -2   13.80    7.20
  14   8  -2    5.60    5.30
  13  -8  -2    6.70    6.20
  13   8  -2    0.10    4.30
  12  -8  -2    5.90    5.30
 -12   8   2   17.40    5.20
  12   8  -2   12.10    5.40
  11  -8  -2   18.10    6.40
 -11  -8   2   40.20    6.30
 -11   8   2   31.00    6.30
  11   8  -2   26.80    6.70
  11   8  -2   46.90    6.30
 -10  -8   2    7.00    3.70
  10  -8  -2    7.00    4.60
  10  -8  -2    9.50    3.10
  10   8  -2    8.90    3.60
 -10   8   2    6.60    3.80
  10   8  -2    2.80    4.00
   9  -8  -2   82.19   10.30
   9  -8  -2   75.69    6.60
  -9  -8   2   91.29    9.20
   9   8  -2   70.09    9.50
  -9   8   2   71.19    8.50
   9   8  -2   83.79    7.20
   8  -8  -2    5.70    3.70
  -8  -8   2    3.20    3.00
   8  -8  -2    9.30    2.70
   8   8  -2   13.00    4.70
  -8   8   2    2.70    2.80
   8   8  -2    6.40    2.40
   7  -8  -2  585.14   26.00
   7  -8  -2  575.74   21.70
  -7   8   2  614.94   25.70
   7   8  -2  586.24   21.20
   7   8  -2  615.54   26.90
   7   8  -2  607.44   25.40
   6  -8  -2   31.80    5.70
   6   8  -2   41.50    3.00
   6   8  -2   39.10    6.30
  -6   8   2   35.70    6.00
   6   8  -2   28.90    5.40
   5  -8  -2  314.77   16.00
   5   8  -2  368.26   17.50
  -5   8   2  321.67   16.60
   5   8  -2  347.97   16.90
   4  -8  -2  569.34   23.20
   4   8  -2  589.04   24.70
   4   8  -2  592.24   24.90
  -4   8   2  570.44   24.50
   3  -8  -2  304.27   13.80
   3   8  -2  294.97   15.20
  -3   8   2  292.77   15.20
   3   8  -2  298.27   15.10
   2  -8  -2  406.36   16.70
  -2   8   2  425.86   19.30
   2   8  -2  421.66   18.60
   2   8  -2  422.86   19.20
  -2   8   2  408.46   16.30
   1  -8  -2  183.58    8.90
  -1   8   2  180.48   11.20
   1   8  -2  205.98   11.80
  -1   8   2  179.28    9.30
   1   8  -2  191.78   10.70
   0  -8  -2  165.08    7.60
   0   8  -2  165.28   10.60
   0   8   2  160.68   10.40
   0   8   2  163.88    9.00
   0   8  -2  160.18    9.60
   1   8   2   11.80    3.70
   1   8   2   16.50    3.70
  -1   8  -2   23.50    4.90
   2   8   2   36.00    5.60
   2   8   2   37.60    5.50
  -2   8  -2   24.70    4.80
  -3   8  -2   37.10    5.70
   3   8   2   34.20    5.50
   3   8   2   40.70    5.80
  -4   8  -2    2.90    2.80
   4   8   2    6.20    3.30
   4   8   2    4.50    2.70
   5   8   2 1078.79   40.30
   5   8   2 1030.80   38.60
  -5   8  -2 1023.00   39.00
  -6   8  -2    0.10    1.70
   6   8   2   -0.40    2.70
   6   8   2    2.90    3.50
   7  -8   2  438.76   19.80
   7   8   2  455.65   19.90
  -7   8  -2  459.05   20.50
   7   8   2  424.86   21.80
   8  -8   2  189.98   11.50
   8   8   2  173.48   10.70
   8   8   2  180.38   13.20
  -8   8  -2  171.48   11.20
   9  -8   2   79.29    8.70
   9   8   2   65.89    9.50
  -9   8  -2  103.59    9.70
   9   8   2   98.89    8.70
  10  -8   2    4.80    3.20
 -10   8  -2    8.70    3.80
  10   8   2   -1.60    3.70
  11  -8   2  189.38   13.00
  11   8   2  161.58   16.00
  12  -8   2    0.00    3.60
  12  -8   2    1.40    4.80
  12   8   2    1.50    5.00
  13  -8   2    6.00    6.00
  13  -8   2   24.60    6.50
  13   8   2    8.60    6.00
  14  -8   2    0.80    5.50
  14   8   2    7.30    6.10
  15  -8   2    5.90    6.50
  15   8   2   17.70    7.80
  16  -9  -2    4.50    6.50
  16   9  -2    0.90    5.70
  15  -9  -2   60.59   12.00
  15   9  -2   30.50    8.70
  14  -9  -2    3.20    5.20
  14   9  -2    8.10    6.00
  13  -9  -2   81.89   12.50
  13   9  -2  103.19   13.70
  12  -9  -2   -1.30    4.40
 -12   9   2    0.80    3.70
  12   9  -2    2.60    4.90
 -11  -9   2    9.50    4.20
  11  -9  -2   11.90    6.50
 -11   9   2   13.10    4.50
  11   9  -2   20.80    6.50
 -10  -9   2    2.60    3.40
  10  -9  -2   10.20    5.30
 -10   9   2    8.40    4.30
  10   9  -2   10.10    5.00
   9  -9  -2    8.00    5.00
   9  -9  -2    4.40    2.60
  -9  -9   2    1.70    3.40
  -9   9   2    0.10    1.90
   9   9  -2    3.70    4.00
   8  -9  -2    3.00    2.20
  -8  -9   2   -0.70    1.70
   8  -9  -2   -2.70    3.10
   8   9  -2    1.00    3.20
   8   9  -2    0.60    3.30
  -8   9   2   -2.80    2.60
   7  -9  -2   57.99    5.40
   7  -9  -2   76.99    9.00
   7   9  -2   66.79    8.10
   7   9  -2   67.69    4.20
  -7   9   2   72.39    8.70
   7   9  -2   74.89    9.10
   6  -9  -2    0.20    2.50
  -6   9   2    0.30    2.80
   6   9  -2    0.60    2.90
   6   9  -2    4.30    3.30
   5  -9  -2  159.88   10.10
  -5   9   2  134.79   10.20
   5   9  -2  112.99   10.70
   5   9  -2  143.19   10.50
   4  -9  -2   26.60    4.50
   4   9  -2   20.80    4.70
   4   9  -2   31.90    5.70
  -4   9   2   28.40    5.80
   3  -9  -2  126.69    8.20
  -3   9   2  124.49    9.70
   3   9  -2  143.49    9.90
   3   9  -2  128.29    9.70
   2  -9  -2   97.89    6.80
   2   9  -2  115.49    9.80
   2   9  -2   95.99    9.60
  -2   9   2  103.79    6.70
  -2   9   2  113.79   10.40
  -1  -9   2  241.08    9.10
   1  -9  -2  230.28   10.70
   1   9  -2  226.28   13.60
  -1   9   2  254.37   14.10
   1   9  -2  239.88   13.00
  -1   9   2  240.98   11.60
   0  -9   2  206.48    9.10
   0  -9  -2  206.78    9.20
   0   9  -2  207.48   12.70
   0   9   2  225.68   13.10
   0   9   2  209.68   11.00
   0   9  -2  192.58   11.30
   1   9   2  238.58   12.90
   1   9   2  267.57   14.50
  -1   9  -2  271.37   14.80
   2   9   2    9.80    3.40
   2   9   2   11.00    3.50
  -2   9  -2   10.10    3.90
   3   9   2   45.00    6.40
  -3   9  -2   55.79    7.50
   3   9   2   40.50    6.20
   4   9   2   60.69    7.40
  -4   9  -2   46.00    6.80
   4   9   2   32.30    6.20
   5   9   2   62.89    8.30
  -5   9  -2   52.99    7.30
   5   9   2   67.39    8.00
   6   9   2    8.90    4.20
  -6   9  -2    1.30    2.80
   6   9   2    4.70    3.30
   7  -9   2    0.60    2.60
  -7   9  -2    1.20    2.80
   7   9   2    3.10    3.80
   7   9   2    4.60    3.50
   8  -9   2  136.59   10.10
  -8   9  -2  147.29   10.80
   8   9   2  163.98   10.90
   8   9   2  148.39   14.20
   9  -9   2    4.40    3.20
  -9   9  -2    2.20    3.40
   9   9   2   -1.80    3.70
   9   9   2    4.60    3.80
  10  -9   2   11.50    4.50
 -10   9  -2   18.40    5.30
  10   9   2    9.00    5.10
  11  -9   2   48.00    9.50
  11  -9   2   55.39    7.90
  11   9   2   62.29   10.60
  12  -9   2   -2.10    3.30
  12  -9   2   -6.90    3.60
  12   9   2    5.30    5.30
  13  -9   2    4.30    5.10
  13   9   2   -1.10    4.70
  14  -9   2   14.90    7.60
  14   9   2    7.50    6.70
  15 -10  -2  107.19   15.40
  15  10  -2  109.29   14.80
  14 -10  -2    9.60    6.50
  14  10  -2   15.40    6.70
  13 -10  -2    4.20    5.70
  13  10  -2   11.10    5.60
  12 -10  -2  312.17   21.10
 -12  10   2  322.07   18.30
  12  10  -2  315.57   20.80
 -11 -10   2   58.29    8.30
  11 -10  -2   50.09    9.70
  11  10  -2   33.80    7.90
 -11  10   2   63.49    9.20
 -10 -10   2   18.10    5.70
  10 -10  -2   22.30    6.40
  10  10  -2   10.80    5.10
 -10  10   2    7.90    3.80
   9 -10  -2    1.10    3.90
  -9 -10   2    1.40    3.10
  -9  10   2   12.30    4.90
   9  10  -2    3.30    4.00
   8 -10  -2   13.60    3.30
   8 -10  -2   15.60    4.90
   8  10  -2   15.50    5.40
   8  10  -2   10.50    4.30
  -8  10   2   10.50    4.70
   7 -10  -2    3.90    3.70
   7  10  -2    2.70    3.40
   7  10  -2    0.00    3.10
  -7  10   2    4.70    3.70
   6 -10  -2   16.10    4.70
   6  10  -2   11.90    4.80
   6  10  -2    7.10    3.90
  -6  10   2    7.50    3.90
   5 -10  -2  235.78   13.40
   5  10  -2  248.08   14.90
   5  10  -2  250.57   15.00
  -5  10   2  238.78   14.70
   4 -10  -2   57.99    7.00
   4  10  -2   67.09    8.50
   4  10  -2   47.50    7.30
  -4  10   2   63.19    8.50
   3 -10  -2  307.07   14.30
  -3  10   2  323.07   17.00
   3  10  -2  288.77   16.40
   3  10  -2  263.87   15.50
   2 -10  -2  336.67   14.80
  -2  10   2  332.57   14.90
   2  10  -2  324.97   16.80
   2  10  -2  345.97   18.00
  -2  10   2  344.47   18.00
   1 -10  -2  315.57   13.40
  -1 -10   2  319.77   11.60
   1  10  -2  321.97   16.00
   1  10  -2  313.47   17.00
  -1  10   2  296.07   14.30
  -1  10   2  299.37   16.70
   0 -10  -2  332.77   13.60
   0 -10   2  350.16   13.70
   0  10   2  347.77   18.20
   0  10  -2  361.16   17.00
   0  10  -2  367.56   18.60
   0  10   2  345.87   16.20
   1 -10   2   39.40    4.50
   1  10   2   43.80    7.00
  -1  10  -2   48.40    7.30
   1  10   2   44.10    6.10
  -2  10  -2  290.37   16.00
   2  10   2  264.87   14.30
   2  10   2  259.67   15.10
   3  10   2  177.78   11.60
  -3  10  -2  172.08   11.90
   3  10   2  161.48   11.50
   4  10   2  293.87   16.30
   4  10   2  291.47   16.00
  -4  10  -2  279.17   16.10
   5  10   2  107.89   10.40
  -5  10  -2   95.09   10.50
   5  10   2   88.09   10.10
   6  10   2   47.30    7.70
  -6  10  -2   43.80    7.30
   6  10   2   51.49    7.60
   7  10   2  564.34   26.30
   7  10   2  479.65   23.10
   8 -10   2   19.80    4.80
   8  10   2   27.20    6.80
  -8  10  -2   21.70    5.20
   8  10   2   17.70    5.10
   9 -10   2  190.48   16.90
   9 -10   2  179.28   11.90
  -9  10  -2  206.18   13.30
   9  10   2  180.98   16.70
   9  10   2  179.28   12.60
  10 -10   2   -1.10    4.50
  10 -10   2    8.00    4.50
 -10  10  -2    7.90    4.70
  10  10   2    3.90    4.30
  11 -10   2  265.37   18.60
  11 -10   2  242.08   15.20
  11  10   2  203.98   19.00
  12 -10   2   10.10    5.90
  12  10   2    8.60    6.20
  13 -10   2   93.29   14.30
  13  10   2   86.19   13.20
  14 -10   2    0.30    5.20
  14  10   2   10.70    6.40
  14 -11  -2   -0.40    5.50
  14  11  -2  -10.30    3.80
  13 -11  -2   67.59   12.00
  13  11  -2   98.49   13.30
  12 -11  -2   -1.00    5.60
  12  11  -2    2.90    5.10
 -12  11   2   -3.60    3.90
 -11 -11   2    6.30    4.80
  11 -11  -2   16.40    6.60
 -11  11   2   13.10    5.50
  11  11  -2   21.40    6.60
  10 -11  -2    7.30    4.80
 -10 -11   2    0.60    3.50
 -10  11   2    5.80    3.90
  10  11  -2    6.90    4.90
   9 -11  -2    2.90    4.50
  -9 -11   2    3.80    3.90
  -9  11   2    0.90    4.20
   9  11  -2    8.80    4.90
   9  11  -2    4.00    4.20
   8 -11  -2   54.99    9.10
  -8  11   2   61.09    9.10
   8  11  -2   66.29   10.00
   8  11  -2   61.79    8.90
   7 -11  -2    7.50    4.30
  -7  11   2    8.70    4.30
   7  11  -2    0.40    3.40
   7  11  -2   18.10    5.60
   6 -11  -2   -1.60    2.90
   6  11  -2    0.20    3.00
   6  11  -2    4.30    3.80
  -6  11   2   -0.30    3.60
   5 -11  -2    3.80    3.10
  -5  11   2    3.80    3.80
   5  11  -2    9.30    4.30
   5  11  -2   -2.30    2.80
   4 -11  -2    9.80    3.80
   4  11  -2    6.90    4.20
  -4  11   2    6.50    3.90
   4  11  -2    6.10    3.60
   3 -11  -2    8.10    3.20
   3  11  -2    6.70    3.50
  -3  11   2    0.60    3.30
   3  11  -2    1.60    3.60
   2 -11  -2  138.49    8.50
   2  11  -2  142.39   12.50
  -2  11   2  137.09    8.90
  -2  11   2  159.18   11.80
   2  11  -2  148.29   13.30
  -1 -11   2   69.79    4.10
   1 -11  -2   81.79    5.60
  -1  11   2   54.29    8.10
  -1  11   2   73.29    7.40
   1  11  -2   83.09    9.70
   1  11  -2   68.79    8.30
   0 -11   2  252.47   11.00
   0 -11  -2  263.17   11.10
   0  11   2  240.58   15.40
   0  11  -2  263.87   14.60
   0  11   2  281.07   14.10
   0  11  -2  268.27   16.00
   1 -11   2  348.47   14.50
   1  11   2  351.96   18.60
   1  11   2  334.07   16.80
  -1  11  -2  315.07   18.30
   2 -11   2   26.40    4.30
   2  11   2   28.90    6.00
  -2  11  -2   30.80    6.60
   2  11   2   29.60    5.50
   3 -11   2   38.80    5.60
   3  11   2   49.80    7.20
   3  11   2   38.00    7.10
  -3  11  -2   53.79    8.30
   4 -11   2    5.10    3.10
   4  11   2    2.00    3.30
  -4  11  -2    0.80    3.40
   4  11   2    1.70    3.30
   5 -11   2   98.49    9.80
   5  11   2   97.29   11.00
  -5  11  -2  113.09   11.90
   5  11   2   97.39   10.60
   6 -11   2    5.20    3.90
  -6  11  -2    4.80    4.50
   6  11   2    3.60    4.10
   6  11   2    9.00    4.30
   7 -11   2    8.50    4.90
   7  11   2    3.30    4.30
   7  11   2    3.80    4.10
  -7  11  -2    2.00    4.10
   8 -11   2   33.70    5.90
   8 -11   2   32.60    7.30
   8  11   2   24.70    6.70
   8  11   2   28.80    6.40
   9 -11   2  307.17   19.30
   9 -11   2  296.67   16.50
   9  11   2  270.77   18.70
   9  11   2  284.47   16.90
  -9  11  -2  286.07   17.30
  10 -11   2    7.80    5.00
  10 -11   2    1.90    3.60
  10  11   2   13.90    6.40
 -10  11  -2   13.70    5.30
  11 -11   2  100.49   13.20
  11  11   2  103.39   13.80
  12 -11   2   36.60    9.20
  12  11   2   47.50   10.10
  13 -11   2   33.60    9.50
  13  11   2   30.70    9.10
  14 -12  -2   10.50    7.40
  14  12  -2    4.60    5.60
  13 -12  -2   11.90    6.90
  13  12  -2    4.80    5.90
  12 -12  -2    9.20    6.20
 -12  12   2    0.40    4.10
  12  12  -2   -3.20    4.90
 -11 -12   2   24.40    6.70
  11 -12  -2   18.60    6.90
  11  12  -2   20.40    7.20
  10 -12  -2   17.00    6.60
 -10 -12   2    4.70    3.90
  10  12  -2   15.90    6.30
 -10  12   2   14.60    5.60
  -9 -12   2    1.30    4.50
   9 -12  -2    6.60    4.60
  -9  12   2   -1.40    3.20
   9  12  -2   -3.00    3.60
   9  12  -2    4.30    4.40
   8 -12  -2   75.69   10.40
  -8  12   2   64.59    9.70
   8  12  -2   60.59    9.50
   8  12  -2   52.69    9.20
   7 -12  -2  139.29   13.10
   7  12  -2  159.68   14.90
   7  12  -2  153.08   15.10
  -7  12   2  145.89   14.50
   6 -12  -2  158.48   11.80
  -6  12   2  173.28   15.70
   6  12  -2  169.28   15.60
   6  12  -2  170.48   13.10
   5 -12  -2  119.59   10.90
   5  12  -2   98.89   11.30
   5  12  -2  116.79   12.30
  -5  12   2  115.49   12.40
   4 -12  -2   -0.40    2.50
   4  12  -2   -1.30    2.50
   4  12  -2   -1.70    3.10
  -4  12   2    2.30    3.70
   3 -12  -2  198.88   11.40
   3  12  -2  187.08   13.80
   3  12  -2  193.08   13.30
  -3  12   2  202.88   14.30
   2 -12  -2   64.49    6.50
  -2  12   2   68.19    7.30
   2  12  -2   54.59    8.50
  -2  12   2   74.99    9.80
   2  12  -2   65.29    8.80
   1 -12  -2   21.80    3.70
   1  12  -2   28.20    5.50
  -1  12   2   32.60    5.50
   1  12  -2   30.80    6.50
  -1  12   2   17.20    5.70
   0 -12   2   13.80    2.80
   0  12  -2   10.90    3.80
   0  12  -2    1.90    3.70
   0  12   2   12.20    3.90
   0  12   2   10.70    4.80
   1 -12   2   93.59    6.70
   1  12   2  104.49   10.20
  -1  12  -2  104.89   11.60
   1  12   2   97.79   11.10
   2 -12   2   43.50    5.80
   2  12   2   58.59    7.90
   2  12   2   48.80    8.00
  -2  12  -2   63.99    9.20
   3 -12   2   96.09    8.80
  -3  12  -2   94.99   11.20
   3  12   2   85.29    9.70
   3  12   2   85.79   10.40
   4 -12   2    1.30    2.60
   4  12   2   -2.30    3.00
   4  12   2   -1.80    3.40
  -4  12  -2    0.00    4.00
   5 -12   2  178.48   12.10
   5  12   2  151.78   14.60
  -5  12  -2  171.08   15.40
   5  12   2  186.38   13.50
   6 -12   2  137.59   12.60
   6  12   2  107.09   12.60
   6  12   2  118.49   12.20
  -6  12  -2  119.69   12.70
   7 -12   2  321.27   18.70
   7  12   2  318.07   18.70
   7  12   2  340.07   20.30
  -7  12  -2  337.47   19.60
   8 -12   2   -0.90    3.30
   8 -12   2   -1.00    3.30
   8  12   2   -3.90    3.30
   8  12   2   -4.30    3.90
  -8  12  -2   -2.40    3.90
   9 -12   2    2.00    4.10
   9 -12   2    1.50    3.40
   9  12   2   -0.60    4.10
   9  12   2    1.00    4.30
  -9  12  -2    2.20    3.80
  10 -12   2   58.89   10.30
  10  12   2   73.09   11.70
 -10  12  -2   52.99    9.10
  11 -12   2   23.80    7.60
  11  12   2   43.00    9.60
  12 -12   2   -0.40    4.80
  12  12   2   -5.20    4.00
  13 -12   2    7.00    6.20
  13  12   2   -0.20    4.90
  13 -13  -2   40.30   10.20
  13  13  -2   42.40    9.80
  12 -13  -2   16.20    7.40
 -12  13   2   13.10    6.60
  12  13  -2   16.50    7.10
  11 -13  -2   48.20   10.30
 -11 -13   2   51.29    9.40
 -11  13   2   61.19   10.60
  11  13  -2   51.89   10.40
  10 -13  -2   14.20    6.50
 -10 -13   2    1.80    4.70
 -10  13   2    5.00    4.80
  10  13  -2   13.20    6.10
   9 -13  -2   79.09   10.90
  -9  13   2   73.89   11.30
   9  13  -2   53.39    9.50
   9  13  -2   70.09   11.40
   8 -13  -2   74.29   10.20
  -8  13   2   65.99   10.50
   8  13  -2   71.99   11.00
   8  13  -2   73.19   10.70
   7 -13  -2   63.79    9.10
   7  13  -2   46.80    8.60
   7  13  -2   40.30    8.00
  -7  13   2   46.40    8.90
   6 -13  -2   25.50    5.90
  -6  13   2   18.20    6.30
   6  13  -2   18.20    6.00
   6  13  -2   13.40    5.80
   5 -13  -2   35.20    6.30
  -5  13   2   22.80    6.70
   5  13  -2   29.80    7.00
   5  13  -2   24.30    7.10
   4 -13  -2    5.30    3.20
   4  13  -2    0.10    3.30
  -4  13   2   -0.60    3.90
   4  13  -2    3.70    4.00
   3 -13  -2  257.67   13.40
   3  13  -2  236.38   16.40
   3  13  -2  243.38   15.60
  -3  13   2  218.08   15.90
   2 -13  -2   71.89    7.00
   2  13  -2   86.39   10.40
   2  13  -2   74.19   10.40
  -2  13   2   97.49   11.60
  -2  13   2   82.49    8.50
  -1  13   2  440.16   23.30
   1  13  -2  427.26   21.40
  -1  13   2  421.76   19.90
   1  13  -2  420.16   23.00
   0  13  -2   57.79    8.20
   0  13   2   73.49    8.60
   0  13   2   57.09    9.30
   0  13  -2   66.99    9.90
  -1  13  -2  131.59   13.70
   1  13   2  119.99   11.60
   1  13   2  118.89   13.10
   2 -13   2    4.60    3.10
   2  13   2    2.00    4.00
   2  13   2    6.70    3.50
  -2  13  -2    9.20    5.00
   3 -13   2   25.70    5.10
   3  13   2   24.20    6.50
  -3  13  -2   20.60    6.50
   3  13   2   23.80    5.60
   4 -13   2   17.50    4.80
   4  13   2   16.40    5.20
   4  13   2   18.10    5.90
  -4  13  -2   17.20    6.00
   5 -13   2   21.80    5.30
  -5  13  -2   26.30    7.10
   5  13   2   11.70    5.40
   5  13   2   26.90    6.60
   6 -13   2   30.50    6.70
   6  13   2   40.90    8.20
   6  13   2   33.00    7.20
  -6  13  -2   27.40    7.30
   7 -13   2   10.40    4.60
   7  13   2    3.60    4.30
   7  13   2    0.80    4.40
  -7  13  -2    5.10    4.50
   8 -13   2    5.90    4.70
   8  13   2   11.90    5.80
  -8  13  -2    5.80    5.20
   8  13   2   -1.80    4.50
   9 -13   2  104.09   12.60
   9  13   2   84.99   11.10
  -9  13  -2   47.70    9.20
   9  13   2  116.89   14.60
  10 -13   2    3.40    5.40
  10  13   2    1.60    5.10
 -10  13  -2   -3.70    4.10
  11 -13   2   -0.30    4.90
  11  13   2    5.20    6.00
  12 -13   2   -3.40    5.00
  12  13   2   12.70    7.10
  12 -14  -2    4.70    5.90
  12  14  -2    3.40    5.70
 -12  14   2    0.50    4.10
  11 -14  -2   15.30    7.30
 -11 -14   2    3.60    4.50
 -11  14   2   17.80    6.80
  11  14  -2   13.00    7.00
  10 -14  -2   -6.80    4.20
 -10 -14   2   -2.30    4.10
 -10  14   2    1.40    4.90
  10  14  -2    2.10    4.90
   9 -14  -2    6.20    5.70
   9  14  -2    8.00    6.20
  -9  14   2    2.40    5.10
   9  14  -2    8.40    5.70
   8 -14  -2   73.59   10.60
  -8  14   2   76.79   11.70
   8  14  -2   58.99   10.10
   8  14  -2   70.09   10.90
   7 -14  -2   47.10    8.30
   7  14  -2   50.79    9.40
  -7  14   2   50.89    9.40
   7  14  -2   44.00    8.80
   6 -14  -2   -4.90    3.00
   6  14  -2    2.90    4.80
  -6  14   2   -0.80    4.00
   6  14  -2   -1.70    3.90
   5 -14  -2   51.49    7.70
   5  14  -2   29.10    7.20
   5  14  -2   43.30    8.50
  -5  14   2   31.30    8.00
   4 -14  -2   54.89    7.40
   4  14  -2   78.39   10.60
   4  14  -2   62.49   10.00
  -4  14   2   67.19   10.20
   3  14  -2   35.20    7.60
   3  14  -2   39.20    8.10
  -3  14   2   19.80    6.60
   2  14  -2   80.79   11.40
   2  14  -2   75.29   10.00
  -2  14   2   70.69    8.20
  -2  14   2   86.19   11.60
   1  14  -2   10.40    5.30
   1  14  -2   10.30    4.60
  -1  14   2    2.00    3.90
  -1  14   2    7.40    4.00
   0  14   2   19.10    6.40
   0  14  -2   27.20    5.80
   0  14  -2   22.20    6.80
   0  14   2   28.80    6.00
  -1  14  -2   22.00    6.90
   1  14   2   13.60    5.70
   1  14   2   10.60    3.90
  -2  14  -2   11.80    5.50
   2  14   2    3.80    4.10
   2  14   2    1.40    4.30
   3  14   2   10.90    5.30
   3  14   2    9.00    4.50
  -3  14  -2    8.90    5.40
   4 -14   2    6.70    3.90
   4  14   2    3.40    4.80
  -4  14  -2    5.00    4.70
   4  14   2    5.00    3.90
   5 -14   2  202.78   13.60
  -5  14  -2  223.58   16.50
   5  14   2  210.28   16.10
   5  14   2  212.58   15.80
   6 -14   2  167.18   14.70
   6  14   2  173.78   16.50
  -6  14  -2  182.38   17.30
   6  14   2  183.78   17.00
   7 -14   2   97.19   11.70
   7  14   2  108.59   13.60
  -7  14  -2  108.29   13.40
   7  14   2   93.29   12.20
   8 -14   2   -2.90    4.20
  -8  14  -2   -0.10    4.10
   8  14   2   -6.10    3.50
   8  14   2   -1.70    4.90
   9 -14   2    9.40    6.40
   9  14   2   15.10    6.90
  -9  14  -2    9.20    6.30
   9  14   2    8.30    5.80
  10 -14   2   13.00    6.60
  10  14   2   18.90    7.90
 -10  14  -2   -1.40    4.50
  11 -14   2    1.80    5.80
  11  14   2    0.20    5.60
  11 -15  -2    9.40    6.80
 -11 -15   2    3.80    4.70
 -11  15   2    2.20    5.60
  11  15  -2    5.00    6.10
 -10 -15   2    9.80    6.70
  10 -15  -2   13.40    6.80
 -10  15   2    7.70    5.60
  10  15  -2    8.00    6.80
   9 -15  -2   37.90    8.40
   9  15  -2   58.29   10.40
   9  15  -2   35.90    8.80
  -9  15   2   56.29   10.30
   8 -15  -2    0.70    4.70
   8  15  -2   10.20    5.90
   8  15  -2    2.60    5.00
  -8  15   2    1.60    5.40
   7 -15  -2   -1.10    4.40
   7  15  -2    2.80    5.00
  -7  15   2    2.70    5.00
   7  15  -2    2.90    4.80
   6 -15  -2   21.90    6.30
   6  15  -2   15.30    6.50
   6  15  -2   25.70    9.40
  -6  15   2   31.50    8.40
   5  15  -2   25.50    7.20
   5  15  -2   57.89   10.00
  -5  15   2   37.20    9.10
  -4  15   2   40.00    9.10
   4  15  -2   32.00    8.30
   4  15  -2   42.50    8.50
   3  15  -2   10.20    4.80
   3  15  -2   14.10    6.00
  -3  15   2    1.90    4.40
   2  15  -2   -5.30    2.80
  -2  15   2    2.10    3.20
   2  15  -2   -1.30    4.20
  -2  15   2    1.20    4.50
   1  15  -2   21.50    6.00
   1  15  -2   14.50    6.20
  -1  15   2   21.20    6.60
  -1  15   2   17.40    5.10
   0  15   2  136.49   15.10
   0  15  -2  110.19   13.70
   0  15   2  117.39   11.80
   1  15   2   94.99   12.50
  -1  15  -2   60.89   10.40
   2  15   2   13.90    5.80
  -2  15  -2    5.80    5.80
   2  15   2   15.90    5.40
  -3  15  -2  271.77   19.00
   3  15   2  265.87   17.20
   3  15   2  264.97   18.80
   4  15   2    7.90    5.40
  -4  15  -2   14.30    6.80
   4  15   2   14.30    5.90
   5  15   2    7.80    4.70
   5  15   2    4.50    5.10
  -5  15  -2    1.10    4.50
   6 -15   2   26.30    6.60
   6  15   2   17.90    6.80
  -6  15  -2   11.70    5.90
   6  15   2   13.80    6.00
   7 -15   2   39.90    8.00
  -7  15  -2   50.19    9.60
   7  15   2   35.90    8.90
   7  15   2   31.10    7.80
   8 -15   2   15.50    6.30
  -8  15  -2   11.20    6.30
   8  15   2   23.80    7.30
   8  15   2   29.60    8.80
   9 -15   2   45.70    9.60
   9  15   2   44.70    9.80
   9  15   2   48.30    9.60
  -9  15  -2   28.30    8.10
  10 -15   2    1.10    5.80
  10  15   2    6.10    6.00
 -10  15  -2    6.80    6.30
 -10 -16   2   20.80    8.50
  10 -16  -2   36.90    9.50
 -10  16   2   51.79   11.00
  10  16  -2   34.50    9.60
   9 -16  -2   -0.40    4.50
   9  16  -2    1.80    5.50
  -9  16   2    4.70    5.80
   9  16  -2    7.70    6.40
   8  16  -2    1.20    5.20
  -8  16   2    1.10    5.00
   8  16  -2    5.60    5.70
   7  16  -2   55.19   10.60
   7  16  -2   73.49   12.20
  -7  16   2   82.99   12.60
   6  16  -2   12.70    6.70
   6  16  -2    4.80    4.70
  -6  16   2   29.00    8.60
   5  16  -2   90.59   12.60
   5  16  -2   81.29   12.20
  -5  16   2  111.19   14.40
   4  16  -2   34.80    8.20
  -4  16   2   17.40    6.80
   4  16  -2   43.10    9.50
   3  16  -2   33.20    8.90
  -3  16   2   35.40    8.90
   3  16  -2   27.30    7.60
   2  16  -2  107.29   12.60
   2  16  -2  126.99   15.20
  -2  16   2  105.49   14.00
  -1  16   2    0.70    4.80
   1  16  -2   -1.80    4.40
  -1  16   2   -3.40    3.00
   1  16  -2    1.20    3.40
   0  16   2   19.70    7.20
   0  16  -2   16.40    6.70
   0  16   2   40.60    7.50
   1  16   2   67.49   11.00
  -1  16  -2   63.99   11.00
   2  16   2   -1.90    4.40
   2  16   2    0.90    3.80
  -2  16  -2    7.00    5.70
   3  16   2   24.30    7.70
  -3  16  -2   27.10    8.20
   3  16   2   39.90    8.40
   4  16   2   -1.00    4.00
  -4  16  -2    8.60    6.30
   4  16   2    4.50    5.30
   5  16   2  124.69   14.60
   5  16   2  111.99   14.50
  -5  16  -2  104.49   14.20
   6  16   2   -2.90    4.50
   6  16   2   -0.20    5.10
  -6  16  -2   -2.20    3.90
   7  16   2  123.09   15.20
   7  16   2   89.99   13.20
  -7  16  -2  122.89   15.30
   8  16   2    8.30    6.20
  -8  16  -2   -0.10    5.90
   8  16   2   -3.10    5.70
   9 -16   2   -0.90    5.10
   9  16   2    3.80    6.10
   9  16   2   -0.90    5.00
  -9  16  -2   -0.40    6.20
   9  17  -2   24.70    9.10
  -9  17   2   16.40    7.60
   9  17  -2   35.10    9.90
   8  17  -2    4.10    5.90
  -8  17   2    1.60    5.30
   8  17  -2    1.00    5.00
   7  17  -2    3.00    6.60
  -7  17   2    5.40    5.70
   7  17  -2    1.30    5.30
   6  17  -2    9.20    7.10
  -6  17   2   -1.80    5.20
   6  17  -2    0.80    5.00
   5  17  -2    9.50    6.00
   5  17  -2    7.60    5.50
  -5  17   2   12.70    7.20
  -4  17   2    5.30    5.90
   4  17  -2    0.60    4.70
   4  17  -2   -0.10    3.90
  -3  17   2   71.89   12.30
   3  17  -2   56.69   10.80
   3  17  -2   73.99   11.80
  -2  17   2    1.20    5.00
   2  17  -2   -1.80    3.60
   2  17  -2    7.60    5.90
   1  17  -2  138.79   14.60
  -1  17   2  142.79   16.50
  -1  17   2  124.59   12.50
   1  17  -2  139.49   16.70
   0  17   2    0.10    4.60
   0  17   2    5.50    5.60
   0  17  -2   -2.50    4.60
   1  17   2    2.90    3.50
   1  17   2    2.60    5.40
  -1  17  -2    4.30    5.70
  -2  17  -2   41.80   10.10
   2  17   2   59.29    9.90
   2  17   2   41.70    9.80
   3  17   2   44.60    9.20
   3  17   2   49.50   10.20
  -3  17  -2   61.99   11.80
  -4  17  -2   11.10    6.80
   4  17   2   12.80    6.80
   4  17   2   11.80    6.00
  -5  17  -2   19.90    7.50
   5  17   2   -1.10    5.00
   5  17   2   11.90    7.10
   6  17   2   15.40    6.10
  -6  17  -2   34.60    9.50
   6  17   2   19.70    7.60
  -7  17  -2    2.70    5.50
   7  17   2    9.20    6.70
   7  17   2    1.70    5.20
   8  17   2    1.60    5.90
  -8  17  -2   -4.40    5.30
   7  18  -2    7.40    7.10
  -7  18   2   14.60    7.40
   7  18  -2   16.20    7.90
   6  18  -2   17.10    7.80
   6  18  -2   17.90    7.30
  -6  18   2   23.50    8.70
   5  18  -2   16.60    7.20
  -5  18   2   13.70    6.60
   5  18  -2   15.30    6.80
   4  18  -2    1.90    5.70
   4  18  -2   -9.40    3.30
  -4  18   2    3.20    5.80
  -3  18   2    0.00    5.40
   3  18  -2   -1.60    4.10
   3  18  -2   -3.50    5.00
  -2  18   2   17.20    7.00
   2  18  -2   -3.20    5.90
   2  18  -2   10.40    5.50
  -1  18   2   17.80    7.00
   1  18  -2   18.00    7.00
   0  18  -2    4.40    5.90
   0  18   2   -1.20    4.90
   1  18   2   -1.20    4.30
   1  18   2   -0.10    5.60
  -1  18  -2    9.20    7.00
  -2  18  -2   69.69   12.80
   2  18   2   79.19   11.50
   2  18   2   59.39   12.10
   3  18   2   24.80    8.20
   3  18   2   28.30    7.80
  -3  18  -2   16.60    7.70
   4  18   2   20.70    7.20
   4  18   2   41.50   10.00
  -4  18  -2   19.20    8.00
   5  18   2   65.79   12.80
  -5  18  -2   96.79   14.70
   5  18   2   61.99   11.70
   6  18   2    3.80    5.50
   6  18   2    8.50    7.40
  -6  18  -2    8.70    6.60
   4  19  -2   -6.00    5.10
  -4  19   2   -1.90    5.60
   4  19  -2   -1.90    5.50
  -3  19   2    5.50    6.90
   3  19  -2   -1.90    4.60
   3  19  -2   10.40    8.00
   2  19  -2    6.20    6.10
  -2  19   2    4.50    6.40
   2  19  -2    4.50    5.70
   1  19  -2   12.00    7.70
  -1  19   2   11.20    7.20
   0  19   2   11.80    8.50
   0  19  -2    6.80    6.50
  -1  19  -2    7.60    7.10
   1  19   2   11.50    8.40
   2  19   2    5.10    6.30
   2  19   2   -4.90    4.90
  -2  19  -2    4.10    6.40
  -3  19  -2   10.50    7.70
   3  19   2    5.10    7.50
   3  19   2   14.80    6.60
  18   0  -3   -0.80    5.40
  18   0  -3    2.80    5.20
  17   0  -3    8.40    6.30
  17   0  -3   15.70    6.60
  16   0  -3    4.70    4.50
  16   0  -3    4.20    5.00
  15   0  -3   36.60    8.70
  15   0  -3   54.09    8.60
  14   0  -3    0.50    4.20
  14   0  -3    5.10    4.20
  13   0  -3   57.79    8.90
  13   0  -3   38.30    7.00
  12   0  -3   -1.00    3.10
  12   0  -3    3.20    3.20
  11   0  -3    2.00    3.10
  11   0  -3    2.50    3.30
 -11   0   3    1.60    2.00
  10   0  -3   -5.20    2.20
 -10   0   3    0.00    1.70
  10   0  -3    2.30    3.10
  -9   0   3  166.48    8.70
   9   0  -3  172.08   11.00
   9   0  -3  155.98    9.50
  -8   0   3    2.70    1.90
   8   0  -3    1.50    2.10
   8   0  -3   -2.30    2.20
  -7   0   3   15.70    3.00
   7   0  -3   21.30    3.40
   7   0  -3   19.20    3.90
   6   0  -3   -3.30    1.10
  -6   0   3    0.10    1.60
   6   0  -3    1.30    1.40
  -5   0   3    3.10    1.70
   5   0  -3    3.40    1.60
   5   0  -3    3.70    2.00
  -4   0   3   -0.50    1.30
   4   0  -3   -0.80    1.10
   4   0  -3   -0.30    1.40
  -3   0   3 4055.19  129.09
   3   0  -3 4125.59  129.09
   3   0  -3 4118.09  127.79
  -2   0   3    0.10    1.50
   2   0  -3    0.40    1.30
  -1   0   3 7704.93  239.18
   0   0   3   -0.80    1.20
   1   0   3  771.32   26.30
   1   0   3  761.52   25.70
   2   0   3    1.40    1.50
   2   0   3   -0.20    1.00
   3   0   3    8.40    2.50
   3   0   3    8.50    1.60
   4   0   3    0.20    1.60
   4   0   3    0.50    0.80
   5   0   3   17.40    3.80
   5   0   3   21.30    1.50
   6   0   3    1.30    2.20
   7   0   3    3.70    2.80
   8   0   3   -0.90    2.40
   9   0   3  518.55   23.70
  10   0   3    0.90    3.20
  11   0   3  411.56   21.80
  12   0   3    0.90    3.80
  13   0   3    6.00    4.70
  14   0   3   -2.70    4.10
  15   0   3  134.09   15.60
  16   0   3    5.20    6.90
  18  -1  -3   -0.70    5.30
  18   1  -3    5.40    5.50
  18   1  -3   10.40    6.10
  17  -1  -3   56.09    9.60
  17  -1  -3   26.70    8.00
  17   1  -3   26.80    7.90
  17   1  -3   27.20    8.30
  16  -1  -3    1.10    4.80
  16  -1  -3   10.40    5.50
  16   1  -3   11.80    6.10
  16   1  -3   -3.10    4.40
  15  -1  -3  141.59   15.40
  15  -1  -3  153.58   14.10
  15   1  -3  173.58   16.60
  15   1  -3  209.08   14.70
  14  -1  -3   93.59   10.50
  14  -1  -3  102.39   12.50
  14   1  -3  107.39   11.30
  14   1  -3   83.09   10.90
  13  -1  -3  116.99   11.30
  13  -1  -3  148.89   14.40
  13   1  -3  110.39   11.30
  13   1  -3  133.49   13.50
  12  -1  -3   18.80    4.60
  12  -1  -3   22.90    6.10
  12   1  -3   15.90    4.70
 -12   1   3   21.20    4.10
  12   1  -3   19.00    5.30
  11  -1  -3   56.99    7.00
  11  -1  -3   51.49    7.70
 -11  -1   3   51.89    5.50
 -11   1   3   59.79    5.80
  11   1  -3   60.29    8.20
  11   1  -3   71.79    8.10
 -10  -1   3  160.98    8.80
  10  -1  -3  135.09   12.30
  10  -1  -3  179.58   10.10
 -10   1   3  154.58    8.60
  10   1  -3  181.08   10.80
  10   1  -3  157.38   11.00
  -9  -1   3  283.47   12.40
   9  -1  -3  271.57   15.00
   9  -1  -3  262.67   12.90
   9   1  -3  274.37   14.50
  -9   1   3  269.17   12.30
   9   1  -3  274.77   13.80
   8  -1  -3  237.08   11.60
   8  -1  -3  244.98   13.60
  -8  -1   3  263.97   11.70
   8   1  -3  248.38   12.40
   8   1  -3  252.97   13.10
  -8   1   3  268.67   11.70
  -7  -1   3  858.01   31.10
   7  -1  -3  913.01   31.00
   7  -1  -3  872.81   33.00
   7   1  -3  881.91   31.80
  -7   1   3  890.91   31.10
   7   1  -3  884.51   32.50
   6  -1  -3  135.69    8.30
   6  -1  -3  133.79    6.70
  -6  -1   3  145.19    7.50
   6   1  -3  121.39    7.80
   6   1  -3  121.29    7.20
  -6   1   3  138.39    7.40
   5  -1  -3  504.05   17.30
   5  -1  -3  482.75   19.20
   5   1  -3  477.85   18.70
   5   1  -3  470.05   18.10
   4  -1  -3 2376.96   77.19
  -4  -1   3 2452.85   76.69
   4  -1  -3 2405.26   74.99
   4   1  -3 2354.76   76.69
  -4   1   3 2430.76   76.69
   4   1  -3 2291.67   76.09
  -3  -1   3    3.90    1.90
   3  -1  -3   10.70    2.50
   3  -1  -3    8.40    1.30
   3   1  -3    7.90    2.00
  -3   1   3    5.10    1.90
   3   1  -3    6.40    1.70
  -2  -1   3   -0.20    1.50
   2  -1  -3   -1.80    1.30
  -2   1   3    1.30    1.60
   2   1  -3    0.30    1.20
   2   1  -3    0.60    1.30
  -1  -1   3  771.12   26.70
  -1   1   3  789.02   26.70
   0  -1   3  600.24   20.70
   0   1   3  589.94   20.60
   0   1   3  582.64   20.20
   1  -1   3  125.99    5.90
   1   1   3  123.49    5.90
   1   1   3  125.79    6.20
   2  -1   3  281.37   11.80
   2  -1   3  288.57   10.60
   2   1   3  271.27   10.40
   2   1   3  264.27   11.50
   3  -1   3    5.70    2.10
   3  -1   3    7.60    1.50
   3   1   3    2.80    1.90
   3   1   3    7.20    1.40
   4  -1   3  439.46   18.00
   4  -1   3  439.26   15.40
   4   1   3  456.15   15.20
   4   1   3  445.16   18.10
   5  -1   3   33.90    4.60
   5  -1   3   28.40    2.40
   5   1   3   27.20    1.90
   5   1   3   26.60    4.30
   6  -1   3  154.28    5.60
   6  -1   3  169.48    9.80
   6   1   3  140.39    9.40
   7  -1   3  243.98   13.10
   7   1   3  246.68   13.40
   8  -1   3   25.80    5.00
   8   1   3   23.20    5.20
   9  -1   3   81.29    9.30
   9   1   3   75.49    9.10
  10  -1   3   21.60    5.40
  10   1   3   17.20    5.50
  11  -1   3   -0.80    3.80
  11   1   3    0.50    3.60
  12  -1   3   29.90    7.00
  12   1   3   30.90    7.40
  13  -1   3   51.59    9.40
  13   1   3   47.30    8.80
  14  -1   3   13.00    6.50
  14   1   3   20.60    7.00
  15  -1   3   90.69   12.50
  15   1   3   92.39   13.50
  16  -1   3    0.70    6.50
  16   1   3    2.40    6.60
  18  -2  -3   10.50    6.60
  18   2  -3    4.90    6.00
  18   2  -3   19.00    7.20
  17  -2  -3   35.50    9.20
  17   2  -3   29.50    8.40
  17   2  -3   36.30    9.30
  16  -2  -3   18.90    6.40
  16  -2  -3   14.20    6.70
  16   2  -3   11.60    5.40
  16   2  -3   20.30    6.80
  15  -2  -3   18.20    5.50
  15  -2  -3   20.70    7.20
  15   2  -3    9.60    5.40
  15   2  -3    9.20    4.80
  14  -2  -3   53.09    7.90
  14  -2  -3   50.99    8.90
  14   2  -3   44.40    8.60
  14   2  -3   42.40    7.80
  13  -2  -3  316.47   19.60
  13  -2  -3  317.27   17.10
  13   2  -3  331.57   19.10
  13   2  -3  360.96   19.10
  12  -2  -3  151.58   13.90
  12  -2  -3  145.19   10.10
  12   2  -3  146.79   13.20
  12   2  -3  157.38   13.40
 -12   2   3  134.69    8.20
 -11  -2   3  263.57   12.20
  11  -2  -3  257.87   13.30
  11  -2  -3  263.87   16.10
  11   2  -3  251.47   14.50
 -11   2   3  249.88   12.00
  11   2  -3  237.08   14.60
  10  -2  -3   97.99   10.10
 -10  -2   3  101.89    7.00
  10  -2  -3  102.29    7.50
  10   2  -3  105.19   10.10
 -10   2   3  104.29    6.90
  10   2  -3  107.29    9.80
   9  -2  -3  144.69    8.10
  -9  -2   3  114.09    7.50
   9  -2  -3  118.59   10.80
   9   2  -3  133.59    9.10
   9   2  -3  124.09    9.00
  -9   2   3  123.99    7.50
   8  -2  -3   34.30    5.60
  -8  -2   3   28.30    4.10
   8  -2  -3   32.30    4.00
   8   2  -3   36.10    5.10
   8   2  -3   42.60    5.50
  -8   2   3   26.60    4.00
   7  -2  -3  196.88   11.10
  -7  -2   3  198.38    9.50
   7  -2  -3  178.08    8.50
   7   2  -3  186.68   10.20
   7   2  -3  171.38    9.80
  -7   2   3  179.58    9.20
   6  -2  -3  386.76   16.70
  -6  -2   3  337.47   14.80
   6  -2  -3  368.46   13.80
  -6   2   3  369.26   15.10
   6   2  -3  395.36   15.60
   6   2  -3  357.16   15.50
   5  -2  -3   12.60    1.80
   5  -2  -3    9.10    2.80
   5   2  -3    1.90    1.20
   5   2  -3    7.20    2.20
  -4  -2   3   60.99    4.60
   4  -2  -3   55.49    5.40
   4  -2  -3   50.69    2.70
   4   2  -3   51.49    4.80
  -4   2   3   62.09    4.50
  -3  -2   3 3573.24  112.29
   3  -2  -3 3471.15  112.39
   3   2  -3 3563.64  111.99
  -3   2   3 3559.34  112.29
  -2  -2   3   19.60    3.20
   2  -2  -3   44.80    4.10
  -2   2   3   29.00    3.60
  -2   2   3   30.50    1.70
   2   2  -3   29.90    3.40
   1  -2  -3  454.55   16.60
  -1  -2   3  464.35   17.00
  -1   2   3  437.26   16.80
  -1   2   3  461.75   15.40
   0  -2   3  134.99    6.80
   0   2   3  134.99    6.70
   1  -2   3 1740.33   55.99
   1   2   3 1704.43   55.79
   1   2   3 1749.43   55.89
   2  -2   3   85.39    4.90
   2   2   3  102.89    5.90
   2   2   3   95.19    5.00
   3  -2   3  372.96   13.50
   3  -2   3  351.96   14.80
   3   2   3  359.76   13.20
   3   2   3  344.17   14.90
   4  -2   3  565.04   21.50
   4  -2   3  551.94   19.30
   4   2   3  535.55   21.60
   4   2   3  557.44   19.00
   5  -2   3   40.00    2.90
   5  -2   3   36.70    4.80
   5   2   3   36.40    5.10
   5   2   3   34.20    2.60
   6  -2   3  239.88    9.40
   6  -2   3  245.88   12.70
   6   2   3  248.58    8.80
   6   2   3  246.58   13.10
   7  -2   3  203.28    7.90
   7  -2   3  207.08   11.90
   7   2   3  238.28   12.90
   8  -2   3   18.10    4.30
   8   2   3   12.30    4.40
   9  -2   3   51.09    7.20
   9   2   3   56.69    8.00
  10  -2   3   14.40    4.80
  10   2   3   11.50    4.60
  11  -2   3  781.12   33.20
  11   2   3  767.22   33.90
  12  -2   3   47.90    8.30
  12   2   3   59.89    9.70
  13  -2   3  382.06   21.70
  13   2   3  366.06   22.10
  14  -2   3   27.90    7.30
  14   2   3   15.00    6.70
  15  -2   3    1.40    4.90
  15   2   3   -0.70    5.00
  16  -2   3    3.50    5.40
  16   2   3   -3.20    6.20
  17  -3  -3   10.50    6.30
  17   3  -3   19.80    7.70
  17   3  -3   22.80    7.60
  16  -3  -3   45.40   10.10
  16   3  -3   44.40    9.20
  16   3  -3   34.00    8.30
  15  -3  -3  247.38   15.50
  15  -3  -3  249.38   18.50
  15   3  -3  241.18   16.90
  15   3  -3  234.18   16.60
  14  -3  -3  121.49   11.50
  14  -3  -3  136.09   14.60
  14   3  -3  112.59   12.70
  14   3  -3  115.69   12.90
  13  -3  -3   57.79    7.50
  13  -3  -3   49.30    8.90
  13   3  -3   50.49    8.30
  13   3  -3   43.10    8.10
  12  -3  -3   22.80    5.00
  12  -3  -3   15.70    5.40
  12   3  -3   18.70    5.70
 -12   3   3   27.20    4.40
  12   3  -3   17.10    5.40
  11  -3  -3   62.49    8.80
 -11  -3   3   61.39    6.30
  11  -3  -3   54.99    6.30
  11   3  -3   59.39    7.60
  11   3  -3   59.09    7.80
 -11   3   3   50.49    5.90
 -10  -3   3   19.00    3.70
  10  -3  -3   16.20    4.90
  10  -3  -3   16.40    3.60
  10   3  -3   18.90    4.50
 -10   3   3   14.80    3.40
  10   3  -3   13.20    4.30
   9  -3  -3    8.60    4.10
   9  -3  -3    5.20    2.40
  -9  -3   3   12.00    3.10
  -9   3   3   11.10    3.00
   9   3  -3    4.10    3.00
   9   3  -3   10.10    3.50
   8  -3  -3   46.70    6.60
  -8  -3   3   65.99    6.00
   8  -3  -3   46.80    4.60
   8   3  -3   54.49    6.50
  -8   3   3   47.70    5.30
   7  -3  -3  904.71   31.30
  -7  -3   3  946.71   33.10
   7  -3  -3  945.01   35.10
  -7   3   3  924.71   33.00
   7   3  -3  919.91   34.20
   6  -3  -3  229.78    9.20
   6  -3  -3  227.28   12.10
  -6  -3   3  246.08   11.10
   6   3  -3  225.98   10.70
   6   3  -3  226.28   11.60
   5  -3  -3 2712.63   83.49
   5  -3  -3 2664.63   87.39
   5   3  -3 2658.93   85.59
   5   3  -3 2681.03   86.89
  -5   3   3 2649.73   86.39
  -4  -3   3  338.17   13.50
   4  -3  -3  305.07   10.20
   4  -3  -3  296.37   13.50
   4   3  -3  305.27   12.20
  -4   3   3  315.27   13.30
   4   3  -3  328.47   13.50
   3  -3  -3 2539.35   81.29
  -3  -3   3 2478.95   81.29
  -3   3   3 2462.75   81.29
   3   3  -3 2494.05   81.19
   3   3  -3 2626.84   79.89
   2  -3  -3 3838.02  123.39
  -2  -3   3 4102.19  124.19
  -2   3   3 3853.51  123.69
  -2   3   3 3924.91  120.79
   2   3  -3 3819.12  123.49
  -1  -3   3    4.00    1.90
   1  -3  -3   -0.80    1.10
   1   3  -3    0.60    1.50
  -1   3   3    2.00    1.70
  -1   3   3    0.90    1.00
   0  -3   3 9791.42  294.07
   0   3   3 8586.14  292.47
   0   3   3 9999.00  294.07
   1  -3   3  177.38    8.40
   1   3   3  167.38    7.90
   1   3   3  168.48    8.20
   2  -3   3   32.90    3.70
   2   3   3   41.80    4.00
   2   3   3   38.30    4.20
   3  -3   3 1028.40   36.30
  -3   3  -3 1091.99   36.50
   3   3   3 1110.39   37.90
   3   3   3 1103.49   36.20
   4  -3   3 1132.49   40.80
   4  -3   3 1184.48   39.20
   4   3   3 1184.68   41.50
   4   3   3 1184.48   38.80
   5  -3   3   39.60    3.90
   5  -3   3   42.10    5.20
   5   3   3   51.19    6.10
   5   3   3   44.80    3.80
   6  -3   3  859.31   32.20
   6  -3   3  852.91   29.00
   6   3   3  879.01   33.00
   6   3   3  831.12   28.30
   7  -3   3  231.28   12.80
   7  -3   3  254.87   10.00
   7   3   3  232.08    9.10
   7   3   3  240.38   13.60
  -8  -3  -3    3.50    1.00
   8  -3   3    5.40    1.70
   8  -3   3    6.90    3.60
   8   3   3   10.70    4.10
   9  -3   3   27.00    5.40
   9   3   3   28.50    5.90
  10  -3   3   35.10    6.50
  10   3   3   29.70    6.80
  11  -3   3   19.60    5.50
  11   3   3   17.50    6.00
  12  -3   3  238.98   15.70
  12   3   3  222.58   16.30
  13  -3   3   18.40    6.30
  13   3   3   23.00    7.10
  14  -3   3   25.60    7.70
  14   3   3   18.60    7.20
  15  -3   3  101.99   13.10
  15   3   3  109.49   14.20
  16  -3   3    5.40    6.20
  16  -3   3   -2.20    5.10
  16   3   3   -6.80    5.00
  17  -4  -3   -6.30    4.20
  17   4  -3   -1.10    5.60
  17   4  -3   -0.70    4.80
  16  -4  -3   77.59   12.60
  16   4  -3  112.99   13.40
  16   4  -3   78.09   11.60
  15  -4  -3   14.70    6.70
  15   4  -3   18.50    6.10
  15   4  -3   24.50    7.10
  14  -4  -3   19.00    5.10
  14  -4  -3    6.10    5.70
  14   4  -3   -0.50    3.70
  14   4  -3    2.20    4.30
  13  -4  -3   46.10    8.70
  13  -4  -3   39.10    6.20
  13   4  -3   34.80    7.00
  13   4  -3   38.00    7.10
  12  -4  -3   21.50    4.70
 -12  -4   3   13.30    4.60
  12  -4  -3   11.00    5.10
 -12   4   3   16.20    3.90
  12   4  -3   16.20    5.20
  12   4  -3   17.80    5.00
  11  -4  -3  343.77   15.70
  11  -4  -3  322.97   19.00
 -11  -4   3  340.47   15.50
  11   4  -3  344.17   18.30
 -11   4   3  342.67   15.70
 -10  -4   3   18.50    3.90
  10  -4  -3   11.90    3.30
  10  -4  -3   16.40    5.20
 -10   4   3   18.40    3.80
  10   4  -3    8.90    3.80
   9  -4  -3  335.07   14.20
  -9  -4   3  323.97   15.20
   9  -4  -3  376.86   18.50
  -9   4   3  347.47   15.40
   9   4  -3  332.77   17.00
   9   4  -3  320.87   15.70
   8  -4  -3  706.03   25.60
   8  -4  -3  774.02   30.30
  -8  -4   3  715.73   27.40
   8   4  -3  743.33   29.30
   8   4  -3  743.73   27.80
  -8   4   3  713.93   27.50
   7  -4  -3    4.80    1.80
   7  -4  -3    2.70    2.60
  -7  -4   3    9.80    2.90
   7   4  -3    0.90    2.20
  -7   4   3    7.80    2.60
   7   4  -3    2.10    2.20
   6  -4  -3   22.30    2.40
   6  -4  -3   27.70    4.70
  -6   4   3   17.80    3.70
   6   4  -3   28.20    3.80
   6   4  -3   18.60    4.00
   5  -4  -3  788.12   30.00
  -5  -4   3  844.22   29.60
   5  -4  -3  793.62   25.90
   5   4  -3  801.42   29.80
   5   4  -3  796.82   27.80
  -5   4   3  811.22   29.50
   4  -4  -3  531.45   17.00
  -4  -4   3  534.55   20.80
   4  -4  -3  542.05   21.10
  -4   4   3  541.35   21.00
   4   4  -3  539.75   19.00
   4   4  -3  542.45   21.10
   3  -4  -3  333.27   14.30
  -3  -4   3  367.56   14.90
  -3   4   3  330.27   14.60
   3   4  -3  343.37   14.60
  -2  -4   3  736.83   28.40
   2  -4  -3  800.92   27.90
  -2   4   3  781.62   28.60
   2   4  -3  779.92   28.50
  -2   4   3  812.22   25.60
   2   4  -3  828.72   28.60
   1  -4  -3  199.98    9.10
   1   4  -3  200.88    9.80
  -1   4   3  215.38   10.10
  -1   4   3  221.08    8.40
   1   4  -3  199.88   10.00
   0   4   3  638.34   22.50
   0   4  -3  653.63   24.00
   0   4   3  649.83   23.80
   1   4   3 1398.86   46.80
   1   4   3 1390.66   46.40
  -1   4  -3 1400.86   47.10
  -2   4  -3  580.64   21.80
   2   4   3  570.94   21.80
   2   4   3  594.04   21.60
   3   4   3  827.52   30.30
  -3   4  -3  837.22   29.50
   3   4   3  829.32   29.10
   4   4   3  349.47   13.80
  -4   4  -3  344.87   14.20
   4   4   3  328.67   15.40
   5  -4   3  844.52   31.10
  -5   4  -3  814.32   29.30
   5   4   3  881.51   32.30
   5   4   3  807.72   28.80
   6  -4   3   56.59    6.50
   6   4   3   47.50    4.40
  -6   4  -3   48.60    4.80
   6   4   3   59.09    7.20
   7  -4   3   19.60    4.20
   7   4   3   25.40    5.30
   7   4   3   18.20    2.80
  -7   4  -3   20.80    3.20
   8  -4   3   18.10    2.90
   8  -4   3   25.70    5.00
   8   4   3   13.30    4.50
   8   4   3   16.40    2.50
   9  -4   3  162.88   11.40
   9  -4   3  176.08   10.90
   9   4   3  150.08   13.40
  10  -4   3   57.29    8.00
  10   4   3   58.89    8.90
  11  -4   3    7.10    4.30
  11   4   3   -0.10    3.80
  12  -4   3    9.20    4.90
  12   4   3    8.60    5.50
  13  -4   3    2.60    4.70
  13   4   3    2.00    5.00
  14  -4   3    4.30    5.20
  14   4   3   13.40    7.10
  15  -4   3   -1.00    4.40
  15   4   3    8.60    6.00
  17  -5  -3   37.70    9.80
  17   5  -3   46.00   10.10
  17   5  -3   19.80    7.30
  16  -5  -3   23.90    8.40
  16   5  -3   25.80    8.30
  16   5  -3   15.90    6.50
  15  -5  -3    1.30    5.00
  15   5  -3    1.70    5.10
  15   5  -3   -5.50    3.80
  14  -5  -3    8.10    5.70
  14   5  -3    6.70    4.60
  14   5  -3    1.30    3.30
  13  -5  -3   58.49    9.90
  13  -5  -3   73.49    8.10
  13   5  -3   26.10    5.50
  13   5  -3   47.90    8.20
  12  -5  -3   53.09    6.70
  12  -5  -3   72.69   10.40
 -12  -5   3   68.99    8.30
  12   5  -3   71.29    8.70
  12   5  -3   77.19   10.20
 -12   5   3   70.79    7.60
 -11  -5   3   22.70    4.70
  11  -5  -3   19.70    4.00
  11  -5  -3   16.10    5.70
  11   5  -3   17.60    5.50
 -11   5   3   12.60    3.90
  11   5  -3    6.60    3.80
  10  -5  -3  132.59    7.90
  10  -5  -3  153.48   13.50
 -10  -5   3  117.49    8.60
  10   5  -3  139.99    9.50
 -10   5   3  129.49    9.00
  10   5  -3  155.78   13.00
  -9  -5   3  491.35   19.80
   9  -5  -3  448.96   17.80
   9  -5  -3  473.25   22.40
   9   5  -3  431.16   21.20
   9   5  -3  438.96   19.50
  -9   5   3  471.95   19.90
   8  -5  -3   15.70    2.70
  -8  -5   3   11.70    3.50
   8  -5  -3   15.10    4.50
   8   5  -3   18.30    4.50
  -8   5   3   11.50    3.20
   8   5  -3   19.20    3.60
  -7  -5   3 2115.69   74.09
   7  -5  -3 2234.68   71.09
   7  -5  -3 2284.77   76.29
   7   5  -3 2202.38   72.89
   7   5  -3 2354.96   76.29
   6  -5  -3  118.09    5.20
  -6  -5   3   96.69    7.30
   6  -5  -3  122.19    8.60
  -6   5   3  117.39    7.90
   6   5  -3  112.89    6.50
   6   5  -3  112.19    8.30
   5  -5  -3   20.10    3.90
   5  -5  -3   11.10    1.40
  -5  -5   3   10.50    2.90
   5   5  -3    8.60    3.00
  -5   5   3   13.60    3.50
   5   5  -3   13.50    2.40
  -4  -5   3    3.40    2.20
   4  -5  -3    1.30    2.00
   4   5  -3   -1.00    1.80
   4   5  -3    1.20    1.10
  -4   5   3    3.70    2.40
   3  -5  -3   24.10    3.70
   3   5  -3   23.30    3.80
   3   5  -3   23.40    3.90
  -3   5   3   30.10    4.40
   2  -5  -3  647.04   23.60
  -2   5   3  642.14   24.60
   2   5  -3  680.63   25.00
   2   5  -3  634.34   24.30
  -2   5   3  633.04   21.60
   1  -5  -3  204.48    9.00
   1   5  -3  195.68    9.90
   1   5  -3  188.88   10.10
  -1   5   3  181.88    9.80
  -1   5   3  191.78    8.20
   0   5   3   14.90    2.70
   0   5  -3   20.10    3.70
   0   5   3   12.30    3.00
  -1   5  -3   34.80    4.60
   1   5   3   48.50    4.80
   1   5   3   45.80    5.00
  -2   5  -3   13.30    3.00
   2   5   3   11.60    3.00
   2   5   3   15.90    3.30
   3   5   3 1327.17   45.20
   3   5   3 1329.57   46.20
   4   5   3   40.10    4.70
   4   5   3   52.09    6.20
  -4   5  -3   54.89    5.60
   5  -5   3  594.04   24.00
   5   5   3  604.34   22.60
  -5   5  -3  611.94   23.20
   5   5   3  613.64   25.20
   6  -5   3   37.30    5.30
   6   5   3   36.90    6.10
  -6   5  -3   41.10    5.00
   6   5   3   45.80    4.80
   7  -5   3   16.20    4.00
   7   5   3   11.10    2.80
  -7   5  -3   12.80    3.10
   7   5   3    7.80    3.90
   8  -5   3  228.78   12.90
   8   5   3  222.08   14.00
  -8   5  -3  201.58   10.30
   8   5   3  210.98    9.80
   9  -5   3   30.30    5.70
   9   5   3   29.00    6.30
  10  -5   3  254.57   15.10
  10   5   3  241.88   16.20
  11  -5   3   -1.10    3.10
  11   5   3   -0.10    3.80
  12  -5   3  228.68   15.10
  12   5   3  182.38   17.00
  13  -5   3   27.60    6.80
  13   5   3   48.60    9.80
  14  -5   3   21.30    7.20
  14   5   3   25.90    7.70
  15  -5   3   79.79   12.10
  15   5   3  102.49   14.50
  17  -6  -3    1.40    5.60
  17   6  -3   -1.80    5.00
  16  -6  -3   36.30    9.10
  16   6  -3   36.70    8.60
  16   6  -3   39.30    8.80
  15  -6  -3   42.80   10.10
  15   6  -3   36.40    8.80
  15   6  -3   48.50    8.20
  14  -6  -3   -1.80    4.40
  14   6  -3   -3.80    4.10
  14   6  -3   -1.30    4.40
  13  -6  -3  124.19   14.20
  13   6  -3  120.39   11.80
  13   6  -3  108.69   12.70
 -12  -6   3  122.09    9.00
  12  -6  -3  111.79    9.10
  12  -6  -3  102.89   12.30
  12   6  -3   99.89   11.50
  12   6  -3  111.99   10.70
 -12   6   3  104.49   10.00
  11  -6  -3   90.09   11.20
 -11  -6   3  106.49    9.20
  11  -6  -3   94.19    7.80
  11   6  -3  106.99    9.80
 -11   6   3   92.49    9.10
  11   6  -3  100.29   11.40
  10  -6  -3   49.20    5.30
  10  -6  -3   61.49    8.70
 -10  -6   3   64.29    7.30
  10   6  -3   47.70    7.60
 -10   6   3   68.19    7.60
  10   6  -3   56.79    6.90
   9  -6  -3  155.68   13.50
  -9  -6   3  138.19    9.40
   9  -6  -3  134.39    7.40
   9   6  -3  130.89   12.00
  -9   6   3  142.39    9.50
   9   6  -3  127.19    8.60
   8  -6  -3   34.10    3.60
   8  -6  -3   28.60    5.70
  -8  -6   3   25.30    4.70
   8   6  -3   40.80    5.00
   8   6  -3   28.30    5.50
   7  -6  -3    3.00    1.50
   7  -6  -3    2.30    2.70
  -7  -6   3   -1.30    1.40
   7   6  -3   -0.80    2.20
   7   6  -3    7.50    2.50
  -7   6   3   15.00    3.80
   6  -6  -3   -1.20    2.50
  -6  -6   3    2.80    2.70
   6  -6  -3    2.30    1.10
   6   6  -3   -0.30    2.20
   6   6  -3    1.40    1.50
  -6   6   3    0.90    2.20
   5  -6  -3   18.00    1.90
   5  -6  -3   22.00    4.20
  -5  -6   3   18.10    3.90
   5   6  -3   19.40    2.50
  -5   6   3   21.80    4.20
   5   6  -3   11.20    3.60
   4  -6  -3  274.47   13.40
   4   6  -3  299.37   14.10
  -4   6   3  298.97   14.20
   4   6  -3  261.27   13.60
   3  -6  -3  162.28    8.90
   3   6  -3  162.98    9.70
   3   6  -3  183.08   10.20
  -3   6   3  149.99    9.60
  -3   6   3  171.68    6.80
   2  -6  -3  199.18    9.70
   2   6  -3  192.08   10.50
  -2   6   3  198.98   10.90
  -2   6   3  207.88    8.40
   2   6  -3  198.38   11.00
   1  -6  -3    3.70    1.80
  -1   6   3    3.20    2.30
   1   6  -3    1.00    1.90
   1   6  -3    5.30    2.60
  -1   6   3   10.80    2.20
   0   6  -3   59.29    6.30
   0   6   3   66.49    6.60
   0   6   3   55.79    5.10
  -1   6  -3  126.49    8.20
   1   6   3  122.39    7.30
   1   6   3  117.59    7.80
   2   6   3    2.70    2.30
  -2   6  -3    4.80    2.50
   2   6   3    7.70    2.70
   3   6   3  815.32   30.50
  -3   6  -3  795.92   30.20
   3   6   3  813.72   30.00
   4   6   3  344.97   16.10
   4   6   3  309.77   14.50
   5   6   3   11.20    2.90
   5   6   3    4.60    3.00
  -5   6  -3   12.30    3.40
   6  -6   3   -0.30    2.00
   6   6   3    9.60    2.90
  -6   6  -3    6.70    2.50
   6   6   3    2.20    3.00
   7  -6   3    3.70    2.60
   7   6   3    0.50    2.20
  -7   6  -3    2.90    2.30
   7   6   3    6.90    3.80
   8  -6   3   80.69    8.40
   8   6   3   76.69    6.00
  -8   6  -3   74.59    7.10
   8   6   3   83.09    9.80
   9  -6   3   44.60    6.70
  -9   6  -3   45.70    5.70
   9   6   3   49.10    8.10
  10  -6   3    7.60    3.90
  10   6   3    0.70    3.80
  11  -6   3  108.69   11.40
  11   6   3  128.59   13.60
  12  -6   3  194.38   14.10
  12   6   3  177.38   17.00
  13  -6   3   71.29   10.40
  13   6   3   75.19   11.90
  14  -6   3   -2.50    4.40
  14   6   3   -0.80    6.00
  15  -6   3    8.20    6.00
  15  -6   3   19.70    8.30
  15   6   3    2.10    6.00
  17  -7  -3   12.10    7.50
  17   7  -3    7.50    7.20
  16  -7  -3    3.30    5.80
  16   7  -3    2.90    5.30
  15  -7  -3   39.30    9.30
  15   7  -3   45.00    9.40
  14  -7  -3   -3.00    4.30
  14   7  -3   -1.00    4.00
  14   7  -3    7.20    5.00
  13  -7  -3   32.40    8.30
  13   7  -3   40.00    8.40
  13   7  -3   36.00    7.10
  12  -7  -3    6.70    4.90
 -12  -7   3    0.70    3.10
 -12   7   3    3.90    3.50
  12   7  -3    6.70    4.50
  12   7  -3    4.60    4.30
  11  -7  -3   61.69    8.60
  11  -7  -3   67.99    9.80
 -11  -7   3   55.29    7.20
 -11   7   3   60.09    7.80
  11   7  -3   47.80    6.90
  11   7  -3   48.90    8.50
  10  -7  -3  306.27   13.50
 -10  -7   3  312.47   16.00
  10  -7  -3  314.57   18.40
  10   7  -3  296.37   14.80
 -10   7   3  318.17   16.30
  10   7  -3  318.57   18.20
  -9  -7   3   92.79    9.10
   9  -7  -3   50.79    8.10
   9  -7  -3   47.70    4.70
   9   7  -3   62.39    8.50
   9   7  -3   52.49    6.00
  -9   7   3   65.59    7.90
   8  -7  -3   -0.40    2.80
   8  -7  -3    1.40    1.70
  -8  -7   3   -1.00    2.10
   8   7  -3   -0.20    2.70
  -8   7   3    2.60    2.50
   8   7  -3    0.60    2.20
   7  -7  -3  193.98    8.60
   7  -7  -3  206.88   12.70
  -7  -7   3  215.88   12.40
   7   7  -3  212.98    9.70
  -7   7   3  221.48   12.40
   7   7  -3  197.58   12.60
  -6  -7   3   70.49    7.70
   6  -7  -3   54.39    3.60
   6  -7  -3   66.89    7.60
   6   7  -3   66.49    7.70
  -6   7   3   63.39    7.30
   6   7  -3   57.29    4.10
   5  -7  -3  239.68   12.90
   5   7  -3  250.27    9.40
   5   7  -3  235.68   13.40
  -5   7   3  244.08   13.20
   5   7  -3  250.97   13.30
   4  -7  -3  703.83   28.00
  -4   7   3  749.03   29.20
   4   7  -3  751.52   29.20
   4   7  -3  747.93   29.20
   3  -7  -3   14.60    3.20
   3   7  -3   11.40    3.70
  -3   7   3    7.00    3.10
  -3   7   3   14.70    2.20
   3   7  -3    9.30    3.30
   2  -7  -3  336.57   13.80
   2   7  -3  298.87   14.70
  -2   7   3  314.97   12.40
   2   7  -3  321.67   15.50
  -2   7   3  282.27   14.90
   1  -7  -3    7.20    2.10
  -1   7   3    6.70    3.20
  -1   7   3    6.40    2.10
   1   7  -3   10.00    3.30
   1   7  -3    6.70    2.50
   0   7  -3  810.82   31.90
   0   7   3  862.41   32.10
   0   7   3  851.41   30.20
   1   7   3  495.55   21.20
  -1   7  -3  513.05   21.50
   2   7   3 1360.46   46.70
  -2   7  -3 1334.97   47.30
   2   7   3 1292.77   46.90
   3   7   3  312.27   15.30
   3   7   3  311.97   15.00
  -3   7  -3  314.77   15.40
   4   7   3  179.68   11.40
   4   7   3  187.78   10.70
  -4   7  -3  193.98   11.10
   5   7   3  153.18   10.50
  -5   7  -3  145.49    9.30
   5   7   3  136.79    9.00
   6  -7   3  566.54   23.80
   6   7   3  565.84   25.20
   6   7   3  582.04   23.10
  -6   7  -3  550.84   23.30
   7  -7   3  156.58   10.30
  -7   7  -3  133.39    9.20
   7   7   3  148.49    9.30
   7   7   3  135.79   12.70
   8  -7   3  574.14   24.90
   8   7   3  580.94   26.90
  -8   7  -3  584.84   23.80
   8   7   3  559.34   22.80
   9  -7   3    6.50    3.70
  -9   7  -3    3.30    3.00
   9   7   3   -3.50    2.90
  10  -7   3  166.88   12.10
  10   7   3  158.58   15.30
  11  -7   3   57.89    8.50
  11   7   3   58.89    9.70
  12  -7   3    2.20    3.80
  12   7   3    3.50    5.10
  13  -7   3   16.40    6.10
  13   7   3   29.60    9.00
  14  -7   3    2.80    4.50
  14   7   3   -0.10    5.50
  15  -7   3    2.50    5.70
  15  -7   3    7.00    6.10
  15   7   3   12.80    7.10
  16  -8  -3   57.99   12.10
  16   8  -3   50.59   10.30
  15  -8  -3   26.40    8.10
  15   8  -3   23.50    7.50
  14  -8  -3    3.70    5.90
  14   8  -3   -0.90    4.70
  13  -8  -3   19.50    7.10
  13   8  -3   18.40    6.40
 -12  -8   3  109.09   10.50
  12  -8  -3   54.79   10.00
 -12   8   3   86.89    9.80
  12   8  -3   69.19   10.70
  11  -8  -3   -2.40    3.50
 -11  -8   3    1.90    3.70
  11   8  -3    0.40    2.80
 -11   8   3    1.60    3.50
  11   8  -3    0.00    3.70
  10  -8  -3    6.30    4.50
 -10  -8   3    5.40    3.50
 -10   8   3    7.40    4.00
  10   8  -3    4.20    4.00
  10   8  -3    3.00    2.80
   9  -8  -3  644.54   23.50
   9  -8  -3  676.63   29.60
  -9  -8   3  664.53   27.70
   9   8  -3  635.84   24.60
   9   8  -3  635.24   29.30
   8  -8  -3  284.87   16.30
   8  -8  -3  274.07   11.50
   8   8  -3  278.17   12.30
  -8   8   3  293.87   15.60
   8   8  -3  276.27   16.20
   7  -8  -3  496.85   22.70
  -7  -8   3  491.25   22.20
   7  -8  -3  471.45   17.60
   7   8  -3  495.55   18.00
  -7   8   3  485.55   22.30
   7   8  -3  499.05   23.20
   6  -8  -3  119.89    6.00
   6  -8  -3  132.19    9.50
   6   8  -3  122.59   10.80
  -6   8   3  125.49    9.70
   6   8  -3  127.19   11.30
   6   8  -3  123.69    5.70
   5  -8  -3   36.30    5.70
   5   8  -3   35.60    5.80
  -5   8   3   38.50    6.10
   5   8  -3   45.60    6.60
   4  -8  -3    9.70    3.30
   4   8  -3    3.50    2.80
  -4   8   3    7.10    3.40
   4   8  -3    7.90    3.50
   3  -8  -3  664.13   25.60
   3   8  -3  678.13   27.20
  -3   8   3  660.43   23.50
   3   8  -3  667.13   27.60
  -3   8   3  671.93   27.60
   2  -8  -3   73.19    6.50
   2   8  -3   57.89    6.90
  -2   8   3   67.39    4.80
  -2   8   3   72.49    8.20
   2   8  -3   62.79    7.50
   1  -8  -3  281.17   12.40
  -1   8   3  280.87   12.60
  -1   8   3  294.27   15.00
   1   8  -3  276.77   14.20
   1   8  -3  308.27   15.40
   0   8  -3   67.29    7.70
   0   8   3   67.99    7.60
   0   8   3   64.89    6.30
  -1   8  -3   24.60    5.00
   1   8   3   25.00    4.90
  -2   8  -3 1261.27   45.50
   2   8   3 1220.18   45.00
   2   8   3 1237.68   44.30
   3   8   3  793.22   30.80
  -3   8  -3  776.42   30.90
   3   8   3  767.22   30.60
  -4   8  -3    2.70    2.70
   4   8   3   -1.30    2.20
   4   8   3    2.20    2.70
   5   8   3   -3.80    2.70
   5   8   3    2.00    2.80
  -5   8  -3   -1.30    2.30
  -6   8  -3    0.30    2.60
   6   8   3    5.00    3.60
   6   8   3    0.60    2.50
   7  -8   3   62.39    7.30
  -7   8  -3   57.39    7.10
   7   8   3   32.30    6.70
   7   8   3   47.10    6.50
   8  -8   3  172.88   11.70
   8   8   3  155.28   14.50
   8   8   3  179.78   10.80
  -8   8  -3  183.18   11.40
   9  -8   3   15.70    4.40
   9   8   3    8.00    4.90
  -9   8  -3    7.70    3.80
  10  -8   3   45.20    7.60
  10   8   3   54.49    9.50
  11  -8   3   14.10    5.40
  11   8   3   14.60    6.50
  12  -8   3   27.70    6.80
  12   8   3   27.00    7.60
  13  -8   3   20.00    6.10
  13   8   3   17.70    7.10
  14  -8   3    8.20    6.60
  14  -8   3   16.40    6.80
  14   8   3    6.60    6.40
  16  -9  -3   48.70   11.10
  16   9  -3   68.39   12.30
  15  -9  -3   14.50    6.70
  15   9  -3   10.30    6.70
  14  -9  -3  254.07   22.30
  14   9  -3  206.58   19.70
  13  -9  -3   64.69   10.80
  13   9  -3   62.09   10.70
 -12  -9   3  239.68   15.50
  12  -9  -3  313.17   19.60
  12   9  -3  262.17   18.20
 -12   9   3  244.08   15.60
 -11  -9   3  108.79   11.00
  11  -9  -3   89.39   11.60
 -11   9   3   92.89   10.40
  11   9  -3   91.29   11.90
  10  -9  -3   -4.80    2.90
 -10  -9   3   -1.00    2.80
 -10   9   3   -1.50    2.10
  10   9  -3   -0.50    3.30
  -9  -9   3    0.20    2.30
   9  -9  -3    3.60    4.20
   9   9  -3    3.00    3.40
  -9   9   3   21.10    5.50
   8  -9  -3   17.30    5.50
   8  -9  -3   19.60    3.10
  -8  -9   3   27.60    6.10
  -8   9   3   20.20    5.40
   8   9  -3   22.90    6.00
   7  -9  -3  173.28   12.00
  -7  -9   3  190.08   12.70
   7  -9  -3  173.98    8.30
   7   9  -3  170.88   14.60
   7   9  -3  178.98    7.70
  -7   9   3  169.58   11.90
   7   9  -3  194.48   12.40
   6  -9  -3    0.90    2.70
   6   9  -3    4.00    3.20
  -6   9   3   -1.30    2.50
   6   9  -3    2.70    3.40
   5  -9  -3  129.09    9.10
  -5   9   3  130.59   10.00
   5   9  -3  118.59   11.10
   5   9  -3  116.89   11.10
   4  -9  -3   93.19    8.70
   4   9  -3  100.49    9.90
  -4   9   3  109.99   10.50
   4   9  -3  118.59   10.90
   3  -9  -3   82.39    7.50
  -3   9   3   57.19    5.20
   3   9  -3   60.99    7.60
   3   9  -3   70.79    8.30
  -3   9   3   68.79    8.30
   2  -9  -3  823.62   30.00
   2   9  -3  816.82   32.30
  -2   9   3  828.92   33.00
   2   9  -3  823.62   33.00
  -2   9   3  796.62   29.10
   1  -9  -3   62.19    5.70
  -1   9   3   70.19    6.50
  -1   9   3   85.19    8.90
   1   9  -3   82.79    9.00
   1   9  -3   78.19    8.20
   0   9   3   20.50    4.70
   0   9  -3   31.10    5.80
   0   9   3   12.60    3.40
   1   9   3   34.40    5.90
  -1   9  -3   37.50    6.30
   2   9   3   47.20    6.80
   2   9   3   59.99    7.20
  -2   9  -3   63.69    7.90
   3   9   3  196.18   11.90
   3   9   3  166.78   11.30
  -3   9  -3  183.28   12.00
   4   9   3    7.40    3.70
  -4   9  -3   17.10    4.70
   4   9   3   17.50    4.60
   5   9   3  205.78   13.40
  -5   9  -3  205.58   13.10
   5   9   3  223.98   13.10
   6   9   3   25.60    6.10
   6   9   3   11.90    4.00
   7  -9   3   64.39    8.00
  -7   9  -3   55.49    7.70
   7   9   3   46.40    7.80
   7   9   3   79.49    8.70
   8  -9   3    2.90    3.20
   8   9   3   -2.00    3.30
  -8   9  -3    2.90    3.30
   8   9   3   -0.10    3.90
   9  -9   3   -3.10    2.90
   9   9   3    0.60    4.00
   9   9   3   -0.30    3.60
  -9   9  -3    2.60    3.40
  10  -9   3  176.38   13.00
  10   9   3  214.28   18.50
  11  -9   3    1.90    3.80
  11   9   3    7.20    5.40
  12  -9   3   41.20    8.00
  12   9   3   46.40    9.60
  13  -9   3   78.09   10.60
  13  -9   3   51.59   10.90
  13   9   3   61.29   11.30
  14  -9   3   64.29   11.70
  14   9   3   37.50    9.70
  15 -10  -3   96.09   14.70
  15  10  -3   75.59   12.80
  14 -10  -3   29.20    8.90
  14  10  -3   25.00    7.80
  13 -10  -3   37.70    9.50
  13  10  -3   30.10    8.50
  12 -10  -3   16.90    6.60
 -12 -10   3    7.60    5.10
 -12  10   3    8.30    4.70
  12  10  -3    8.00    5.30
 -11 -10   3    3.10    4.30
  11 -10  -3    4.50    5.10
 -11  10   3    1.60    3.60
  11  10  -3    4.80    4.50
  10 -10  -3    5.50    4.70
 -10 -10   3   11.50    4.70
 -10  10   3    9.00    4.80
  10  10  -3   13.80    5.50
  -9 -10   3    6.90    4.50
   9 -10  -3   -3.20    3.30
  -9  10   3   14.50    4.80
   9  10  -3   18.10    5.80
  -8 -10   3   11.00    4.50
   8 -10  -3   12.30    4.60
   8  10  -3    4.10    4.10
  -8  10   3    7.50    4.40
   7 -10  -3    6.40    4.10
   7 -10  -3    9.70    2.50
  -7  10   3   14.10    4.70
   7  10  -3    2.50    3.40
   7  10  -3    7.90    4.00
   6 -10  -3  105.99   10.20
   6  10  -3   98.89   10.60
   6  10  -3   91.19   10.30
  -6  10   3  104.29   11.10
   5 -10  -3   38.70    6.20
   5  10  -3   40.90    6.80
   5  10  -3   33.40    6.50
  -5  10   3   44.30    7.40
   4 -10  -3    3.10    2.80
   4  10  -3   12.20    4.40
   4  10  -3    9.40    4.10
  -4  10   3    8.70    4.10
   3 -10  -3    2.70    2.30
   3  10  -3   -3.50    1.90
  -3  10   3   -1.10    1.50
   3  10  -3    1.20    3.00
  -3  10   3    3.90    2.90
  -2 -10   3  370.16   13.00
   2 -10  -3  416.36   16.80
   2  10  -3  359.36   18.50
  -2  10   3  382.66   16.20
  -2  10   3  370.06   19.40
   2  10  -3  395.06   19.80
   1 -10  -3  329.77   14.40
   1  10  -3  343.17   18.20
  -1  10   3  328.77   15.20
   1  10  -3  357.96   17.50
  -1  10   3  348.07   18.20
   0  10  -3  195.88   13.00
   0  10   3  179.48   12.40
   0  10   3  191.28   10.90
  -1  10  -3   22.60    5.40
   1  10   3   23.90    5.40
   2  10   3  193.98   12.00
  -2  10  -3  221.58   13.60
   2  10   3  180.78   12.40
   3  10   3   29.50    5.70
  -3  10  -3   19.60    5.10
   3  10   3   22.40    5.20
   4  10   3   55.39    7.80
  -4  10  -3   53.09    7.50
   4  10   3   43.80    6.70
   5  10   3   38.00    6.90
   5  10   3   31.40    6.10
  -5  10  -3   31.00    6.10
   6  10   3    3.80    3.10
  -6  10  -3    0.10    3.50
   6  10   3    4.20    3.60
   7  10   3   -2.40    3.40
   7  10   3   -1.00    3.20
  -7  10  -3   -1.50    2.60
   8 -10   3   42.40    6.80
  -8  10  -3   33.80    6.60
   8  10   3   26.90    5.90
   8  10   3   44.90    8.50
   9 -10   3   51.89    7.60
   9  10   3   42.40    8.70
   9  10   3   50.79    8.60
  -9  10  -3   46.10    7.80
  10 -10   3  112.69   11.70
  10  10   3  101.79   13.10
  11 -10   3    1.00    3.50
  11  10   3    7.10    6.00
  12 -10   3    1.70    5.50
  12 -10   3    1.90    4.30
  12  10   3    3.10    5.50
  13 -10   3   52.19   11.10
  13  10   3   53.89   10.80
  15 -11  -3   -3.40    5.40
  15  11  -3   18.10    7.70
  14 -11  -3    7.60    6.60
  14  11  -3    6.40    5.70
  13 -11  -3   42.20    9.80
  13  11  -3   41.30    9.00
 -12 -11   3    2.90    4.40
  12 -11  -3   -2.80    5.50
 -12  11   3    3.50    4.00
  12  11  -3    6.90    5.70
  11 -11  -3   65.19   10.40
 -11 -11   3   49.00    8.40
  11  11  -3   44.70    9.30
  10 -11  -3  146.69   15.20
  10  11  -3  135.19   14.40
 -10  11   3  140.79   14.10
  -9 -11   3   41.20    7.80
   9 -11  -3   29.50    7.40
   9  11  -3   42.70    8.10
  -9  11   3   41.50    8.00
   8 -11  -3  205.48   13.90
  -8 -11   3  177.58   13.40
   8  11  -3  183.38   13.80
   8  11  -3  150.78   15.00
  -8  11   3  195.08   14.20
   7 -11  -3   18.60    5.30
   7  11  -3   15.40    5.70
  -7  11   3   15.80    5.30
   7  11  -3   17.00    5.30
   6 -11  -3    7.50    4.20
   6  11  -3    2.20    3.40
  -6  11   3    2.50    3.60
   6  11  -3    7.10    4.20
   5 -11  -3  144.09   10.40
   5  11  -3  134.39   12.90
  -5  11   3  146.59   13.80
   5  11  -3  137.09   13.30
   4 -11  -3    2.70    2.80
   4  11  -3   -0.70    3.10
  -4  11   3    0.30    3.30
   4  11  -3   -1.10    2.90
   3 -11  -3   94.79    8.50
  -3  11   3   97.09   10.90
  -3  11   3   94.99    6.80
   3  11  -3  104.69   10.60
   3  11  -3  116.49   11.80
   2 -11  -3  724.53   27.60
   2  11  -3  717.03   31.60
   2  11  -3  713.03   30.50
  -2  11   3  733.33   32.10
  -2  11   3  759.32   28.00
  -1 -11   3  145.49    6.90
   1 -11  -3  135.59    8.20
  -1  11   3  146.99   13.50
  -1  11   3  140.69    9.20
   1  11  -3  144.09   10.60
   1  11  -3  145.39   13.40
   0 -11   3  963.00   33.10
   0  11  -3  912.71   38.60
   0  11   3  988.80   39.10
   0  11   3  951.30   35.90
  -1  11  -3   59.29    9.00
   1  11   3   77.09    9.50
   2  11   3  303.97   16.30
  -2  11  -3  298.27   17.40
   2  11   3  297.77   17.10
   3  11   3   17.70    5.00
   3  11   3   10.70    4.40
  -3  11  -3   18.50    5.50
   4  11   3   91.79   10.70
  -4  11  -3  109.39   11.90
   4  11   3   95.99   10.50
   5  11   3  264.27   16.40
   5  11   3  302.27   17.70
  -5  11  -3  304.67   17.40
  -6  11  -3  160.58   14.20
   6  11   3  146.29   11.40
   6  11   3  135.49   13.60
   7  11   3   99.89   12.10
   7  11   3  102.49   11.10
  -7  11  -3   88.49   10.80
   8 -11   3   66.29    8.50
   8  11   3   38.20    7.20
  -8  11  -3   44.40    7.80
   8  11   3   52.99    9.30
   9 -11   3    2.20    3.50
   9  11   3    0.60    4.40
   9  11   3    6.70    4.80
  -9  11  -3    1.50    3.70
  10 -11   3   94.79   12.90
  10 -11   3   82.09   10.20
  10  11   3   90.89   12.60
  11 -11   3   53.59    8.70
  11 -11   3   42.20    9.80
  11  11   3   53.79   10.70
  12 -11   3   14.90    7.30
  12  11   3   42.60   10.00
  13 -11   3   -3.60    5.20
  13  11   3    1.70    5.60
  14 -12  -3   60.59   11.70
  14  12  -3   37.50   10.10
  13 -12  -3    8.50    6.50
  13  12  -3   19.00    7.70
  12 -12  -3   15.40    7.10
 -12 -12   3   31.80    8.90
  12  12  -3   24.70    7.50
 -12  12   3   17.30    5.80
  11 -12  -3   -1.70    3.90
 -11 -12   3    2.90    4.50
  11  12  -3    6.80    4.90
 -11  12   3    2.20    3.90
  10 -12  -3    4.90    5.00
 -10 -12   3    2.50    4.60
  10  12  -3    4.60    4.90
 -10  12   3    1.80    4.40
   9 -12  -3    8.50    5.20
  -9 -12   3    0.60    3.40
   9  12  -3    8.40    5.10
  -9  12   3    5.70    4.60
  -8 -12   3   64.89    9.80
   8 -12  -3   77.29   10.10
   8  12  -3   62.09    9.80
  -8  12   3   71.99   10.80
   8  12  -3   89.09   11.20
   7 -12  -3    1.90    3.30
  -7  12   3    7.60    4.20
   7  12  -3    0.00    4.00
   7  12  -3   -4.30    3.10
   6 -12  -3    1.40    3.70
   6  12  -3   -3.20    3.40
  -6  12   3    2.00    4.10
   6  12  -3   -5.10    2.60
   5 -12  -3   57.29    7.80
   5  12  -3   67.29   10.00
   5  12  -3   67.09    9.70
  -5  12   3   61.49    9.50
   4 -12  -3   62.69    7.80
  -4  12   3   50.09    8.40
   4  12  -3   59.29    9.00
   4  12  -3   53.79    8.30
   3 -12  -3   46.40    6.20
  -3  12   3   50.09    8.30
  -3  12   3   45.10    5.60
   3  12  -3   57.49    8.40
   3  12  -3   59.09    8.80
   2 -12  -3    4.40    2.90
  -2  12   3    3.90    2.80
   2  12  -3    5.10    4.40
   2  12  -3   -1.40    2.40
  -2  12   3    2.00    3.60
   1 -12  -3   43.40    5.00
   1  12  -3   33.40    6.40
  -1  12   3   49.40    8.20
   1  12  -3   39.10    7.50
  -1  12   3   26.20    5.10
   0 -12   3    2.80    1.90
   0  12   3    3.10    3.00
   0  12  -3   -1.50    3.10
   0  12   3    6.60    4.30
   1 -12   3  210.88   10.80
   1  12   3  217.38   14.70
  -1  12  -3  203.28   14.60
   2 -12   3  103.79    7.90
   2  12   3  110.79   10.70
  -2  12  -3  115.79   12.30
   2  12   3  119.79   12.30
   3  12   3   18.30    5.70
   3  12   3   16.20    4.90
  -3  12  -3   14.10    5.30
  -4  12  -3  116.59   12.60
   4  12   3  122.49   12.30
   4  12   3  108.19   11.80
   5  12   3    1.50    4.20
  -5  12  -3   -0.40    3.70
   5  12   3   -1.30    4.00
   6  12   3   31.30    7.00
   6  12   3   25.90    6.60
  -6  12  -3   26.70    6.70
  -7  12  -3   43.50    8.40
   7  12   3   32.10    7.20
   7  12   3   40.20    8.00
   8 -12   3   18.10    5.30
   8 -12   3    4.30    4.30
   8  12   3   12.00    5.80
   8  12   3   11.10    5.30
  -8  12  -3   -0.70    2.60
   9 -12   3   16.30    5.70
   9 -12   3   21.80    7.30
   9  12   3   22.90    7.20
  -9  12  -3   21.20    6.20
  10 -12   3   13.00    5.30
  10 -12   3   14.10    6.20
  10  12   3   20.80    7.60
  11 -12   3   -2.40    4.80
  11  12   3   -1.20    4.50
  12 -12   3    0.40    5.00
  12  12   3    0.80    5.20
  13 -13  -3   -0.90    5.70
  13  13  -3    8.90    6.30
  12 -13  -3   59.89   11.00
 -12  13   3   52.79    9.70
  12  13  -3   54.79   10.90
 -11 -13   3    3.20    3.70
  11 -13  -3   -7.70    3.30
 -11  13   3    7.90    4.90
  11  13  -3   -4.70    3.90
 -10 -13   3   30.70    7.90
  10 -13  -3   38.00    8.60
  10  13  -3   29.20    8.00
 -10  13   3   29.40    8.10
  -9 -13   3   22.50    7.00
   9 -13  -3   17.10    6.00
  -9  13   3   27.00    7.60
   9  13  -3    8.90    5.30
   8 -13  -3   59.59    9.40
   8  13  -3   81.89   11.50
   8  13  -3   55.19    9.30
  -8  13   3   92.39   11.90
   7 -13  -3   41.20    7.70
  -7  13   3   29.40    7.30
   7  13  -3   42.30    8.40
   7  13  -3   42.10    8.20
   6 -13  -3   16.90    5.20
  -6  13   3   17.10    6.10
   6  13  -3    9.60    5.10
   6  13  -3   10.40    5.10
   5 -13  -3   86.29    9.60
   5  13  -3   72.89   10.50
   5  13  -3   67.29    9.80
  -5  13   3   77.99   10.90
   4 -13  -3   96.99    9.40
   4  13  -3   89.19   11.00
  -4  13   3  105.29   12.40
   4  13  -3   87.29   11.30
   3 -13  -3    3.20    2.80
  -3  13   3    4.50    4.40
   3  13  -3    5.10    4.00
   3  13  -3    3.90    3.50
   2 -13  -3   76.49    7.30
   2  13  -3   85.89   11.00
   2  13  -3   85.69   10.70
  -2  13   3   78.29   10.70
  -2  13   3   83.79    8.20
  -1  13   3   49.20    6.60
   1  13  -3   59.59    8.30
   1  13  -3   48.40    8.70
  -1  13   3   52.49    8.70
   0  13   3    9.40    4.20
   0  13  -3    7.90    4.90
   0  13   3    7.60    4.60
   1  13   3   27.00    6.90
  -1  13  -3   30.30    7.30
   2 -13   3   37.60    5.60
   2  13   3   45.80    7.40
  -2  13  -3   27.30    7.10
   2  13   3   45.30    8.40
   3 -13   3    9.60    3.90
  -3  13  -3    9.30    5.30
   3  13   3   10.30    5.50
   3  13   3    9.00    4.60
   4 -13   3   14.30    4.30
   4  13   3   13.40    5.60
   4  13   3   21.40    5.70
  -4  13  -3    9.50    5.20
   5 -13   3    7.30    4.00
   5  13   3    7.90    4.70
  -5  13  -3   11.20    6.00
   5  13   3    9.70    4.90
   6 -13   3    3.10    3.60
   6  13   3    9.30    5.50
   6  13   3    3.60    4.40
  -6  13  -3    1.80    4.50
   7 -13   3    2.70    4.00
   7  13   3   -1.70    3.90
   7  13   3   -5.50    3.40
  -7  13  -3   -0.80    3.70
   8 -13   3   67.49   10.10
   8 -13   3   92.09   10.70
  -8  13  -3   88.69   12.00
   8  13   3   73.59   10.20
   8  13   3   56.99   10.20
   9 -13   3   16.60    5.40
   9 -13   3   22.40    6.90
  -9  13  -3   10.90    5.20
   9  13   3    5.40    5.80
  10 -13   3   84.69   12.60
  10  13   3   84.59   13.00
  11 -13   3   15.90    7.00
  11  13   3    8.00    6.30
  12 -14  -3   -4.70    4.40
 -12  14   3    0.50    4.70
  12  14  -3   -1.80    5.10
  11 -14  -3    9.00    6.90
 -11 -14   3  -10.60    3.90
 -11  14   3   -1.00    4.30
  11  14  -3   -1.70    5.00
 -10 -14   3    5.60    5.60
  10 -14  -3   -0.30    5.40
  10  14  -3   -2.00    4.20
 -10  14   3    1.60    4.70
  -9 -14   3    6.50    5.40
   9 -14  -3   -2.60    4.20
   9  14  -3   -1.30    4.40
  -9  14   3    4.00    4.70
   8 -14  -3   29.60    7.40
   8  14  -3   32.40    8.20
   8  14  -3   33.20    8.30
  -8  14   3   33.90    8.40
   7 -14  -3   38.10    7.80
   7  14  -3   44.30    9.20
  -7  14   3   50.49    9.90
   7  14  -3   38.20    8.80
   6 -14  -3    2.30    3.80
  -6  14   3    2.90    4.60
   6  14  -3   -2.70    3.50
   6  14  -3    0.30    4.50
   5 -14  -3   21.20    5.60
   5  14  -3    0.90    4.00
  -5  14   3    7.20    5.20
   5  14  -3   12.40    5.80
   4 -14  -3   40.20    6.70
   4  14  -3   39.70    8.40
   4  14  -3   28.40    7.50
  -4  14   3   38.80    8.40
  -3  14   3   16.60    6.30
   3  14  -3   42.30    8.40
   3  14  -3   25.40    6.40
   2  14  -3  154.98   15.50
  -2  14   3  183.48   17.00
  -2  14   3  149.39   10.70
   2  14  -3  171.28   15.30
   1  14  -3   21.90    6.00
  -1  14   3   12.00    4.50
   1  14  -3   21.10    6.80
  -1  14   3   26.70    7.10
   0  14  -3   -1.80    4.20
   0  14   3    9.20    4.40
   0  14   3    9.90    5.40
   1  14   3    3.80    4.90
  -1  14  -3    1.70    5.00
   1  14   3    2.10    2.90
   2  14   3   60.09    8.70
   2  14   3   83.59   11.30
  -2  14  -3   73.09   11.10
   3  14   3    7.10    4.40
  -3  14  -3    5.30    5.10
   3  14   3    6.80    4.80
   4 -14   3   45.60    7.10
  -4  14  -3   48.50    9.60
   4  14   3   42.80    8.20
   4  14   3   56.89    9.30
   5 -14   3   46.10    7.60
   5  14   3   36.30    7.90
  -5  14  -3   43.10    9.30
   5  14   3   39.10    7.70
   6 -14   3    3.30    4.20
  -6  14  -3   11.10    6.20
   6  14   3   16.60    6.40
   6  14   3    9.50    5.30
   7 -14   3   11.80    5.30
   7  14   3   12.90    5.70
  -7  14  -3    8.10    5.40
   7  14   3   25.10    7.20
   8 -14   3    8.30    6.10
   8  14   3    2.20    4.60
   8  14   3    2.40    5.40
  -8  14  -3    2.10    4.70
   9 -14   3   -1.30    4.30
   9  14   3    0.50    5.30
  -9  14  -3    5.20    5.20
  10 -14   3   -0.90    4.90
  10  14   3   -0.20    5.40
  11 -14   3    0.20    6.30
  11  14   3    3.80    6.60
 -11 -15   3    1.60    5.90
  11 -15  -3    4.00    6.10
 -11  15   3    3.90    5.20
  11  15  -3    1.50    5.00
 -10 -15   3   72.69   11.40
  10 -15  -3   86.29   13.00
 -10  15   3   62.69   11.50
  10  15  -3   72.29   12.60
   9 -15  -3    0.40    4.70
  -9 -15   3   -0.70    4.70
  -9  15   3    5.90    5.50
   9  15  -3    6.40    5.80
   9  15  -3    8.70    5.70
   8 -15  -3   47.00    9.00
  -8  15   3   42.40    9.60
   8  15  -3   40.60    9.40
   8  15  -3   61.99   11.00
   7 -15  -3    2.30    5.00
  -7  15   3    2.10    4.60
   7  15  -3   -1.50    5.10
   7  15  -3    6.60    5.30
   6 -15  -3   16.30    5.60
  -6  15   3    0.20    4.50
   6  15  -3    0.40    4.20
   6  15  -3   12.70    6.20
   5  15  -3   11.30    6.20
   5  15  -3    4.00    5.20
  -5  15   3    9.70    6.00
  -4  15   3   25.20    7.80
   4  15  -3   25.60    7.20
   4  15  -3   35.30    7.80
  -3  15   3   12.30   11.10
   3  15  -3   16.80    6.00
   3  15  -3   10.90    5.90
  -2  15   3  165.68   16.60
  -2  15   3  165.38   11.60
   2  15  -3  161.78   16.60
   2  15  -3  140.69   14.40
   1  15  -3   37.30    8.40
  -1  15   3   40.30    6.70
  -1  15   3   40.80    8.80
   1  15  -3   40.80    7.80
   0  15   3   87.99   12.40
   0  15  -3  120.59   16.50
   0  15   3  106.99   11.00
  -1  15  -3    7.30    5.70
   1  15   3   11.20    4.30
   1  15   3   14.70    6.00
   2  15   3    0.90    4.50
   2  15   3    2.20    3.90
  -2  15  -3   -3.90    4.60
   3  15   3   11.90    5.00
   3  15   3   10.70    5.80
  -3  15  -3   15.20    6.60
   4  15   3   13.30    6.20
   4  15   3   12.30    5.80
  -4  15  -3   22.50    7.00
   5  15   3   11.40    5.90
   5  15   3    3.40    5.00
  -5  15  -3    1.10    4.60
   6 -15   3   36.20    7.70
   6  15   3   27.90    8.00
   6  15   3   25.20    7.50
  -6  15  -3   29.50    8.00
   7 -15   3   16.90    6.30
   7  15   3    9.00    6.10
  -7  15  -3   11.90    5.60
   7  15   3   12.50    7.10
   8 -15   3   91.99   12.30
   8  15   3   51.99   10.00
   8  15   3   70.29   11.90
  -8  15  -3   80.09   12.30
   9 -15   3   26.90    7.90
  -9  15  -3   24.90    8.30
   9  15   3   14.10    6.90
  10 -15   3    9.50    6.50
  10  15   3   19.60    8.00
 -10 -16   3    2.40    5.40
  10 -16  -3    9.70    6.80
  10  16  -3   12.50    7.40
 -10  16   3    6.20    6.90
  -9 -16   3   50.59   10.80
   9 -16  -3   58.69   10.50
   9  16  -3   46.60   10.30
  -9  16   3   39.70   10.10
   9  16  -3   51.49   11.00
   8  16  -3   19.20    7.90
   8  16  -3   10.60    6.30
  -8  16   3    7.80    6.20
   7  16  -3   16.40    7.10
   7  16  -3   23.60    7.80
  -7  16   3   14.10    7.30
   6  16  -3   34.80    8.40
   6  16  -3   10.80    6.10
  -6  16   3   12.20    6.40
  -5  16   3   13.00    6.70
   5  16  -3   10.20    6.20
   5  16  -3    8.40    5.80
   4  16  -3   78.59   11.70
   4  16  -3   83.79   12.80
  -4  16   3   87.29   13.00
   3  16  -3   95.89   12.40
   3  16  -3   70.49   11.80
  -3  16   3   82.89   12.80
  -2  16   3    9.40    6.00
   2  16  -3   12.90    5.50
   2  16  -3    6.90    5.60
  -1  16   3   38.10    8.90
   1  16  -3   50.59   10.40
  -1  16   3   51.59    8.20
   0  16   3   60.89   10.60
   0  16  -3   43.70    9.70
   0  16   3   51.99    8.10
  -1  16  -3   25.70    7.90
   1  16   3   15.40    5.30
   1  16   3   17.60    6.90
  -2  16  -3   15.90    6.90
   2  16   3   33.20    7.50
   2  16   3   27.90    8.10
   3  16   3   -4.20    4.30
   3  16   3   -2.30    3.70
  -3  16  -3   -0.70    4.50
  -4  16  -3    6.80    5.70
   4  16   3    7.00    5.10
   4  16   3   13.40    6.60
   5  16   3   10.40    6.70
  -5  16  -3    2.90    4.80
   5  16   3    0.10    4.50
   6  16   3   23.20    7.10
   6  16   3    3.10    5.50
  -6  16  -3   15.50    6.60
  -7  16  -3   -3.20    5.40
   7  16   3   -0.80    5.90
   7  16   3   -5.40    3.70
   8  16   3   11.80    7.10
   8  16   3    0.00    5.30
  -8  16  -3   19.80    7.70
  -9 -17   3   -2.30    5.80
  -9  17   3    5.30    5.80
   9  17  -3    7.70    6.60
   9  17  -3    2.70    5.60
   8  17  -3   -5.50    4.80
  -8  17   3    1.50    6.20
   8  17  -3   -0.80    6.30
   7  17  -3   -2.80    4.40
  -7  17   3    4.20    5.60
   7  17  -3    6.70    6.20
   6  17  -3    1.30    5.80
   6  17  -3    2.90    5.70
  -6  17   3    3.20    5.70
   5  17  -3   65.69   11.70
   5  17  -3   52.09   10.20
  -5  17   3   42.20   10.00
   4  17  -3   -6.30    4.10
  -4  17   3    1.90    5.90
   4  17  -3    2.60    5.20
   3  17  -3   27.60    7.60
  -3  17   3   22.50    7.80
   3  17  -3   24.90    8.00
   2  17  -3   10.00    5.90
   2  17  -3   16.90    7.30
  -2  17   3   20.60    7.40
   1  17  -3    7.80    5.70
  -1  17   3    6.40    6.00
   0  17   3    3.20    5.80
   0  17   3   -0.80    3.90
   0  17  -3    6.00    6.20
  -1  17  -3    8.60    6.40
   1  17   3    8.80    5.10
   1  17   3    4.90    5.70
  -2  17  -3   20.00    8.20
   2  17   3    9.50    5.40
   2  17   3    6.20    5.80
  -3  17  -3   57.69   11.00
   3  17   3   73.69   12.20
   3  17   3  101.69   12.80
   4  17   3    6.10    6.40
  -4  17  -3   -0.70    4.90
   4  17   3   -2.90    3.80
   5  17   3    3.10    6.00
   5  17   3    3.10    4.80
  -5  17  -3    3.10    5.70
  -6  17  -3   -2.50    4.90
   6  17   3    2.90    5.70
   6  17   3   -0.80    4.70
   7  17   3    4.00    6.50
  -7  17  -3    0.50    5.30
   7  17   3   -4.10    5.20
   7  18  -3   -0.40    5.40
  -7  18   3   -2.80    5.80
   7  18  -3   -3.20    5.30
   6  18  -3   12.60    6.80
   6  18  -3   29.20    9.40
  -6  18   3   27.40    8.80
   5  18  -3    7.00    6.60
   5  18  -3   15.60    7.70
  -5  18   3   12.50    7.10
  -4  18   3   38.70   10.00
   4  18  -3   41.80    9.70
   4  18  -3   38.40    9.60
  -3  18   3   24.90    8.90
   3  18  -3   31.50    9.50
   3  18  -3   31.50    8.10
  -2  18   3    4.90    5.70
   2  18  -3    1.20    5.80
   2  18  -3   -2.90    3.70
  -1  18   3   25.80    8.60
   1  18  -3   27.10    8.60
   0  18   3   12.70    7.00
   0  18  -3    6.30    6.40
   1  18   3   41.20   10.50
  -1  18  -3   31.40    9.30
   1  18   3   58.49   10.00
  -2  18  -3   42.50   10.20
   2  18   3   21.70    8.20
   2  18   3    0.00    3.00
   3  18   3    1.60    4.80
  -3  18  -3   -0.20    5.70
   3  18   3    0.10    6.10
  -4  18  -3   15.80    7.80
   4  18   3   19.80    7.20
   4  18   3   19.70    8.90
   5  18   3   14.40    7.70
  -5  18  -3   22.20    8.20
   5  18   3   13.60    7.40
   4  19  -3    2.70    5.50
   4  19  -3    2.10    6.50
  -4  19   3    2.70    6.40
   3  19  -3    3.90    4.90
  -3  19   3   -3.60    5.00
   3  19  -3   -4.90    5.00
  -2  19   3   44.90   10.30
   2  19  -3   32.20    9.60
   1  19  -3    9.50    7.00
  -1  19   3   -5.40    5.20
   0  19   3   37.60   10.40
   0  19  -3   29.00    9.60
  -1  19  -3   -0.30    5.50
   1  19   3   -2.40    5.30
   2  19   3   -9.00    4.50
  -2  19  -3    7.20    7.00
  18   0  -4   -4.20    5.10
  18   0  -4    4.00    5.80
  17   0  -4   -1.00    5.10
  17   0  -4   -3.70    5.10
  16   0  -4   56.69   10.50
  16   0  -4   81.59   10.90
  15   0  -4    1.30    4.40
  15   0  -4    0.10    3.40
  14   0  -4  520.95   24.50
  14   0  -4  507.45   26.40
  13   0  -4    0.40    3.40
  13   0  -4    0.60    3.60
 -12   0   4   82.79    7.60
  12   0  -4   73.79    8.20
  12   0  -4   90.69   10.40
  11   0  -4    3.60    3.00
 -11   0   4    1.50    2.30
  11   0  -4    1.10    3.00
 -10   0   4  224.98   11.70
  10   0  -4  250.27   12.80
  10   0  -4  233.28   14.00
   9   0  -4   -0.40    1.70
  -9   0   4   -0.40    1.90
   9   0  -4    1.60    2.70
  -8   0   4  499.55   19.50
   8   0  -4  462.35   20.70
   8   0  -4  464.55   19.00
   7   0  -4   -1.90    1.60
   7   0  -4   -1.00    1.80
  -7   0   4   -0.10    2.00
  -6   0   4   -0.10    1.00
   6   0  -4    0.60    1.70
   6   0  -4    0.90    1.60
   5   0  -4    0.10    1.20
  -5   0   4    0.60    1.70
   5   0  -4   -0.30    1.60
   4   0  -4 5113.59  163.98
  -4   0   4 5261.77  164.18
   4   0  -4 5244.08  162.38
   3   0  -4    0.90    1.20
   3   0  -4    0.70    1.50
  -3   0   4    0.00    1.60
   2   0  -4 7369.16  228.08
  -2   0   4 7262.87  228.48
  -1   0   4    0.00    1.60
   0   0   4 3737.83  118.09
   1   0   4   -1.60    1.30
   1   0   4    1.00    1.50
   2   0   4  482.15   18.60
   2   0   4  471.85   17.30
   3   0   4   -0.90    1.60
   3   0   4   -2.00    1.00
   4   0   4  519.35   18.20
   4   0   4  532.05   21.40
   5   0   4   -2.20    2.00
   5   0   4   -1.00    0.90
   6   0   4    1.10    2.10
   6   0   4    5.10    1.10
   7   0   4   -5.90    1.60
   8   0   4  250.67   14.60
   9   0   4   -0.40    3.30
  10   0   4  276.57   16.70
  11   0   4    2.00    3.70
  12   0   4  212.18   15.70
  13   0   4   -0.60    4.60
  14   0   4   75.39   11.90
  15   0   4   -6.50    4.60
  18  -1  -4   63.19   12.60
  18   1  -4   86.69   12.20
  18   1  -4   68.09   12.40
  17  -1  -4    9.00    5.30
  17  -1  -4    1.70    5.70
  17   1  -4   18.00    7.70
  17   1  -4    3.50    5.30
  16  -1  -4   26.30    6.60
  16  -1  -4   29.80    8.60
  16   1  -4   29.40    7.00
  16   1  -4   32.20    8.50
  15  -1  -4  120.39   13.80
  15  -1  -4  136.99   12.70
  15   1  -4  125.49   14.20
  15   1  -4  146.09   13.90
  14  -1  -4  201.78   18.10
  14  -1  -4  232.98   14.20
  14   1  -4  211.18   14.60
  14   1  -4  222.08   15.70
  13  -1  -4   -3.90    3.50
  13  -1  -4    3.30    3.60
  13   1  -4    4.90    4.20
  13   1  -4   -5.50    2.60
 -12  -1   4    9.80    3.30
  12  -1  -4    6.70    3.30
  12  -1  -4   15.30    5.10
 -12   1   4    8.00    2.90
  12   1  -4    4.60    3.60
  12   1  -4    8.50    4.00
 -11  -1   4   33.80    5.10
  11  -1  -4   25.20    5.80
  11  -1  -4   26.10    4.60
 -11   1   4   20.20    4.00
  11   1  -4   25.10    5.20
  11   1  -4   18.50    5.30
  10  -1  -4    0.70    2.30
 -10  -1   4    3.50    2.50
  10  -1  -4    4.00    3.40
  10   1  -4    0.30    2.70
  10   1  -4    0.90    2.30
 -10   1   4    0.60    2.00
   9  -1  -4   22.10    4.80
   9  -1  -4   30.20    4.30
  -9  -1   4   33.00    4.70
  -9   1   4   27.10    4.30
   9   1  -4   27.80    4.70
   9   1  -4   32.50    5.50
  -8  -1   4  561.64   21.70
   8  -1  -4  526.15   23.10
   8  -1  -4  551.04   20.90
   8   1  -4  557.34   22.80
  -8   1   4  525.55   21.30
   8   1  -4  546.05   21.70
   7  -1  -4   -1.30    1.30
  -7  -1   4    1.50    2.10
   7  -1  -4    1.10    2.40
   7   1  -4    1.30    1.90
  -7   1   4   -0.80    1.60
   7   1  -4    0.90    2.00
   6  -1  -4  288.77   11.50
   6  -1  -4  288.27   13.70
   6   1  -4  281.87   12.40
   6   1  -4  275.87   13.10
   5  -1  -4 1060.79   36.90
  -5  -1   4  998.60   36.10
   5  -1  -4 1043.00   34.10
  -5   1   4 1018.60   36.20
   5   1  -4 1045.20   35.40
   5   1  -4 1060.19   36.30
   4  -1  -4  123.49    5.30
   4  -1  -4  127.19    7.40
  -4  -1   4  101.69    6.60
   4   1  -4  118.99    6.90
   4   1  -4  110.09    6.20
  -4   1   4  115.79    6.90
   3  -1  -4  170.78    8.50
  -3  -1   4  147.99    8.20
   3   1  -4  164.78    7.70
  -3   1   4  167.28    8.50
   3   1  -4  171.68    8.10
   2  -1  -4    5.40    2.10
  -2  -1   4    8.00    2.40
  -2   1   4   10.10    2.60
  -1  -1   4 3443.76  106.39
  -1   1   4 3236.48  106.09
   0  -1   4   14.60    2.60
   0   1   4   16.30    2.80
   0   1   4   16.20    2.40
   1  -1   4 1702.03   54.79
   1   1   4 1687.03   54.59
   1   1   4 1650.33   54.99
   2  -1   4  177.18    8.70
   2  -1   4  153.98    7.40
   2   1   4  154.18    7.30
   2   1   4  156.28    8.30
   3  -1   4  176.28    9.30
   3  -1   4  184.78    7.80
   3   1   4  163.38    9.10
   3   1   4  158.88    7.40
   4  -1   4  334.07   12.60
   4  -1   4  315.37   14.90
   4   1   4  329.47   12.30
   4   1   4  359.66   15.50
   5  -1   4  943.91   35.30
   5  -1   4  960.00   31.60
   5   1   4  988.20   31.30
   5   1   4  933.11   35.30
   6  -1   4  266.87    9.70
   6  -1   4  270.27   13.90
   6   1   4  249.97   13.70
   6   1   4  258.17    9.20
   7  -1   4  592.14   25.10
   7   1   4  575.34   25.00
   8  -1   4  305.17   16.10
   8   1   4  287.27   16.10
   9  -1   4   61.09    8.40
   9   1   4   50.59    7.80
  10  -1   4   36.00    6.90
  10   1   4   31.30    6.70
  11  -1   4    5.10    4.30
  11   1   4    4.40    4.90
  12  -1   4  111.99   12.60
  12   1   4  108.89   12.70
  13  -1   4   17.20    6.40
  13   1   4   -1.20    4.20
  14  -1   4  120.89   14.30
  14   1   4  114.59   14.10
  15  -1   4    1.10    5.00
  15   1   4   -3.80    5.00
  18  -2  -4   20.60    8.50
  18   2  -4   18.20    7.30
  18   2  -4    6.10    6.20
  17  -2  -4   10.90    6.50
  17   2  -4    3.90    6.10
  17   2  -4    7.80    5.60
  16  -2  -4   26.90    7.00
  16  -2  -4   25.50    7.40
  16   2  -4   42.10    8.50
  16   2  -4   27.30    7.90
  15  -2  -4   56.59    8.30
  15  -2  -4   35.10    8.30
  15   2  -4   37.40    7.70
  15   2  -4   37.90    7.80
  14  -2  -4   23.30    6.70
  14  -2  -4   18.30    5.50
  14   2  -4   18.70    6.10
  14   2  -4   31.90    7.80
  13  -2  -4    3.50    3.30
  13  -2  -4    7.20    4.60
  13   2  -4    5.00    4.20
  13   2  -4    5.40    4.10
  12  -2  -4   90.29   10.80
  12  -2  -4   80.59    8.10
 -12  -2   4   82.09    7.70
  12   2  -4   86.89    9.70
 -12   2   4   82.69    7.60
  12   2  -4   82.59    9.90
 -11  -2   4  123.49    8.40
  11  -2  -4  115.89    8.30
  11  -2  -4  153.78   13.30
  11   2  -4  107.59   10.10
  11   2  -4  114.69   11.20
 -11   2   4  110.29    7.90
  10  -2  -4   80.49    7.20
 -10  -2   4   82.19    7.70
  10  -2  -4   82.19    9.50
  10   2  -4   96.39    9.40
 -10   2   4   88.09    6.80
  10   2  -4   82.69    8.30
   9  -2  -4   30.40    4.10
   9  -2  -4   24.90    5.30
  -9  -2   4   26.90    4.40
   9   2  -4   42.30    6.00
  -9   2   4   30.20    4.60
   9   2  -4   33.10    5.30
  -8  -2   4  203.48   10.90
   8  -2  -4  184.78    9.40
   8  -2  -4  213.28   12.50
   8   2  -4  224.58   11.60
  -8   2   4  219.78   11.10
   8   2  -4  213.88   11.50
  -7  -2   4  444.16   18.50
   7  -2  -4  482.45   20.30
   7  -2  -4  472.55   17.00
   7   2  -4  459.85   19.00
  -7   2   4  408.86   18.30
   7   2  -4  462.65   18.90
   6  -2  -4 1304.37   41.80
   6  -2  -4 1258.27   45.20
   6   2  -4 1230.58   43.90
  -6   2   4 1304.27   44.30
   6   2  -4 1323.97   44.40
   5  -2  -4  539.35   17.90
   5  -2  -4  542.55   21.30
  -5  -2   4  526.85   20.50
   5   2  -4  532.45   20.20
   5   2  -4  486.15   19.90
  -5   2   4  550.44   20.70
   4  -2  -4 1141.99   39.90
   4  -2  -4 1156.08   36.50
  -4  -2   4 1151.48   39.70
   4   2  -4 1160.68   39.10
  -4   2   4 1140.89   39.60
   3  -2  -4   35.70    4.30
  -3  -2   4   42.40    4.60
  -3   2   4   48.70    5.00
   3   2  -4   48.20    4.40
   2  -2  -4  561.94   20.70
  -2  -2   4  556.04   20.90
  -2   2   4  557.24   20.90
  -2   2   4  558.44   18.60
  -1  -2   4   22.20    3.40
  -1   2   4   25.50    2.60
  -1   2   4   25.20    3.40
   0  -2   4   56.89    5.10
   0   2   4   55.09    4.30
   1  -2   4   19.80    2.90
   1   2   4   16.10    2.80
   1   2   4   20.50    3.10
   2  -2   4 3163.78   98.29
   2   2   4 3001.50   97.89
   2   2   4 3107.69   99.09
   3  -2   4   97.39    5.70
   3  -2   4  109.79    7.10
   3   2   4  108.69    5.70
   3   2   4  107.29    7.00
   4  -2   4 1045.30   37.40
   4  -2   4 1012.90   34.80
   4   2   4 1081.99   34.70
   4   2   4 1027.70   37.50
   5  -2   4  247.48   12.90
   5  -2   4  261.97   10.40
   5   2   4  254.27   13.20
   5   2   4  251.77   10.00
   6  -2   4   45.00    5.90
   6  -2   4   31.70    3.30
   6   2   4   35.80    5.60
   6   2   4   40.30    2.80
   7  -2   4   63.99    7.80
   7  -2   4   70.79    4.00
   7   2   4   84.49    8.90
   7   2   4   76.09    3.30
   8  -2   4  845.02   33.80
   8   2   4  843.22   34.50
   9  -2   4  139.39   12.40
   9   2   4  117.39   12.00
  10  -2   4  171.58   12.60
  10   2   4  181.98   15.60
  11  -2   4  226.38   15.20
  11   2   4  222.08   15.80
  12  -2   4  180.08   15.90
  12   2   4  155.88   15.50
  13  -2   4    0.60    5.00
  13   2   4   10.20    5.90
  14  -2   4    0.10    4.70
  14   2   4    7.10    5.70
  15  -2   4    1.50    5.10
  15   2   4    8.90    6.10
  18  -3  -4   62.19   12.00
  18   3  -4   72.69   12.20
  18   3  -4  101.39   13.90
  17  -3  -4   24.90    8.60
  17   3  -4    7.40    6.10
  17   3  -4   12.60    7.10
  16  -3  -4    5.70    5.20
  16   3  -4   13.00    5.70
  16   3  -4   14.50    5.90
  15  -3  -4   60.79   10.20
  15  -3  -4   64.29    9.00
  15   3  -4   75.89   10.90
  15   3  -4   78.39   11.20
  14  -3  -4    2.00    3.30
  14  -3  -4    4.40    4.40
  14   3  -4    5.40    4.10
  14   3  -4    5.50    4.80
  13  -3  -4   21.20    6.30
  13  -3  -4   26.10    5.30
  13   3  -4   20.30    5.40
  13   3  -4   36.70    6.90
  12  -3  -4   12.30    4.80
 -12  -3   4    9.00    3.30
  12  -3  -4   14.80    4.00
 -12   3   4   13.50    3.80
  12   3  -4   19.90    5.30
  12   3  -4   21.80    6.10
  11  -3  -4   33.40    5.00
  11  -3  -4   51.19    8.10
 -11  -3   4   46.30    6.00
  11   3  -4   35.30    6.20
  11   3  -4   39.20    6.40
 -11   3   4   40.30    5.80
  10  -3  -4    0.60    3.00
  10  -3  -4    4.50    2.40
 -10  -3   4    5.20    2.80
  10   3  -4    2.90    2.90
 -10   3   4    7.60    3.00
  10   3  -4    1.40    3.20
  -9  -3   4   30.10    4.90
   9  -3  -4   33.20    4.00
   9  -3  -4   28.00    5.80
   9   3  -4   25.60    4.80
  -9   3   4   29.00    4.70
   9   3  -4   22.10    4.70
   8  -3  -4  343.87   13.70
  -8  -3   4  361.86   15.80
   8  -3  -4  334.77   17.20
   8   3  -4  331.37   16.20
  -8   3   4  350.96   15.60
   7  -3  -4  334.57   16.50
   7  -3  -4  352.76   13.10
   7   3  -4  347.47   15.90
   6  -3  -4 1314.07   43.50
  -6  -3   4 1148.39   41.50
   6  -3  -4 1222.68   38.30
   6   3  -4 1168.28   41.70
  -6   3   4 1142.69   41.50
   6   3  -4 1146.49   40.80
  -5  -3   4   18.30    3.50
   5  -3  -4   16.80    1.40
   5  -3  -4   11.60    3.20
   5   3  -4   22.90    3.50
   5   3  -4   16.00    3.20
  -5   3   4   12.60    3.00
  -4  -3   4   44.80    5.10
   4  -3  -4   61.89    6.10
   4   3  -4   55.89    4.20
  -4   3   4   57.89    5.80
   4   3  -4   56.09    5.40
   3  -3  -4 1288.07   43.50
  -3  -3   4 1268.77   43.60
   3   3  -4 1284.17   43.30
  -3   3   4 1262.07   39.60
  -3   3   4 1259.17   43.40
   2  -3  -4  923.91   31.60
  -2  -3   4  850.01   31.80
  -2   3   4  873.01   31.80
   2   3  -4  952.70   31.80
  -2   3   4  911.61   29.10
  -1  -3   4  373.26   15.10
  -1   3   4  355.06   13.10
  -1   3   4  356.86   14.90
   0  -3   4  517.05   19.70
   0   3   4  515.85   19.60
   1  -3   4  129.19    7.20
   1   3   4  131.49    7.00
   1   3   4  127.49    7.00
   2  -3   4   14.90    2.70
   2   3   4   14.10    2.90
   2   3   4   16.50    2.90
   3  -3   4    5.90    2.00
   3   3   4    5.60    2.00
   3   3   4    4.40    2.40
   4  -3   4 1507.65   50.59
   4  -3   4 1455.45   48.40
   4   3   4 1448.36   47.90
   4   3   4 1428.56   50.49
   5  -3   4   84.79    5.40
   5  -3   4  103.49    7.50
   5   3   4   97.79    5.40
   5   3   4   83.09    8.10
   6  -3   4  353.26   16.80
   6  -3   4  358.26   13.90
   6   3   4  360.76   13.40
   6   3   4  321.47   16.90
   7  -3   4   70.89    7.90
   7  -3   4   75.59    4.70
   7   3   4   74.99    4.20
   7   3   4   63.69    8.10
   8  -3   4   34.10    3.40
   8  -3   4   24.10    5.10
   8   3   4   28.20    5.90
   9  -3   4   20.90    5.00
   9   3   4   19.60    5.50
  10  -3   4   49.80    7.80
  10   3   4   52.09    8.20
  11  -3   4  260.07   16.70
  11   3   4  275.57   17.80
  12  -3   4   -1.30    3.50
  12   3   4   -0.20    4.10
  13  -3   4    1.00    4.40
  13   3   4   -2.30    4.50
  14  -3   4  129.69   15.00
  14   3   4  146.19   16.70
  15  -3   4   41.60    9.40
  15   3   4   11.30    7.30
  17  -4  -4    3.60    6.20
  17   4  -4    6.20    6.40
  17   4  -4    3.90    5.90
  16  -4  -4   -1.90    4.60
  16   4  -4   -1.40    4.70
  16   4  -4    5.20    5.40
  15  -4  -4   -0.10    4.50
  15   4  -4   -1.30    4.50
  15   4  -4   -2.40    3.90
  14  -4  -4  195.58   18.20
  14   4  -4  245.18   15.60
  14   4  -4  226.38   15.70
  13  -4  -4  108.89   12.80
  13  -4  -4  114.29    9.90
  13   4  -4  109.59   11.40
  13   4  -4  112.39   12.10
 -12  -4   4  135.89    9.20
  12  -4  -4   99.59   11.90
  12  -4  -4  121.29    8.60
  12   4  -4  120.39   11.90
 -12   4   4  123.69    9.00
  12   4  -4  127.79   11.80
  11  -4  -4   34.70    7.10
 -11  -4   4   33.10    5.30
  11  -4  -4   37.60    5.00
 -11   4   4   44.80    6.10
  11   4  -4   26.00    5.80
  10  -4  -4  329.97   14.10
 -10  -4   4  317.17   15.50
  10  -4  -4  293.07   17.60
  10   4  -4  357.46   17.60
 -10   4   4  320.17   15.60
   9  -4  -4    0.50    2.80
  -9  -4   4    1.40    2.50
   9  -4  -4   -1.60    1.50
   9   4  -4   -2.10    2.20
   9   4  -4   -1.10    1.90
  -9   4   4    0.60    1.90
  -8  -4   4   59.89    6.50
   8  -4  -4   68.19    8.20
   8  -4  -4   64.79    4.30
   8   4  -4   73.99    6.80
  -8   4   4   54.99    6.50
   8   4  -4   64.99    7.40
   7  -4  -4   84.99    8.60
   7  -4  -4   67.69    3.90
  -7   4   4   55.59    6.30
   7   4  -4   69.89    6.60
   7   4  -4   65.09    7.00
   6  -4  -4 1096.19   34.80
  -6  -4   4 1135.19   39.30
   6  -4  -4 1071.79   39.80
   6   4  -4 1055.49   39.20
   6   4  -4 1123.39   38.00
  -6   4   4 1080.09   39.10
   5  -4  -4    7.10    2.70
  -5  -4   4    6.90    2.80
  -5   4   4    3.30    2.30
   5   4  -4    1.80    2.20
   5   4  -4    4.70    1.90
  -4  -4   4 1289.07   45.10
   4  -4  -4 1322.17   45.20
   4   4  -4 1318.57   43.10
   4   4  -4 1278.17   45.00
  -4   4   4 1297.07   45.20
  -3  -4   4 4398.56  140.19
   3  -4  -4 4411.26  139.69
  -3   4   4 4445.76  140.19
  -3   4   4 4424.36  135.59
   3   4  -4 4298.27  139.69
  -2  -4   4 1229.68   42.60
   2  -4  -4 1237.28   42.00
  -2   4   4 1248.38   39.40
   2   4  -4 1173.78   42.20
  -2   4   4 1268.77   42.80
  -1  -4   4 2670.43   86.59
   1  -4  -4 2665.43   85.39
  -1   4   4 2670.03   83.99
  -1   4   4 2626.24   86.39
   0  -4   4    8.90    2.60
   0   4   4    8.80    2.00
   0   4   4    7.10    2.40
   1  -4   4  139.89    8.10
   1   4   4  137.69    7.60
   1   4   4  156.48    8.20
   2  -4   4   57.89    5.70
   2   4   4   46.60    5.00
   2   4   4   49.40    5.40
   3  -4   4  127.29    7.30
   3   4   4  118.99    6.90
   3   4   4  111.39    7.70
   4  -4   4  624.24   23.00
   4   4   4  618.04   22.50
   4   4   4  584.64   24.40
   5  -4   4  182.98    9.20
   5  -4   4  172.98   10.50
   5   4   4  183.38   11.10
   5   4   4  180.98    8.70
   6  -4   4    6.60    2.30
   6  -4   4    2.60    2.50
   6   4   4    3.90    1.90
   6   4   4    7.00    3.40
   7  -4   4  154.88    8.10
   7  -4   4  158.88   10.60
   7   4   4  158.28    7.60
   7   4   4  157.68   11.20
   8  -4   4    1.80    1.90
   8  -4   4    8.10    3.70
   8   4   4    3.40    3.40
   8   4   4    2.30    1.60
   9  -4   4   -1.00    2.90
   9   4   4    0.20    3.40
  10  -4   4    5.70    3.50
  10   4   4   -4.70    3.20
  11  -4   4    1.40    3.90
  11   4   4    2.00    4.50
  12  -4   4  117.79   12.90
  12   4   4  126.19   14.30
  13  -4   4    3.80    5.00
  13   4   4    7.10    5.30
  14  -4   4   92.69   12.70
  14   4   4  101.69   13.90
  15  -4   4   -7.40    6.00
  15   4   4    0.50    6.60
  17  -5  -4    1.00    5.80
  17   5  -4    0.10    5.20
  17   5  -4   -6.10    5.00
  16  -5  -4   -4.60    4.70
  16   5  -4    8.40    5.40
  16   5  -4   -0.90    4.60
  15  -5  -4   32.80    8.30
  15   5  -4   27.60    7.80
  15   5  -4   22.20    6.10
  14  -5  -4   34.60    8.20
  14   5  -4   68.89   10.30
  13  -5  -4    5.70    4.70
  13   5  -4    7.80    4.30
  13   5  -4   12.20    5.10
 -12  -5   4   12.40    4.10
  12  -5  -4   17.20    4.00
  12  -5  -4   17.80    6.20
  12   5  -4   13.50    4.70
  12   5  -4   15.00    5.00
 -12   5   4   20.80    4.80
  11  -5  -4    0.00    3.70
 -11  -5   4    2.10    2.90
  11  -5  -4    0.10    2.20
  11   5  -4    1.10    3.10
  11   5  -4    1.90    3.00
 -11   5   4    2.20    2.70
  10  -5  -4   75.99    5.70
  10  -5  -4   84.09   10.10
 -10  -5   4   97.59    9.10
  10   5  -4   76.09    9.20
 -10   5   4  102.29    9.30
  10   5  -4   91.39    8.80
  -9  -5   4   83.39    8.20
   9  -5  -4   63.89    4.60
   9  -5  -4   60.39    8.40
  -9   5   4   65.19    7.40
   9   5  -4   57.19    7.60
   9   5  -4   66.19    7.20
   8  -5  -4  220.38    9.00
   8  -5  -4  211.88   13.20
  -8  -5   4  175.58   11.30
   8   5  -4  239.38   13.20
   8   5  -4  230.78   11.40
   7  -5  -4  179.78    7.20
  -7  -5   4  158.88   10.10
   7  -5  -4  193.58   11.70
  -7   5   4  191.08   10.90
   7   5  -4  180.88   11.20
   7   5  -4  190.28    9.50
  -6  -5   4    0.00    2.00
   6  -5  -4    3.00    2.50
   6  -5  -4    2.00    0.70
  -6   5   4   -1.50    1.90
   6   5  -4    5.50    2.80
   6   5  -4    3.60    1.90
   5  -5  -4   -0.50    2.10
  -5  -5   4    1.10    2.60
   5   5  -4   -1.80    1.80
  -5   5   4    2.70    2.30
   5   5  -4    0.80    1.40
   4  -5  -4    3.20    2.50
  -4  -5   4    4.80    2.60
   4   5  -4    1.20    2.10
  -4   5   4   -0.60    2.00
  -3  -5   4    6.40    2.80
   3  -5  -4    1.40    1.80
   3   5  -4    3.80    2.30
  -3   5   4    3.50    2.60
  -3   5   4    3.30    0.90
  -2  -5   4  345.67   16.40
   2  -5  -4  404.56   16.00
  -2   5   4  380.76   16.80
   2   5  -4  373.26   16.40
  -2   5   4  397.36   13.70
   1  -5  -4  193.08    9.30
  -1  -5   4  176.78   10.20
  -1   5   4  196.08    8.50
  -1   5   4  196.08   10.40
   0  -5   4  673.43   25.50
   0   5  -4  647.44   25.30
   0   5   4  662.93   25.20
   0   5   4  653.53   23.70
  -1   5  -4  231.58   11.80
   1   5   4  247.98   11.30
   1   5   4  244.28   11.70
   2   5   4 1570.84   53.59
  -2   5  -4 1606.14   53.99
   2   5   4 1580.44   53.69
  -3   5  -4    1.30    1.30
   3   5   4    1.80    2.20
   3   5   4    4.80    2.40
  -4   5  -4  540.05   21.50
   4   5   4  568.94   23.10
   4   5   4  530.95   21.00
   5  -5   4   39.90    5.60
   5   5   4   53.29    6.80
  -5   5  -4   46.90    5.40
   5   5   4   51.19    5.30
   6  -5   4  224.88   12.80
   6  -5   4  213.98   10.90
   6   5   4  219.38   13.30
   6   5   4  225.38   10.60
   7  -5   4  162.78    9.20
   7  -5   4  165.08   11.00
   7   5   4  192.78   12.60
   7   5   4  176.48    8.90
   8  -5   4    7.10    3.50
   8  -5   4    6.40    2.50
   8   5   4    5.00    2.40
   8   5   4    4.40    3.70
   9  -5   4  313.67   17.40
   9   5   4  316.97   18.50
  10  -5   4    6.60    4.20
  10   5   4   13.00    5.50
  11  -5   4    3.80    3.70
  11   5   4    9.80    5.40
  12  -5   4    7.50    5.10
  12   5   4    9.10    5.50
  13  -5   4    5.10    4.40
  13   5   4    5.80    5.50
  14  -5   4   81.79   11.80
  14   5   4   80.89   12.70
  15  -5   4    4.80    6.40
  15   5   4    9.20    7.20
  17  -6  -4   88.19   14.40
  17   6  -4  112.99   14.60
  16  -6  -4    3.50    5.70
  16   6  -4   -3.30    4.90
  16   6  -4    0.10    5.00
  15  -6  -4   48.30   10.20
  15   6  -4   17.50    6.50
  15   6  -4   29.60    7.50
  14  -6  -4    8.40    5.70
  14   6  -4   -2.00    4.20
  14   6  -4    1.10    4.30
  13  -6  -4   61.39   10.20
 -13   6   4   63.79    9.20
  13   6  -4   68.19   10.10
  13   6  -4   68.19    8.80
  12  -6  -4   96.49   12.00
 -12  -6   4  106.59   10.00
 -12   6   4  113.49   10.30
  12   6  -4  104.69   12.00
  12   6  -4  108.69   10.60
 -11  -6   4    6.60    3.80
  11  -6  -4    1.10    2.40
  11  -6  -4   -0.80    3.80
  11   6  -4    6.60    3.70
 -11   6   4    5.40    3.60
  11   6  -4    1.90    3.60
 -10  -6   4  123.89    9.30
  10  -6  -4  104.99   11.40
  10  -6  -4  121.19    6.90
  10   6  -4  145.39   12.70
  10   6  -4  114.79    8.70
 -10   6   4  113.19   10.40
   9  -6  -4  243.88   15.00
   9  -6  -4  225.58    9.90
  -9  -6   4  237.68   13.30
   9   6  -4  229.48   12.10
   9   6  -4  241.18   14.40
   8  -6  -4  113.19   10.80
   8  -6  -4  119.79    5.60
  -8   6   4  105.69    8.30
   8   6  -4  118.59   11.00
   8   6  -4  110.39    7.40
   7  -6  -4   74.19    8.40
   7  -6  -4   75.59    3.70
  -7  -6   4   76.59    7.90
  -7   6   4   81.19    8.10
   7   6  -4   83.39    5.80
   7   6  -4   70.29    8.10
   6  -6  -4   33.80    1.80
  -6  -6   4   25.90    4.90
   6  -6  -4   32.10    5.30
  -6   6   4   34.20    5.60
   6   6  -4   39.70    4.20
   6   6  -4   43.30    6.10
   5  -6  -4  654.63   25.60
  -5  -6   4  586.74   25.30
   5   6  -4  645.34   25.80
   5   6  -4  647.24   22.30
  -5   6   4  606.24   25.40
  -4  -6   4  459.45   20.50
   4  -6  -4  485.15   20.10
   4   6  -4  503.35   20.80
  -4   6   4  477.15   20.60
   3  -6  -4   98.39    6.90
  -3  -6   4   98.59    8.90
  -3   6   4   99.29    4.60
   3   6  -4  108.89    7.70
  -3   6   4   97.39    7.60
   2  -6  -4   20.70    3.70
  -2   6   4   19.20    2.60
  -2   6   4   27.20    4.60
   2   6  -4   26.50    4.50
   2   6  -4   25.70    4.50
   1  -6  -4    1.30    1.70
  -1   6   4    2.70    2.40
  -1   6   4    0.90    1.30
   1   6  -4    4.90    2.70
   0   6   4    2.90    2.40
   0   6   4   -0.60    1.60
   0   6  -4    1.90    2.40
  -1   6  -4  347.17   15.80
   1   6   4  317.57   15.10
  -2   6  -4  744.33   29.00
   2   6   4  765.12   28.60
   2   6   4  767.72   28.80
   3   6   4   40.70    5.70
  -3   6  -4   48.10    5.90
   3   6   4   49.30    5.60
   4   6   4  149.29   10.00
  -4   6  -4  158.88    9.40
   4   6   4  156.78    9.20
   5   6   4  433.86   18.00
  -5   6  -4  425.06   18.40
   5   6   4  411.06   19.80
   6  -6   4  183.18   11.40
  -6   6  -4  162.48    9.90
   6   6   4  185.08    9.90
   6   6   4  175.78   11.90
   7  -6   4  231.88   13.50
   7   6   4  223.68   11.20
   7   6   4  213.08   14.10
  -7   6  -4  224.38   11.80
   8  -6   4  383.56   18.90
   8  -6   4  369.36   16.50
   8   6   4  355.76   19.90
   8   6   4  384.26   16.00
   9  -6   4   12.10    4.50
   9   6   4    5.00    4.30
  10  -6   4   98.29   10.90
  10   6   4   76.09   10.80
  11  -6   4   26.90    6.90
  11   6   4   13.30    6.00
  12  -6   4   73.99   10.10
  12   6   4   75.69   11.50
  13  -6   4    8.20    5.50
  13   6   4    0.90    4.60
  14  -6   4   10.00    5.50
  14   6   4   13.00    7.00
  15  -6   4   46.90    9.80
  15   6   4   55.19   12.10
  17  -7  -4    0.70    6.20
  17   7  -4   -2.80    5.30
  16  -7  -4   34.70    9.70
  16   7  -4   36.50    8.80
  15  -7  -4   -3.00    4.10
  15   7  -4    5.30    5.80
  14  -7  -4    0.90    5.30
  14   7  -4   -5.70    3.70
  14   7  -4    1.00    3.90
  13  -7  -4   66.49   10.80
 -13   7   4   63.69    8.40
  13   7  -4   58.09    9.50
  13   7  -4   68.49    8.90
 -12  -7   4   22.60    5.50
  12  -7  -4   17.50    6.20
  12   7  -4   10.40    4.60
 -12   7   4   18.20    5.20
  12   7  -4   22.50    6.40
  11  -7  -4   32.70    7.30
 -11  -7   4   27.20    5.60
 -11   7   4   29.70    6.00
  11   7  -4   35.60    7.20
  11   7  -4   32.30    5.70
  10  -7  -4  182.88   13.70
 -10  -7   4  187.18   12.00
  10   7  -4  170.08   10.70
  10   7  -4  192.48   13.50
 -10   7   4  188.38   12.20
   9  -7  -4   27.60    3.10
  -9  -7   4    6.20    3.20
   9  -7  -4   22.60    5.40
  -9   7   4   17.50    4.70
   9   7  -4   26.90    5.90
   9   7  -4   30.60    4.70
  -8  -7   4   70.09    7.90
   8  -7  -4   56.99    8.10
   8  -7  -4   64.39    3.90
   8   7  -4   74.99    6.70
   8   7  -4   56.19    8.00
  -8   7   4   70.29    8.20
   7  -7  -4  187.38   12.00
  -7  -7   4  183.08   11.50
   7  -7  -4  178.28    6.90
   7   7  -4  181.88    9.00
  -7   7   4  199.08   11.90
   7   7  -4  154.98   11.40
   6  -7  -4    0.90    0.80
  -6  -7   4   -1.00    2.70
   6  -7  -4    0.60    2.70
   6   7  -4    1.50    2.50
   6   7  -4    0.60    1.40
  -6   7   4    2.70    2.60
  -5  -7   4  602.24   24.80
   5  -7  -4  545.85   23.80
  -5   7   4  567.94   24.50
   5   7  -4  598.34   24.90
   4  -7  -4  356.26   16.70
  -4  -7   4  372.66   17.90
   4   7  -4  396.36   18.00
   4   7  -4  369.56   17.60
  -4   7   4  364.96   17.70
   3  -7  -4    7.00    2.70
  -3   7   4    7.30    1.60
   3   7  -4    2.60    2.30
   3   7  -4    4.20    2.80
  -3   7   4    2.70    2.70
   2  -7  -4  157.58    9.00
   2   7  -4  161.68   10.50
   2   7  -4  185.08   10.50
  -2   7   4  163.18    7.70
  -2   7   4  161.78   10.30
   1  -7  -4    2.40    1.90
   1   7  -4    2.00    2.60
   1   7  -4    3.70    2.50
  -1   7   4    1.90    2.60
  -1   7   4    3.70    1.80
   0   7  -4  130.89    9.20
   0   7   4  136.29    7.90
   0   7   4  126.49    8.90
  -1   7  -4   28.20    5.30
   1   7   4   23.40    4.70
   2   7   4 1945.31   65.99
  -2   7  -4 1932.51   66.39
   2   7   4 1930.21   65.49
   3   7   4    0.20    2.40
  -3   7  -4   -1.10    2.10
   3   7   4    2.40    2.60
   4   7   4   96.59    8.60
   4   7   4   75.69    8.50
  -4   7  -4   82.29    8.30
   5   7   4  255.07   13.00
   5   7   4  248.98   14.30
  -5   7  -4  239.68   13.20
   6  -7   4   44.50    6.50
  -6   7  -4   56.39    6.80
   6   7   4   60.79    8.20
   6   7   4   49.90    6.10
   7  -7   4   17.40    4.80
  -7   7  -4   18.00    4.20
   7   7   4   19.30    4.10
   7   7   4   14.40    4.90
   8  -7   4   14.80    4.60
   8   7   4   12.50    3.70
  -8   7  -4    9.40    3.70
   8   7   4    8.40    4.40
   9  -7   4    8.90    4.00
   9  -7   4   10.30    5.60
   9   7   4   13.90    5.30
  10  -7   4  221.38   14.70
  10   7   4  214.88   16.00
  11  -7   4   38.30    7.40
  11   7   4   43.80    9.00
  12  -7   4    0.60    3.70
  12   7   4    7.40    5.60
  13  -7   4   34.30    8.10
  13   7   4   52.49   10.40
  14  -7   4  146.39   15.80
  14   7   4  148.69   17.50
  16  -8  -4   -2.90    5.50
  16   8  -4    2.30    5.70
  15  -8  -4   -2.90    4.30
  15   8  -4    0.10    5.30
  14  -8  -4  235.88   21.50
  14   8  -4  267.47   19.20
  13  -8  -4    4.90    4.90
  13   8  -4    2.40    4.30
 -13   8   4   12.20    4.90
  12  -8  -4  139.99   15.10
 -12  -8   4  143.49   12.40
  12   8  -4  109.89   12.90
 -12   8   4  121.29   11.80
  11  -8  -4    3.20    4.20
 -11  -8   4   -0.30    3.30
  11   8  -4    1.30    3.50
  11   8  -4    4.10    3.50
 -11   8   4    2.40    3.30
  10  -8  -4   87.39   10.70
 -10  -8   4   83.99    9.50
  10   8  -4  103.29   11.40
  10   8  -4   80.89    7.80
   9  -8  -4   65.59    8.90
  -9   8   4   65.09    8.50
   9   8  -4   66.89    9.30
   9   8  -4   65.19    6.40
  -8  -8   4   88.39    9.80
   8  -8  -4   99.59   10.70
   8  -8  -4   87.29    4.60
   8   8  -4   87.19    6.10
   8   8  -4   81.79    9.40
  -8   8   4   91.99    9.70
   7  -8  -4    3.80    3.30
  -7  -8   4    5.70    3.50
   7   8  -4    8.20    3.80
  -7   8   4   13.20    4.20
   7   8  -4    9.70    2.20
   6  -8  -4   64.59    3.40
  -6  -8   4   49.90    7.20
   6  -8  -4   69.79    8.10
  -6   8   4   91.29    9.70
   6   8  -4   66.19    8.20
  -5  -8   4  448.56   21.10
   5  -8  -4  465.15   20.40
   5   8  -4  444.06   20.80
  -5   8   4  434.66   20.80
   5   8  -4  456.05   21.20
   4  -8  -4    6.30    3.00
   4   8  -4   12.30    3.90
   4   8  -4    2.20    3.10
  -4   8   4    4.90    3.40
   3  -8  -4  443.76   18.90
  -3   8   4  431.46   16.30
  -3   8   4  446.96   20.60
   3   8  -4  482.25   20.70
   3   8  -4  420.66   20.30
   2  -8  -4  170.28    9.70
  -2   8   4  168.78    8.60
  -2   8   4  219.88   12.30
   2   8  -4  193.28   11.30
   2   8  -4  196.68   12.00
   1  -8  -4    1.30    2.00
  -1   8   4    1.50    1.90
   1   8  -4    2.50    2.70
   1   8  -4    2.50    3.10
  -1   8   4    4.30    3.00
   0   8   4  637.04   24.00
   0   8   4  597.84   25.80
   0   8  -4  618.74   26.20
  -1   8  -4    1.80    2.70
   1   8   4    0.00    2.70
   1   8   4    0.40    1.10
   2   8   4   -0.40    2.30
  -2   8  -4    1.10    2.50
   2   8   4    2.20    2.60
  -3   8  -4  143.59   10.10
   3   8   4  142.19   10.10
   3   8   4  157.58   10.20
   4   8   4    8.90    3.50
   4   8   4    5.70    3.30
  -4   8  -4   11.10    4.20
   5   8   4  398.96   20.10
   5   8   4  423.56   19.10
   6   8   4    1.30    3.00
  -6   8  -4    3.40    3.10
   6   8   4    4.00    3.90
   7  -8   4  237.48   14.10
   7   8   4  263.17   13.60
   7   8   4  236.28   15.40
  -7   8  -4  220.68   13.30
   8  -8   4  138.89   12.30
  -8   8  -4  158.38   10.50
   8   8   4  138.49   13.80
   8   8   4  150.98   10.10
   9  -8   4   91.09   10.10
  -9   8  -4  111.69   10.10
   9   8   4   99.29   12.20
  10  -8   4  224.28   14.70
  10   8   4  207.28   23.30
  11  -8   4   13.20    4.70
  11   8   4   23.00    7.00
  12  -8   4   32.90    7.20
  12   8   4   51.89   10.40
  13  -8   4  169.38   16.30
  13   8   4  167.68   18.00
  14  -8   4    1.40    4.80
  14   8   4    7.70    6.10
  16  -9  -4   13.90    7.50
  16   9  -4   20.90    7.90
  15  -9  -4   20.90    7.80
  15   9  -4   25.00    7.80
  14  -9  -4   -4.00    4.80
  14   9  -4   -0.70    4.60
  13  -9  -4  242.38   18.40
  13   9  -4  212.88   19.00
 -13   9   4  243.68   15.70
  12  -9  -4  108.89   13.30
 -12  -9   4   86.49   10.30
  12   9  -4   97.59   12.40
 -12   9   4   99.39   11.30
  11  -9  -4   13.70    5.60
 -11  -9   4    4.30    4.00
 -11   9   4    3.30    3.70
  11   9  -4   13.20    5.80
  10  -9  -4    0.50    3.70
 -10  -9   4    0.30    2.80
  10   9  -4    2.90    4.10
 -10   9   4    2.90    3.60
   9  -9  -4    9.80    4.70
  -9  -9   4   15.80    5.40
   9   9  -4    7.60    4.30
  -9   9   4   15.80    5.00
   8  -9  -4   46.70    7.60
  -8  -9   4   65.29    8.70
   8   9  -4   49.40    7.90
  -8   9   4   41.60    7.10
   7  -9  -4    8.80    1.80
   7  -9  -4    9.50    3.90
  -7  -9   4    5.40    3.40
  -7   9   4    8.30    4.10
   7   9  -4   12.40    4.30
  -6  -9   4  289.07   16.30
   6  -9  -4  274.47   15.30
   6   9  -4  281.97   16.30
  -6   9   4  282.77   16.20
   5  -9  -4   44.30    6.50
  -5   9   4   38.10    6.60
   5   9  -4   41.60    6.80
   5   9  -4   34.70    6.40
   4  -9  -4   27.20    4.70
   4   9  -4   21.80    5.20
  -4   9   4   23.90    5.40
   4   9  -4   32.70    5.80
   3  -9  -4   73.19    7.20
   3   9  -4   65.19    8.00
   3   9  -4   77.09    8.90
  -3   9   4   69.39    8.40
  -3   9   4   72.29    5.00
   2  -9  -4   38.50    5.10
   2   9  -4   45.20    6.90
  -2   9   4   35.50    4.20
  -2   9   4   42.00    6.70
   2   9  -4   40.70    6.20
   1  -9  -4  271.47   12.40
   1   9  -4  268.57   15.20
  -1   9   4  267.17   12.50
  -1   9   4  248.58   14.60
   1   9  -4  267.47   14.30
   0   9   4   16.20    3.60
   0   9  -4    9.20    4.00
   0   9   4   16.20    4.30
   1   9   4  217.58   13.20
  -1   9  -4  221.58   13.50
   2   9   4   69.79    8.10
  -2   9  -4   66.99    8.40
   2   9   4   65.19    7.60
  -3   9  -4  127.79   11.80
   3   9   4  106.79   10.20
   3   9   4  124.59   11.20
   4   9   4    4.60    3.30
   4   9   4    0.60    2.60
  -4   9  -4    5.30    3.50
   5   9   4   64.39    8.40
  -5   9  -4   40.40    6.70
   5   9   4   60.89    7.80
   6   9   4   19.40    5.40
   6   9   4   21.60    5.10
  -6   9  -4   11.00    3.80
   7  -9   4  452.75   21.50
   7   9   4  423.76   22.50
   7   9   4  413.96   20.10
  -7   9  -4  443.26   21.00
   8  -9   4   46.90    7.60
   8   9   4   42.70    8.10
   8   9   4   28.70    5.70
  -8   9  -4   25.70    6.00
   9  -9   4  108.99   11.60
   9   9   4  120.99   13.90
  -9   9  -4  140.29   12.00
  10  -9   4   -0.90    3.60
  10   9   4    5.30    4.90
  11  -9   4   24.40    6.20
  11   9   4   25.30    7.50
  12  -9   4    2.00    4.80
  12   9   4    8.90    5.90
  13  -9   4   22.50    7.00
  13   9   4   18.00    7.40
  15 -10  -4   24.90    8.60
  15  10  -4   43.30    9.60
  14 -10  -4   12.40    6.60
  14  10  -4   18.40    7.20
  13 -10  -4   37.50    9.00
 -13  10   4   36.30    7.60
  13  10  -4   36.30    8.50
  12 -10  -4    9.90    5.60
 -12 -10   4    8.20    4.80
  12  10  -4    9.60    5.30
 -12  10   4   14.30    5.30
  11 -10  -4    2.90    4.60
 -11 -10   4    9.90    4.90
 -11  10   4   -0.40    3.10
  11  10  -4   12.20    5.40
 -10 -10   4   59.89    9.00
  10 -10  -4  128.09   13.20
  10  10  -4  115.49   12.90
 -10  10   4   97.29   11.30
  -9 -10   4  679.13   30.00
   9 -10  -4  702.43   31.30
   9  10  -4  679.53   31.50
  -9  10   4  631.44   29.70
  -8 -10   4    1.20    3.80
   8 -10  -4   -0.50    3.20
  -8  10   4    4.00    3.90
   8  10  -4   -4.10    2.60
   7 -10  -4   86.29    9.90
  -7 -10   4   97.19   10.70
  -7  10   4   82.39    9.90
   7  10  -4   89.09   10.80
   6 -10  -4  296.57   16.00
  -6 -10   4  287.37   16.90
   6  10  -4  283.77   16.60
  -6  10   4  260.07   16.20
   6  10  -4  295.57   17.10
   5 -10  -4  863.21   34.30
   5  10  -4  897.81   36.30
  -5  10   4  890.91   36.30
   5  10  -4  850.21   35.80
   4 -10  -4  272.17   14.30
   4  10  -4  268.47   16.00
   4  10  -4  266.27   15.70
  -4  10   4  282.57   16.30
   3 -10  -4   23.30    4.30
  -3  10   4   11.30    4.30
   3  10  -4    6.10    4.00
  -3  10   4   15.40    3.00
   3  10  -4    9.70    4.20
   2 -10  -4   93.59    7.00
  -2  10   4   93.99   10.30
   2  10  -4   84.79    9.30
  -2  10   4   89.89    6.50
   2  10  -4   82.89    9.80
   1 -10  -4   11.10    2.90
   1  10  -4    5.50    3.40
  -1  10   4   14.50    4.60
  -1  10   4    9.60    3.00
   1  10  -4    8.90    4.20
   0  10   4    1.20    3.10
   0  10   4    0.00    2.20
   0  10  -4    4.40    3.70
  -1  10  -4  207.58   13.70
   1  10   4  223.28   13.90
  -2  10  -4    7.70    4.00
   2  10   4    9.40    3.60
   2  10   4    8.20    3.80
  -3  10  -4  218.28   14.00
   3  10   4  223.38   13.50
   3  10   4  219.18   13.90
   4  10   4   31.40    6.30
  -4  10  -4   32.30    6.50
   4  10   4   40.30    7.00
  -5  10  -4  194.68   13.30
   5  10   4  189.08   12.50
   5  10   4  196.58   13.60
   6  10   4   76.99    9.00
  -6  10  -4   70.19    9.00
   6  10   4   54.39    8.80
   7  10   4  189.28   16.60
  -7  10  -4  216.18   13.90
   7  10   4  207.88   13.20
   8 -10   4  113.59   11.60
  -8  10  -4  112.49   11.40
   8  10   4   99.09   12.10
   8  10   4  103.79   10.70
   9 -10   4   43.00    7.60
   9  10   4   37.70    8.30
  -9  10  -4   36.90    7.00
  10 -10   4    3.80    4.20
  10  10   4    5.30    5.30
  11 -10   4   -2.20    4.30
  11  10   4   -7.10    4.30
  12 -10   4    9.40    5.60
  12  10   4   17.20    7.10
  13 -10   4   59.09   11.90
  13  10   4   59.59   12.00
  15 -11  -4   40.80   11.40
  15  11  -4   26.80    8.70
  14 -11  -4   99.49   14.50
  14  11  -4   64.99   11.40
  13 -11  -4  103.29   14.30
 -13  11   4  129.99   14.20
  13  11  -4  110.19   14.40
  12 -11  -4    1.30    5.00
 -12 -11   4    4.20    4.50
 -12  11   4    1.10    3.10
  12  11  -4   -1.80    4.40
  11 -11  -4  191.08   17.30
  11  11  -4  181.48   17.60
 -11  11   4  190.28   14.60
 -10 -11   4  136.29   13.50
  10 -11  -4  126.29   13.90
  10  11  -4  151.78   15.60
 -10  11   4  131.89   13.50
   9 -11  -4   12.20    5.70
  -9 -11   4    8.50    4.80
  -9  11   4    8.60    4.80
   9  11  -4    5.50    4.70
   8 -11  -4    7.70    4.70
  -8 -11   4   17.30    5.80
  -8  11   4   11.80    5.20
   8  11  -4   13.50    5.50
  -7 -11   4  238.08   15.80
   7 -11  -4  247.08   15.20
  -7  11   4  229.58   15.50
   7  11  -4  227.68   15.60
   6 -11  -4  137.79   12.40
   6  11  -4  151.38   14.10
  -6  11   4  128.99   13.00
   6  11  -4  138.29   13.40
   5 -11  -4  221.58   13.50
   5  11  -4  243.08   15.40
  -5  11   4  257.87   15.90
   5  11  -4  215.88   14.90
   4 -11  -4   74.59    8.50
   4  11  -4   74.39    9.60
  -4  11   4   65.99    9.30
   4  11  -4   63.69    8.90
   3 -11  -4  326.27   15.80
  -3  11   4  327.07   14.30
   3  11  -4  330.67   18.00
  -3  11   4  326.27   18.60
   3  11  -4  322.27   18.50
   2 -11  -4   37.70    5.20
   2  11  -4   36.40    6.90
  -2  11   4   32.70    7.00
   2  11  -4   34.60    7.10
  -2  11   4   40.90    5.30
   1 -11  -4  150.18    8.80
   1  11  -4  148.79   13.80
  -1  11   4  144.69    9.20
  -1  11   4  141.29   13.20
   1  11  -4  163.48   11.30
   0  11   4   68.79    9.10
   0  11   4   61.89    7.20
   0  11  -4   86.69   10.40
   1  11   4    5.80    3.80
  -1  11  -4    9.20    4.60
   1  11   4    4.80    2.90
  -2  11  -4   -1.80    2.90
   2  11   4   -0.90    2.70
   2  11   4   -2.10    2.70
   3  11   4    4.80    3.60
   3  11   4    7.60    4.10
  -3  11  -4    2.40    3.60
  -4  11  -4   20.50    5.90
   4  11   4   17.30    5.00
   4  11   4   24.80    5.90
   5  11   4    7.90    4.40
   5  11   4    7.80    4.60
  -5  11  -4    2.50    3.70
   6  11   4    8.30    4.70
  -6  11  -4    3.10    3.70
   6  11   4    2.10    4.10
   7  11   4   31.40    6.70
   7  11   4   25.80    6.80
   8 -11   4    8.70    4.30
   8  11   4   17.30    6.50
  -8  11  -4   11.50    5.30
   8  11   4   11.80    5.30
   9 -11   4   51.69    8.40
   9  11   4   55.79   10.20
  -9  11  -4   61.69    9.10
  10 -11   4    0.40    3.80
  10  11   4   -0.90    4.90
  11 -11   4   39.90    8.20
  11  11   4   31.40    9.20
  12 -11   4    4.90    6.10
  12  11   4    3.20    5.70
  14 -12  -4   25.50    8.50
  14  12  -4   27.50    8.80
  13 -12  -4   -0.90    4.90
 -13  12   4    7.80    4.90
  13  12  -4    5.90    6.20
 -12 -12   4   12.00    5.80
  12 -12  -4   23.00    7.90
 -12  12   4    3.50    5.20
  12  12  -4   18.00    7.00
  11 -12  -4    6.10    5.60
 -11 -12   4   20.10    6.60
 -11  12   4   15.20    6.00
  11  12  -4   25.30    7.50
  10 -12  -4    2.20    4.50
 -10 -12   4    3.50    4.40
 -10  12   4    0.10    4.00
  10  12  -4    4.30    4.50
  -9 -12   4  102.19   12.10
   9 -12  -4  143.59   14.30
   9  12  -4   93.89   12.20
  -9  12   4   98.79   12.40
   8 -12  -4   14.40    5.70
  -8 -12   4   15.30    5.50
   8  12  -4    3.20    4.30
  -8  12   4   15.20    5.60
   7 -12  -4   88.09   10.60
  -7 -12   4  101.59   12.10
   7  12  -4   80.19   11.20
   7  12  -4   85.19   11.30
  -7  12   4   78.09   10.60
   6 -12  -4   86.69    9.80
   6  12  -4   68.69   10.00
   6  12  -4   68.79   10.10
  -6  12   4   80.39   10.90
   5 -12  -4  230.38   14.20
   5  12  -4  251.57   16.10
   5  12  -4  243.18   16.30
  -5  12   4  235.08   16.10
   4 -12  -4   15.50    4.50
  -4  12   4   25.60    6.50
   4  12  -4   13.20    5.10
   4  12  -4   21.50    6.20
   3 -12  -4  256.47   13.90
   3  12  -4  279.87   16.70
  -3  12   4  258.87   16.90
  -3  12   4  274.87   13.00
   3  12  -4  277.27   17.40
   2 -12  -4  128.19    8.70
   2  12  -4  112.79   12.40
   2  12  -4  125.49   12.30
  -2  12   4  141.09    9.00
  -2  12   4  124.99   13.30
  -1  12   4   53.49    6.60
  -1  12   4   57.79    9.00
   1  12  -4   52.19    8.70
   0  12   4    1.60    2.70
   0  12   4   -2.40    3.40
   0  12  -4   -3.10    3.10
  -1  12  -4   14.50    5.10
   1  12   4    7.10    3.90
   1  12   4   14.90    5.10
   2  12   4    0.90    3.40
  -2  12  -4   -2.00    2.90
   2  12   4    4.90    3.70
  -3  12  -4  142.59   14.00
   3  12   4  130.59   13.40
   3  12   4  153.28   13.60
   4  12   4   13.70    5.50
   4  12   4   15.80    5.00
  -4  12  -4    8.00    4.90
   5  12   4  117.09   12.80
  -5  12  -4  120.99   13.10
   5  12   4  122.09   12.50
   6  12   4   11.50    5.40
   6  12   4   10.10    5.10
  -6  12  -4   11.20    5.20
   7  12   4  180.68   13.80
  -7  12  -4  192.58   14.30
   7  12   4  162.58   16.30
   8 -12   4   -0.20    3.70
  -8  12  -4    2.70    4.10
   8  12   4    2.40    4.40
   8  12   4   -6.00    3.80
   9 -12   4    5.70    4.90
   9  12   4   13.30    6.40
  -9  12  -4   14.10    5.80
  10 -12   4   24.60    7.00
  10  12   4   16.10    7.50
  11 -12   4   20.60    8.30
  11  12   4   31.40    9.20
  12 -12   4    2.70    6.60
  12  12   4    2.30    5.90
  13 -13  -4   23.30    9.10
 -13  13   4    3.60    3.80
  13  13  -4   28.30    8.40
 -12 -13   4   -0.10    4.50
  12 -13  -4   -1.10    5.10
  12  13  -4   -0.50    4.30
 -12  13   4    3.90    5.10
  11 -13  -4    1.10    4.70
 -11 -13   4    4.10    5.00
 -11  13   4    4.30    4.70
  11  13  -4   10.50    5.80
  10 -13  -4   90.89   12.50
 -10 -13   4   97.99   12.80
 -10  13   4  110.89   13.50
  10  13  -4  106.49   13.80
  -9 -13   4    8.50    5.00
   9 -13  -4   -2.70    4.50
   9  13  -4   -5.00    3.40
  -9  13   4    1.10    3.90
  -8 -13   4   26.20    7.20
   8 -13  -4   22.00    6.80
  -8  13   4   37.20    8.10
   8  13  -4   40.00    8.70
   7 -13  -4   98.49   11.50
  -7 -13   4   70.49   10.80
   7  13  -4   82.89   11.30
  -7  13   4   70.89   10.70
   7  13  -4   82.19   11.50
   6 -13  -4   10.40    4.30
  -6  13   4   10.40    5.30
   6  13  -4   11.70    5.40
   6  13  -4   17.20    5.80
   5 -13  -4  162.48   11.60
   5  13  -4  141.79   14.60
  -5  13   4  161.98   16.10
   5  13  -4  135.09   14.00
   4 -13  -4    1.30    2.90
  -4  13   4    5.10    4.40
   4  13  -4    3.70    4.40
   4  13  -4    6.70    4.40
   3 -13  -4  128.79    9.40
   3  13  -4  129.59   13.30
   3  13  -4  135.29   14.10
  -3  13   4  116.69   13.30
  -3  13   4  118.99    8.60
   2 -13  -4  210.78   11.70
  -2  13   4  206.58   15.30
   2  13  -4  212.78   15.60
  -2  13   4  200.58   11.80
   2  13  -4  236.28   15.00
  -1  13   4  132.09   10.80
  -1  13   4  106.99   12.40
   1  13  -4  107.19   12.60
   0  13   4    5.30    4.70
   0  13   4    7.00    3.60
   0  13  -4   17.50    6.10
  -1  13  -4  124.89   13.50
   1  13   4  111.89   11.20
   1  13   4  115.39   12.80
   2  13   4   47.60    7.90
  -2  13  -4   54.59    9.40
   2  13   4   49.00    8.50
   3  13   4   27.10    7.00
   3  13   4   20.40    5.60
  -3  13  -4   21.90    6.50
  -4  13  -4    2.60    4.00
   4  13   4   -2.70    3.10
   4  13   4    5.20    4.70
  -5  13  -4    1.90    4.60
   5  13   4    7.20    5.30
   5  13   4    7.30    5.00
   6  13   4   16.40    5.90
  -6  13  -4   16.50    5.80
   6  13   4   11.20    5.90
   7  13   4   81.09   11.00
   7  13   4   92.09   12.40
  -7  13  -4   66.49   10.40
   8 -13   4    5.30    4.60
   8  13   4    6.80    4.90
  -8  13  -4    3.30    4.10
   8  13   4    0.70    4.30
   9 -13   4  260.77   16.70
   9 -13   4  209.48   19.30
  -9  13  -4  219.38   16.40
   9  13   4  227.78   21.10
  10 -13   4    1.10    5.10
  10  13   4    4.40    5.90
  11 -13   4   45.20   10.10
  11  13   4   71.29   12.20
 -13  14   4    3.20    6.00
  12 -14  -4   -1.20    5.30
 -12 -14   4    3.60    4.80
 -12  14   4    2.70    5.10
  12  14  -4    8.60    5.90
  11 -14  -4    8.30    6.80
 -11 -14   4    3.80    5.30
 -11  14   4    5.20    5.80
  11  14  -4   -2.20    5.40
 -10 -14   4    5.10    5.50
  10 -14  -4   22.20    7.30
  10  14  -4   14.10    6.60
 -10  14   4    5.00    5.80
   9 -14  -4  321.67   20.70
  -9 -14   4  328.67   21.50
   9  14  -4  312.57   21.50
  -9  14   4  349.67   21.70
   8 -14  -4   -0.50    4.10
  -8 -14   4    9.30    5.80
   8  14  -4   -2.30    4.10
  -8  14   4   -2.20    4.40
   7 -14  -4  284.17   17.60
   7  14  -4  267.27   19.00
   7  14  -4  264.87   18.70
  -7  14   4  276.37   19.00
   6 -14  -4    6.70    4.50
   6  14  -4   11.40    5.50
   6  14  -4   11.10    5.90
  -6  14   4    6.00    5.00
   5 -14  -4  233.58   14.60
  -5  14   4  221.38   16.70
   5  14  -4  224.98   16.90
   5  14  -4  235.18   16.70
   4 -14  -4   72.59    8.60
  -4  14   4   79.79   11.30
   4  14  -4  116.59   13.30
   4  14  -4   70.79   11.00
   3  14  -4   -7.20    3.00
  -3  14   4   -1.30    3.90
   3  14  -4    5.00    4.20
  -2  14   4   32.80    7.50
  -2  14   4   24.20    5.30
   2  14  -4   21.60    6.80
   2  14  -4   24.80    6.20
  -1  14   4   99.39   12.90
   1  14  -4  124.49   14.20
  -1  14   4  134.99   11.70
   0  14  -4   64.49   10.60
   0  14   4   47.10    7.50
   0  14   4   63.89   10.10
  -1  14  -4   59.49   10.00
   1  14   4   58.59    9.80
   1  14   4   62.39    8.50
   2  14   4    2.40    3.70
   2  14   4    4.20    4.90
  -2  14  -4   -1.20    3.90
  -3  14  -4   11.90    5.70
   3  14   4   16.30    5.30
   3  14   4   14.80    6.10
   4 -14   4    2.50    3.50
   4  14   4    3.40    3.50
  -4  14  -4   -0.10    4.10
   4  14   4    1.80    4.20
   5 -14   4  278.47   17.00
   5  14   4  296.77   19.40
   5  14   4  280.17   18.90
  -5  14  -4  304.67   19.50
   6 -14   4   13.90    5.40
   6  14   4   13.50    6.10
   6  14   4    9.60    5.80
  -6  14  -4   18.70    6.50
   7 -14   4   71.99   10.40
   7  14   4   66.09   10.80
   7  14   4   69.09   10.90
  -7  14  -4   82.59   11.80
   8 -14   4   14.10    6.40
   8 -14   4   15.70    5.30
   8  14   4    6.20    5.60
   8  14   4   14.50    6.50
  -8  14  -4   28.00    7.70
   9 -14   4   12.10    6.40
   9  14   4   17.00    6.70
  -9  14  -4    1.10    3.60
  10 -14   4   -0.70    5.00
  10  14   4   10.40    6.70
 -12  15   4   -5.80    5.30
  11 -15  -4   50.09   10.60
 -11 -15   4   47.30   10.40
 -11  15   4   53.99   11.00
  11  15  -4   31.90    9.40
  10 -15  -4   16.40    7.40
 -10 -15   4   25.40    7.90
 -10  15   4   29.20    8.50
  10  15  -4   23.10    7.90
  -9 -15   4    0.00    4.60
   9 -15  -4   -1.50    4.90
   9  15  -4   13.90    6.80
  -9  15   4    7.70    5.50
  -8 -15   4    3.00    5.80
   8 -15  -4   11.20    6.10
  -8  15   4   14.70    6.60
   8  15  -4   10.00    6.00
   8  15  -4   10.60    6.20
   7 -15  -4   67.49   10.00
  -7  15   4   77.79   12.20
   7  15  -4   58.49   10.70
   7  15  -4   64.39   11.20
   6 -15  -4    2.70    3.80
  -6  15   4    2.20    4.50
   6  15  -4   -2.90    4.10
   6  15  -4    2.10    4.60
   5  15  -4   50.99    9.60
  -5  15   4   65.39   11.00
   5  15  -4   77.99   11.70
   4  15  -4   44.30    9.10
  -4  15   4   38.80    8.40
   4  15  -4   45.30    9.30
  -3  15   4  100.09   13.30
   3  15  -4  146.69   15.30
   3  15  -4  110.29   14.20
   2  15  -4   16.90    6.70
  -2  15   4    9.50    5.20
   2  15  -4    4.00    4.80
  -1  15   4   25.90    5.70
  -1  15   4   12.40    6.00
   1  15  -4   32.30    8.10
   0  15   4   22.00    7.00
   0  15  -4   20.20    7.40
   0  15   4   19.00    5.40
   1  15   4   -4.70    3.90
   1  15   4   -3.80    3.00
  -1  15  -4    5.80    5.60
   2  15   4    2.40    3.10
   2  15   4    8.30    5.80
  -2  15  -4    5.60    5.60
   3  15   4   23.50    6.60
   3  15   4   18.00    6.60
  -3  15  -4   25.00    7.30
   4  15   4   81.89   11.00
  -4  15  -4  106.19   13.40
   4  15   4   54.09    9.90
  -5  15  -4    2.90    4.80
   5  15   4    7.90    5.50
   5  15   4   -3.40    3.70
   6 -15   4   32.20    7.60
   6  15   4   26.50    7.90
   6  15   4   30.10    7.70
  -6  15  -4   19.90    7.20
   7 -15   4   33.40    8.00
   7  15   4   16.30    7.20
  -7  15  -4   18.60    7.10
   7  15   4   11.60    6.40
   8 -15   4    5.30    6.10
   8  15   4   10.00    6.10
  -8  15  -4   13.40    7.10
   8  15   4    9.10    6.10
   9 -15   4   46.70   10.20
  -9  15  -4   49.80   10.30
   9  15   4   61.69   11.70
  10 -16  -4   -7.00    5.10
 -10 -16   4   -3.50    4.60
 -10  16   4   -4.50    4.90
  10  16  -4   -5.20    5.90
   9 -16  -4   -1.10    5.20
  -9 -16   4   -3.70    4.60
  -9  16   4   -3.90    5.40
   9  16  -4   -3.60    4.70
  -8 -16   4   -2.60    4.70
   8  16  -4    1.00    6.00
  -8  16   4    0.50    5.30
   8  16  -4    2.40    5.50
   7  16  -4  232.98   20.90
   7  16  -4  207.58   20.20
  -7  16   4  225.78   21.00
  -6  16   4    0.80    4.70
   6  16  -4    5.20    4.90
   6  16  -4    2.40    5.20
  -5  16   4   26.90    8.20
   5  16  -4   29.00    8.20
   5  16  -4   41.20    9.40
   4  16  -4   -3.20    4.50
  -4  16   4    5.70    5.40
   4  16  -4    1.90    4.90
   3  16  -4   94.29   12.40
   3  16  -4   72.59   12.20
  -3  16   4   99.59   13.90
   2  16  -4   54.69   10.70
   2  16  -4   53.29    9.30
  -2  16   4   45.20    9.50
  -1  16   4    3.50    5.30
   1  16  -4    1.90    5.00
   0  16   4    3.30    5.20
   0  16   4    3.20    4.00
   0  16  -4   -0.30    4.60
   1  16   4   42.70    9.30
   1  16   4   34.70    7.30
  -1  16  -4   21.20    7.90
   2  16   4   -0.90    2.90
   2  16   4   -0.40    4.50
  -2  16  -4    6.30    5.50
   3  16   4   95.09   13.20
   3  16   4  108.59   12.90
  -3  16  -4   80.19   12.90
   4  16   4   14.70    6.30
   4  16   4   15.20    7.00
  -4  16  -4   13.90    7.10
  -5  16  -4   45.90    9.80
   5  16   4   24.50    7.50
   5  16   4   47.20   10.00
   6  16   4   24.70    8.30
  -6  16  -4    8.60    6.00
   6  16   4   21.80    7.60
  -7  16  -4   73.39   12.30
   7  16   4   64.49   11.20
   7  16   4   61.79   11.10
   8  16   4   54.89   10.40
   8  16   4   58.89   11.50
  -8  16  -4   56.29   11.70
  -9 -17   4    4.80    5.80
   9  17  -4    4.30    6.90
  -9  17   4    3.60    6.30
  -8 -17   4   79.79   13.20
  -8  17   4   61.39   12.20
   8  17  -4   59.29   11.60
   8  17  -4   64.99   11.80
   7  17  -4    3.10    5.70
   7  17  -4   -1.90    5.50
  -7  17   4    1.60    5.60
   6  17  -4   23.30    8.30
  -6  17   4   35.40    9.20
   6  17  -4   31.90    9.20
   5  17  -4   13.00    7.20
  -5  17   4    3.70    5.60
   5  17  -4    6.80    5.70
   4  17  -4    9.60    6.10
  -4  17   4   13.10    6.60
   4  17  -4    5.90    5.90
   3  17  -4   29.90    7.90
   3  17  -4   16.30    7.30
  -3  17   4   11.90    7.00
   2  17  -4    2.80    5.90
  -2  17   4   -0.80    5.00
  -1  17   4    1.60    5.10
   1  17  -4    5.60    5.70
   0  17  -4    1.10    4.80
   0  17   4    7.80    6.20
  -1  17  -4   33.70    9.10
   1  17   4   40.60    8.20
   1  17   4   37.70    9.10
   2  17   4    2.50    3.50
   2  17   4   16.80    7.10
  -2  17  -4    6.80    5.80
   3  17   4   69.59   12.10
  -3  17  -4   46.50   10.70
   3  17   4   64.39   10.40
  -4  17  -4    7.00    6.00
   4  17   4    3.70    5.40
   4  17   4   -5.90    5.00
  -5  17  -4    0.20    5.30
   5  17   4    2.00    4.60
   5  17   4    3.60    6.30
   6  17   4   -3.20    5.90
   6  17   4   -0.70    4.50
  -6  17  -4    0.20    5.10
  -7  18   4   75.39   13.50
   7  18  -4   81.79   13.60
   7  18  -4   95.99   14.90
  -6  18   4    8.90    6.40
   6  18  -4    8.80    6.50
   6  18  -4   13.30    7.90
  -5  18   4    6.60    6.40
   5  18  -4   16.90    7.80
   5  18  -4   20.60    8.20
   4  18  -4    6.40    6.80
   4  18  -4    9.60    6.40
  -4  18   4    8.50    6.50
   3  18  -4   -2.10    4.20
  -3  18   4    2.20    5.70
   3  18  -4    1.00    5.30
   2  18  -4   -1.20    6.00
  -2  18   4    5.40    5.70
   1  18  -4    2.20    5.70
  -1  18   4    1.50    5.20
   0  18   4   -1.50    4.90
   0  18  -4    1.90    5.50
   1  18   4   22.70    9.10
  -1  18  -4   12.40    7.20
   2  18   4    5.90    5.10
   2  18   4    3.60    5.50
  -2  18  -4    4.10    5.50
   3  18   4    5.10    6.30
  -3  18  -4    4.90    6.60
   3  18   4    9.70    5.80
   4  18   4   21.10    7.50
   4  18   4   28.30    8.60
  -4  18  -4   41.40   10.30
   5  18   4   18.10    7.90
  -5  18  -4   10.60    7.00
   4  19  -4   -4.70    4.80
  -4  19   4    2.50    5.60
   3  19  -4    6.80    6.80
  -3  19   4    0.70    5.90
   2  19  -4   -5.00    5.40
  -2  19   4   -2.30    5.70
  -1  19   4    1.10    6.30
   1  19  -4    6.40    6.90
   0  19   4   -5.00    5.20
   0  19  -4    6.80    7.20
   1  19   4    0.90    5.90
  -1  19  -4    3.30    5.90
  18   0  -5    1.00    5.80
  17   0  -5   -1.20    4.60
  17   0  -5    5.70    5.80
  16   0  -5    5.50    5.60
  16   0  -5    5.40    4.50
  15   0  -5  551.04   25.60
  15   0  -5  514.15   27.80
  14   0  -5   -3.30    2.70
  14   0  -5   -4.00    3.80
 -13   0   5  550.04   22.90
  13   0  -5  502.45   25.90
  13   0  -5  550.84   24.20
  12   0  -5    0.90    3.00
 -12   0   5    2.30    2.70
  12   0  -5    0.80    3.20
  11   0  -5  127.49   12.20
 -11   0   5  158.38    9.90
  11   0  -5  154.48   10.00
  10   0  -5    0.30    2.30
 -10   0   5   -0.60    2.00
  10   0  -5    0.00    2.60
   9   0  -5   18.70    3.70
   9   0  -5   28.00    5.40
  -9   0   5   21.80    4.30
   8   0  -5   -2.00    1.40
  -8   0   5   -0.70    1.80
   8   0  -5    0.10    2.20
   7   0  -5   58.29    6.60
   7   0  -5   57.99    5.40
  -7   0   5   66.99    6.70
   6   0  -5    0.00    1.40
  -6   0   5    1.90    2.20
   6   0  -5    3.90    2.20
  -5   0   5   56.99    6.00
   5   0  -5   48.70    4.40
   5   0  -5   63.59    6.40
   4   0  -5    0.90    1.70
   4   0  -5   -1.00    1.10
  -4   0   5   -2.80    1.40
   3   0  -5  281.87   12.10
  -3   0   5  246.38   12.10
  -2   0   5   -0.70    1.90
  -1   0   5   59.79    5.50
   0   0   5   -2.20    1.30
   1   0   5 5717.83  179.38
   1   0   5 5682.03  178.88
   2   0   5    2.30    1.40
   2   0   5   -0.60    1.50
   3   0   5  436.76   18.40
   3   0   5  437.36   16.60
   4   0   5    1.10    1.40
   4   0   5   -1.00    2.00
   5   0   5  261.67   10.60
   5   0   5  285.77   14.30
   6   0   5   -0.20    2.40
   6   0   5   -0.50    1.10
   7   0   5  799.22   26.00
   7   0   5  842.82   33.10
   8   0   5   -0.10    2.50
   9   0   5  291.67   17.10
  10   0   5   -2.30    3.20
  11   0   5  788.02   35.20
  12   0   5    2.70    4.60
  13   0   5    8.60    5.80
  14   0   5   -1.10    4.80
  15   0   5    3.50    6.20
  18  -1  -5   -9.80    4.40
  18   1  -5    6.80    5.90
  18   1  -5   -2.70    5.70
  17  -1  -5   53.39   11.00
  17   1  -5   38.80    9.30
  17   1  -5   44.30    8.60
  16  -1  -5   10.10    5.20
  16  -1  -5    5.80    6.10
  16   1  -5    5.80    5.80
  16   1  -5    8.70    5.10
  15  -1  -5  300.17   19.80
  15  -1  -5  311.47   17.50
  15   1  -5  291.57   17.90
  15   1  -5  321.77   20.00
  14  -1  -5   59.59    9.60
  14  -1  -5   66.99    8.50
  14   1  -5   79.39   10.50
  14   1  -5   63.69    8.70
 -13  -1   5    3.00    3.10
  13  -1  -5   -2.70    3.50
  13  -1  -5    3.30    3.50
  13   1  -5   -0.80    3.20
 -13   1   5   -2.80    2.40
  13   1  -5    0.70    3.70
 -12  -1   5  163.98   10.30
  12  -1  -5  151.28   14.20
  12  -1  -5  182.48   11.00
  12   1  -5  171.98   11.30
  12   1  -5  149.09   13.40
 -12   1   5  169.48   10.60
  11  -1  -5   19.30    5.40
 -11  -1   5   29.40    5.00
  11  -1  -5   25.90    4.50
  11   1  -5   31.10    6.00
 -11   1   5   27.10    4.90
  11   1  -5   22.30    4.60
  10  -1  -5   79.59    7.20
 -10  -1   5   74.49    7.70
  10  -1  -5   97.59    9.90
  10   1  -5   81.89    8.10
 -10   1   5   93.19    8.60
  10   1  -5   85.89    9.40
   9  -1  -5  191.18   12.00
  -9  -1   5  180.68   10.70
   9  -1  -5  185.58    9.70
   9   1  -5  178.48   10.40
  -9   1   5  193.08   10.80
   9   1  -5  194.08   11.80
   8  -1  -5    7.30    2.40
  -8  -1   5   12.30    3.50
   8  -1  -5    7.40    3.20
   8   1  -5   10.10    3.20
   8   1  -5   11.10    3.00
  -8   1   5    7.80    3.00
   7  -1  -5 1819.42   60.19
   7  -1  -5 1755.32   56.39
  -7  -1   5 1667.93   58.49
   7   1  -5 1771.72   57.69
  -7   1   5 1692.03   58.49
   7   1  -5 1641.34   58.79
   6  -1  -5  194.48    8.70
  -6  -1   5  205.28   10.70
   6  -1  -5  203.78   11.30
  -6   1   5  206.98   11.00
   6   1  -5  204.28   10.80
   6   1  -5  201.88    9.80
   5  -1  -5 2003.00   64.79
  -5  -1   5 1883.81   64.09
   5  -1  -5 1915.61   61.39
  -5   1   5 1850.31   63.99
   5   1  -5 1930.11   62.69
   5   1  -5 1935.61   63.89
   4  -1  -5 2408.26   80.09
  -4  -1   5 2486.15   80.29
   4   1  -5 2412.76   78.69
   4   1  -5 2419.46   79.59
  -4   1   5 2518.25   80.39
  -3  -1   5  245.28   11.50
   3  -1  -5  238.38   11.30
  -3   1   5  244.78   11.60
   3   1  -5  236.28   10.90
  -2  -1   5  189.08    9.70
  -2   1   5  196.18    9.80
  -1  -1   5 1104.49   37.50
  -1   1   5 1061.09   37.40
   0  -1   5  347.57   14.30
   0   1   5  361.46   14.40
   0   1   5  322.97   13.70
   1  -1   5  974.20   33.90
   1   1   5  992.00   34.20
   1   1   5  974.70   33.80
   2  -1   5    2.80    2.00
   2  -1   5    2.40    1.60
   2   1   5    1.90    1.60
   2   1   5    2.20    1.90
   3  -1   5  169.38    9.80
   3  -1   5  166.58    8.30
   3   1   5  169.88    8.10
   3   1   5  204.58   10.30
   4  -1   5  453.85   17.00
   4  -1   5  458.55   19.60
   4   1   5  475.95   19.90
   4   1   5  442.36   16.70
   5  -1   5  644.84   23.00
   5  -1   5  644.44   26.40
   5   1   5  690.93   27.00
   5   1   5  653.13   22.60
   6  -1   5   42.50    6.30
   6  -1   5   45.80    3.30
   6   1   5   33.40    5.70
   6   1   5   39.10    3.00
   7  -1   5  892.41   34.40
   7  -1   5  861.11   27.80
   7   1   5  783.62   33.80
   7   1   5  863.01   27.40
   8  -1   5   16.90    4.90
   8   1   5   15.10    4.70
   9  -1   5    1.20    3.10
   9   1   5    1.70    3.40
  10  -1   5   22.30    5.90
  10   1   5   26.60    6.40
  11  -1   5  173.68   15.80
  11   1   5  171.08   16.10
  12  -1   5    3.60    4.70
  12   1   5   19.80    6.80
  13  -1   5  211.98   18.70
  13   1   5  220.08   19.10
  14  -1   5    9.70    6.40
  14   1   5   -1.10    4.80
  15  -1   5    3.70    6.00
  15   1   5    0.00    6.00
  18  -2  -5   10.40    7.30
  18   2  -5   21.10    6.80
  18   2  -5   12.90    6.00
  17  -2  -5    1.40    4.80
  17   2  -5   -5.40    4.30
  17   2  -5   -2.40    5.20
  16  -2  -5    6.70    5.60
  16   2  -5   10.80    5.40
  16   2  -5   14.80    6.70
  15  -2  -5  160.88   16.90
  15  -2  -5  160.88   13.50
  15   2  -5  177.88   15.80
  15   2  -5  160.38   15.70
  14  -2  -5   -4.50    3.40
  14  -2  -5    3.80    4.20
  14   2  -5    5.50    4.40
  14   2  -5    1.90    4.80
 -13  -2   5   36.80    6.10
  13  -2  -5   50.79    9.30
  13  -2  -5   42.00    6.40
 -13   2   5   48.30    6.80
  13   2  -5   45.90    7.20
  13   2  -5   27.70    6.70
  12  -2  -5    3.20    3.70
  12  -2  -5   -3.40    2.20
 -12  -2   5   -0.20    2.70
  12   2  -5    5.20    3.70
 -12   2   5    1.80    2.90
  12   2  -5   -0.60    3.00
  11  -2  -5  260.97   15.60
 -11  -2   5  208.48   12.40
  11  -2  -5  240.98   12.30
  11   2  -5  237.18   13.80
 -11   2   5  254.37   13.10
  11   2  -5  225.08   14.00
 -10  -2   5    2.70    2.90
  10  -2  -5    2.50    3.20
  10  -2  -5    1.00    2.10
  10   2  -5    0.00    2.50
 -10   2   5   -1.00    2.10
  10   2  -5    2.70    2.70
  -9  -2   5   34.60    5.30
   9  -2  -5   60.79    5.50
   9  -2  -5   58.59    7.70
  -9   2   5   54.39    6.50
   9   2  -5   64.29    7.10
   9   2  -5   61.49    7.20
  -8  -2   5   -3.20    1.50
   8  -2  -5    0.10    2.20
   8  -2  -5   -0.40    1.50
  -8   2   5    0.00    1.20
   8   2  -5    0.50    1.80
   8   2  -5    0.50    1.90
  -7  -2   5   16.50    3.90
   7  -2  -5   23.00    4.70
   7  -2  -5   24.10    2.90
   7   2  -5   21.10    3.80
  -7   2   5   16.10    3.80
   7   2  -5   25.00    4.50
   6  -2  -5  206.38   11.60
   6  -2  -5  209.18    8.40
  -6  -2   5  198.98   10.90
  -6   2   5  219.38   11.10
   6   2  -5  199.98   10.20
   6   2  -5  197.18   10.50
   5  -2  -5  482.45   16.30
  -5  -2   5  481.55   19.60
   5  -2  -5  449.76   19.60
   5   2  -5  483.25   18.70
  -5   2   5  450.55   19.20
   5   2  -5  478.75   18.90
   4  -2  -5    7.30    2.70
  -4  -2   5   -0.50    1.90
  -4   2   5    5.50    2.50
   4   2  -5    3.80    2.00
   4   2  -5    2.90    1.90
  -3  -2   5  603.44   22.70
   3  -2  -5  552.14   21.90
   3   2  -5  563.34   21.40
  -3   2   5  574.94   22.20
  -2  -2   5   95.19    6.50
   2  -2  -5   90.99    6.10
  -2   2   5   98.79    4.90
  -2   2   5   90.29    6.30
  -1  -2   5  623.24   23.40
  -1   2   5  635.74   21.80
  -1   2   5  601.44   23.20
   0  -2   5  206.78   10.10
   0   2   5  202.98    9.30
   0   2   5  206.68   10.00
   1  -2   5  742.03   27.00
   1   2   5  733.73   26.90
   1   2   5  772.02   27.00
   2  -2   5 1619.04   53.89
   2   2   5 1646.84   53.79
   2   2   5 1614.54   54.79
   3  -2   5  115.69    8.00
   3  -2   5  135.19    7.20
   3   2   5  129.89    6.80
   3   2   5  121.99    8.10
   4  -2   5    9.20    2.30
   4  -2   5    9.30    3.10
   4   2   5    6.50    3.00
   4   2   5   12.00    2.50
   5  -2   5  108.09    9.50
   5  -2   5   96.39    5.80
   5   2   5  127.69   10.40
   5   2   5   99.99    5.60
   6  -2   5  304.77   12.40
   6  -2   5  328.87   16.40
   6   2   5  332.77   16.70
   6   2   5  310.27   12.00
   7  -2   5  242.38   10.00
   7  -2   5  255.57   14.40
   7   2   5  243.88   14.50
   7   2   5  253.97    9.40
   8  -2   5   12.10    4.40
   8   2   5   20.00    4.90
   9  -2   5   23.90    5.60
   9   2   5   26.90    6.40
  10  -2   5   -0.10    3.60
  10   2   5    7.00    4.70
  11  -2   5    3.40    3.90
  11   2   5   -0.30    4.20
  12  -2   5   20.30    6.40
  12   2   5   22.80    6.90
  13  -2   5    3.80    4.80
  13   2   5   -2.70    4.50
  14  -2   5    8.80    6.20
  14   2   5   -2.20    4.80
  15  -2   5   21.60    8.30
  15   2   5   39.30    9.70
  18  -3  -5    0.10    6.20
  18   3  -5   -0.80    6.80
  18   3  -5    0.40    6.20
  17  -3  -5   74.59   12.80
  17   3  -5   69.79   12.00
  17   3  -5   57.69   10.20
  16  -3  -5  209.88   19.80
  16   3  -5  197.28   17.70
  16   3  -5  216.68   16.50
  15  -3  -5   17.40    7.40
  15   3  -5   19.20    6.80
  15   3  -5   15.00    6.20
  14  -3  -5   39.40    8.10
  14  -3  -5   26.10    5.50
  14   3  -5   29.50    6.80
  14   3  -5   31.90    7.30
  13  -3  -5   -3.20    3.30
 -13  -3   5    0.00    3.30
  13  -3  -5    0.60    2.80
  13   3  -5    0.50    3.80
 -13   3   5    0.30    2.80
  13   3  -5    0.50    3.00
  12  -3  -5   16.00    5.40
  12  -3  -5   20.80    4.40
 -12  -3   5   41.60    6.00
 -12   3   5   36.50    5.90
  12   3  -5   19.80    5.80
  12   3  -5   24.10    5.60
 -11  -3   5  144.49    9.60
  11  -3  -5  112.29   12.00
  11  -3  -5  125.79    8.00
  11   3  -5   99.79   10.40
 -11   3   5  127.89    9.10
  11   3  -5  120.59   11.10
  10  -3  -5   19.40    3.50
 -10  -3   5   23.60    4.80
  10  -3  -5   12.70    4.70
 -10   3   5   14.70    4.00
  10   3  -5   26.60    5.30
  10   3  -5   11.00    3.90
  -9  -3   5  192.38   11.10
   9  -3  -5  187.38   12.40
   9  -3  -5  178.78    8.80
   9   3  -5  187.08   11.30
  -9   3   5  184.08   10.80
   9   3  -5  177.08   11.00
   8  -3  -5   38.90    6.20
   8  -3  -5   32.30    3.40
   8   3  -5   25.80    4.60
   8   3  -5   37.50    5.30
   7  -3  -5   28.40    5.30
  -7  -3   5   28.20    4.80
   7  -3  -5   27.20    2.70
   7   3  -5   23.60    4.20
  -7   3   5   23.90    4.40
  -6  -3   5  257.77   13.60
   6  -3  -5  294.77   10.30
   6  -3  -5  324.47   15.00
  -6   3   5  269.97   13.80
   6   3  -5  292.77   13.70
   5  -3  -5    8.60    3.00
  -5  -3   5   13.60    3.40
   5   3  -5   11.70    2.90
  -5   3   5   13.40    3.30
   5   3  -5    2.70    1.60
   4  -3  -5  159.38    9.40
  -4  -3   5  159.98    9.30
  -4   3   5  156.28    9.30
   4   3  -5  169.78    9.00
  -3  -3   5   43.70    5.20
   3  -3  -5   37.90    4.70
   3   3  -5   31.40    4.20
  -3   3   5   28.00    4.50
  -3   3   5   32.20    2.30
  -2  -3   5  553.04   22.00
   2  -3  -5  570.14   21.70
  -2   3   5  574.84   22.20
  -2   3   5  558.74   19.30
  -1  -3   5  448.56   18.00
  -1   3   5  418.46   17.70
  -1   3   5  434.46   16.00
   0  -3   5   83.79    6.00
   0   3   5   82.49    5.90
   1  -3   5    8.70    2.60
   1   3   5   11.90    2.90
   1   3   5   11.50    2.60
   2  -3   5   71.49    5.40
   2   3   5   64.29    6.10
   2   3   5   66.59    5.20
   3  -3   5 1202.98   41.20
   3   3   5 1191.18   40.90
   3   3   5 1216.48   42.70
   4  -3   5  169.28   10.50
   4  -3   5  181.88    9.00
   4   3   5  170.78    8.70
   4   3   5  196.48   11.00
   5  -3   5  493.35   19.10
   5  -3   5  504.95   21.80
   5   3   5  503.35   18.70
   5   3   5  509.05   22.00
   6  -3   5  114.89   10.00
   6  -3   5  113.69    6.50
   6   3   5  102.19    5.90
   6   3   5  111.99   10.30
   7  -3   5  240.08   14.10
   7  -3   5  241.68   10.60
   7   3   5  252.57   10.10
   7   3   5  245.88   14.70
   8  -3   5   31.40    6.30
   8   3   5   39.80    6.90
   9  -3   5    4.10    3.40
   9   3   5    9.30    4.80
  10  -3   5  127.89   12.70
  10   3   5  131.29   13.50
  11  -3   5  264.97   17.10
  11   3   5  265.57   17.90
  12  -3   5   -0.30    4.10
  12   3   5   -1.50    4.10
  13  -3   5  124.29   14.20
  13   3   5  106.39   14.00
  14  -3   5    6.00    6.00
  14   3   5    7.50    7.00
  15  -3   5   42.00   10.60
  15   3   5   67.89   12.30
  18  -4  -5    0.30    6.60
  18   4  -5    2.70    5.40
  18   4  -5   -3.20    5.50
  17  -4  -5   91.19   13.70
  17   4  -5   72.79   11.40
  17   4  -5   81.49   12.10
  16  -4  -5   -2.10    4.50
  16   4  -5   -1.40    4.70
  16   4  -5    4.70    5.40
  15  -4  -5  274.07   19.60
  15   4  -5  283.67   18.70
  15   4  -5  281.97   18.00
  14  -4  -5   -1.00    4.50
  14   4  -5    3.30    3.90
  14   4  -5    4.20    4.50
  13  -4  -5  144.99   15.00
 -13  -4   5  132.89   10.10
  13  -4  -5  149.59   15.20
 -13   4   5  142.09   10.40
  13   4  -5  130.99   12.80
  13   4  -5  159.88   14.30
  12  -4  -5    3.00    2.70
 -12  -4   5    5.30    3.50
  12  -4  -5    6.30    4.60
 -12   4   5    1.60    3.00
  12   4  -5    2.40    2.80
  12   4  -5    5.90    4.40
 -11  -4   5  241.38   13.40
  11  -4  -5  230.88   15.50
  11  -4  -5  222.98   11.40
  11   4  -5  249.68   14.70
 -11   4   5  247.88   13.60
  10  -4  -5  240.28   15.50
 -10  -4   5  280.27   14.30
  10  -4  -5  247.58   11.40
 -10   4   5  260.17   14.10
  10   4  -5  277.57   15.10
  -9  -4   5  692.23   27.90
   9  -4  -5  696.63   29.80
   9  -4  -5  691.83   24.40
   9   4  -5  739.73   29.00
   9   4  -5  669.33   27.60
   8  -4  -5  132.09    6.20
   8  -4  -5  141.49   10.40
  -8   4   5  141.49    9.30
   8   4  -5  127.59    9.10
   8   4  -5  143.29    8.90
   7  -4  -5    9.20    3.50
   7  -4  -5    4.70    1.20
  -7  -4   5    5.30    2.70
  -7   4   5    9.10    3.20
   7   4  -5    2.00    2.40
   7   4  -5    0.20    1.90
   6  -4  -5  538.25   23.10
  -6  -4   5  567.74   22.80
   6   4  -5  549.25   21.30
   6   4  -5  551.94   22.50
  -6   4   5  536.45   22.60
   5  -4  -5  957.90   36.20
  -5  -4   5 1018.40   36.40
   5   4  -5  989.00   34.30
  -5   4   5  971.90   36.10
   5   4  -5  985.60   35.80
   4  -4  -5   49.00    5.90
  -4  -4   5   64.79    6.60
   4   4  -5   53.19    6.00
  -4   4   5   58.69    6.40
  -3  -4   5  459.45   19.80
   3  -4  -5  484.05   19.50
  -3   4   5  475.25   19.80
  -3   4   5  476.55   15.90
   3   4  -5  476.65   19.40
  -2  -4   5    3.80    2.40
   2  -4  -5    7.30    2.60
  -2   4   5    8.00    2.90
  -2   4   5   10.10    1.80
  -1  -4   5   51.19    5.70
  -1   4   5   41.40    3.80
  -1   4   5   38.20    5.00
   0  -4   5   76.59    5.90
   0   4   5   62.59    4.70
   0   4   5   83.09    6.10
   1  -4   5  600.64   23.40
   1   4   5  609.14   23.40
   1   4   5  612.74   22.80
   2  -4   5 1152.48   41.20
   2   4   5 1195.58   41.50
   2   4   5 1205.28   41.20
   3  -4   5  241.08   11.50
   3   4   5  237.58   11.30
   3   4   5  238.28   12.40
   4  -4   5    1.30    1.80
   4  -4   5   -0.40    1.80
   4   4   5    4.30    2.10
   4   4   5    2.80    2.60
   5  -4   5    9.70    3.40
   5  -4   5   10.30    2.60
   5   4   5    1.50    2.90
   5   4   5    5.70    2.20
   6  -4   5    1.70    2.50
   6  -4   5   -1.00    1.80
   6   4   5    0.80    1.60
   6   4   5    4.50    3.40
   7  -4   5  143.19   10.30
   7  -4   5  122.69    7.40
   7   4   5  124.99    6.90
   7   4   5  154.48   13.10
   8  -4   5  144.59   12.20
   8  -4   5  125.69    7.20
   8   4   5  124.49   12.40
   9  -4   5  562.04   26.10
   9   4   5  561.44   27.20
  10  -4   5    4.20    3.90
  10   4   5   11.30    5.10
  11  -4   5  458.65   23.60
  11   4   5  438.66   24.70
  12  -4   5   32.80    7.70
  12   4   5   20.30    7.10
  13  -4   5   29.30    7.60
  13   4   5   27.80    8.40
  14  -4   5    6.30    5.70
  14   4   5    6.40    6.80
  15  -4   5    4.70    5.90
  15   4   5   16.60    8.50
  17  -5  -5   17.40    7.60
  17   5  -5    6.50    5.10
  17   5  -5    9.90    6.70
  16  -5  -5   14.30    7.20
  16   5  -5    7.70    5.90
  16   5  -5   10.30    5.70
  15  -5  -5    4.90    5.00
  15   5  -5    0.40    3.00
  15   5  -5   -0.80    4.30
  14  -5  -5  104.89   13.30
  14   5  -5  102.99   12.20
  13  -5  -5  167.68   16.30
 -13  -5   5  163.98   11.40
  13   5  -5  128.89   13.40
 -13   5   5  172.98   11.30
  13   5  -5  134.49   12.70
 -12  -5   5  262.47   14.90
  12  -5  -5  296.97   18.30
 -12   5   5  275.77   15.20
  12   5  -5  294.37   17.30
  12   5  -5  267.37   15.50
 -11  -5   5   15.10    4.50
  11  -5  -5    7.20    2.50
  11  -5  -5    1.40    3.80
  11   5  -5    3.50    3.20
  11   5  -5    8.00    4.20
 -11   5   5    5.20    3.50
  10  -5  -5   59.09    4.90
  10  -5  -5   45.60    7.70
 -10  -5   5   40.60    6.40
 -10   5   5   35.80    6.10
  10   5  -5   53.29    7.00
  10   5  -5   48.60    7.20
   9  -5  -5  276.97   16.40
   9  -5  -5  298.17   11.50
   9   5  -5  300.87   14.60
   9   5  -5  298.67   16.10
   8  -5  -5   49.70    7.20
  -8  -5   5   44.10    6.10
   8  -5  -5   53.09    3.10
   8   5  -5   54.39    6.20
   8   5  -5   55.59    7.30
  -8   5   5   47.70    6.40
   7  -5  -5  284.77   15.50
  -7  -5   5  308.17   15.20
  -7   5   5  296.77   15.00
   7   5  -5  274.77   13.20
   7   5  -5  307.17   15.40
  -6  -5   5   16.30    4.00
   6  -5  -5   10.20    3.50
   6   5  -5   10.10    3.30
   6   5  -5   11.00    2.80
  -6   5   5   18.70    4.10
   5  -5  -5   21.60    4.40
  -5  -5   5   23.60    4.60
  -5   5   5   31.40    5.20
   5   5  -5   30.10    3.80
   5   5  -5   23.40    4.40
  -4  -5   5  601.24   24.40
   4  -5  -5  595.54   23.90
  -4   5   5  605.74   24.50
   4   5  -5  587.94   24.00
   3  -5  -5   11.80    3.20
  -3  -5   5   13.90    3.70
   3   5  -5   13.70    3.40
  -3   5   5   13.40    1.70
  -3   5   5    9.60    3.30
  -2  -5   5 1363.76   48.10
   2  -5  -5 1377.76   47.00
  -2   5   5 1362.16   48.10
  -2   5   5 1373.46   44.40
  -1  -5   5   18.50    4.00
  -1   5   5   11.70    2.40
  -1   5   5   16.30    3.60
   0  -5   5  388.76   17.50
   0   5   5  400.16   15.90
   0   5   5  413.36   17.70
   1  -5   5   73.39    7.10
   1   5   5   88.59    6.60
   1   5   5   84.19    6.20
   2  -5   5   49.70    5.90
   2   5   5   63.19    6.40
   2   5   5   49.99    5.80
   3  -5   5 1483.15   51.39
   3   5   5 1533.35   51.19
   3   5   5 1459.25   51.89
   4  -5   5   26.20    4.20
   4   5   5   21.50    3.80
   4   5   5   23.80    4.80
   5  -5   5  731.33   27.50
   5  -5   5  753.82   29.60
   5   5   5  710.83   29.60
   5   5   5  731.23   27.10
   6  -5   5  122.29   10.80
   6  -5   5  121.79    7.70
   6   5   5  108.49   10.60
   6   5   5  111.89    7.20
   7  -5   5  132.99    8.10
   7  -5   5  134.49   11.90
   7   5   5  118.69   11.70
   7   5   5  129.49    7.60
   8  -5   5    4.40    3.40
   8  -5   5    5.20    2.60
   8   5   5    1.50    3.70
   9  -5   5   63.69    8.60
   9   5   5   61.69    9.20
  10  -5   5    8.20    4.30
  10   5   5   -2.40    3.80
  11  -5   5  337.87   19.80
  11   5   5  341.67   21.40
  12  -5   5   50.09    8.80
  12   5   5   49.99    9.90
  13  -5   5   99.99   12.70
  13   5   5   76.49   12.60
  14  -5   5   10.50    5.70
  14   5   5    9.00    6.00
  17  -6  -5    9.60    7.30
  17   6  -5   13.00    6.40
  16  -6  -5   10.60    6.60
  16   6  -5   11.40    6.10
  16   6  -5   13.20    6.80
  15  -6  -5    8.80    5.50
  15   6  -5    6.70    5.60
  15   6  -5   11.90    6.00
  14  -6  -5   89.99   12.40
  14   6  -5  106.59   11.90
  14   6  -5   95.19   12.40
 -13  -6   5   52.49    7.60
  13  -6  -5   48.80    9.20
  13   6  -5   38.70    7.80
 -13   6   5   53.19    7.70
  13   6  -5   56.69    8.50
 -12  -6   5  156.48   11.30
  12  -6  -5  143.59   14.70
 -12   6   5  182.18   11.90
  12   6  -5  159.88   11.50
  12   6  -5  139.69   13.80
 -11  -6   5  250.77   14.90
  11  -6  -5  257.97   17.10
  11   6  -5  269.97   16.40
 -11   6   5  263.67   15.10
  11   6  -5  297.27   15.30
 -10  -6   5   11.60    3.90
  10  -6  -5   13.00    4.60
  10   6  -5    6.30    3.80
  10   6  -5   11.00    3.60
 -10   6   5    0.80    2.20
   9  -6  -5  483.05   23.30
   9  -6  -5  468.75   16.50
   9   6  -5  458.25   20.00
   9   6  -5  464.75   22.40
  -9   6   5  502.55   22.10
   8  -6  -5   47.10    7.20
   8  -6  -5   46.80    2.40
  -8  -6   5   40.60    6.50
  -8   6   5   39.90    6.30
   8   6  -5   55.69    5.90
   8   6  -5   48.80    7.00
   7  -6  -5  246.68   14.00
  -7  -6   5  215.68   13.20
   7   6  -5  253.97   13.80
  -7   6   5  206.38   12.80
   7   6  -5  249.88   11.50
   6  -6  -5  366.36   17.80
  -6  -6   5  381.76   18.00
  -6   6   5  363.56   17.80
   6   6  -5  385.96   18.00
   6   6  -5  358.36   15.00
   5  -6  -5    1.80    2.40
  -5  -6   5    6.70    3.20
   5   6  -5    0.40    2.30
  -5   6   5    2.60    2.50
   4  -6  -5   45.80    5.60
  -4  -6   5   33.80    5.60
   4   6  -5   34.60    5.40
  -4   6   5   32.70    5.50
   3  -6  -5  978.70   35.70
  -3  -6   5 1019.00   37.10
  -3   6   5  996.60   36.90
   3   6  -5  936.41   36.10
  -3   6   5  977.60   31.90
   2  -6  -5    2.00    2.10
  -2  -6   5    1.00    2.50
  -2   6   5    3.30    1.60
  -2   6   5   -1.00    2.20
   2   6  -5    3.20    2.50
  -1  -6   5  586.84   24.10
  -1   6   5  568.04   23.70
  -1   6   5  582.84   21.20
   0  -6   5  482.55   21.50
   0   6   5  539.75   20.10
   0   6   5  513.85   21.60
   1  -6   5  349.87   16.20
   1   6   5  325.07   15.60
   2  -6   5 1134.89   41.80
   2   6   5 1170.18   41.70
   2   6   5 1172.58   41.50
   3  -6   5    5.10    2.50
   3   6   5    6.60    3.20
   3   6   5    3.00    2.40
   4  -6   5   68.79    7.20
   4   6   5   70.99    8.00
   4   6   5   65.09    6.80
   5  -6   5   17.70    3.70
   5   6   5   29.60    4.50
   5   6   5   21.20    5.10
   6  -6   5   22.60    5.00
   6  -6   5   14.20    3.60
   6   6   5   14.90    4.80
   6   6   5   18.00    3.90
   7  -6   5   41.20    6.80
   7  -6   5   32.80    5.10
   7   6   5   33.90    6.80
   7   6   5   40.20    5.00
   8  -6   5    4.60    2.60
   8  -6   5   -0.20    2.90
   8   6   5    2.30    4.00
   9  -6   5   17.40    5.20
   9   6   5   12.70    5.50
  10  -6   5   17.10    5.50
  10   6   5   19.30    6.60
  11  -6   5   -2.20    3.40
  11   6   5    3.30    4.40
  12  -6   5   63.19    9.50
  12   6   5   58.59   10.60
  13  -6   5   16.50    6.50
  13   6   5   15.30    7.30
  14  -6   5   -0.10    5.70
  14   6   5   -2.00    5.60
  17  -7  -5   13.50    7.30
  17   7  -5   39.20    9.40
  16  -7  -5   87.39   14.30
  16   7  -5   86.69   12.50
  15  -7  -5    2.30    5.30
  15   7  -5    3.90    5.40
  14  -7  -5    5.40    5.70
  14   7  -5    5.40    4.70
  14   7  -5   19.10    6.30
 -13  -7   5   54.19    7.90
  13  -7  -5   46.40    9.40
 -13   7   5   56.79    8.40
  13   7  -5   46.60    8.70
  13   7  -5   54.49    8.30
 -12  -7   5   20.90    5.70
  12  -7  -5   10.30    5.30
 -12   7   5    6.50    4.20
  12   7  -5    7.70    4.20
  12   7  -5   18.90    6.20
 -11  -7   5   96.19   10.30
  11  -7  -5   60.49    9.60
  11   7  -5   79.59   10.50
 -11   7   5  104.39   10.90
  11   7  -5  107.09    9.70
 -10  -7   5   94.49   10.50
  10  -7  -5  137.09   13.20
  10   7  -5  122.69    8.90
 -10   7   5  142.69   12.50
  10   7  -5  135.29   12.80
   9  -7  -5   28.50    6.70
  -9  -7   5   37.40    6.40
  -9   7   5   38.00    6.70
   9   7  -5   37.10    5.20
   9   7  -5   33.40    6.40
   8  -7  -5  167.78   12.10
  -8  -7   5  169.98   11.50
  -8   7   5  167.68   11.40
   8   7  -5  167.48   11.90
   8   7  -5  167.58    9.30
   7  -7  -5   -0.20    2.70
  -7  -7   5   -0.30    2.50
   7   7  -5    1.80    1.90
   7   7  -5    0.60    2.60
  -7   7   5    1.70    2.60
  -6  -7   5  261.87   14.60
   6  -7  -5  257.37   14.30
   6   7  -5  271.57   14.80
  -6   7   5  266.17   14.70
  -5  -7   5  181.18   11.40
   5  -7  -5  154.28   10.40
   5   7  -5  157.98   10.70
  -5   7   5  176.28   11.30
  -4  -7   5   40.10    6.10
   4  -7  -5   51.59    6.30
  -4   7   5   39.70    6.20
  -4   7   5   41.30    2.50
   4   7  -5   35.50    5.50
   3  -7  -5   11.60    3.30
  -3  -7   5   19.20    4.70
   3   7  -5   12.20    3.70
  -3   7   5   15.70    2.20
  -3   7   5    9.10    3.50
   2  -7  -5  441.76   18.60
  -2  -7   5  428.26   20.10
   2   7  -5  468.05   20.10
  -2   7   5  431.76   16.60
  -2   7   5  443.46   20.10
  -1  -7   5    3.60    2.90
   1   7  -5    6.70    3.30
  -1   7   5    5.70    2.30
  -1   7   5    7.20    3.30
   0  -7   5  439.26   20.00
   0   7   5  422.26   19.60
   0   7   5  448.76   18.00
   0   7  -5  423.86   19.70
   1   7   5   24.00    4.90
  -1   7  -5   13.20    3.80
   2   7   5   81.79    7.70
  -2   7  -5   63.09    7.30
   2   7   5   67.29    7.30
   3   7   5   18.20    4.10
  -3   7  -5   12.50    3.80
   3   7   5   10.60    3.80
   4   7   5  179.98   11.70
   4   7   5  190.88   11.00
   5  -7   5  401.46   18.20
   5   7   5  368.96   17.30
   5   7   5  367.96   19.00
  -5   7  -5  385.76   17.90
   6  -7   5   10.10    3.60
   6  -7   5    4.70    3.70
   6   7   5    7.60    4.10
   6   7   5    5.70    3.10
   7  -7   5  131.49    9.20
   7  -7   5  140.59   12.40
   7   7   5  144.09   13.40
   7   7   5  133.89    9.00
   8  -7   5    0.60    2.80
   8  -7   5    0.70    3.00
   8   7   5   11.50    5.10
   9  -7   5   14.30    4.90
   9   7   5   10.70    5.60
  10  -7   5  263.07   16.80
  10   7   5  258.77   18.10
  11  -7   5   26.20    6.60
  11   7   5   46.10    9.20
  12  -7   5  180.48   16.40
  12   7   5  148.89   16.30
  13  -7   5   12.20    6.50
  13   7   5   17.90    7.40
  14  -7   5    6.10    6.10
  14   7   5    6.10    6.00
  16  -8  -5   20.30    8.40
  16   8  -5    9.70    5.60
  15  -8  -5    1.20    6.00
  15   8  -5    3.50    5.20
  14  -8  -5    5.30    5.80
  14   8  -5    3.20    5.00
 -13  -8   5    6.50    4.60
  13  -8  -5    7.70    6.30
 -13   8   5   11.20    5.20
  13   8  -5    6.60    5.80
 -12  -8   5    4.30    4.50
  12  -8  -5    3.80    4.70
  12   8  -5    8.60    4.70
 -12   8   5    8.30    4.70
 -11  -8   5   29.70    6.60
  11  -8  -5   58.59    9.30
  11   8  -5   49.60    6.60
  11   8  -5   34.70    7.40
  10  -8  -5   47.30    8.40
 -10   8   5   72.19    9.20
  10   8  -5   51.09    8.50
  10   8  -5   54.19    6.50
   9  -8  -5   11.00    4.50
  -9  -8   5    8.30    4.10
   9   8  -5   13.10    4.90
   9   8  -5    7.10    3.00
  -9   8   5    5.70    3.80
   8  -8  -5  102.79   11.10
  -8  -8   5  150.08   12.90
   8   8  -5  112.69   11.30
   8   8  -5  106.09    7.00
  -8   8   5  114.69   11.30
  -7  -8   5   25.00    5.60
   7  -8  -5   22.20    5.30
   7   8  -5   21.40    3.20
  -7   8   5   16.30    4.80
   7   8  -5   12.70    4.30
   6  -8  -5    2.40    2.90
  -6  -8   5    6.10    3.60
  -6   8   5    3.30    3.30
   6   8  -5    7.10    3.60
   5  -8  -5   68.79    8.00
  -5  -8   5   59.09    8.00
   5   8  -5   54.39    7.40
  -5   8   5   62.69    8.20
  -4  -8   5   24.10    5.10
   4  -8  -5   32.10    5.20
  -4   8   5   25.20    2.50
  -4   8   5   29.00    5.80
   4   8  -5   26.80    5.40
  -3  -8   5    9.60    4.00
   3  -8  -5    9.00    3.00
  -3   8   5    7.90    1.90
  -3   8   5    6.10    3.30
   3   8  -5    3.40    3.10
   2  -8  -5  328.47   14.70
  -2  -8   5  286.57   16.20
  -2   8   5  291.37   12.80
   2   8  -5  347.37   17.30
   2   8  -5  312.47   15.90
  -2   8   5  308.57   16.30
  -1   8   5  520.95   20.70
  -1   8   5  557.94   24.00
   1   8  -5  538.25   23.90
   0   8   5   -0.40    2.30
   0   8   5    2.40    2.10
   0   8  -5    0.10    2.80
  -1   8  -5  279.67   15.40
   1   8   5  294.87   15.40
   2   8   5  686.03   28.40
   2   8   5  683.73   27.70
  -2   8  -5  714.73   29.00
   3   8   5   95.59    9.10
   3   8   5  109.09    9.90
  -3   8  -5  104.39   10.00
  -4   8  -5  535.65   24.00
   4   8   5  532.65   24.20
   4   8   5  570.24   23.90
   5   8   5   54.69    6.90
   5   8   5   48.00    7.20
  -5   8  -5   20.60    4.70
  -6   8  -5   -1.20    2.90
   6   8   5    3.50    4.00
   6   8   5    3.00    2.90
   7  -8   5  126.09   11.90
   7  -8   5  124.69    9.40
   7   8   5  114.69    8.90
  -7   8  -5  128.69    9.70
   7   8   5  116.19   12.00
   8  -8   5   14.80    4.90
   8  -8   5   10.40    3.90
   8   8   5   14.90    5.60
   8   8   5   13.70    4.70
   9  -8   5  467.35   23.20
   9   8   5  434.16   24.40
  10  -8   5    1.50    4.10
  10   8   5    1.10    4.30
  11  -8   5   43.90    8.40
  11   8   5   45.30    9.10
  12  -8   5    7.70    5.30
  12   8   5   16.80    7.40
  13  -8   5   21.10    6.90
  13   8   5   12.30    7.60
  16  -9  -5   51.09   11.60
  16   9  -5   30.30    8.90
  15  -9  -5   18.40    7.60
  15   9  -5   23.30    7.70
  14  -9  -5    5.10    5.90
  14   9  -5   13.80    6.10
  13  -9  -5    2.90    5.40
 -13  -9   5    9.00    4.80
  13   9  -5   10.20    5.60
 -13   9   5    5.60    4.40
 -12  -9   5   18.30    5.60
  12  -9  -5   21.00    6.70
 -12   9   5   25.70    6.30
  12   9  -5   22.50    7.00
  11  -9  -5  197.78   17.30
 -11  -9   5  141.49   13.90
  11   9  -5  181.78   16.70
 -11   9   5  199.48   14.00
 -10  -9   5  217.18   14.60
  10  -9  -5  222.98   15.70
 -10   9   5  236.48   15.30
  10   9  -5  217.68   15.50
  -9  -9   5  181.68   13.10
   9  -9  -5  179.38   15.80
   9   9  -5  179.08   15.70
  -9   9   5  184.48   13.10
   8  -9  -5   18.60    5.40
  -8  -9   5    5.40    4.10
   8   9  -5    4.20    3.80
  -8   9   5   14.20    4.90
   7  -9  -5  319.67   17.50
  -7  -9   5  335.97   18.00
  -7   9   5  314.77   17.70
   7   9  -5  306.37   17.80
   6  -9  -5    5.90    3.40
  -6  -9   5   21.20    5.70
   6   9  -5    0.00    2.80
  -6   9   5    8.80    4.10
  -5  -9   5   11.10    4.20
   5  -9  -5    4.60    3.00
  -5   9   5    4.70    3.50
   5   9  -5    7.10    3.70
  -4  -9   5  367.16   19.50
   4  -9  -5  380.56   17.90
  -4   9   5  379.56   19.50
   4   9  -5  369.66   19.40
   4   9  -5  390.06   19.40
  -4   9   5  387.56   14.20
   3  -9  -5  143.99    9.20
   3   9  -5  107.59   11.10
  -3   9   5  138.29    7.10
  -3   9   5  138.49   10.70
   3   9  -5  119.59   11.10
   2  -9  -5 1712.03   57.99
   2   9  -5 1678.33   61.09
  -2   9   5 1713.63   56.29
   2   9  -5 1708.23   60.39
  -2   9   5 1659.53   60.79
  -1   9   5    0.40    1.90
  -1   9   5    9.70    4.00
   1   9  -5    0.60    2.70
   0   9  -5  579.14   26.10
   0   9   5  594.44   26.10
   0   9   5  591.94   23.70
   1   9   5   21.90    5.00
   1   9   5   14.50    3.80
  -1   9  -5   23.90    5.40
   2   9   5    2.90    2.80
   2   9   5    4.40    3.20
  -2   9  -5    0.40    2.80
  -3   9  -5  136.89   10.50
   3   9   5  147.69   10.60
   3   9   5  131.29   10.40
   4   9   5    6.30    3.50
  -4   9  -5    6.50    3.70
   4   9   5    6.00    3.90
   5   9   5   73.49    9.50
  -5   9  -5   50.49    7.50
   5   9   5   56.89    7.60
   6   9   5   82.49    8.80
   6   9   5   73.39    9.50
  -6   9  -5   85.89    9.70
   7  -9   5   88.69    9.90
   7   9   5   77.19   10.50
  -7   9  -5   87.69    9.80
   7   9   5   90.09    9.40
   8  -9   5   67.69    8.30
   8  -9   5   66.09    8.90
   8   9   5   49.60    9.10
   8   9   5   66.39    8.90
  -8   9  -5   73.69    9.00
   9  -9   5   74.59   10.00
   9   9   5   67.79   10.50
  10  -9   5   15.50    5.90
  10   9   5   13.30    6.50
  11  -9   5    6.60    4.70
  11   9   5    8.40    6.00
  12  -9   5  102.09   12.80
  12   9   5   96.39   14.00
  13  -9   5   17.40    6.50
  13   9   5   13.80    7.40
  15 -10  -5    7.60    6.40
  15  10  -5    5.60    6.00
  14 -10  -5    1.60    5.40
  14  10  -5    3.10    5.40
  13 -10  -5   11.00    7.00
 -13 -10   5   11.60    5.60
  13  10  -5    0.10    5.50
 -13  10   5   25.20    6.80
 -12 -10   5  101.19   11.80
  12 -10  -5   66.59   11.20
  12  10  -5   73.19   11.30
 -11 -10   5   -0.70    2.30
  11 -10  -5    5.10    4.90
  11  10  -5   -0.90    4.00
 -11  10   5   -1.30    3.90
 -10 -10   5    8.60    4.30
  10 -10  -5   16.90    5.90
  10  10  -5    9.40    5.20
 -10  10   5   10.90    4.90
  -9 -10   5    3.90    3.80
   9 -10  -5    6.50    4.60
   9  10  -5   11.70    5.20
  -9  10   5   -0.70    3.30
  -8 -10   5   13.60    5.10
   8 -10  -5   23.30    6.20
  -8  10   5   16.50    5.60
   8  10  -5   26.60    6.50
  -7 -10   5   67.89    9.10
   7 -10  -5   71.89    9.30
   7  10  -5   64.39    9.00
  -7  10   5   72.29    9.70
  -6 -10   5   61.69    8.60
   6 -10  -5   67.09    8.50
  -6  10   5   48.00    7.90
   6  10  -5   60.49    8.60
   5 -10  -5  344.07   18.10
  -5 -10   5  392.86   20.40
  -5  10   5  376.66   20.00
   5  10  -5  362.36   19.50
  -4 -10   5   36.20    6.90
   4 -10  -5   36.00    5.90
   4  10  -5   21.70    5.30
  -4  10   5   37.10    7.00
   4  10  -5   33.70    6.70
  -4  10   5   32.70    3.60
   3 -10  -5  521.85   21.90
  -3  10   5  505.65   19.40
  -3  10   5  503.15   24.30
   3  10  -5  512.85   23.70
   3  10  -5  494.55   24.30
   2 -10  -5   11.40    3.50
   2  10  -5    2.40    3.50
  -2  10   5    7.40    3.70
  -2  10   5    1.00    1.90
   2  10  -5   -0.30    2.40
  -1  10   5    9.10    2.80
  -1  10   5   10.00    4.30
   1  10  -5   20.60    5.30
   0  10   5   42.30    5.70
   0  10  -5   46.00    7.70
   0  10   5   35.70    6.50
   1  10   5   61.29    8.30
  -1  10  -5   90.19   10.20
   1  10   5   63.79    7.50
  -2  10  -5   31.10    6.30
   2  10   5   35.70    5.90
   2  10   5   31.30    6.20
  -3  10  -5   62.89    8.90
   3  10   5   61.19    8.00
   3  10   5   64.69    8.60
   4  10   5   26.30    6.00
  -4  10  -5   26.20    6.30
   4  10   5   32.50    6.30
   5  10   5   74.49    9.00
  -5  10  -5   81.89    9.90
   5  10   5   94.79   11.10
   6  10   5  355.06   18.60
   6  10   5  345.77   19.80
   7 -10   5   11.50    4.50
   7  10   5    4.60    4.00
  -7  10  -5    3.70    3.90
   7  10   5    8.80    4.40
   8 -10   5    2.00    3.80
  -8  10  -5    3.50    3.90
   8  10   5   -1.10    4.40
   8  10   5    2.40    4.30
   9 -10   5    7.20    4.70
   9  10   5   22.20    7.20
  10 -10   5   11.40    5.10
  10  10   5   14.00    6.30
  11 -10   5   -1.30    4.20
  11  10   5   -3.30    4.80
  12 -10   5   36.50    8.20
  12  10   5   46.90   10.50
  15 -11  -5    7.70    7.50
  15  11  -5   13.40    7.40
  14 -11  -5   13.40    7.00
  14  11  -5   15.70    7.90
 -13 -11   5    2.70    5.40
  13 -11  -5    8.10    6.40
  13  11  -5    5.50    5.50
 -13  11   5    3.20    4.20
 -12 -11   5   25.30    7.10
  12 -11  -5   27.70    7.70
 -12  11   5   24.20    6.90
  12  11  -5   31.90    8.20
  11 -11  -5    0.70    4.50
 -11 -11   5    1.60    4.30
 -11  11   5    0.70    4.50
  11  11  -5   -1.40    3.60
 -10 -11   5    1.10    3.70
  10 -11  -5    1.00    4.80
  10  11  -5    9.30    5.00
 -10  11   5    0.70    3.40
  -9 -11   5   11.90    5.00
   9 -11  -5    8.70    4.90
   9  11  -5   11.50    5.40
  -9  11   5   10.40    5.00
  -8 -11   5    0.00    3.30
   8 -11  -5   -2.80    3.50
  -8  11   5    3.10    3.80
   8  11  -5    1.10    3.70
   7 -11  -5   67.19    9.30
  -7 -11   5   52.59    8.60
  -7  11   5   60.89    9.30
   7  11  -5   66.79    9.60
  -6 -11   5   16.60    5.80
   6 -11  -5   16.40    5.50
   6  11  -5   14.20    5.10
  -6  11   5   16.30    5.60
  -5 -11   5   35.80    7.30
   5 -11  -5   26.60    5.80
   5  11  -5   48.70    8.10
   5  11  -5   42.30    7.40
  -5  11   5   30.90    6.70
   4 -11  -5    2.30    3.00
   4  11  -5    1.90    3.30
   4  11  -5    0.80    3.70
  -4  11   5   -0.90    1.90
  -4  11   5    2.70    3.60
   3 -11  -5    6.60    3.30
   3  11  -5    4.90    4.10
  -3  11   5    2.70    3.70
  -3  11   5    3.90    2.40
   3  11  -5    2.50    3.50
   2 -11  -5   66.39    7.20
  -2  11   5   59.09    8.80
   2  11  -5   66.29    9.50
  -2  11   5   83.99    7.40
   2  11  -5   76.79    9.50
  -1  11   5   46.20    7.60
   1  11  -5   56.89    8.60
  -1  11   5   40.80    5.70
   0  11   5  177.88   11.00
   0  11  -5  153.58   14.40
   0  11   5  169.98   12.60
   1  11   5    5.60    3.80
  -1  11  -5    4.80    4.20
   1  11   5    9.70    3.80
   2  11   5   78.89   10.00
   2  11   5   75.19    8.80
  -2  11  -5   77.19   10.30
   3  11   5   -1.70    3.40
  -3  11  -5   -2.40    3.10
   3  11   5    1.60    3.80
  -4  11  -5   11.50    4.70
   4  11   5    9.50    4.40
   4  11   5    7.30    4.40
  -5  11  -5  159.28   12.70
   5  11   5  203.88   16.50
   5  11   5  175.88   13.00
   6  11   5   13.80    5.40
   6  11   5    2.80    4.10
  -6  11  -5   14.00    5.00
   7  11   5   48.50    7.70
   7  11   5   31.60    7.40
  -7  11  -5   35.90    7.50
   8 -11   5   94.89   11.10
   8  11   5  107.69   11.60
  -8  11  -5  102.39   11.70
   8  11   5   99.39   12.90
   9 -11   5   13.80    5.20
   9  11   5   14.50    6.70
  10 -11   5  187.08   16.30
  10  11   5  166.68   17.90
  11 -11   5   -3.20    3.80
  11  11   5   -0.20    5.60
  12 -11   5   69.59   10.70
  12  11   5   56.89   11.60
  14 -12  -5   -0.70    6.50
  14  12  -5   -1.10    5.30
  13 -12  -5   10.30    7.50
 -13  12   5    5.40    4.70
  13  12  -5    9.30    6.60
  12 -12  -5    1.80    5.40
 -12 -12   5   -0.40    3.00
 -12  12   5   -0.30    4.70
  12  12  -5    6.30    5.60
  11 -12  -5   -1.50    4.20
 -11 -12   5    2.20    4.80
 -11  12   5    3.20    4.50
  11  12  -5   -1.00    4.10
  10 -12  -5   87.59   12.00
 -10 -12   5  106.49   12.50
  10  12  -5   80.79   11.80
 -10  12   5  102.39   12.70
  -9 -12   5    2.10    4.40
   9 -12  -5    6.30    4.90
   9  12  -5    6.20    4.50
  -9  12   5    3.80    4.30
  -8 -12   5   -4.50    3.60
   8 -12  -5    0.10    3.60
  -8  12   5    4.00    4.60
   8  12  -5   -1.70    3.30
  -7 -12   5  199.98   15.30
   7 -12  -5  216.18   14.30
   7  12  -5  175.78   16.30
  -7  12   5  192.88   14.80
  -6 -12   5    4.70    4.90
   6 -12  -5   12.70    4.70
   6  12  -5    6.30    4.30
  -6  12   5    7.50    4.60
   5 -12  -5   36.60    6.70
   5  12  -5   20.60    6.00
   5  12  -5   24.30    6.60
  -5  12   5   28.40    7.00
   4 -12  -5   38.10    6.40
   4  12  -5   28.40    6.30
  -4  12   5   38.80    7.60
   4  12  -5   21.60    6.40
   3 -12  -5   65.99    7.60
  -3  12   5   37.10    7.50
  -3  12   5   37.30    5.00
   3  12  -5   47.90    8.50
   3  12  -5   24.10    6.20
   2 -12  -5   38.60    5.80
   2  12  -5   36.40    7.70
   2  12  -5   31.20    6.60
  -2  12   5   31.90    7.10
  -2  12   5   19.60    4.50
   1  12  -5    3.30    4.30
  -1  12   5    3.60    2.90
  -1  12   5   -1.40    3.30
   0  12   5  252.37   16.50
   0  12   5  244.88   14.00
   0  12  -5  263.37   17.00
  -1  12  -5   -3.20    3.60
   1  12   5    2.20    3.10
   1  12   5    0.00    3.60
   2  12   5   49.10    7.70
   2  12   5   53.99    8.70
  -2  12  -5   53.79    9.10
   3  12   5    1.80    3.80
   3  12   5   10.70    4.70
  -3  12  -5    9.40    5.30
   4  12   5   35.00    7.00
  -4  12  -5   30.60    7.30
   4  12   5   17.80    6.10
  -5  12  -5   32.20    7.30
   5  12   5   23.60    6.50
   5  12   5   21.60    5.90
  -6  12  -5    8.80    4.70
   6  12   5    5.70    4.70
   6  12   5    5.60    4.50
   7  12   5  224.98   19.30
   7  12   5  208.88   14.60
  -7  12  -5  203.28   14.70
   8 -12   5   40.40    8.00
  -8  12  -5   26.70    6.90
   8  12   5   24.70    7.30
   8  12   5   28.70    7.80
   9 -12   5   -4.30    4.00
   9  12   5   -1.80    4.90
  10 -12   5   14.50    6.00
  10  12   5    8.20    6.90
  11 -12   5    9.80    5.90
  11  12   5    3.10    6.20
  13 -13  -5   12.40    7.30
  13  13  -5    1.20    5.70
 -13  13   5    8.20    6.00
  12 -13  -5   93.69   14.00
 -12 -13   5   80.59   11.60
 -12  13   5   84.99   12.60
  12  13  -5   84.59   13.00
 -11 -13   5   17.80    7.30
  11 -13  -5   14.70    6.40
  11  13  -5   23.80    7.30
 -11  13   5   22.80    7.30
  10 -13  -5   86.69   12.70
 -10 -13   5   74.99   11.50
 -10  13   5   82.99   12.00
  10  13  -5   82.89   12.60
   9 -13  -5    5.40    5.00
  -9 -13   5    9.70    5.40
  -9  13   5    7.40    4.80
   9  13  -5   -0.70    4.40
   8 -13  -5   24.80    7.10
  -8 -13   5   20.10    7.30
   8  13  -5   14.40    6.00
  -8  13   5    9.50    5.40
   7 -13  -5   41.60    8.10
  -7 -13   5   23.00    6.90
   7  13  -5   20.00    6.40
  -7  13   5   22.10    6.80
   6 -13  -5   -1.10    3.90
  -6 -13   5    0.90    4.10
   6  13  -5   -3.40    3.70
  -6  13   5   -2.10    3.50
   6  13  -5   -2.60    3.70
   5 -13  -5   27.70    5.90
  -5  13   5   38.90    8.40
   5  13  -5   18.60    6.30
   5  13  -5   33.30    7.90
   4 -13  -5  171.28   11.70
  -4  13   5  157.38   15.80
   4  13  -5  196.08   17.40
   4  13  -5  177.68   16.00
   3 -13  -5   43.80    6.70
   3  13  -5   41.20    8.30
   3  13  -5   45.70    8.00
  -3  13   5   42.30    8.00
   2 -13  -5  792.32   31.50
   2  13  -5  877.41   37.70
  -2  13   5  839.12   31.80
  -2  13   5  805.12   36.70
  -1  13   5   -1.60    2.80
  -1  13   5    1.90    4.20
   1  13  -5    2.10    3.70
   0  13   5  310.47   19.60
   0  13  -5  350.16   20.70
   0  13   5  333.77   17.30
   1  13   5   34.70    7.60
  -1  13  -5   42.10    8.60
   1  13   5   33.80    6.40
  -2  13  -5   13.70    5.70
   2  13   5   11.90    5.40
   2  13   5    7.80    4.10
   3  13   5   10.20    4.80
  -3  13  -5   16.20    6.10
   3  13   5   17.40    5.80
   4  13   5   12.20    5.40
   4  13   5    5.50    5.10
  -4  13  -5    5.50    5.40
   5  13   5   10.00    5.20
  -5  13  -5    8.20    5.60
   5  13   5    5.20    4.50
   6  13   5   32.40    7.40
   6  13   5   38.20    8.40
  -6  13  -5   24.80    6.90
  -7  13  -5   16.80    6.30
   7  13   5   17.30    6.50
   7  13   5   11.60    6.00
   8 -13   5   80.49   10.90
   8  13   5   94.29   13.20
   9 -13   5    6.50    4.50
   9  13   5    2.40    4.80
  10 -13   5    4.00    4.80
  10  13   5   -2.30    5.60
 -13  14   5    4.30    5.50
  12 -14  -5    1.90    6.00
 -12 -14   5    0.40    5.40
  12  14  -5    4.10    6.50
 -12  14   5    6.00    5.50
  11 -14  -5   17.30    7.10
 -11 -14   5   20.30    7.70
  11  14  -5   20.00    7.50
 -11  14   5   31.70    8.30
  10 -14  -5   49.10    9.80
 -10 -14   5   48.80    9.80
 -10  14   5   41.90    9.30
  10  14  -5   39.30    9.30
   9 -14  -5   61.89   10.60
  -9 -14   5   68.79   11.10
   9  14  -5   53.89   10.30
  -9  14   5   38.10    9.10
   8 -14  -5   12.10    5.80
  -8 -14   5   13.40    6.10
   8  14  -5   10.20    6.00
  -8  14   5    3.90    5.20
  -7 -14   5    8.40    5.30
   7 -14  -5    5.00    5.00
   7  14  -5   13.00    5.90
  -7  14   5    0.80    4.60
   6 -14  -5    3.20    4.00
  -6 -14   5   -0.40    4.50
  -6  14   5   -0.90    4.50
   6  14  -5   -2.70    4.30
   6  14  -5   -5.10    3.30
   5 -14  -5   23.60    6.00
  -5  14   5    6.70    5.20
   5  14  -5   18.70    6.40
   5  14  -5   16.40    6.50
   4 -14  -5   14.30    4.50
   4  14  -5    7.80    5.50
  -4  14   5   10.60    5.60
   4  14  -5    6.80    4.80
  -3  14   5   74.09   11.30
   3  14  -5   86.49   11.10
   3  14  -5   92.79   12.70
  -2  14   5   46.50    7.00
   2  14  -5   36.70    8.50
  -2  14   5   58.29    9.90
   1  14  -5    4.70    4.70
  -1  14   5   -1.80    3.50
  -1  14   5    0.50    2.90
   0  14  -5   26.90    7.60
   0  14   5   38.90    8.20
   0  14   5   32.10    6.30
  -1  14  -5   -1.00    3.80
   1  14   5   -0.80    3.20
   1  14   5   -1.70    4.30
   2  14   5   16.60    6.30
  -2  14  -5   21.70    7.10
   3  14   5    5.30    4.10
  -3  14  -5   -3.60    3.70
   3  14   5   -7.90    3.20
   4  14   5   60.49    9.60
   4  14   5   41.30    9.10
  -4  14  -5   53.89   10.30
   5  14   5   45.70    9.10
  -5  14  -5   52.29   10.40
   5  14   5   63.39   10.40
   6  14   5   92.09   12.50
   6  14   5   58.99   10.30
  -6  14  -5   96.89   12.90
  -7  14  -5   15.20    6.00
   7  14   5   24.30    7.70
   7  14   5   29.00    8.10
   8 -14   5   10.60    5.50
   8  14   5    8.30    6.20
  -8  14  -5    0.00    4.90
   9 -14   5    1.50    5.90
   9 -14   5    9.00    5.20
   9  14   5    4.90    5.80
 -12  15   5   -1.80    6.00
  11 -15  -5    3.50    6.10
 -11 -15   5    0.50    5.20
 -11  15   5   -6.50    4.90
  11  15  -5    1.50    6.10
 -10 -15   5   50.39   10.80
  10 -15  -5   39.10    9.70
  10  15  -5   50.09   10.70
 -10  15   5   44.40   10.50
  -9 -15   5   -1.60    4.50
   9 -15  -5    0.20    5.30
   9  15  -5   10.20    6.00
  -9  15   5    3.50    5.50
   8 -15  -5    0.40    4.70
  -8 -15   5   -5.20    4.00
   8  15  -5   -5.60    4.10
  -8  15   5    1.90    5.20
   7 -15  -5   60.79    9.80
  -7 -15   5   57.79   10.80
   7  15  -5   56.69   10.60
  -7  15   5   36.70    9.00
  -6 -15   5   40.70    9.80
   6 -15  -5   28.30    6.60
   6  15  -5   19.70    7.10
  -6  15   5   11.90    6.10
   6  15  -5   23.80    7.30
  -5  15   5   65.29   11.10
   5  15  -5   66.89   11.10
   5  15  -5   55.39   10.30
   4  15  -5   -3.10    3.70
   4  15  -5   -3.80    4.30
  -4  15   5   -7.40    3.30
   3  15  -5   -2.20    5.20
  -3  15   5    3.20    5.00
   3  15  -5   -1.80    3.60
   2  15  -5    6.10    5.20
  -2  15   5    8.40    5.00
  -1  15   5   99.49   11.50
   1  15  -5   94.29   13.10
  -1  15   5   94.99   13.10
   0  15  -5  195.78   19.30
   0  15   5  225.88   14.30
   0  15   5  201.28   18.90
   1  15   5   85.99   12.10
   1  15   5   87.59   10.60
  -1  15  -5   89.09   12.90
  -2  15  -5  151.58   16.70
   2  15   5  168.98   17.20
   3  15   5    0.70    4.40
  -3  15  -5   -1.20    4.50
   3  15   5    0.70    5.00
   4  15   5    4.20    5.50
   4  15   5   -0.30    4.60
  -4  15  -5   -2.00    4.60
   5  15   5   45.20    9.40
   5  15   5    9.30    5.80
  -5  15  -5   22.30    7.50
   6 -15   5   11.10    5.70
   6  15   5   15.60    7.30
   6  15   5   30.10    8.20
  -6  15  -5   12.30    6.20
   7 -15   5   20.10    7.10
  -7  15  -5   17.60    6.80
   7  15   5    7.60    6.40
   7  15   5   13.80    6.30
   8 -15   5    7.20    4.80
   8 -15   5    2.40    5.70
   8  15   5   14.40    6.40
  -8  15  -5    1.10    5.70
 -10 -16   5   14.30    6.70
  10 -16  -5   14.90    7.80
  10  16  -5    6.60    6.40
 -10  16   5   17.70    7.70
  -9 -16   5    0.70    5.60
   9 -16  -5    4.10    5.80
   9  16  -5    1.40    5.40
  -9  16   5    3.90    5.50
  -8 -16   5    3.30    5.70
  -8  16   5   20.80    7.70
   8  16  -5    8.00    6.20
  -7 -16   5   19.70    8.10
   7  16  -5   25.10    8.10
  -7  16   5   15.10    7.10
  -6 -16   5   16.80    7.40
   6  16  -5   13.30    6.90
  -6  16   5   14.10    7.00
   6  16  -5   14.80    7.00
   5  16  -5    8.10    6.30
  -5  16   5    5.10    5.80
   5  16  -5    3.90    5.10
   4  16  -5    3.90    5.70
  -4  16   5   15.60    6.60
   4  16  -5    4.80    4.90
  -3  16   5    7.00    6.30
   3  16  -5    9.90    6.40
   3  16  -5   14.10    6.10
  -2  16   5    2.90    4.70
   2  16  -5   19.00    6.80
   1  16  -5   28.70    8.10
  -1  16   5   22.40    7.70
   0  16  -5    5.50    5.80
   0  16   5    9.10    5.90
  -1  16  -5    7.60    6.00
   1  16   5    6.20    6.30
   1  16   5   -1.00    3.30
   2  16   5    9.90    6.50
  -2  16  -5    1.40    5.20
   2  16   5   12.70    5.20
   3  16   5    6.40    5.00
  -3  16  -5    9.10    6.50
   3  16   5    7.80    6.20
  -4  16  -5   47.60   10.80
   4  16   5   45.50    9.00
   4  16   5   45.80   10.10
  -5  16  -5    4.90    5.80
   5  16   5    2.80    4.80
   5  16   5   15.00    7.00
   6  16   5    4.70    5.20
   6  16   5   24.90    8.20
  -6  16  -5   12.50    7.00
   7  16   5    3.30    5.90
   7  16   5    3.60    5.80
  -7  16  -5    0.90    5.70
  -9 -17   5    0.10    5.70
  -9  17   5    4.40    5.80
   9  17  -5   -5.10    5.00
  -8 -17   5    1.00    5.50
   8  17  -5   -0.70    5.50
  -8  17   5    0.50    5.20
  -7 -17   5    0.70    5.80
  -7  17   5    3.40    6.50
   7  17  -5    3.40    5.50
  -6 -17   5   11.90    7.20
  -6  17   5   13.10    7.00
   6  17  -5   12.50    7.20
   6  17  -5    7.40    6.70
   5  17  -5    3.90    5.40
   5  17  -5    0.00    5.50
  -5  17   5    9.20    6.40
   4  17  -5   47.40   10.30
  -4  17   5   25.80    8.40
   4  17  -5   40.40    9.00
   3  17  -5   -5.50    4.10
  -3  17   5   -0.20    4.50
  -2  17   5   42.30    9.70
   2  17  -5   49.10   10.50
   1  17  -5    2.00    6.00
  -1  17   5   -2.40    4.40
   0  17   5   13.80    7.00
   0  17  -5   10.10    6.70
   1  17   5    3.10    5.10
  -1  17  -5   13.60    7.10
   2  17   5   17.40    7.70
   2  17   5   20.10    6.30
  -2  17  -5   25.60    8.90
  -3  17  -5   -3.10    5.10
   3  17   5    4.90    4.50
   3  17   5    5.80    6.20
  -4  17  -5    3.80    5.30
   4  17   5    5.80    5.40
   4  17   5    1.00    5.30
   5  17   5   28.60    8.70
  -5  17  -5   16.50    7.40
   5  17   5   23.90    7.90
   6  17   5   43.00    9.60
   6  17   5   35.30   10.10
  -6  17  -5   45.90   10.40
  -7 -18   5    9.30    7.30
  -7  18   5   10.20    7.40
  -6 -18   5    0.80    6.40
  -6  18   5   -0.90    5.20
   6  18  -5   -0.90    5.80
   6  18  -5   -2.70    6.60
  -5  18   5    0.90    5.50
   5  18  -5    0.10    5.20
   5  18  -5   17.50    7.90
   4  18  -5   18.60    8.00
  -4  18   5    8.60    6.90
   4  18  -5    9.20    7.10
   3  18  -5   -1.40    5.40
  -3  18   5   -0.60    5.00
   2  18  -5    9.10    7.00
  -2  18   5   10.40    7.30
   1  18  -5    5.50    6.00
  -1  18   5    4.30    5.60
   0  18  -5    6.30    5.90
   0  18   5    0.60    5.20
   1  18   5   13.90    8.00
  -1  18  -5   -0.50    5.60
  -2  18  -5    8.70    6.50
   2  18   5    7.80    7.40
   3  18   5   20.70    7.70
   3  18   5   21.00    8.10
  -3  18  -5   21.90    8.50
   4  18   5   34.40    9.50
  -4  18  -5   42.00   11.10
  -3  19   5   -1.30    5.80
   3  19  -5    1.80    6.00
  -2  19   5    9.00    7.20
   2  19  -5   15.60    8.10
   1  19  -5   -3.40    5.00
  -1  19   5    9.60    6.70
   0  19   5   11.10    7.40
   0  19  -5   14.30    7.60
  18   0  -6   34.90    9.80
  17   0  -6   -0.80    4.90
  16   0  -6    4.00    6.20
  16   0  -6    3.60    4.60
  15   0  -6    2.30    5.20
  15   0  -6    7.70    4.90
  14   0  -6    5.60    4.00
  14   0  -6    2.00    5.00
  13   0  -6    2.50    4.10
 -13   0   6   -0.10    2.90
  13   0  -6    1.60    3.40
 -12   0   6   42.70    6.50
  12   0  -6   44.50    7.80
  12   0  -6   35.10    5.90
  11   0  -6   -0.10    2.20
  11   0  -6    0.50    3.30
 -11   0   6   -0.20    2.40
  10   0  -6   25.00    4.20
  10   0  -6   27.00    5.50
 -10   0   6   26.80    5.20
  -9   0   6    2.00    1.80
   9   0  -6    2.00    2.60
   9   0  -6   -0.90    1.70
   8   0  -6  417.16   18.60
   8   0  -6  399.96   16.10
  -8   0   6  326.87   16.80
  -7   0   6    3.70    2.90
   7   0  -6    4.50    2.90
   7   0  -6    4.30    2.00
   6   0  -6  278.17   11.90
   6   0  -6  257.57   13.50
  -6   0   6  292.57   14.00
   5   0  -6    0.20    2.00
  -5   0   6    0.20    2.00
   5   0  -6   -0.50    1.40
  -4   0   6   22.00    4.10
   4   0  -6   26.30    4.10
  -3   0   6   -0.60    2.00
   3   0  -6   -2.60    1.50
  -2   0   6    4.00    2.40
  -1   0   6    1.70    1.90
   0   0   6  686.63   25.70
   1   0   6    0.80    1.90
   1   0   6    1.20    1.90
   2   0   6  563.04   21.20
   2   0   6  546.35   22.20
   3   0   6    0.40    1.50
   3   0   6    1.80    2.10
   4   0   6   62.29    4.70
   4   0   6   73.19    7.60
   5   0   6    1.30    2.40
   5   0   6    0.50    1.50
   6   0   6 1134.99   38.10
   6   0   6 1180.98   43.60
   7   0   6    0.10    1.20
   7   0   6    1.60    3.00
   8   0   6  285.67   16.70
   9   0   6    1.30    3.30
  10   0   6  210.88   15.10
  11   0   6    3.60    4.40
  12   0   6   26.70    7.40
  13   0   6    1.10    5.10
  14   0   6   -3.80    5.60
  18  -1  -6   57.89   11.70
  18   1  -6   59.09   11.20
  17  -1  -6    7.80    6.70
  17   1  -6    0.00    5.20
  17   1  -6    5.80    6.00
  16  -1  -6  133.39   15.90
  16   1  -6  114.49   14.30
  16   1  -6  127.39   13.10
  15  -1  -6   22.30    6.50
  15  -1  -6   24.10    6.10
  15   1  -6   22.30    5.80
  15   1  -6    6.30    5.30
  14  -1  -6    9.60    5.30
  14  -1  -6   11.80    4.40
  14   1  -6   10.20    4.70
  14   1  -6    7.70    4.70
 -13  -1   6  120.29   10.80
  13  -1  -6   95.99   11.70
  13  -1  -6   89.39    9.10
 -13   1   6   99.49    9.90
  13   1  -6  109.29   12.20
  13   1  -6  102.19   10.20
  12  -1  -6    0.10    2.60
 -12  -1   6    5.00    3.50
  12  -1  -6    1.40    3.90
  12   1  -6    8.20    3.80
 -12   1   6    7.10    3.50
  12   1  -6    9.80    4.30
 -11  -1   6   29.20    5.20
  11  -1  -6   25.90    4.70
  11  -1  -6   34.00    6.80
  11   1  -6   33.70    5.50
 -11   1   6   33.50    5.70
  11   1  -6   38.40    6.80
  10  -1  -6  118.39   11.10
 -10  -1   6   94.79    9.30
  10  -1  -6  125.39    7.80
  10   1  -6  123.29   11.30
 -10   1   6  115.09    8.70
  10   1  -6  133.59    8.70
   9  -1  -6    2.30    2.50
  -9  -1   6    1.00    1.70
   9  -1  -6    5.10    2.30
  -9   1   6    1.00    1.70
   9   1  -6    1.70    2.10
   9   1  -6    0.20    2.50
   8  -1  -6 1279.07   45.60
  -8  -1   6 1222.98   44.40
   8  -1  -6 1214.48   41.60
   8   1  -6 1218.78   44.60
  -8   1   6 1219.48   44.30
   8   1  -6 1206.78   42.80
   7  -1  -6  165.18    8.10
   7  -1  -6  156.38   10.30
  -7  -1   6  180.88   10.50
   7   1  -6  161.38   10.00
  -7   1   6  146.19    9.80
   7   1  -6  165.58    9.00
   6  -1  -6  469.15   17.10
  -6  -1   6  452.75   19.60
   6  -1  -6  444.46   19.80
   6   1  -6  448.96   19.30
  -6   1   6  471.05   19.90
   6   1  -6  446.86   18.00
  -5  -1   6  127.49    8.50
   5  -1  -6  134.49    8.70
  -5   1   6  131.29    8.60
   5   1  -6  130.29    7.50
   5   1  -6  131.09    8.30
  -4  -1   6 1464.95   50.09
   4  -1  -6 1417.36   49.60
   4   1  -6 1440.16   49.30
  -4   1   6 1442.66   49.99
   3  -1  -6   27.50    4.20
  -3  -1   6   22.90    4.10
  -3   1   6   22.80    3.90
  -2  -1   6  725.73   27.60
  -2   1   6  743.13   27.60
  -1  -1   6  157.48    8.90
  -1   1   6  148.99    8.70
   0  -1   6  139.89    8.10
   0   1   6  124.79    7.70
   0   1   6  141.49    7.70
   1  -1   6  284.27   12.90
   1   1   6  292.47   13.00
   1   1   6  279.17   13.00
   2  -1   6   14.50    3.10
   2  -1   6    7.80    2.90
   2   1   6   17.90    3.20
   2   1   6   24.50    4.10
   3  -1   6   14.70    3.00
   3  -1   6   10.30    3.30
   3   1   6   15.80    3.80
   3   1   6   14.10    2.80
   4  -1   6  715.43   28.30
   4  -1   6  706.63   25.70
   4   1   6  704.43   25.40
   4   1   6  718.43   28.40
   5  -1   6  475.15   20.60
   5  -1   6  428.56   16.90
   5   1   6  430.96   16.70
   5   1   6  447.56   20.40
   6  -1   6   66.19    4.50
   6  -1   6   65.79    7.90
   6   1   6   64.39    8.10
   6   1   6   69.29    4.50
   7  -1   6   56.29    7.80
   7  -1   6   50.29    3.70
   7   1   6   49.60    3.50
   7   1   6   49.80    7.40
   8  -1   6    2.20    3.50
   8   1   6   -1.20    3.40
   9  -1   6    0.60    3.30
   9   1   6   -3.70    3.00
  10  -1   6   78.59   10.50
  10   1   6   94.19   11.20
  11  -1   6   27.80    7.70
  11   1   6   32.70    7.90
  12  -1   6   15.70    6.10
  12   1   6   19.90    7.10
  13  -1   6   -3.10    4.40
  13   1   6   -0.40    5.40
  14  -1   6   94.19   13.70
  14   1   6   82.39   12.90
  18  -2  -6    7.00    7.60
  18   2  -6    4.90    6.20
  18   2  -6    4.70    5.70
  17  -2  -6   -1.20    4.20
  17   2  -6    6.10    5.50
  17   2  -6   -4.70    4.30
  16  -2  -6    5.40    5.70
  16   2  -6   10.90    6.30
  16   2  -6    5.10    5.20
  15  -2  -6   73.39   11.60
  15   2  -6   79.89   10.30
  15   2  -6   85.09   12.00
  14  -2  -6   76.99    8.50
  14  -2  -6   67.09   10.50
  14   2  -6   91.99   11.50
  14   2  -6   75.49    9.50
 -13  -2   6   39.30    6.40
  13  -2  -6   33.70    7.50
  13  -2  -6   32.40    5.60
 -13   2   6   45.80    6.80
  13   2  -6   40.20    7.10
  13   2  -6   28.10    6.90
  12  -2  -6  380.86   17.40
 -12  -2   6  407.06   19.10
  12  -2  -6  401.86   21.50
 -12   2   6  388.66   18.70
  12   2  -6  389.06   19.30
  12   2  -6  371.36   20.50
  11  -2  -6    6.80    2.80
  11  -2  -6    4.40    4.00
 -11  -2   6    5.50    3.20
  11   2  -6    7.20    3.10
  11   2  -6    3.50    3.70
 -11   2   6    3.20    3.10
  10  -2  -6    6.20    3.60
  10  -2  -6    6.90    2.50
 -10  -2   6    7.40    3.60
 -10   2   6   13.80    4.00
  10   2  -6    7.20    3.20
  10   2  -6   11.10    4.10
  -9  -2   6    0.20    1.80
   9  -2  -6   -0.10    2.70
   9  -2  -6   -0.60    1.50
   9   2  -6    0.40    2.30
  -9   2   6    1.40    1.80
   9   2  -6    1.40    2.50
  -8  -2   6  181.98   10.70
   8  -2  -6  165.18    8.00
   8  -2  -6  171.88   11.30
   8   2  -6  168.38    9.90
   8   2  -6  145.49   10.10
  -8   2   6  194.48   11.10
  -7  -2   6  125.39    9.20
   7  -2  -6  148.89    6.90
   7  -2  -6  144.89   10.00
   7   2  -6  136.29    9.20
   7   2  -6  146.39    8.80
  -7   2   6  151.08    9.60
   6  -2  -6  120.59    5.80
   6  -2  -6  107.69    8.30
  -6  -2   6  112.39    8.10
   6   2  -6  114.79    7.40
   6   2  -6  110.29    7.70
  -6   2   6  116.39    8.30
  -5  -2   6 1616.14   55.89
   5  -2  -6 1692.23   56.39
  -5   2   6 1625.54   55.99
   5   2  -6 1546.45   54.79
   5   2  -6 1636.14   54.59
   4  -2  -6  684.03   25.70
  -4  -2   6  670.53   25.90
   4   2  -6  656.73   24.50
   4   2  -6  607.84   24.40
  -4   2   6  661.23   25.70
  -3  -2   6 1288.07   46.70
   3  -2  -6 1367.06   46.70
  -3   2   6 1378.06   47.00
  -2  -2   6  405.56   17.00
  -2   2   6  371.96   14.50
  -2   2   6  371.46   16.50
  -1  -2   6  847.02   31.30
  -1   2   6  863.51   31.30
   0  -2   6 1007.70   36.60
   0   2   6 1047.10   36.60
   0   2   6 1044.70   35.90
   1  -2   6    1.80    2.20
   1   2   6    1.80    2.00
   1   2   6   -0.90    1.70
   2  -2   6  261.47   11.80
   2   2   6  215.18   11.70
   2   2   6  248.28   11.40
   3  -2   6   -1.90    1.80
   3  -2   6    1.90    1.80
   3   2   6   -0.60    2.00
   3   2   6   -1.60    1.70
   4  -2   6  335.37   16.30
   4  -2   6  330.07   14.10
   4   2   6  328.07   13.70
   4   2   6  330.67   16.10
   5  -2   6  138.09    7.50
   5  -2   6  124.09   10.70
   5   2   6  116.89   10.40
   5   2   6  128.89    7.00
   6  -2   6   92.89    5.90
   6  -2   6   85.59    9.10
   6   2   6   93.29    5.60
   6   2   6  106.09   10.40
   7  -2   6   85.69    5.20
   7  -2   6   97.49   10.00
   7   2   6   74.89    4.70
   7   2   6   74.59    9.00
   8  -2   6  401.36   21.00
   8   2   6  431.26   21.70
   9  -2   6   68.29    9.40
   9   2   6   86.19   10.60
  10  -2   6  384.16   21.40
  10   2   6  395.66   22.20
  11  -2   6  100.19   12.20
  11   2   6   81.19   11.60
  12  -2   6  144.09   15.00
  12   2   6  158.78   16.30
  13  -2   6   15.90    6.40
  13   2   6   26.20    8.00
  14  -2   6    1.70    5.50
  14   2   6   13.50    7.30
  18  -3  -6   57.79   12.30
  18   3  -6  108.69   15.40
  18   3  -6  102.29   13.60
  17  -3  -6    7.90    7.10
  17   3  -6   17.20    6.80
  17   3  -6    9.50    6.30
  16  -3  -6   83.79   12.70
  16   3  -6  106.09   13.00
  16   3  -6   85.39   11.30
  15  -3  -6   15.50    6.80
  15   3  -6   22.70    7.10
  15   3  -6   11.60    5.40
  14  -3  -6    9.20    5.70
  14   3  -6    9.10    4.50
  14   3  -6    8.30    5.40
  13  -3  -6   -0.70    3.90
 -13  -3   6    5.60    4.10
  13  -3  -6    9.90    3.70
 -13   3   6   11.80    4.60
  13   3  -6   10.40    4.60
  13   3  -6    6.80    4.10
 -12  -3   6   14.80    4.50
  12  -3  -6   16.50    3.70
  12  -3  -6    7.80    4.60
  12   3  -6   10.90    4.40
 -12   3   6   17.00    4.80
  12   3  -6    7.10    4.80
 -11  -3   6   16.10    4.50
  11  -3  -6    9.80    4.50
  11  -3  -6   10.50    3.00
  11   3  -6   12.70    4.30
 -11   3   6    6.50    3.60
  11   3  -6   12.30    4.10
  10  -3  -6  157.28    8.60
  10  -3  -6  167.78   12.50
 -10  -3   6  195.18   11.70
 -10   3   6  177.98   11.20
  10   3  -6  170.78   11.10
  10   3  -6  188.58   11.80
   9  -3  -6   10.30    4.20
   9  -3  -6    6.90    2.10
  -9  -3   6    5.50    2.80
  -9   3   6   10.10    3.60
   9   3  -6   11.70    3.70
   9   3  -6   14.20    3.90
   8  -3  -6  128.19   11.40
  -8  -3   6  115.09    8.60
   8  -3  -6  108.89    5.80
   8   3  -6  113.99    8.20
   8   3  -6  132.09    8.70
  -8   3   6  116.09   10.50
   7  -3  -6  843.12   27.20
  -7  -3   6  821.72   31.80
   7  -3  -6  788.42   32.10
   7   3  -6  839.52   31.10
  -7   3   6  827.22   31.90
   7   3  -6  773.72   30.60
   6  -3  -6  458.85   20.20
  -6  -3   6  436.86   19.60
  -6   3   6  442.06   19.80
   6   3  -6  460.25   19.10
  -5  -3   6   13.30    3.80
   5  -3  -6   24.20    4.50
   5   3  -6   17.70    3.30
   5   3  -6   14.90    3.40
  -5   3   6   14.20    3.70
  -4  -3   6  185.88   10.80
   4  -3  -6  201.28   10.90
  -4   3   6  171.38   10.40
   4   3  -6  190.58   10.10
  -3  -3   6   50.79    6.10
   3  -3  -6   35.20    5.00
  -3   3   6   53.79    6.10
  -3   3   6   37.20    3.20
  -2  -3   6  549.25   22.90
  -2   3   6  586.34   20.50
  -2   3   6  594.14   23.30
  -1  -3   6  139.89    8.50
  -1   3   6  122.39    8.10
  -1   3   6  132.09    7.00
   0  -3   6   71.39    6.70
   0   3   6   88.59    6.40
   0   3   6   70.69    6.10
   1  -3   6  562.44   22.10
   1   3   6  561.54   21.90
   1   3   6  555.44   21.80
   2  -3   6 1091.59   38.90
   2   3   6 1100.49   39.40
   2   3   6 1128.99   38.80
   3  -3   6  706.93   26.10
   3   3   6  674.43   25.50
   3   3   6  692.33   27.20
   4  -3   6  277.17   14.60
   4  -3   6  280.47   12.80
   4   3   6  276.47   12.50
   4   3   6  296.17   14.90
   5  -3   6    2.80    2.70
   5  -3   6    0.40    1.70
   5   3   6    5.90    3.20
   5   3   6    2.60    2.10
   6  -3   6    2.90    3.00
   6  -3   6    5.80    2.40
   6   3   6    4.80    3.20
   6   3   6    4.50    2.10
   7  -3   6    1.60    3.00
   7  -3   6    1.90    2.00
   7   3   6    3.30    1.80
   7   3   6    1.70    3.20
   8  -3   6   19.50    5.20
   8   3   6   13.00    5.00
   9  -3   6    0.00    3.50
   9   3   6    2.30    4.10
  10  -3   6   24.30    6.40
  10   3   6   28.60    7.20
  11  -3   6   11.50    5.50
  11   3   6   19.00    6.40
  12  -3   6   -1.70    4.80
  12   3   6    0.80    4.70
  13  -3   6   30.90    7.80
  13   3   6   28.20    8.40
  14  -3   6   83.79   12.90
  14   3   6   76.39   13.20
  18  -4  -6    6.00    6.70
  18   4  -6   -6.10    4.60
  18   4  -6    9.30    6.80
  17  -4  -6   -2.90    5.00
  17   4  -6    0.20    5.50
  17   4  -6   18.90    7.40
  16  -4  -6    7.40    6.10
  16   4  -6    5.20    5.50
  16   4  -6    0.80    5.40
  15  -4  -6   -1.20    3.90
  15   4  -6   -4.60    4.20
  15   4  -6   -1.10    4.20
  14  -4  -6    8.60    5.80
  14   4  -6   38.40    7.60
  14   4  -6   42.30    8.40
  13  -4  -6    2.10    4.80
 -13  -4   6    8.80    4.30
 -13   4   6    8.90    4.40
  13   4  -6    2.50    3.60
  13   4  -6    5.60    4.90
  12  -4  -6   47.70    8.30
 -12  -4   6   54.69    7.50
  12  -4  -6   46.30    8.50
  12   4  -6   60.39    8.40
 -12   4   6   46.60    7.20
  12   4  -6   38.20    6.70
 -11  -4   6   26.50    5.70
  11  -4  -6   13.50    5.10
  11  -4  -6   29.90    4.10
  11   4  -6   14.30    4.40
  11   4  -6   39.20    6.90
 -11   4   6   21.30    4.70
  10  -4  -6  201.68   13.90
  10  -4  -6  206.58    9.20
 -10  -4   6  179.58   11.90
  10   4  -6  200.48   12.50
  -9  -4   6  271.07   15.50
   9  -4  -6  356.96   18.30
   9  -4  -6  326.77   12.20
   9   4  -6  309.07   16.20
  -9   4   6  331.37   16.50
   8  -4  -6  323.87   11.80
  -8  -4   6  333.07   16.60
   8  -4  -6  327.47   17.40
   8   4  -6  339.47   15.70
  -8   4   6  331.47   16.50
   8   4  -6  330.57   16.20
   7  -4  -6  150.28   10.40
  -7  -4   6  159.48   10.40
  -7   4   6  136.49    9.70
   7   4  -6  148.49    9.70
   7   4  -6  153.98    9.30
  -6  -4   6  275.27   14.50
   6  -4  -6  279.97   14.80
  -6   4   6  285.07   14.60
   6   4  -6  282.07   13.20
   6   4  -6  294.07   14.20
  -5  -4   6  124.19    8.70
   5  -4  -6  110.29    8.30
   5   4  -6  114.59    7.10
  -5   4   6  114.39    8.40
   5   4  -6  118.89    8.10
   4  -4  -6 1223.28   44.30
  -4  -4   6 1281.47   44.80
   4   4  -6 1256.47   44.00
  -4   4   6 1245.48   44.60
  -4   4   6 1226.08   39.30
  -3  -4   6  149.99    9.40
   3  -4  -6  140.09    8.80
  -3   4   6  145.49    9.20
  -3   4   6  137.59    6.10
  -2  -4   6  372.86   17.50
  -2   4   6  407.66   14.90
  -2   4   6  413.16   17.90
  -1  -4   6   71.59    7.30
  -1   4   6   72.19    7.20
  -1   4   6   65.69    4.80
   0  -4   6 1581.84   54.79
   0   4   6 1605.34   54.69
   1  -4   6    0.00    2.10
   1   4   6   -0.50    1.70
   1   4   6    0.00    1.70
   2  -4   6  185.28   10.30
   2   4   6  185.78   10.20
   2   4   6  191.28   10.50
   3  -4   6  270.47   13.20
   3   4   6  291.37   14.30
   3   4   6  279.07   13.10
   4  -4   6  276.67   15.20
   4  -4   6  321.57   14.30
   4   4   6  304.37   13.70
   4   4   6  322.47   15.80
   5  -4   6   34.40    5.90
   5  -4   6   36.40    4.90
   5   4   6   40.40    4.60
   5   4   6   37.50    6.20
   6  -4   6  868.31   33.00
   6  -4   6  779.12   29.20
   6   4   6  794.82   33.00
   6   4   6  772.52   28.50
   7  -4   6   84.79    6.20
   7  -4   6   93.89   10.20
   7   4   6   72.89    9.40
   7   4   6   71.29    5.50
   8  -4   6  281.57   16.70
   8   4   6  292.57   17.70
   9  -4   6   17.50    5.50
   9   4   6    8.50    4.70
  10  -4   6   58.69    8.90
  10   4   6   48.10    9.20
  11  -4   6    2.60    4.30
  11   4   6    8.80    5.10
  12  -4   6   23.90    6.90
  12   4   6   37.30    8.60
  13  -4   6    0.50    4.80
  13   4   6   -2.30    5.00
  14  -4   6    2.00    5.10
  14   4   6   -0.50    5.50
  17  -5  -6   26.30    8.80
  17   5  -6   14.70    6.50
  17   5  -6   16.50    7.50
  16  -5  -6    6.40    6.10
  16   5  -6    8.10    6.10
  16   5  -6   10.40    5.40
  15  -5  -6    1.70    5.70
  15   5  -6   -0.60    2.90
  15   5  -6   -1.10    4.30
  14  -5  -6   28.80    7.80
  14   5  -6    2.50    3.90
 -14   5   6   27.40    7.00
  14   5  -6   38.20    7.90
 -13  -5   6  364.26   18.50
  13  -5  -6  346.37   21.20
  13   5  -6  310.37   18.50
  13   5  -6  337.17   19.60
 -13   5   6  385.96   19.10
  12  -5  -6   51.99    8.90
 -12  -5   6   54.89    7.90
 -12   5   6   49.90    7.60
  12   5  -6   72.89    8.90
  12   5  -6   53.99    8.50
 -11  -5   6    7.90    3.90
  11  -5  -6    5.20    4.40
  11   5  -6    1.40    3.70
 -11   5   6   12.50    4.50
  11   5  -6    8.60    3.70
  10  -5  -6  137.99   13.00
  10  -5  -6  125.89    6.30
 -10   5   6  124.89   11.40
  10   5  -6  117.09   11.40
  10   5  -6  132.69    9.70
  -9  -5   6  417.26   19.50
   9  -5  -6  381.96   13.70
   9  -5  -6  386.56   20.30
   9   5  -6  390.36   19.50
  -9   5   6  424.96   19.70
   9   5  -6  378.06   17.90
  -8  -5   6    3.90    3.00
   8  -5  -6    0.50    2.90
   8   5  -6   -0.70    2.00
  -8   5   6    0.80    2.70
   8   5  -6    2.80    2.70
   7  -5  -6   13.30    4.10
  -7  -5   6   14.00    4.10
   7   5  -6   12.20    3.20
   7   5  -6   15.70    4.10
  -7   5   6   11.60    3.90
   6  -5  -6 1239.18   45.70
  -6  -5   6 1195.98   45.40
  -6   5   6 1257.17   45.60
   6   5  -6 1266.07   43.20
   6   5  -6 1273.67   45.30
  -5  -5   6   18.50    4.30
   5  -5  -6   37.30    5.50
   5   5  -6   27.00    4.70
  -5   5   6   23.90    4.80
  -4  -5   6  118.09    8.80
   4  -5  -6  124.19    8.50
   4   5  -6  123.89    8.50
  -4   5   6  115.79    8.60
  -4   5   6  108.09    4.40
   3  -5  -6  109.29    7.90
  -3  -5   6  118.49    8.70
   3   5  -6  120.79    8.30
  -3   5   6  120.19    5.60
  -3   5   6  139.49    9.10
   2  -5  -6   41.50    5.30
  -2  -5   6   33.90    5.30
  -2   5   6   30.60    5.20
  -2   5   6   42.40    3.90
  -1  -5   6  948.21   36.70
  -1   5   6  976.00   36.80
  -1   5   6 1047.70   34.30
   0  -5   6   63.39    6.90
   0   5   6   46.80    6.10
   0   5   6   70.79    6.10
   1  -5   6    1.40    2.20
   1   5   6    1.50    2.00
   1   5   6    2.10    2.20
   2  -5   6  108.79    7.90
   2   5   6  109.59    8.00
   2   5   6  108.79    7.80
   3  -5   6    2.20    2.20
   3   5   6    3.10    2.40
   3   5   6    2.00    2.50
   4  -5   6   25.60    4.40
   4   5   6   27.00    5.20
   4   5   6   19.10    3.80
   5  -5   6  206.58   11.20
   5  -5   6  219.48   13.00
   5   5   6  202.38   10.80
   5   5   6  212.58   13.20
   6  -5   6   11.20    3.30
   6  -5   6    8.40    3.90
   6   5   6    6.80    3.90
   6   5   6   11.20    3.10
   7  -5   6   16.60    3.70
   7  -5   6   21.90    5.20
   7   5   6   20.00    3.70
   7   5   6   26.30    6.00
   8  -5   6    3.80    3.70
   8   5   6   -3.60    2.90
   9  -5   6    3.90    3.80
   9   5   6    4.70    4.30
  10  -5   6   21.90    6.10
  10   5   6   29.30    7.60
  11  -5   6   45.80    8.60
  11   5   6   40.30    8.90
  12  -5   6    0.80    4.30
  12   5   6    5.30    5.40
  13  -5   6   56.59   10.10
  13   5   6   50.19   10.50
  14  -5   6   74.59   12.20
  14   5   6   56.99   11.80
  17  -6  -6    5.60    7.00
  17   6  -6    5.10    5.90
  16  -6  -6  115.89   15.30
  16   6  -6  121.99   14.00
  16   6  -6  135.49   14.70
  15  -6  -6    7.90    5.70
  15   6  -6    4.40    5.40
  15   6  -6    4.30    5.00
  14  -6  -6  192.38   18.50
  14   6  -6  202.08   14.00
  14   6  -6  193.58   17.20
 -14   6   6  180.68   13.20
  13  -6  -6  278.57   19.10
 -13  -6   6  262.97   15.90
 -13   6   6  292.07   16.70
  13   6  -6  242.58   16.80
  13   6  -6  250.87   15.70
  12  -6  -6   39.90    8.00
 -12  -6   6   75.49    9.40
  12   6  -6   60.79    7.90
  12   6  -6   60.79    9.00
 -12   6   6   68.99    8.90
 -11  -6   6   33.50    6.60
  11  -6  -6   29.90    7.40
  11   6  -6   35.90    6.00
  11   6  -6   29.00    6.30
 -10  -6   6   26.30    5.60
  10  -6  -6   46.00    8.00
  10   6  -6   62.19    8.30
 -10   6   6   76.99    9.40
  10   6  -6   63.59    7.40
  -9  -6   6  221.38   13.90
   9  -6  -6  249.18   15.40
   9   6  -6  236.48   12.60
  -9   6   6  235.58   14.20
   9   6  -6  229.88   14.20
   8  -6  -6   35.40    6.40
  -8  -6   6   40.50    6.60
   8   6  -6   27.60    5.40
   8   6  -6   33.40    5.10
  -8   6   6   32.00    6.30
  -7  -6   6  165.58   11.10
   7  -6  -6  139.89   10.50
   7   6  -6  149.88   10.60
   7   6  -6  141.99    8.60
  -7   6   6  152.48   10.70
   6  -6  -6   10.50    3.70
  -6  -6   6   21.50    4.80
   6   6  -6   14.90    4.00
  -6   6   6   20.70    4.80
  -5  -6   6 2189.98   75.79
   5  -6  -6 2264.37   75.59
  -5   6   6 2278.57   76.29
   5   6  -6 2133.69   75.29
  -4  -6   6  617.94   26.20
   4  -6  -6  604.94   25.10
  -4   6   6  597.64   25.90
   4   6  -6  643.64   25.80
  -4   6   6  618.84   20.00
   3  -6  -6    7.70    3.00
  -3  -6   6    6.40    3.40
  -3   6   6   13.40    2.10
   3   6  -6   12.90    3.60
  -3   6   6   10.70    3.50
  -2  -6   6   60.89    7.20
   2  -6  -6   52.49    6.00
  -2   6   6   60.79    4.40
  -2   6   6   68.09    7.50
  -1  -6   6  233.98   13.00
  -1   6   6  224.58   10.60
  -1   6   6  239.78   13.10
   0  -6   6 1516.95   54.49
   0   6   6 1563.54   52.39
   0   6   6 1575.34   54.59
   1  -6   6   26.10    5.00
   1   6   6   30.00    5.00
   1   6   6   21.20    3.80
   2  -6   6  382.86   17.30
   2   6   6  348.27   16.50
   2   6   6  353.86   16.70
   3  -6   6  384.26   18.20
   3   6   6  406.76   18.30
   3   6   6  435.56   19.20
   4  -6   6   10.00    3.10
   4   6   6    3.10    2.70
   4   6   6   10.80    3.90
   5  -6   6   37.20    5.60
   5  -6   6   35.70    6.10
   5   6   6   35.60    5.30
   5   6   6   32.40    6.10
   6  -6   6   21.80    4.60
   6  -6   6   10.00    4.30
   6   6   6    6.60    3.10
   6   6   6    9.40    4.80
   7  -6   6   79.29    9.50
   7  -6   6   78.59    7.80
   7   6   6   70.99    9.60
   7   6   6   72.59    7.10
   8  -6   6  115.39   11.80
   8   6   6  121.69   12.80
   9  -6   6   43.50    7.70
   9   6   6   44.30    8.50
  10  -6   6   37.80    7.70
  10   6   6   35.40    8.30
  11  -6   6   49.30    9.10
  11   6   6   39.40    9.10
  12  -6   6   32.40    7.80
  12   6   6   30.70    8.70
  13  -6   6   46.50    9.60
  13   6   6   40.40    9.80
  17  -7  -6    4.30    6.40
  17   7  -6    2.40    6.00
  16  -7  -6   -1.70    5.40
  16   7  -6    0.60    5.90
  15  -7  -6    5.20    6.10
  15   7  -6    3.40    5.20
  14  -7  -6   12.70    6.40
  14   7  -6    9.60    5.50
 -14   7   6    6.80    4.80
  14   7  -6    2.30    4.10
  13  -7  -6   98.19   12.90
 -13  -7   6  125.59   12.40
 -13   7   6   74.99   10.10
  13   7  -6   94.39   11.90
  13   7  -6   91.69   10.30
 -12  -7   6   -1.70    3.20
  12  -7  -6    2.60    4.30
  12   7  -6   -0.50    3.50
  12   7  -6   -2.90    3.50
 -12   7   6    2.90    3.60
  11  -7  -6  315.57   18.80
 -11  -7   6  198.78   14.50
  11   7  -6  293.87   17.50
 -11   7   6  287.97   16.30
  11   7  -6  288.97   14.90
 -10  -7   6    8.40    4.00
  10  -7  -6   36.10    7.50
  10   7  -6   26.80    5.00
  10   7  -6   24.90    6.10
 -10   7   6   21.60    5.40
   9  -7  -6   26.60    6.30
  -9  -7   6   13.00    4.70
  -9   7   6   26.30    6.00
   9   7  -6   30.00    4.90
   9   7  -6   30.50    6.10
   8  -7  -6  279.77   16.80
  -8  -7   6  332.87   17.50
  -8   7   6  307.07   16.80
   8   7  -6  296.27   14.10
   8   7  -6  311.67   17.00
  -7  -7   6   -0.10    2.90
   7  -7  -6    1.10    2.80
  -7   7   6    6.20    3.60
   7   7  -6    2.20    2.10
   7   7  -6   -1.00    2.60
  -6  -7   6  968.90   37.60
   6  -7  -6  914.51   36.80
   6   7  -6  966.00   37.40
  -6   7   6  959.10   37.50
   5  -7  -6  152.08   10.50
  -5  -7   6  171.18   11.30
   5   7  -6  143.99   10.40
  -5   7   6  134.09   10.30
  -4  -7   6  177.18   11.80
   4  -7  -6  193.58   11.50
  -4   7   6  183.18    7.00
   4   7  -6  172.68   11.40
  -4   7   6  193.08   12.10
   3  -7  -6  252.97   13.10
  -3  -7   6  225.48   13.70
  -3   7   6  248.98   10.00
  -3   7   6  240.18   13.90
   3   7  -6  252.27   13.80
   2  -7  -6   13.40    3.40
  -2  -7   6   16.70    4.40
  -2   7   6   15.30    4.20
  -2   7   6   16.10    2.90
  -1  -7   6  184.18   12.00
  -1   7   6  202.08   10.00
  -1   7   6  206.28   12.30
   0  -7   6  363.26   17.50
   0   7   6  351.56   16.90
   0   7   6  304.57   14.70
   1  -7   6  870.81   33.90
   1   7   6  851.71   33.50
   2  -7   6   14.60    4.20
   2   7   6   14.40    3.80
   2   7   6   13.60    3.80
   3  -7   6  172.38   10.90
   3   7   6  160.88   10.60
   3   7   6  171.28   11.00
   4  -7   6   40.70    6.30
   4   7   6   41.80    5.90
   4   7   6   34.00    6.10
   5  -7   6  364.06   17.80
   5   7   6  365.96   19.20
   5   7   6  384.56   17.60
   6  -7   6  247.78   13.50
   6  -7   6  258.17   15.10
   6   7   6  237.98   15.30
   6   7   6  234.58   12.90
   7  -7   6  445.76   22.30
   7  -7   6  465.15   20.30
   7   7   6  420.26   22.80
   7   7   6  446.46   19.50
   8  -7   6   37.70    7.10
   8  -7   6   23.50    5.40
   8   7   6   37.00    7.70
   9  -7   6   38.10    7.20
   9   7   6   40.00    8.40
  10  -7   6    5.20    4.60
  10   7   6    1.30    5.00
  11  -7   6   63.99    9.80
  11   7   6   46.70   10.00
  12  -7   6    7.00    5.20
  12   7   6   14.10    7.10
  13  -7   6    1.40    6.40
  13   7   6    1.20    5.70
  16  -8  -6   -0.30    5.40
  16   8  -6    3.80    5.80
  15  -8  -6    5.60    5.60
  15   8  -6   17.30    6.80
  14  -8  -6    4.00    5.10
 -14   8   6   -0.70    3.80
  14   8  -6    3.00    4.90
  13  -8  -6   57.19   10.10
 -13  -8   6   58.99    8.80
  13   8  -6   49.99    9.10
 -13   8   6   63.89    9.20
  12  -8  -6   29.90    7.90
 -12  -8   6   26.60    6.40
  12   8  -6   29.60    7.40
  11  -8  -6   68.49   10.30
  11   8  -6   57.39    9.10
 -11   8   6   68.79    9.70
  11   8  -6   71.79    7.80
 -10  -8   6  159.88   12.10
  10  -8  -6  148.49   14.70
  10   8  -6  168.08   14.70
 -10   8   6  146.89   13.50
  10   8  -6  142.99    9.90
  -9  -8   6  248.68   15.60
   9  -8  -6  283.07   17.00
   9   8  -6  261.77   16.30
   9   8  -6  268.47   13.00
  -9   8   6  249.88   15.60
   8  -8  -6  229.58   14.60
  -8  -8   6  206.48   14.00
   8   8  -6  223.98   14.60
   8   8  -6  231.78   11.20
  -8   8   6  232.68   14.50
  -7  -8   6  171.78   12.40
   7  -8  -6  205.98   13.10
  -7   8   6  188.88   12.80
   7   8  -6  173.28   12.50
  -6  -8   6  208.88   13.80
   6  -8  -6  238.68   13.90
  -6   8   6  210.38   13.80
   6   8  -6  252.97   14.50
   5  -8  -6  175.18   11.50
  -5  -8   6  170.18   12.10
   5   8  -6  168.58   11.80
  -5   8   6  195.58   12.60
  -4  -8   6  156.58   11.30
   4  -8  -6  155.28   10.10
   4   8  -6  148.69   10.80
  -4   8   6  150.78   11.00
  -4   8   6  149.79    6.40
  -3  -8   6   11.50    4.20
   3  -8  -6    8.60    3.30
  -3   8   6    9.50    2.20
   3   8  -6    8.70    3.90
  -3   8   6   13.70    4.30
   2  -8  -6   45.50    5.90
  -2  -8   6   40.70    6.60
  -2   8   6   44.80    4.70
  -2   8   6   35.90    6.20
  -1  -8   6   79.49    9.00
  -1   8   6   83.49    7.10
  -1   8   6   78.29    8.80
   0  -8   6  332.07   16.90
   0   8   6  289.27   14.20
   0   8   6  300.97   16.20
   1  -8   6  441.26   21.00
   1   8   6  446.96   20.80
   2  -8   6  394.86   19.10
   2   8   6  389.66   18.80
   2   8   6  356.46   17.80
   3  -8   6    4.00    3.10
   3   8   6    3.90    3.40
   3   8   6    2.40    3.00
   4  -8   6   -1.30    2.10
   4   8   6    1.20    2.80
   4   8   6   -1.20    2.80
   5  -8   6  147.29   10.50
   5   8   6  149.79   10.50
   5   8   6  141.29   12.80
   6  -8   6  223.58   14.40
   6  -8   6  207.28   13.20
   6   8   6  250.27   13.50
   6   8   6  253.47   15.70
   7  -8   6   21.00    4.80
   7  -8   6   10.70    4.60
   7   8   6   20.80    6.10
   7   8   6   14.70    4.30
   8  -8   6    6.80    4.40
   8  -8   6   11.60    4.30
   8   8   6    7.80    5.20
   9  -8   6    9.70    5.00
   9   8   6   13.50    6.20
  10  -8   6    7.00    4.80
  10   8   6    7.80    5.70
  11  -8   6    0.80    4.10
  11   8   6   10.90    6.10
  12  -8   6    4.10    5.80
  12   8   6   12.30    7.60
  13  -8   6   30.50    8.10
  13   8   6   31.20    9.00
  16  -9  -6   27.10    9.10
  16   9  -6   51.39   10.60
  15  -9  -6   76.89   12.70
  15   9  -6   82.69   12.80
  14  -9  -6   -6.30    4.30
  14   9  -6    2.70    5.10
 -14   9   6   -0.80    4.00
 -13  -9   6    1.80    4.00
  13  -9  -6    6.00    5.60
 -13   9   6    5.90    4.30
  13   9  -6    3.20    4.60
 -12  -9   6   20.90    6.20
  12  -9  -6   19.40    6.80
 -12   9   6   20.60    6.20
  12   9  -6   23.50    6.90
 -11  -9   6   21.60    6.20
  11  -9  -6   22.10    7.30
  11   9  -6   24.30    6.80
 -11   9   6   18.10    5.50
 -10  -9   6    1.10    3.90
  10  -9  -6    2.30    3.90
  10   9  -6    1.50    3.90
 -10   9   6    1.60    3.90
  -9  -9   6   75.59   10.00
   9  -9  -6   68.19    9.70
  -9   9   6   70.89    9.90
   9   9  -6   62.39    9.10
   8  -9  -6   14.40    5.10
  -8  -9   6    6.70    4.00
  -8   9   6    9.40    4.50
   8   9  -6    8.20    4.40
  -7  -9   6   15.50    5.30
   7  -9  -6   14.40    4.50
   7   9  -6   11.50    4.40
  -7   9   6   14.50    5.00
   6  -9  -6   75.49    8.90
  -6  -9   6   76.59    9.80
   6   9  -6   71.59    9.10
  -6   9   6  101.19   11.10
   5  -9  -6   57.79    7.60
  -5  -9   6   62.49    8.50
   5   9  -6   44.90    7.10
  -5   9   6   64.49    8.90
  -4  -9   6   84.99   10.00
   4  -9  -6  108.29    9.90
  -4   9   6   89.79    4.90
   4   9  -6   64.59    8.50
  -4   9   6   80.19    9.60
  -3  -9   6  194.68   13.30
   3  -9  -6  193.18   11.50
  -3   9   6  201.98    9.20
   3   9  -6  202.58   13.10
  -3   9   6  190.18   13.00
  -2  -9   6   12.20    4.40
   2  -9  -6   16.00    3.90
  -2   9   6   12.60    4.30
  -2   9   6   16.40    3.20
  -1  -9   6   -0.50    2.60
  -1   9   6    9.40    3.00
  -1   9   6    8.60    4.10
   0  -9   6  169.68   12.20
   0   9   6  170.58   10.30
   0   9   6  158.78   11.60
   0   9  -6  186.38   12.60
   1  -9   6   27.80    5.80
  -1   9  -6   24.20    5.40
   1   9   6   35.50    6.30
   1   9   6   31.70    5.30
   2  -9   6    2.20    3.10
  -2   9  -6    1.90    3.10
   2   9   6    2.10    3.20
   2   9   6    0.30    2.80
   3  -9   6    3.20    3.60
  -3   9  -6    9.00    3.70
   3   9   6   10.20    3.80
   3   9   6   13.90    4.60
   4  -9   6    0.40    3.00
   4   9   6   -3.10    2.70
   4   9   6    1.00    2.80
   5  -9   6   10.70    4.20
   5   9   6   11.10    5.30
   5   9   6   16.80    5.00
   6  -9   6   -3.40    2.40
   6   9   6    2.20    3.50
   6   9   6    0.10    3.00
   7  -9   6    8.40    4.00
   7  -9   6   22.20    6.00
   7   9   6   15.60    6.00
   7   9   6   23.70    5.20
   8  -9   6   70.59    9.60
   8  -9   6   76.69    9.00
   8   9   6   71.19   10.60
   9  -9   6   58.39    9.20
   9   9   6   53.19   10.00
  10  -9   6   19.40    6.20
  10   9   6   15.00    7.00
  11  -9   6   94.89   12.10
  11   9   6   74.29   12.50
  12  -9   6   19.70    7.10
  12   9   6   17.30    7.60
  15 -10  -6    8.70    6.40
  15  10  -6   -5.80    4.80
  14 -10  -6   31.70    8.90
  14  10  -6   38.80    9.40
 -14  10   6   29.30    7.40
 -13 -10   6   60.49    9.80
  13 -10  -6   67.69   11.60
  13  10  -6   67.09   11.10
  12 -10  -6    1.90    4.80
 -12 -10   6   -0.50    3.00
 -12  10   6    2.50    4.30
  12  10  -6    4.00    5.30
 -11 -10   6    8.80    5.70
  11 -10  -6    8.50    5.90
 -11  10   6   19.30    6.20
  11  10  -6    7.80    4.80
 -10 -10   6   38.10    7.90
  10 -10  -6   34.70    7.80
 -10  10   6   28.30    7.10
  10  10  -6   26.10    6.80
  -9 -10   6   20.60    6.20
   9 -10  -6   37.30    7.50
   9  10  -6   30.80    7.10
  -9  10   6   26.90    7.20
   8 -10  -6   22.10    5.90
  -8 -10   6   27.90    6.70
   8  10  -6   19.70    6.00
  -8  10   6   36.90    7.30
   7 -10  -6  265.77   16.50
  -7 -10   6  273.37   17.10
  -7  10   6  262.07   16.70
   7  10  -6  262.67   16.70
   6 -10  -6   46.10    7.40
  -6 -10   6   46.40    8.00
  -6  10   6   48.90    8.10
   6  10  -6   45.70    7.80
   5 -10  -6  294.17   16.10
  -5 -10   6  283.47   17.50
   5  10  -6  320.27   17.80
  -5  10   6  282.47   17.30
  -4 -10   6    4.60    3.90
   4 -10  -6    7.50    3.70
  -4  10   6    7.00    2.10
  -4  10   6    3.80    3.70
   4  10  -6    5.00    3.80
  -3 -10   6  131.19   12.70
   3 -10  -6  137.39    9.80
  -3  10   6  149.39   13.60
  -3  10   6  140.39    7.70
   3  10  -6  131.19   12.30
   2 -10  -6  109.79    8.20
  -2 -10   6  153.68   13.60
  -2  10   6  107.39   11.30
   2  10  -6  106.59   11.40
  -2  10   6  109.49    7.30
  -1 -10   6   24.30    5.80
  -1  10   6   23.30    4.40
  -1  10   6   17.20    5.20
   1  10  -6   26.30    6.30
   0  10   6   -1.60    2.10
   0  10   6   -0.60    2.90
   0  10  -6   -0.70    2.80
   1  10   6  280.57   15.10
   1  10   6  269.57   16.20
  -1  10  -6  301.27   17.20
   2  10   6    1.20    2.90
  -2  10  -6    4.90    3.80
   2  10   6    2.00    2.90
   3  10   6   12.00    4.60
  -3  10  -6   11.60    4.60
   3  10   6   13.50    4.80
   4  10   6   82.79    9.90
  -4  10  -6   78.49    9.70
   4  10   6   96.99   10.50
   5 -10   6  270.97   16.10
   5  10   6  260.87   15.70
  -5  10  -6  245.98   15.50
   5  10   6  249.08   16.10
   6 -10   6   52.99    8.20
   6  10   6   53.49    7.70
   6  10   6   44.40    8.10
   7 -10   6    0.10    3.30
   7 -10   6   -1.00    2.80
   7  10   6    1.80    4.30
   7  10   6   -0.20    3.90
   8 -10   6   14.10    5.60
   8 -10   6    8.30    4.30
   8  10   6    8.90    5.90
   9 -10   6   26.80    6.80
   9  10   6   12.40    6.00
  10 -10   6   29.40    7.20
  10  10   6   18.70    7.60
  11 -10   6   72.59   11.40
  11  10   6   74.89   12.80
  12 -10   6   17.90    6.70
  12  10   6    8.10    6.60
  15 -11  -6   32.80    9.90
  15  11  -6   40.70    9.70
  14 -11  -6    8.40    6.00
 -14  11   6    9.50    5.70
  14  11  -6    9.70    5.80
 -13 -11   6   39.00    8.60
  13 -11  -6   37.10    9.60
 -13  11   6   38.90    8.20
  13  11  -6   64.99   11.30
 -12 -11   6   53.29    9.40
  12 -11  -6   34.50    9.10
 -12  11   6   42.10    8.60
  12  11  -6   45.50    9.10
 -11 -11   6   34.40    8.10
  11 -11  -6   67.09   10.60
  11  11  -6   62.49   10.30
 -11  11   6   58.89    9.70
  10 -11  -6    5.10    5.00
 -10 -11   6    0.10    3.80
  10  11  -6   -4.60    3.40
 -10  11   6   -3.80    3.30
  -9 -11   6    3.20    4.40
   9 -11  -6    6.00    4.60
   9  11  -6   -1.20    3.50
  -9  11   6    8.40    4.80
  -8 -11   6   38.60    8.00
   8 -11  -6   33.90    7.50
  -8  11   6   36.70    8.00
   8  11  -6   33.90    7.40
   7 -11  -6   15.50    5.20
  -7 -11   6   26.20    6.70
   7  11  -6   17.80    5.70
  -7  11   6   12.40    5.50
   6 -11  -6   32.60    6.80
  -6 -11   6   23.10    6.40
   6  11  -6   29.70    6.80
  -6  11   6   20.30    6.20
   5 -11  -6  116.69   11.30
  -5 -11   6  139.69   13.80
  -5  11   6  132.39   13.40
   5  11  -6  123.29   12.90
   4 -11  -6  296.17   16.10
  -4 -11   6  299.77   18.40
   4  11  -6  331.07   18.40
  -4  11   6  293.97   18.20
   3 -11  -6  310.87   16.50
  -3 -11   6  362.56   20.10
  -3  11   6  326.67   19.20
   3  11  -6  353.06   19.80
  -3  11   6  332.97   14.40
   3  11  -6  330.07   18.70
  -2 -11   6   74.69   10.40
  -2  11   6   59.99    8.90
  -2  11   6   81.19    7.20
   2  11  -6   63.59    9.40
  -1  11   6  409.96   21.30
   1  11  -6  396.66   21.40
  -1  11   6  363.36   17.30
   0  11   6    5.00    3.50
   0  11  -6    4.10    3.80
   0  11   6    3.60    3.80
  -1  11  -6   30.20    6.80
   1  11   6    7.40    4.70
   1  11   6   30.60    5.50
   2  11   6  132.09   12.90
   2  11   6  150.58   10.90
  -2  11  -6  120.19   12.60
  -3  11  -6   -0.20    3.30
   3  11   6   -5.00    2.90
   3  11   6    1.10    3.80
   4  11   6    7.60    4.10
   4  11   6    5.40    4.00
  -4  11  -6   -0.50    3.50
   5  11   6  136.39   12.90
   5  11   6  115.39   12.60
  -5  11  -6  154.28   14.40
   6 -11   6   53.89    8.90
   6  11   6   95.49   10.70
  -6  11  -6   82.79   10.60
   6  11   6   64.09    9.90
   7 -11   6  161.28   14.80
   7 -11   6  136.19   13.50
   7  11   6  135.59   14.70
   7  11   6  153.48   13.70
   8 -11   6   13.30    5.60
   8 -11   6   19.50    6.00
   8  11   6   16.20    6.70
   9 -11   6  213.08   18.20
   9  11   6  194.98   19.00
  10 -11   6    4.20    4.70
  10  11   6   -4.30    4.70
  11 -11   6   64.49   10.40
  11  11   6   62.69   11.90
  14 -12  -6   14.70    7.50
 -14  12   6   -4.10    3.20
  14  12  -6   11.10    6.60
  13 -12  -6    0.70    5.40
 -13 -12   6   -3.50    3.80
 -13  12   6    2.90    5.50
  13  12  -6    1.50    5.00
  12 -12  -6   15.50    6.80
 -12 -12   6    1.80    4.60
 -12  12   6    7.60    5.70
  12  12  -6    3.40    4.90
  11 -12  -6   48.60    9.70
 -11 -12   6   37.90    8.20
  11  12  -6   39.50    9.10
 -11  12   6   42.70    8.60
  10 -12  -6   -4.90    4.50
 -10 -12   6    3.50    4.70
  10  12  -6   -3.60    3.70
 -10  12   6    2.60    4.10
  -9 -12   6   43.30    8.60
   9 -12  -6   53.09    9.20
  -9  12   6   65.09   10.30
   9  12  -6   46.30    8.90
  -8 -12   6   17.80    5.80
   8 -12  -6   13.20    5.60
   8  12  -6   17.50    6.20
  -8  12   6   12.20    5.40
  -7 -12   6   30.40    7.70
   7 -12  -6   42.30    7.70
   7  12  -6   36.50    8.00
  -7  12   6   38.80    7.90
  -6 -12   6   16.40    6.00
   6 -12  -6   26.50    6.40
   6  12  -6    4.30    4.40
  -6  12   6    4.00    4.60
   5 -12  -6   70.19    9.00
  -5 -12   6   45.70    8.90
  -5  12   6   78.49   11.00
   5  12  -6   73.89   10.20
   4 -12  -6   18.40    5.30
  -4 -12   6   33.90    7.60
   4  12  -6   18.20    6.00
  -4  12   6   25.10    6.70
  -3 -12   6    6.20    4.80
   3 -12  -6    5.70    3.40
   3  12  -6   17.80    5.40
   3  12  -6    6.50    4.40
  -3  12   6    2.30    4.20
  -3  12   6    7.90    3.00
  -2  12   6  267.37   13.30
  -2  12   6  279.87   17.50
   2  12  -6  232.48   16.60
  -1  12   6   39.50    6.00
  -1  12   6   38.30    7.90
   1  12  -6   59.39    9.40
   0  12   6   24.40    5.20
   0  12   6   19.30    6.00
   0  12  -6   27.50    6.90
   1  12   6  159.28   13.60
  -1  12  -6  194.78   17.10
   1  12   6  170.68   15.50
   2  12   6   28.90    7.00
  -2  12  -6   40.50    7.90
   3  12   6   19.70    5.60
  -3  12  -6   28.90    6.90
   3  12   6   35.40    7.60
  -4  12  -6   16.80    5.90
   4  12   6   25.40    6.40
   4  12   6   16.40    5.60
  -5  12  -6  108.49   12.60
   5  12   6   86.49   10.90
   5  12   6  115.79   12.80
  -6  12  -6    4.80    4.70
   6  12   6    0.70    4.60
   6  12   6    5.90    5.00
   7 -12   6   -3.30    4.10
  -7  12  -6    0.70    2.50
   7  12   6   -1.30    4.20
   7  12   6    0.50    4.20
   8 -12   6    5.20    4.80
   8 -12   6   12.60    5.50
   8  12   6   10.80    6.20
   9 -12   6   22.90    6.80
   9  12   6   24.40    7.90
  10 -12   6   -0.70    4.40
  10  12   6   -3.30    4.60
 -13 -13   6   59.59   10.90
  13 -13  -6   80.59   13.40
 -13  13   6   87.09   13.30
  13  13  -6   93.19   14.10
  12 -13  -6    3.00    5.50
 -12 -13   6    0.80    5.00
 -12  13   6   -1.30    4.90
  12  13  -6    2.40    5.20
  11 -13  -6   30.10    8.40
 -11 -13   6   31.50    8.00
  11  13  -6   23.90    7.90
 -11  13   6   17.50    6.90
 -10 -13   6   15.10    6.70
  10 -13  -6   18.60    7.50
  10  13  -6   13.40    6.30
 -10  13   6    9.70    5.50
   9 -13  -6   16.20    6.50
  -9 -13   6   22.80    6.80
   9  13  -6   25.70    7.90
  -9  13   6   19.30    6.50
  -8 -13   6   -0.30    4.10
   8 -13  -6    0.90    4.00
  -8  13   6   -2.00    3.70
   8  13  -6   -0.20    4.10
  -7 -13   6  165.98   16.50
   7 -13  -6  149.39   14.20
  -7  13   6  166.68   16.70
   7  13  -6  177.48   17.10
   6 -13  -6    2.10    3.70
  -6 -13   6    9.90    5.50
  -6  13   6    1.70    4.30
   6  13  -6   -2.20    3.80
  -5 -13   6  239.78   17.40
   5 -13  -6  249.68   15.30
   5  13  -6  237.28   16.80
  -5  13   6  261.47   17.90
   4 -13  -6  139.49   10.60
  -4 -13   6  145.89   15.10
  -4  13   6  116.09   13.80
   4  13  -6  154.28   15.00
   4  13  -6  147.59   15.40
   3 -13  -6   43.30    6.60
  -3 -13   6   48.90    9.40
   3  13  -6   44.00    8.30
  -3  13   6   51.79    9.40
   3  13  -6   45.40    8.80
  -2  13   6   85.39    8.30
  -2  13   6   84.39   11.50
   2  13  -6   66.69   10.30
  -1  13   6   10.70    3.90
   1  13  -6    1.00    4.00
  -1  13   6    2.10    4.60
   0  13   6   32.90    8.00
   0  13  -6   41.70    8.40
   0  13   6   48.30    7.20
   1  13   6   -3.30    3.40
   1  13   6    1.70    3.10
  -1  13  -6    1.10    3.90
  -2  13  -6    4.50    4.70
   2  13   6    0.50    2.20
   2  13   6   -1.60    3.80
   3  13   6   -0.20    4.50
  -3  13  -6   -1.20    3.50
   3  13   6    1.50    3.60
  -4  13  -6    6.40    5.30
   4  13   6   16.60    5.70
   4  13   6   19.70    6.70
  -5  13  -6    1.50    4.70
   5  13   6    6.50    4.90
   5  13   6   -1.50    3.60
   6  13   6   -0.50    4.20
   6  13   6   -0.80    3.90
  -6  13  -6    1.70    4.50
   7 -13   6   89.79   11.60
  -7  13  -6   91.49   12.30
   7  13   6   78.19   11.90
   7  13   6   88.49   11.40
   8 -13   6   51.29   10.00
   8 -13   6   50.19    9.70
   8  13   6   43.30    9.90
   9 -13   6   24.50    7.10
   9  13   6   28.30    8.40
  10 -13   6    1.00    4.90
  10  13   6    7.00    6.30
 -13  14   6   -2.40    5.70
  12 -14  -6    1.30    5.20
 -12 -14   6    8.40    6.40
 -12  14   6   -2.20    5.40
  12  14  -6    1.60    5.90
 -11 -14   6   14.00    6.70
  11 -14  -6   11.10    7.10
  11  14  -6    5.10    5.40
 -11  14   6    8.90    6.80
  10 -14  -6   24.60    7.40
 -10 -14   6   18.70    7.00
  10  14  -6   23.60    8.20
 -10  14   6   19.70    7.60
   9 -14  -6   64.19   10.60
  -9 -14   6   54.79   10.30
   9  14  -6   56.29   10.80
  -9  14   6   31.40    8.40
  -8 -14   6   18.00    7.10
   8 -14  -6   12.60    6.20
  -8  14   6   18.40    7.00
   8  14  -6    7.90    6.10
  -7 -14   6    3.10    4.60
   7 -14  -6    6.50    4.80
  -7  14   6    3.40    4.70
   7  14  -6    6.00    5.50
   6 -14  -6    7.50    4.80
  -6 -14   6   12.20    6.10
  -6  14   6    3.20    4.70
   6  14  -6   17.30    6.30
   5 -14  -6   69.99    9.30
  -5 -14   6   54.99   10.00
   5  14  -6   71.69   11.00
  -5  14   6   53.79    9.80
  -4 -14   6    2.40    5.20
   4 -14  -6    5.80    4.20
  -4  14   6    1.60    4.20
   4  14  -6    5.20    4.50
   4  14  -6    3.30    4.80
  -3  14   6   72.19   11.10
   3  14  -6   67.49   11.00
  -2  14   6    1.50    4.70
   2  14  -6   -2.20    4.00
  -1  14   6    3.30    3.40
  -1  14   6   -3.40    4.30
   1  14  -6   -3.50    3.60
   0  14   6   23.20    5.70
   0  14   6   18.20    6.50
   0  14  -6   22.90    7.10
   1  14   6  218.98   16.50
  -1  14  -6  217.08   16.80
   1  14   6  204.98   14.00
  -2  14  -6    8.80    5.70
   2  14   6   14.20    5.90
   2  14   6    1.00    2.40
  -3  14  -6  174.18   17.10
   3  14   6  165.78   16.10
   3  14   6  163.48   15.40
   4  14   6   29.70    7.60
   4  14   6   28.80    7.40
  -4  14  -6   28.20    7.90
  -5  14  -6   -2.20    4.20
   5  14   6    1.20    4.00
   5  14   6   -3.10    4.00
  -6  14  -6    9.40    6.00
   6  14   6   -1.00    4.90
   6  14   6    5.30    5.10
  -7  14  -6   38.30    8.60
   7  14   6   25.40    7.50
   7  14   6   25.90    7.70
   8 -14   6    9.20    5.20
   8 -14   6    0.90    5.30
  -8  14  -6    0.90    4.00
   8  14   6    5.80    5.50
   9 -14   6    2.80    5.10
   9  14   6    1.60    6.00
 -11 -15   6   53.29   10.70
  11 -15  -6   84.89   12.70
  11  15  -6   56.69   11.10
 -11  15   6  100.49   14.80
  10 -15  -6   14.90    7.40
 -10 -15   6   27.80    8.50
  10  15  -6   19.90    7.70
 -10  15   6   21.90    8.10
  -9 -15   6   19.40    7.20
   9 -15  -6   23.20    7.50
   9  15  -6   25.30    8.20
  -9  15   6   40.70    9.80
  -8 -15   6    2.50    6.00
   8 -15  -6   -1.40    4.00
   8  15  -6    1.40    4.70
  -8  15   6   -4.60    4.20
   7 -15  -6    7.40    5.60
  -7 -15   6   21.40    7.50
  -7  15   6    9.10    6.60
   7  15  -6    2.40    5.20
   6 -15  -6   18.40    6.20
  -6 -15   6   21.60    7.20
  -6  15   6   18.20    7.10
   6  15  -6   28.10    8.10
  -5 -15   6  161.08   17.30
  -5  15   6  133.49   15.70
   5  15  -6  117.69   14.30
  -4 -15   6    6.70    5.80
  -4  15   6   19.80    7.30
   4  15  -6   17.10    6.60
   4  15  -6   17.30    7.20
   3  15  -6   12.30    6.00
  -3  15   6   22.10    7.10
   2  15  -6   21.50    7.00
  -2  15   6   11.30    6.20
  -1  15   6  135.49   15.30
   1  15  -6  154.48   16.90
   0  15   6    7.20    4.10
   0  15  -6    3.40    5.40
   0  15   6    8.00    5.60
   1  15   6   27.50    6.50
   1  15   6   37.70    9.10
  -1  15  -6   27.40    7.70
  -2  15  -6    2.90    5.60
   2  15   6    7.50    5.10
   2  15   6    7.60    4.70
  -3  15  -6   10.20    6.00
   3  15   6    5.30    6.00
   3  15   6    6.50    4.40
   4  15   6   -1.40    4.90
  -4  15  -6    9.20    5.70
   4  15   6    1.40    4.50
   5  15   6   73.79   11.50
   5  15   6   81.79   11.80
  -5  15  -6   86.79   12.80
   6  15   6    0.50    5.40
   6  15   6    2.00    4.70
  -6  15  -6    1.90    5.00
   7  15   6   56.09   10.80
  -7  15  -6   58.09   10.90
   7  15   6   44.40    9.90
   8 -15   6    7.40    6.10
   8 -15   6    1.20    5.50
  -8  15  -6    0.30    4.50
   8  15   6    7.50    5.80
  10 -16  -6   -0.40    5.80
 -10 -16   6   -5.80    4.40
  10  16  -6    3.50    5.40
 -10  16   6    0.10    6.10
   9 -16  -6   48.10    9.80
  -9 -16   6   49.20   10.60
   9  16  -6   26.70    9.10
  -9  16   6   30.10    9.20
  -8 -16   6   23.50    8.40
   8  16  -6    2.50    6.00
  -8  16   6   10.40    7.00
  -7 -16   6   10.90    6.40
   7  16  -6   14.30    7.20
  -7  16   6    3.60    5.50
  -6 -16   6   55.29   10.70
   6  16  -6   57.99   11.00
  -6  16   6   53.69   10.80
  -5 -16   6   24.60    8.60
   5  16  -6   32.30    8.30
  -5  16   6   14.20    7.10
  -4 -16   6   24.40    7.90
  -4  16   6    7.40    5.80
   4  16  -6   21.80    7.50
   4  16  -6   19.80    7.00
   3  16  -6    9.80    6.00
  -3  16   6    6.00    5.70
  -2  16   6    8.30    5.80
   2  16  -6    6.80    6.10
   1  16  -6    4.30    5.70
  -1  16   6    3.60    4.80
   0  16   6    5.20    5.60
   0  16  -6   27.20    8.30
   1  16   6   46.60    8.10
  -1  16  -6   33.70    8.80
   1  16   6   23.10    7.30
  -2  16  -6   -5.30    4.10
   2  16   6    4.00    4.80
   2  16   6   -6.10    4.00
   3  16   6  160.28   17.60
  -3  16  -6  132.79   16.10
   3  16   6  167.18   16.00
  -4  16  -6    8.60    6.70
   4  16   6   19.80    6.60
   4  16   6    7.60    5.70
  -5  16  -6   31.60    8.90
   5  16   6   27.40    8.80
   5  16   6   29.00    8.40
   6  16   6    5.20    6.30
   6  16   6   11.40    6.20
  -6  16  -6    2.10    5.70
  -9  17   6   45.10   11.20
  -8 -17   6   -3.40    6.50
  -8  17   6   -3.10    5.10
   8  17  -6   -0.20    5.80
  -7 -17   6   27.90    9.30
   7  17  -6   14.00    7.30
  -7  17   6   40.30   10.30
  -6 -17   6    0.00    5.70
   6  17  -6   -2.40    4.80
  -6  17   6   -2.40    4.70
  -5 -17   6   13.10    7.50
  -5  17   6   13.60    7.20
   5  17  -6    7.00    5.80
  -4 -17   6   17.00    8.00
   4  17  -6   31.40    8.80
  -4  17   6   12.30    6.50
  -3  17   6    1.30    5.00
   3  17  -6    9.80    6.60
  -2  17   6   -2.60    4.80
   2  17  -6   -2.30    4.60
  -1  17   6    1.70    5.50
   1  17  -6    4.30    5.50
   0  17  -6   15.50    7.30
   0  17   6   12.70    6.90
   1  17   6    8.40    6.20
  -1  17  -6   -2.10    5.30
   2  17   6   -4.40    4.60
  -2  17  -6   -2.40    5.10
   3  17   6    1.70    4.90
  -3  17  -6    0.90    4.90
   3  17   6   -1.10    4.10
   4  17   6    8.20    6.70
   4  17   6   13.40    6.00
  -4  17  -6    9.20    7.10
   5  17   6    2.60    5.30
  -5  17  -6   10.70    7.10
   5  17   6   20.40    7.90
  -6 -18   6   14.40    7.30
  -6  18   6   18.80    8.10
   6  18  -6   12.60    7.40
  -5 -18   6   28.40   10.10
  -5  18   6   30.20    9.40
   5  18  -6   29.60    9.00
  -4 -18   6    5.20    6.50
   4  18  -6    9.60    6.60
  -4  18   6   16.10    7.50
   3  18  -6    0.90    6.40
  -3  18   6    5.80    6.00
  -2  18   6    1.00    5.80
   2  18  -6   -4.60    4.60
   1  18  -6   37.70   10.20
  -1  18   6   27.80    9.50
   0  18  -6   36.90    9.70
   0  18   6   34.60    9.90
  -1  18  -6   85.69   14.00
   1  18   6   93.89   14.70
   2  18   6    4.30    6.50
  -2  18  -6    3.60    7.00
   3  18   6   27.30    9.00
  -3  18  -6   16.40    7.80
  18   0  -7    4.60    6.60
  17   0  -7  131.59   16.00
  16   0  -7    1.60    5.50
  16   0  -7    2.30    4.20
  15   0  -7   38.90    7.20
  15   0  -7   22.20    7.30
 -14   0   7   -1.80    3.20
  14   0  -7   -7.60    4.50
  14   0  -7    1.00    3.10
  13   0  -7   48.30    8.70
 -13   0   7   66.39    8.40
  13   0  -7   55.79    7.20
 -12   0   7   -0.80    3.10
  12   0  -7    0.30    3.80
  12   0  -7   -1.00    2.40
  11   0  -7  395.46   17.70
 -11   0   7  375.46   18.90
  11   0  -7  372.96   20.10
  10   0  -7    3.90    2.40
 -10   0   7   -0.70    2.10
  10   0  -7   -1.60    2.40
   9   0  -7    5.30    2.60
  -9   0   7   18.70    4.60
   9   0  -7   12.50    4.10
   8   0  -7   -0.90    2.20
   8   0  -7    1.20    2.00
  -8   0   7   -2.20    2.10
   7   0  -7    3.20    1.90
   7   0  -7    5.30    2.90
  -7   0   7    4.90    3.10
  -6   0   7   -3.00    2.00
   6   0  -7   -0.80    2.10
   6   0  -7   -0.30    1.60
   5   0  -7  231.08   12.60
  -5   0   7  273.67   13.80
  -4   0   7    0.30    2.20
   4   0  -7   -1.70    1.80
  -3   0   7  228.58   12.30
  -2   0   7   -0.40    2.00
  -1   0   7    7.50    2.90
   0   0   7    0.70    2.00
   1   0   7   10.40    2.90
   1   0   7   10.30    3.10
   2   0   7    0.60    1.90
   2   0   7    0.00    2.00
   3   0   7  665.63   25.20
   3   0   7  682.43   27.20
   4   0   7   -2.70    1.90
   4   0   7   -0.50    1.60
   5   0   7  390.06   15.20
   5   0   7  316.67   17.50
   6   0   7    0.90    1.70
   6   0   7    0.70    3.00
   7   0   7  152.48   13.40
   8   0   7   -3.20    3.00
   9   0   7  152.78   14.50
  10   0   7   -1.40    3.70
  11   0   7    2.50    4.40
  12   0   7   -1.10    4.90
  13   0   7   68.99   11.50
  14   0   7   -2.90    6.30
  18  -1  -7   -0.60    5.70
  18   1  -7    6.00    6.10
  17  -1  -7  170.78   18.40
  17   1  -7  151.58   14.90
  17   1  -7  172.38   18.20
  16  -1  -7   54.69   10.80
  16   1  -7   71.99    9.70
  16   1  -7   61.49   11.10
  15  -1  -7   31.00    7.60
  15  -1  -7   37.50    7.90
  15   1  -7   46.30    7.50
  15   1  -7   26.50    7.40
  14  -1  -7  102.89    9.80
 -14  -1   7  109.19   10.90
  14  -1  -7   82.39   11.50
  14   1  -7   89.79   11.70
  14   1  -7   84.89    9.80
 -14   1   7  110.59   11.00
  13  -1  -7    6.00    4.80
 -13  -1   7    1.70    3.60
  13  -1  -7    3.60    3.20
 -13   1   7    3.30    3.60
  13   1  -7   -0.40    2.70
  13   1  -7    5.80    4.50
 -12  -1   7    1.60    3.40
  12  -1  -7    3.40    2.90
  12  -1  -7    8.60    4.80
  12   1  -7   -3.10    3.10
  12   1  -7    2.00    3.20
 -12   1   7   -0.40    3.10
 -11  -1   7  294.17   15.50
  11  -1  -7  247.28   16.00
  11  -1  -7  259.17   12.90
  11   1  -7  264.57   15.70
  11   1  -7  245.98   13.60
 -11   1   7  271.37   15.10
  10  -1  -7  166.58   12.00
  10  -1  -7  170.08    9.60
  10   1  -7  189.88   10.70
  10   1  -7  174.08   12.00
  -9  -1   7  362.56   18.10
   9  -1  -7  386.86   19.10
   9  -1  -7  395.06   15.70
   9   1  -7  352.86   16.40
  -9   1   7  348.77   17.80
   9   1  -7  369.56   18.50
   8  -1  -7  163.08   11.10
  -8  -1   7  186.68   11.30
   8  -1  -7  156.98    8.40
  -8   1   7  168.28   10.90
   8   1  -7  164.38    9.50
   8   1  -7  152.08   10.50
   7  -1  -7  523.85   19.60
  -7  -1   7  529.45   22.90
   7  -1  -7  490.85   22.50
  -7   1   7  515.75   22.60
   7   1  -7  537.35   20.80
   7   1  -7  526.25   22.40
  -6  -1   7  635.94   26.10
   6  -1  -7  630.54   26.00
   6   1  -7  615.24   23.90
  -6   1   7  661.53   26.30
   6   1  -7  625.74   25.50
   5  -1  -7   14.30    3.70
  -5  -1   7   14.20    3.90
  -5   1   7   17.50    4.10
   5   1  -7    8.30    3.10
  -4  -1   7   21.70    4.40
   4  -1  -7   22.60    4.30
  -4   1   7   30.80    5.10
   4   1  -7   23.30    4.10
  -3  -1   7    1.00    2.20
  -3   1   7    1.50    2.40
  -2  -1   7   52.09    6.30
  -2   1   7   59.19    6.60
  -1  -1   7   14.00    3.50
  -1   1   7   20.20    3.60
  -1   1   7   13.10    3.30
   0  -1   7  281.87   13.40
   0   1   7  270.47   13.20
   0   1   7  266.87   12.70
   1  -1   7   44.60    5.50
   1   1   7   45.90    5.50
   1   1   7   44.00    5.30
   2  -1   7   40.70    5.20
   2  -1   7   20.90    4.30
   2   1   7   27.20    4.30
   2   1   7   23.00    4.40
   3  -1   7   51.59    6.50
   3  -1   7   62.99    6.20
   3   1   7   52.69    5.60
   3   1   7   47.10    6.20
   4  -1   7   41.90    5.00
   4  -1   7   40.90    6.10
   4   1   7   38.00    4.60
   4   1   7   34.20    5.60
   5  -1   7 1513.45   54.29
   5  -1   7 1495.65   50.39
   5   1   7 1497.25   50.09
   5   1   7 1482.65   54.19
   6  -1   7    5.90    2.20
   6  -1   7    0.00    3.00
   6   1   7    3.10    3.10
   6   1   7    6.90    2.30
   7  -1   7  511.05   24.30
   7   1   7  506.45   24.30
   8  -1   7   70.39    9.60
   8   1   7   66.19    9.30
   9  -1   7   71.39    9.90
   9   1   7   84.49   10.80
  10  -1   7    4.10    4.60
  10   1   7   -3.70    3.40
  11  -1   7  427.66   24.40
  11   1   7  456.45   25.30
  12  -1   7   13.60    6.10
  12   1   7   19.80    7.00
  13  -1   7   -7.10    4.10
  13   1   7    3.10    5.70
  14  -1   7   -1.90    5.50
  14   1   7    5.00    6.10
  18  -2  -7   15.70    7.70
  18   2  -7    7.30    5.80
  18   2  -7    5.40    6.20
  17  -2  -7   33.00    9.10
  17   2  -7   31.70    7.50
  17   2  -7   36.60    9.00
  16  -2  -7   23.80    8.00
  16   2  -7   19.10    6.10
  16   2  -7   16.30    7.00
  15  -2  -7   89.39   12.60
  15   2  -7   71.39   10.80
  15   2  -7   79.69    9.90
 -14  -2   7   32.40    6.70
  14  -2  -7   51.79    9.60
  14   2  -7   49.30    8.10
 -14   2   7   41.40    7.30
  14   2  -7   40.60    8.40
 -13  -2   7   19.40    5.40
  13  -2  -7    8.40    5.00
  13  -2  -7   27.70    4.80
 -13   2   7   21.30    5.50
  13   2  -7   11.50    5.30
  13   2  -7    7.10    4.30
  12  -2  -7   98.09    8.30
 -12  -2   7  106.39   10.70
  12  -2  -7   87.49   11.00
  12   2  -7  104.29   11.30
 -12   2   7   96.29   10.10
  12   2  -7   99.49    9.70
  11  -2  -7   10.20    4.30
  11  -2  -7    9.50    2.90
 -11  -2   7    8.30    4.00
  11   2  -7    9.00    3.90
 -11   2   7    6.60    3.90
  11   2  -7   12.00    4.30
  10  -2  -7    2.80    2.00
  10  -2  -7    2.50    3.10
 -10  -2   7   -1.90    2.10
  10   2  -7    1.50    2.60
  10   2  -7    3.00    2.70
 -10   2   7    1.70    3.00
   9  -2  -7    7.40    3.90
   9  -2  -7    7.30    2.40
  -9  -2   7    9.40    4.20
  -9   2   7    3.50    3.60
   9   2  -7    1.00    2.80
   9   2  -7   11.40    3.30
   8  -2  -7    2.60    1.80
  -8  -2   7   -0.30    2.40
   8  -2  -7    0.00    2.80
   8   2  -7   -0.90    1.80
  -8   2   7   -1.20    2.30
   8   2  -7    3.70    2.80
   7  -2  -7   12.20    2.30
  -7  -2   7   13.00    4.10
   7  -2  -7    7.20    3.50
   7   2  -7   11.70    3.60
  -7   2   7   22.60    4.90
   7   2  -7   14.50    3.60
   6  -2  -7   37.00    5.80
  -6  -2   7   34.80    5.50
   6   2  -7   37.20    4.80
   6   2  -7   41.10    5.50
  -6   2   7   32.90    5.60
   5  -2  -7  103.09    7.90
  -5  -2   7  114.29    8.40
   5   2  -7  100.39    7.40
   5   2  -7  100.29    7.00
  -5   2   7   97.29    9.00
  -4  -2   7    5.70    2.80
   4  -2  -7    1.80    2.20
  -4   2   7    1.40    2.20
  -3  -2   7  100.79    7.70
  -3   2   7   98.29    7.50
  -2  -2   7    4.10    2.70
  -2   2   7    3.60    1.90
  -2   2   7    3.20    2.30
  -1  -2   7  471.25   20.00
  -1   2   7  461.55   19.70
   0  -2   7  444.36   19.50
   0   2   7  474.25   19.50
   0   2   7  472.35   18.80
   1  -2   7   16.40    4.00
   1   2   7   18.40    3.70
   1   2   7   11.50    3.10
   2  -2   7   68.89    7.00
   2   2   7   85.19    7.90
   2   2   7   61.89    6.30
   3  -2   7   31.80    4.60
   3  -2   7   26.00    4.90
   3   2   7   30.90    4.50
   3   2   7   24.40    4.70
   4  -2   7    5.80    3.00
   4  -2   7   -0.10    1.90
   4   2   7    2.00    1.90
   4   2   7    1.10    2.80
   5  -2   7  317.87   16.50
   5  -2   7  296.27   13.60
   5   2   7  312.97   13.40
   5   2   7  297.97   16.20
   6  -2   7  131.79    7.70
   6  -2   7  136.09   12.10
   6   2   7  129.79    7.30
   6   2   7  113.49   11.20
   7  -2   7  528.15   20.60
   7  -2   7  573.04   25.70
   7   2   7  533.15   25.60
   8  -2   7  121.09   12.20
   8   2   7  109.79   11.80
   9  -2   7  381.16   21.50
   9   2   7  412.16   22.30
  10  -2   7   18.30    6.00
  10   2   7    8.00    5.40
  11  -2   7   21.90    6.90
  11   2   7   26.20    7.60
  12  -2   7   98.59   13.00
  12   2   7   76.49   12.50
  13  -2   7    2.50    5.20
  13   2   7    1.30    5.10
  14  -2   7    0.20    5.60
  14   2   7    3.30    5.80
  18  -3  -7    8.40    8.40
  18   3  -7    4.30    7.70
  18   3  -7   11.40    6.00
  17  -3  -7   98.69   14.60
  17   3  -7   88.39   13.10
  17   3  -7   99.89   12.10
  16  -3  -7   29.10    8.50
  16   3  -7   23.30    6.90
  16   3  -7   33.20    8.30
  15  -3  -7    7.10    5.90
  15   3  -7   12.70    6.30
  15   3  -7   18.20    5.80
  14  -3  -7   52.29   10.00
 -14  -3   7   44.40    7.60
  14   3  -7   51.19    8.70
 -14   3   7   43.30    7.30
  14   3  -7   71.69   10.00
  13  -3  -7    0.70    3.60
 -13  -3   7   -1.80    3.30
  13   3  -7   -4.60    3.10
  13   3  -7    7.40    4.30
 -13   3   7    0.70    3.50
  12  -3  -7    3.20    2.60
  12  -3  -7    2.50    3.50
 -12  -3   7   -2.40    3.10
  12   3  -7   -1.90    2.90
  12   3  -7    2.00    4.00
 -12   3   7    0.40    2.80
  11  -3  -7   80.59    6.00
 -11  -3   7   86.29    9.60
  11  -3  -7   69.59    9.80
  11   3  -7   85.29    9.00
  11   3  -7   80.69    9.50
 -10  -3   7   23.90    5.30
  10  -3  -7   17.30    5.30
  10  -3  -7   27.60    3.70
  10   3  -7   26.80    5.30
 -10   3   7   19.60    5.10
  10   3  -7   28.60    5.70
   9  -3  -7   95.09    5.70
  -9  -3   7  105.29   10.00
   9  -3  -7   95.79   10.30
   9   3  -7   89.69    9.30
  -9   3   7  121.29   11.10
   9   3  -7  116.19   10.00
  -8  -3   7    1.40    3.00
   8  -3  -7   -2.70    1.20
   8  -3  -7    1.70    3.10
   8   3  -7   -3.30    2.00
   8   3  -7    0.40    2.10
  -8   3   7    0.90    2.70
  -7  -3   7  876.91   33.60
   7  -3  -7  849.72   33.80
  -7   3   7  841.92   33.30
   7   3  -7  836.42   32.20
   7   3  -7  832.42   32.00
  -6  -3   7   77.49    8.30
   6  -3  -7   71.49    8.20
   6   3  -7   74.59    7.50
   6   3  -7   70.09    7.20
  -6   3   7   72.29    8.10
  -5  -3   7  169.78   11.10
   5  -3  -7  199.98   11.60
   5   3  -7  197.38   10.50
   5   3  -7  188.58   10.70
  -5   3   7  198.68   11.70
   4  -3  -7  753.22   30.10
  -4  -3   7  781.92   30.50
  -4   3   7  756.22   30.40
  -4   3   7  810.22   26.40
  -3  -3   7   -0.40    2.10
   3  -3  -7   -1.30    1.90
  -3   3   7   -0.50    2.00
  -3   3   7    0.60    1.40
  -2  -3   7  341.07   16.20
  -2   3   7  317.67   13.40
  -2   3   7  360.86   16.40
  -1  -3   7   73.79    7.50
  -1   3   7   77.39    7.50
  -1   3   7   74.99    5.50
   0  -3   7   98.49    7.40
   0   3   7  103.39    7.50
   0   3   7   97.49    6.80
   1  -3   7  187.28   10.70
   1   3   7  184.58   10.20
   1   3   7  181.98   10.40
   2  -3   7  507.65   20.90
   2   3   7  494.85   20.40
   2   3   7  494.75   21.10
   3  -3   7  957.20   36.20
   3  -3   7  914.01   34.40
   3   3   7  957.10   35.80
   3   3   7  958.20   34.20
   4  -3   7   35.40    5.90
   4  -3   7   30.70    4.70
   4   3   7   32.40    4.60
   4   3   7   46.60    6.60
   5  -3   7 1527.15   56.09
   5  -3   7 1599.14   53.29
   5   3   7 1553.34   52.49
   5   3   7 1542.75   56.39
   6  -3   7  110.19   11.00
   6  -3   7  102.79    7.00
   6   3   7   89.89   10.00
   6   3   7  103.39    6.60
   7  -3   7  136.99   12.70
   7  -3   7  149.69    8.30
   7   3   7  114.49   12.10
   8  -3   7   51.59    8.10
   8   3   7   45.30    8.20
   9  -3   7   49.20    8.30
   9   3   7   55.29    9.40
  10  -3   7   87.59   11.20
  10   3   7   89.99   11.90
  11  -3   7  148.69   15.00
  11   3   7  141.69   15.40
  12  -3   7    0.80    4.70
  12   3   7    3.40    5.40
  13  -3   7   15.80    6.90
  13   3   7   29.90    8.40
  14  -3   7    7.40    6.90
  14   3   7   -0.90    5.50
  18  -4  -7   14.00    8.30
  18   4  -7    6.30    5.70
  18   4  -7   16.80    7.80
  17  -4  -7   -1.30    5.60
  17   4  -7    3.80    5.00
  17   4  -7    3.40    5.10
  16  -4  -7    9.30    6.60
  16   4  -7    5.20    5.30
  16   4  -7    7.30    6.30
  15  -4  -7  118.89   14.70
  15   4  -7  111.39   12.80
  15   4  -7  134.19   14.50
 -14  -4   7    5.00    4.00
  14  -4  -7    1.40    4.80
 -14   4   7    2.50    4.00
  14   4  -7    3.00    4.10
  14   4  -7    0.50    3.80
  13  -4  -7   92.79   12.20
 -13  -4   7  113.79   11.60
  13   4  -7  104.49   11.30
 -13   4   7  100.79   10.90
  13   4  -7  109.49   11.80
  12  -4  -7   -0.10    3.20
 -12  -4   7    7.10    4.30
  12   4  -7    4.60    4.00
  12   4  -7    1.60    3.40
 -12   4   7    6.90    4.10
  11  -4  -7  307.17   18.40
  11   4  -7  302.47   16.70
  11   4  -7  285.47   16.10
  10  -4  -7   20.20    5.70
  10  -4  -7   19.00    2.80
 -10  -4   7   15.50    4.60
  10   4  -7   13.30    4.20
  10   4  -7    4.80    2.80
 -10   4   7   16.70    4.80
  -9  -4   7    0.30    2.90
   9  -4  -7    1.20    1.40
   9  -4  -7    5.80    3.60
   9   4  -7    1.00    1.60
  -9   4   7   -0.10    2.60
   9   4  -7   -0.50    2.20
   8  -4  -7   88.59   10.00
  -8  -4   7   90.39    9.40
   8   4  -7   78.49    8.20
  -8   4   7   92.49    9.60
   7  -4  -7  678.63   29.30
  -7  -4   7  720.53   29.30
   7   4  -7  700.83   28.30
  -7   4   7  737.43   29.60
   6  -4  -7  464.45   20.90
  -6  -4   7  426.56   20.50
   6   4  -7  463.55   20.00
  -6   4   7  454.95   14.60
  -6   4   7  429.36   20.50
   5  -4  -7  461.95   20.60
  -5  -4   7  462.45   20.70
   5   4  -7  437.26   19.60
  -5   4   7  460.15   15.30
  -5   4   7  450.25   20.70
   4  -4  -7  111.49    8.60
  -4  -4   7  129.49    9.30
  -4   4   7  128.79    5.70
  -4   4   7  132.79    9.50
  -3  -4   7   26.00    4.80
   3  -4  -7   24.40    4.60
  -3   4   7   26.70    5.00
  -3   4   7   29.80    3.20
  -2  -4   7  104.79    8.00
  -2   4   7   99.59    5.90
  -2   4   7  107.59    8.00
  -1  -4   7  591.64   24.20
  -1   4   7  570.74   21.80
  -1   4   7  584.34   23.90
   0  -4   7  226.68   12.30
   0   4   7  220.38   12.10
   1  -4   7  643.84   26.30
   1   4   7  682.53   25.90
   1   4   7  677.73   26.40
   2  -4   7   80.69    7.80
   2   4   7   95.79    8.80
   2   4   7   98.39    7.10
   3  -4   7  167.78    9.90
   3   4   7  162.68   10.50
   3   4   7  155.98    9.40
   4  -4   7  192.98   10.80
   4  -4   7  181.78   12.00
   4   4   7  203.08   12.30
   4   4   7  191.38   10.50
   5  -4   7    6.90    2.90
   5  -4   7   -3.20    2.60
   5   4   7    4.90    2.50
   5   4   7   -0.30    3.00
   6  -4   7  365.56   19.80
   6  -4   7  401.86   17.60
   6   4   7  449.66   21.60
   6   4   7  420.96   17.20
   7  -4   7   19.50    5.40
   7  -4   7   14.00    3.50
   7   4   7   15.70    5.30
   8  -4   7   13.80    5.00
   8   4   7   10.80    5.20
   9  -4   7   -0.50    3.20
   9   4   7   -6.60    3.80
  10  -4   7   47.30    8.30
  10   4   7   35.50    8.30
  11  -4   7    1.40    4.00
  11   4   7   12.70    6.00
  12  -4   7   38.90    8.70
  12   4   7   30.10    8.50
  13  -4   7   20.30    7.30
  13   4   7   14.90    7.40
  17  -5  -7    4.20    6.00
  17   5  -7    4.00    5.50
  17   5  -7    3.50    5.90
  16  -5  -7    6.10    6.60
  16   5  -7    0.60    4.70
  16   5  -7    0.70    4.80
  15  -5  -7   56.49   10.70
  15   5  -7   52.49    9.40
 -14  -5   7  352.36   19.10
  14  -5  -7  305.77   21.30
  14   5  -7  333.57   19.50
 -14   5   7  292.07   18.00
 -13  -5   7    8.60    4.50
  13  -5  -7    9.40    5.90
 -13   5   7    4.00    4.30
  13   5  -7    9.50    3.90
  13   5  -7   18.60    5.50
 -12  -5   7    0.30    3.70
  12  -5  -7    2.30    4.30
  12   5  -7    2.50    3.50
 -12   5   7   10.80    4.20
  12   5  -7    6.90    4.10
  11  -5  -7   66.49   10.00
  11   5  -7   65.19    9.00
 -11   5   7   87.59    9.90
  11   5  -7   70.99    8.70
 -10  -5   7  228.98   14.60
  10  -5  -7  274.67   16.50
  10   5  -7  255.17   14.80
 -10   5   7  229.68   14.70
  10   5  -7  242.28   13.80
  -9  -5   7  103.99   10.60
   9  -5  -7   88.49   10.30
  -9   5   7  100.49   10.60
   9   5  -7   80.89    9.10
   9   5  -7   85.29    8.60
   8  -5  -7  341.87   18.60
  -8  -5   7  342.17   18.00
   8   5  -7  359.66   16.60
  -8   5   7  347.17   18.10
   8   5  -7  366.46   17.90
  -7  -5   7  161.98   11.10
   7  -5  -7  169.38   11.50
   7   5  -7  152.18    9.40
   7   5  -7  148.39   10.30
  -7   5   7  147.99   10.70
   6  -5  -7  193.78   12.30
  -6  -5   7  224.18   13.00
   6   5  -7  185.08   11.70
  -6   5   7  211.68   12.80
  -5  -5   7  165.98   10.90
   5  -5  -7  165.58   10.70
  -5   5   7  160.38   10.80
   5   5  -7  135.59    9.70
  -4  -5   7   17.10    4.60
   4  -5  -7    5.60    3.20
  -4   5   7   17.30    2.10
   4   5  -7   12.10    3.50
  -4   5   7   11.10    3.80
  -3  -5   7   68.09    7.80
   3  -5  -7   64.49    7.00
  -3   5   7   66.69    4.30
  -3   5   7   65.09    7.70
  -2  -5   7   39.50    6.00
  -2   5   7   38.70    4.10
  -2   5   7   46.60    6.50
  -1  -5   7   16.00    4.20
  -1   5   7   16.90    4.00
  -1   5   7   16.70    3.20
   0  -5   7   19.30    4.40
   0   5   7   10.60    3.60
   0   5   7    7.50    2.50
   1  -5   7  224.58   12.10
   1   5   7  185.48   10.60
   1   5   7  182.38   11.20
   2  -5   7   30.10    5.30
   2   5   7   28.90    5.20
   2   5   7   25.90    4.70
   3  -5   7  363.26   16.70
   3   5   7  333.87   16.80
   3   5   7  337.57   16.00
   4  -5   7   97.89    7.40
   4   5   7   69.39    8.40
   4   5   7   69.39    7.10
   5  -5   7  472.05   20.40
   5  -5   7  470.05   22.50
   5   5   7  483.35   22.80
   5   5   7  474.65   19.90
   6  -5   7  505.55   24.00
   6  -5   7  492.35   21.10
   6   5   7  548.15   25.00
   6   5   7  494.35   20.60
   7  -5   7  140.79   13.00
   7  -5   7  149.09    9.30
   7   5   7  149.29   14.00
   8  -5   7  174.38   15.20
   8   5   7  188.28   16.20
   9  -5   7    3.30    4.00
   9   5   7   12.40    5.30
  10  -5   7   32.60    7.20
  10   5   7   12.90    6.20
  11  -5   7   48.10    9.10
  11   5   7   36.00    8.70
  12  -5   7    4.30    4.70
  12   5   7    5.50    5.40
  13  -5   7   41.00    9.30
  13   5   7   39.50   10.30
  17  -6  -7   24.40    9.20
  17   6  -7   29.40    8.60
  16  -6  -7    0.70    5.20
  16   6  -7   -6.90    4.50
  16   6  -7   -3.50    4.20
  15  -6  -7   59.19   10.80
  15   6  -7   74.69   10.70
  15   6  -7   48.90    9.10
  14  -6  -7   21.10    7.50
 -14  -6   7   26.20    6.70
 -14   6   7   39.70    8.00
  14   6  -7   37.00    8.00
  14   6  -7   35.00    7.40
  13  -6  -7  272.97   19.50
 -13  -6   7  293.47   17.30
  13   6  -7  287.37   18.40
 -13   6   7  312.77   17.90
  13   6  -7  275.57   16.70
  12  -6  -7   82.39   11.30
 -12  -6   7   70.49    9.30
  12   6  -7   73.59    8.80
  12   6  -7   74.49   10.20
  11  -6  -7    7.90    5.10
 -11  -6   7    2.40    3.00
  11   6  -7    3.40    3.80
  11   6  -7    6.60    3.90
 -11   6   7    3.00    4.20
  10  -6  -7  110.19   12.30
 -10  -6   7  135.49   12.50
  10   6  -7  130.29   12.50
 -10   6   7  122.89   12.00
  10   6  -7  109.19   10.20
  -9  -6   7   54.99    8.00
   9  -6  -7   54.89    8.20
   9   6  -7   37.10    6.50
  -9   6   7   39.20    6.80
   9   6  -7   58.39    6.80
  -8  -6   7  432.66   21.40
   8  -6  -7  440.46   22.10
   8   6  -7  451.65   19.40
  -8   6   7  456.45   21.80
   8   6  -7  434.26   21.20
  -7  -6   7  334.67   17.70
   7  -6  -7  363.66   18.30
  -7   6   7  313.77   17.40
   7   6  -7  314.67   17.00
   7   6  -7  345.27   15.40
   6  -6  -7  585.54   24.80
  -6  -6   7  504.85   24.20
  -6   6   7  533.65   24.50
   6   6  -7  573.74   24.40
   5  -6  -7   71.59    8.30
  -5  -6   7   95.19    9.70
  -5   6   7   82.09    9.10
   5   6  -7   79.49    8.40
  -4  -6   7  728.53   31.20
   4  -6  -7  786.12   30.60
  -4   6   7  766.42   25.40
   4   6  -7  749.92   30.60
  -4   6   7  824.92   32.10
   3  -6  -7  245.78   13.10
  -3  -6   7  244.08   13.90
  -3   6   7  244.88   13.90
  -3   6   7  227.98    9.90
  -2  -6   7   12.30    4.00
  -2   6   7   10.70    2.50
  -2   6   7    9.90    3.90
  -1  -6   7    0.60    2.40
  -1   6   7    5.00    3.10
  -1   6   7    0.80    1.80
   0  -6   7   30.50    5.50
   0   6   7   23.30    4.90
   0   6   7   25.70    4.30
   1  -6   7   98.49    9.30
   1   6   7   95.69    8.60
   1   6   7   99.39    9.40
   2  -6   7   48.10    6.60
   2   6   7   35.80    5.50
   2   6   7   30.60    5.30
   3  -6   7   52.39    6.80
   3   6   7   40.20    5.90
   3   6   7   37.80    6.20
   4  -6   7  115.49    8.60
   4   6   7  132.39   11.50
   4   6   7  107.09    8.30
   5  -6   7   36.30    5.70
   5  -6   7   28.80    6.10
   5   6   7   43.20    7.00
   5   6   7   44.30    5.90
   6  -6   7   13.00    4.10
   6  -6   7   19.50    5.30
   6   6   7   20.80    4.40
   6   6   7   17.60    5.30
   7  -6   7  526.85   22.40
   7  -6   7  518.85   25.10
   7   6   7  536.65   26.00
   7   6   7  503.25   23.00
   8  -6   7   22.90    6.10
   8   6   7   41.60    8.10
   9  -6   7   11.20    5.10
   9   6   7   24.40    7.20
  10  -6   7    2.10    4.40
  10   6   7    9.00    5.60
  11  -6   7   58.59   10.10
  11   6   7   59.79   11.00
  12  -6   7   -0.30    4.40
  12   6   7    0.50    5.40
  13  -6   7   -0.90    5.50
  13   6   7   -3.50    5.00
  17  -7  -7   -3.50    5.50
  17   7  -7    0.50    5.90
  16  -7  -7    2.20    6.00
  16   7  -7    2.30    6.10
  15  -7  -7   -5.10    4.30
  15   7  -7    2.90    5.70
  14  -7  -7   53.59   10.30
 -14  -7   7   47.20    8.50
 -14   7   7   51.19    8.40
  14   7  -7   54.09    8.50
  14   7  -7   48.60    9.30
 -13  -7   7   27.20    6.70
  13  -7  -7   12.20    6.00
  13   7  -7   19.70    6.20
  13   7  -7   10.90    5.40
 -13   7   7    9.90    4.80
 -12  -7   7   40.70    7.60
  12  -7  -7   99.39   12.50
  12   7  -7   92.39   11.30
 -12   7   7   85.39   10.50
  12   7  -7   92.59   10.00
 -11  -7   7    3.50    4.10
  11  -7  -7   10.30    5.30
  11   7  -7   13.10    4.10
  11   7  -7   10.10    4.90
 -11   7   7    5.80    4.60
  10  -7  -7  210.18   14.90
 -10  -7   7  157.88   12.40
  10   7  -7  201.48   14.10
 -10   7   7  192.88   13.70
  10   7  -7  191.98   11.70
   9  -7  -7  168.98   12.80
  -9  -7   7  150.38   11.80
   9   7  -7  168.08   10.30
  -9   7   7  160.08   12.20
   9   7  -7  147.79   13.40
  -8  -7   7  155.28   11.80
   8  -7  -7  129.69   12.80
   8   7  -7  129.49    8.70
  -8   7   7  158.08   11.70
   8   7  -7  122.49   11.80
  -7  -7   7   23.80    6.00
   7  -7  -7   22.70    5.30
  -7   7   7   30.60    6.20
   7   7  -7   25.30    5.50
   6  -7  -7  960.90   38.20
  -6  -7   7 1041.90   39.40
  -6   7   7  948.21   38.70
   6   7  -7  951.90   38.20
   5  -7  -7    1.20    2.90
  -5  -7   7    4.60    3.40
   5   7  -7    4.30    3.30
  -5   7   7    3.90    3.20
  -4  -7   7  152.68   11.30
   4  -7  -7  170.68   11.00
  -4   7   7  164.98    6.90
   4   7  -7  197.18   12.00
  -4   7   7  163.48   11.70
   3  -7  -7  383.06   18.20
  -3  -7   7  381.86   19.40
  -3   7   7  436.56   20.20
  -3   7   7  383.66   14.90
  -2  -7   7  117.69   10.90
  -2   7   7  126.99    7.20
  -2   7   7  113.79   10.90
  -1  -7   7  382.86   19.20
  -1   7   7  399.96   19.30
  -1   7   7  398.16   16.60
   0  -7   7   72.69    8.30
   0   7   7   75.59    8.50
   0   7   7   78.59    7.40
   1  -7   7  154.88   10.80
   1   7   7  153.18   10.50
   2  -7   7   13.90    4.00
   2   7   7    8.10    3.40
   2   7   7   13.10    4.00
   3  -7   7  299.37   15.60
   3   7   7  265.97   15.00
   3   7   7  303.97   15.80
   4  -7   7    2.70    2.80
   4   7   7   -3.20    2.20
   4   7   7    4.70    3.90
   5  -7   7   68.99    8.10
   5   7   7   52.59    7.00
   5   7   7   50.79    8.00
   6  -7   7  107.79   11.40
   6  -7   7  102.59    9.90
   6   7   7  102.09    9.40
   6   7   7  125.79   12.70
   7  -7   7    6.60    4.40
   7  -7   7    1.00    3.20
   7   7   7   -2.20    3.20
   7   7   7    1.00    2.90
   8  -7   7   -0.30    3.60
   8   7   7    2.20    4.30
   9  -7   7   -2.40    3.50
   9   7   7    0.80    4.70
  10  -7   7   78.19   10.80
  10   7   7   58.19   10.60
  11  -7   7   11.80    5.90
  11   7   7   19.60    7.40
  12  -7   7   65.89   11.00
  12   7   7   62.59   11.60
  13  -7   7   54.29   10.30
  13   7   7   50.49   11.60
  16  -8  -7   -8.90    4.30
  16   8  -7   -0.90    5.10
  15  -8  -7   21.90    8.00
  15   8  -7   22.10    7.40
  14  -8  -7   -1.10    4.50
 -14  -8   7    0.00    4.50
 -14   8   7   -0.40    3.90
  14   8  -7   -1.10    3.90
  13  -8  -7  129.49   15.20
 -13  -8   7  144.19   14.00
  13   8  -7  139.69   15.00
  12  -8  -7   54.09   10.00
 -12   8   7   60.79    9.40
  12   8  -7   40.00    7.80
 -11  -8   7   56.49    8.70
  11  -8  -7   65.99   10.40
  11   8  -7   63.49    7.80
  11   8  -7   73.09    9.90
 -11   8   7   80.69   10.40
 -10  -8   7   40.30    7.70
  10  -8  -7   44.70    8.10
  10   8  -7   60.49    7.00
 -10   8   7   51.39    8.40
  10   8  -7   36.00    7.20
   9  -8  -7   -1.00    3.10
  -9  -8   7    1.30    4.40
  -9   8   7    4.20    3.90
   9   8  -7    0.60    3.30
   9   8  -7    1.20    2.60
  -8  -8   7  162.68   12.50
   8  -8  -7  150.18   13.80
   8   8  -7  154.78   13.80
  -8   8   7  188.38   13.10
  -7  -8   7   -2.10    3.50
   7  -8  -7    0.50    3.10
   7   8  -7    4.50    3.50
  -7   8   7    5.50    3.80
  -6  -8   7  116.89   11.60
   6  -8  -7  138.09   12.20
   6   8  -7  140.09   12.70
  -6   8   7  115.19   11.80
  -5  -8   7  669.03   29.50
   5  -8  -7  658.33   28.40
  -5   8   7  661.73   29.40
   5   8  -7  708.03   29.40
  -4  -8   7   13.50    4.80
   4  -8  -7   20.10    4.60
   4   8  -7    7.20    3.60
  -4   8   7   16.20    4.90
  -4   8   7   15.60    2.10
  -3  -8   7   10.00    4.40
   3  -8  -7   11.00    3.90
  -3   8   7    0.30    2.80
  -3   8   7    9.40    2.30
  -2  -8   7   80.69    9.40
  -2   8   7   71.29    6.30
  -2   8   7   93.09   10.10
  -1  -8   7  160.48   11.70
  -1   8   7  181.38    9.70
  -1   8   7  152.98   11.20
   0  -8   7   37.60    6.50
   0   8   7   30.10    4.90
   0   8   7   26.80    5.40
   1  -8   7   -0.60    2.70
   1   8   7   -1.10    1.20
   1   8   7   11.90    4.20
   2  -8   7  250.07   14.60
   2   8   7  244.88   14.30
   2   8   7  241.78   13.70
   3  -8   7   91.49    9.70
   3   8   7  110.99   10.40
   3   8   7   94.79   10.00
   4  -8   7    0.20    2.80
   4   8   7    3.30    3.80
   4   8   7    1.90    3.20
   5  -8   7   24.90    5.40
   5   8   7   33.80    5.90
   5   8   7   20.10    5.80
   6  -8   7   32.00    6.00
   6  -8   7   26.20    6.10
   6   8   7   21.60    6.60
   6   8   7   25.80    5.40
   7  -8   7   21.30    5.00
   7  -8   7   49.99    8.10
   7   8   7   23.30    5.20
   7   8   7   33.70    7.70
   8  -8   7   48.10    8.60
   8   8   7   69.59   10.40
   9  -8   7   71.39   10.40
   9   8   7   72.29   11.40
  10  -8   7   69.79   10.50
  10   8   7   65.39   11.40
  11  -8   7   14.10    6.20
  11   8   7   12.70    6.90
  12  -8   7   42.40    9.30
  12   8   7   52.49   11.50
  16  -9  -7    7.70    6.90
  16   9  -7    7.00    6.10
  15  -9  -7   -2.00    5.10
  15   9  -7    1.60    5.40
 -14  -9   7   29.40    7.70
  14  -9  -7   17.10    7.40
  14   9  -7   37.70    8.80
 -14   9   7   26.80    7.40
 -13  -9   7   16.30    6.60
  13  -9  -7   16.60    6.90
 -13   9   7    7.60    4.80
  13   9  -7   16.80    6.40
  12  -9  -7   73.89   11.50
 -12  -9   7   73.19   10.50
 -12   9   7   73.79   10.40
  12   9  -7   69.69   10.40
 -11  -9   7    3.40    4.80
  11  -9  -7    0.70    4.20
  11   9  -7   -1.60    3.40
 -11   9   7    2.00    3.60
 -10  -9   7    5.10    5.00
  10  -9  -7    8.70    5.00
  10   9  -7   14.30    5.30
 -10   9   7   15.20    5.90
  -9  -9   7   11.10    4.70
   9  -9  -7    9.20    4.40
  -9   9   7   12.20    5.00
   9   9  -7   10.60    4.80
  -8  -9   7   37.60    7.50
   8  -9  -7   30.90    6.70
  -8   9   7   42.30    7.60
   8   9  -7   26.80    6.30
   7  -9  -7    4.70    3.70
  -7  -9   7   10.50    4.60
  -7   9   7    3.90    3.90
   7   9  -7    2.90    2.90
   6  -9  -7    4.30    3.40
  -6  -9   7    7.50    4.50
   6   9  -7   12.50    4.70
  -6   9   7    5.70    4.00
   5  -9  -7   13.00    4.50
  -5  -9   7   33.80    6.80
  -5   9   7    8.90    4.10
   5   9  -7   18.10    5.10
   4  -9  -7   87.39    9.20
  -4  -9   7  125.09   12.30
   4   9  -7  104.59   10.80
  -4   9   7  111.59    5.60
  -4   9   7  101.29   11.00
   3  -9  -7    9.80    3.50
  -3  -9   7    3.70    3.60
  -3   9   7    9.80    2.50
  -3   9   7    7.80    3.80
  -2  -9   7  274.17   16.30
  -2   9   7  284.07   16.30
  -2   9   7  251.57   12.30
  -1  -9   7   91.09   10.40
  -1   9   7   80.19    7.60
  -1   9   7   90.59   10.10
   0  -9   7   93.99   10.60
   0   9   7  104.09   10.90
   0   9   7   99.19    8.80
   1  -9   7   46.00    7.90
   1   9   7   44.90    7.00
   1   9   7   44.30    6.40
   2  -9   7  150.08   13.20
   2   9   7  117.09   11.50
   2   9   7  114.89   10.80
   3  -9   7  308.17   17.50
   3   9   7  327.87   17.70
   3   9   7  325.87   17.50
   4  -9   7    0.40    3.00
   4   9   7    3.00    3.50
   4   9   7    5.70    3.80
   5  -9   7  160.78   11.90
   5   9   7  154.08   14.40
   5   9   7  162.48   11.50
   6  -9   7   14.90    4.90
   6   9   7   21.20    5.20
   6   9   7   17.30    5.70
   7  -9   7    4.00    3.80
   7  -9   7   -0.30    3.50
   7   9   7   -2.60    3.70
   7   9   7    2.20    3.90
   8  -9   7  157.28   15.40
   8   9   7  205.98   18.20
   9  -9   7   11.60    5.70
   9   9   7    4.60    5.10
  10  -9   7  187.38   17.50
  10   9   7  163.68   17.50
  11  -9   7   32.70    8.60
  11   9   7   44.80   10.40
  12  -9   7   27.90    7.90
  12   9   7    9.70    7.40
  15 -10  -7    5.90    7.00
  15  10  -7    3.80    6.00
 -14 -10   7    0.40    5.60
  14 -10  -7    3.10    6.60
  14  10  -7   -2.70    4.20
 -14  10   7    0.10    3.30
 -13 -10   7    1.80    2.90
  13 -10  -7   -1.60    4.50
  13  10  -7   -0.50    4.60
 -13  10   7   -1.60    3.80
  12 -10  -7   27.00    7.70
 -12 -10   7   47.20    9.00
 -12  10   7   30.30    7.70
  12  10  -7   34.60    8.60
  11 -10  -7    6.50    5.60
 -11 -10   7   10.30    5.40
  11  10  -7   19.00    6.50
 -11  10   7    9.30    4.90
  10 -10  -7  106.99   12.90
 -10 -10   7  135.29   14.30
  10  10  -7  123.89   13.80
 -10  10   7  111.69   13.20
   9 -10  -7    5.00    4.00
  -9 -10   7    1.20    4.20
  -9  10   7    6.60    4.70
   9  10  -7   16.70    6.00
   8 -10  -7   25.40    6.20
  -8 -10   7   18.70    6.30
  -8  10   7   23.70    6.50
   8  10  -7   30.50    7.00
   7 -10  -7  181.38   13.40
  -7 -10   7  197.18   14.40
  -7  10   7  205.68   14.80
   7  10  -7  200.88   14.50
  -6 -10   7    8.30    4.50
   6 -10  -7   23.90    5.60
   6  10  -7   19.40    5.70
  -6  10   7   22.80    6.20
  -5 -10   7   56.19    8.80
   5 -10  -7   63.59    8.30
  -5  10   7   56.19    8.90
   5  10  -7   53.09    8.40
  -4 -10   7   21.20    5.80
   4 -10  -7   23.20    5.30
   4  10  -7   21.10    5.50
  -4  10   7   32.30    6.90
  -4  10   7   22.10    3.40
   3 -10  -7  129.29    9.70
  -3 -10   7  125.89   12.70
  -3  10   7  116.89   12.10
  -3  10   7  114.89    7.00
  -2 -10   7    5.80    4.10
  -2  10   7   10.50    3.20
  -2  10   7    7.20    4.30
  -1 -10   7   40.60    7.50
  -1  10   7   27.10    6.20
  -1  10   7   32.20    5.00
   0 -10   7   65.39    9.30
   0  10   7   61.49    8.90
   0  10   7   74.59    7.90
   1 -10   7    2.70    3.30
   1  10   7   -0.10    2.90
   1  10   7    0.10    2.80
   2 -10   7   52.39    8.40
   2  10   7   50.19    7.80
   2  10   7   61.49    8.10
   3 -10   7    6.10    4.00
   3  10   7    3.00    3.50
   3  10   7    0.10    3.40
   4 -10   7   35.00    7.00
   4  10   7   34.60    7.00
   4  10   7   41.00    7.20
   5 -10   7    2.50    3.80
   5  10   7    6.00    4.30
   5  10   7   -0.60    3.40
   6 -10   7    7.90    4.30
   6  10   7   10.80    5.10
   6  10   7    6.20    4.30
   7 -10   7   73.69   10.30
   7 -10   7   90.59   10.60
   7  10   7   82.99    9.80
   7  10   7   72.69   11.10
   8 -10   7   22.30    6.30
   8  10   7    8.10    5.70
   9 -10   7  127.59   14.00
   9  10   7   73.39   12.10
  10 -10   7    0.90    5.10
  10  10   7   -1.80    5.00
  11 -10   7   11.50    6.90
  11  10   7    6.00    6.00
  15 -11  -7   36.50   10.40
  15  11  -7   18.90    7.90
  14 -11  -7   18.10    8.10
 -14  11   7   34.70    8.60
  14  11  -7   40.90   10.10
 -13 -11   7    2.60    5.10
  13 -11  -7    2.20    5.50
  13  11  -7    7.00    5.50
 -13  11   7   13.50    5.70
  12 -11  -7  113.99   14.40
 -12 -11   7   90.49   12.20
 -12  11   7   93.39   12.40
  12  11  -7  114.59   14.40
  11 -11  -7   20.30    6.80
 -11 -11   7   17.80    6.50
  11  11  -7   14.00    6.00
 -11  11   7   11.00    5.80
 -10 -11   7   28.80    7.80
  10 -11  -7   34.70    8.50
  10  11  -7   18.30    6.60
 -10  11   7   43.10    8.80
  -9 -11   7   40.20    8.50
   9 -11  -7   40.60    8.00
  -9  11   7   34.80    7.90
   9  11  -7   48.10    8.80
  -8 -11   7    4.90    4.40
   8 -11  -7    1.90    4.60
   8  11  -7    2.90    4.20
  -8  11   7    1.10    3.60
  -7 -11   7   18.80    6.10
   7 -11  -7    9.00    4.60
   7  11  -7   19.40    6.00
  -7  11   7   12.50    5.60
  -6 -11   7   24.40    6.70
   6 -11  -7   28.60    6.20
   6  11  -7   14.90    5.30
  -6  11   7   32.20    7.40
   5 -11  -7  133.69   12.10
  -5 -11   7  187.58   16.70
  -5  11   7  115.39   13.10
   5  11  -7  148.79   14.30
  -4 -11   7  329.97   20.10
   4 -11  -7  338.27   18.00
  -4  11   7  357.86   20.30
   4  11  -7  349.67   19.60
   3 -11  -7  120.89   10.80
  -3 -11   7   94.39   11.60
  -3  11   7  102.59   11.90
  -3  11   7  111.09    7.10
  -2 -11   7  356.16   20.40
  -2  11   7  330.47   19.80
  -2  11   7  372.46   16.20
  -1 -11   7    0.70    3.60
  -1  11   7    0.20    3.40
  -1  11   7   -0.40    2.40
   0 -11   7   74.89   10.30
   0  11   7   68.69    8.00
   0  11   7   71.79    9.80
   1 -11   7    6.00    3.80
   1  11   7    5.90    3.70
   1  11   7   11.30    4.80
   2 -11   7   19.90    5.50
   2  11   7   14.60    4.70
   2  11   7   16.90    5.30
   3 -11   7   76.69   10.10
   3  11   7   99.89   11.20
   3  11   7   73.39    9.30
   4 -11   7    0.60    3.50
   4  11   7    7.00    4.40
   4  11   7    2.00    3.80
   5 -11   7   81.69   10.60
   5  11   7   71.59   10.40
   5  11   7   76.49    9.90
   6 -11   7    0.50    3.20
   6  11   7    0.60    3.90
   6  11   7    0.60    4.40
   7 -11   7   23.70    6.50
   7 -11   7   21.70    6.40
   7  11   7   27.40    7.60
   7  11   7   24.60    6.50
   8 -11   7   22.80    6.60
   8  11   7   21.60    7.20
   9 -11   7   11.60    6.20
   9  11   7    4.00    5.60
  10 -11   7   75.49   11.20
  10  11   7   68.49   12.00
  11  11   7    0.50    5.90
  14 -12  -7   -6.90    4.30
  14  12  -7    6.20    6.00
 -14  12   7    8.30    5.40
 -13 -12   7   19.60    7.60
  13 -12  -7   17.80    7.80
  13  12  -7    9.60    6.40
 -13  12   7   16.20    7.00
 -12 -12   7    1.00    4.90
  12 -12  -7    9.70    6.80
  12  12  -7   -4.20    4.60
 -12  12   7    3.80    4.50
 -11 -12   7    8.40    6.20
  11 -12  -7   -0.80    4.80
 -11  12   7    9.00    5.50
  11  12  -7    0.10    4.80
  10 -12  -7   28.90    7.90
 -10 -12   7   53.79    9.60
  10  12  -7   27.80    7.60
 -10  12   7   54.19   10.10
   9 -12  -7    4.40    4.90
  -9 -12   7   -1.20    4.80
  -9  12   7   -3.30    3.60
   9  12  -7    0.00    3.80
   8 -12  -7  150.58   14.80
  -8 -12   7  137.79   14.90
  -8  12   7  143.39   15.30
   8  12  -7  150.88   15.60
  -7 -12   7   33.20    7.90
   7 -12  -7   54.29    8.60
   7  12  -7   38.90    8.50
  -7  12   7   38.50    8.40
  -6 -12   7  270.77   18.40
   6 -12  -7  277.87   17.10
   6  12  -7  301.77   18.90
  -6  12   7  275.57   18.60
  -5 -12   7  278.07   18.30
   5 -12  -7  270.77   15.90
   5  12  -7  252.87   17.20
  -5  12   7  232.88   17.10
  -4 -12   7   14.20    5.60
   4 -12  -7    4.00    3.60
  -4  12   7    9.60    5.40
   4  12  -7   14.20    5.30
   3 -12  -7    3.30    3.30
  -3 -12   7   -0.60    3.80
  -3  12   7   -0.30    3.60
  -2 -12   7    1.40    4.00
  -2  12   7   -0.30    2.40
  -2  12   7    0.20    3.50
  -1 -12   7  193.78   14.90
  -1  12   7  186.38   11.70
  -1  12   7  199.28   14.70
   0 -12   7    7.70    5.20
   0  12   7   24.20    6.70
   0  12   7   17.70    5.00
   1 -12   7   30.90    7.40
   1  12   7   27.80    6.10
   1  12   7   24.60    6.70
   2 -12   7  239.98   16.60
   2  12   7  223.98   15.90
   3 -12   7   50.09    9.00
   3  12   7   38.20    8.10
   3  12   7   39.20    7.60
   4 -12   7  354.56   20.70
   4  12   7  344.47   20.40
   4  12   7  355.56   20.40
   5 -12   7    0.30    3.80
   5  12   7    2.30    4.30
   5  12   7   -0.50    4.00
   6 -12   7   16.00    6.10
   6  12   7   23.40    6.90
   6  12   7   34.20    7.50
   7 -12   7   22.90    6.80
   7  12   7   36.30    8.90
   7  12   7   32.30    7.90
   8 -12   7   38.50    8.80
   8  12   7   38.50    9.10
   9 -12   7    4.70    5.40
   9  12   7   -0.90    5.20
  10 -12   7   13.30    6.70
  10  12   7   15.90    7.40
 -13 -13   7    7.90    6.20
  13 -13  -7    5.30    6.60
 -13  13   7    3.50    5.60
  13  13  -7    9.00    6.70
  12 -13  -7    8.90    6.30
 -12 -13   7    0.00    5.00
 -12  13   7    7.20    6.20
  12  13  -7    2.70    5.80
  11 -13  -7    2.90    5.20
 -11 -13   7    3.30    5.50
 -11  13   7   10.50    5.60
  11  13  -7    1.80    5.00
  10 -13  -7   30.20    8.00
 -10 -13   7   28.60    8.30
  10  13  -7   29.80    8.50
 -10  13   7   21.80    7.20
  -9 -13   7   19.20    6.90
   9 -13  -7   11.50    6.20
   9  13  -7   12.90    6.50
  -9  13   7    5.40    5.60
   8 -13  -7  125.09   13.40
  -8 -13   7  106.79   13.40
  -8  13   7  133.29   15.10
   8  13  -7  120.79   14.50
  -7 -13   7   -0.40    4.60
   7 -13  -7    3.90    4.60
   7  13  -7    5.40    4.90
  -7  13   7    7.50    5.20
  -6 -13   7   11.90    6.30
   6 -13  -7   22.30    6.10
   6  13  -7    5.50    5.00
  -6  13   7   10.10    5.20
  -5 -13   7    4.80    4.50
   5 -13  -7    2.40    3.90
   5  13  -7    1.70    4.30
  -5  13   7    8.00    5.30
  -4 -13   7   14.70    6.10
   4 -13  -7    5.70    4.00
   4  13  -7    5.30    4.70
  -4  13   7   12.60    5.70
  -3 -13   7   46.30    9.00
  -3  13   7   37.70    8.00
  -2 -13   7   71.69   11.20
  -2  13   7   88.09   11.70
  -1 -13   7    1.80    4.30
  -1  13   7    7.60    5.10
  -1  13   7    6.80    3.80
   0 -13   7  170.48   16.70
   0  13  -7  128.89   14.80
   0  13   7  148.99   12.90
   0  13   7  159.38   15.50
   1 -13   7   16.40    6.10
  -1  13  -7   17.40    6.20
   1  13   7   15.40    6.00
   1  13   7   15.60    5.10
   2 -13   7  110.39   13.50
  -2  13  -7   95.69   12.90
   2  13   7  111.29   13.20
   3 -13   7    9.20    5.30
  -3  13  -7   -2.50    3.90
   3  13   7    3.10    3.80
   3  13   7    5.70    4.70
   4 -13   7    2.60    4.90
   4  13   7    0.90    3.80
   4  13   7    3.40    5.00
   5 -13   7    8.10    4.60
   5  13   7    2.80    4.20
   5  13   7    6.90    5.60
   6 -13   7   86.09   11.90
   6  13   7   81.19   11.80
   6  13   7   73.79   11.00
   7 -13   7    5.90    5.40
   7  13   7    2.30    5.60
   8 -13   7   44.50    9.60
   8  13   7   32.90    9.10
   9 -13   7    7.70    6.00
   9  13   7    8.00    7.10
 -12 -14   7    3.40    6.10
  12 -14  -7    7.70    6.50
 -12  14   7    4.60    6.10
  12  14  -7   -0.20    5.50
 -11 -14   7   -0.30    5.90
  11 -14  -7   -3.00    4.40
 -11  14   7  -10.10    4.30
  11  14  -7    1.10    5.30
 -10 -14   7   82.49   12.80
  10 -14  -7   98.59   13.40
  10  14  -7   80.79   12.80
 -10  14   7   84.59   13.10
   9 -14  -7   -3.20    4.80
  -9 -14   7   -5.10    4.00
   9  14  -7   -4.30    4.30
  -9  14   7   -0.10    4.50
   8 -14  -7  155.98   15.60
  -8 -14   7  142.69   16.40
   8  14  -7  162.98   17.30
  -8  14   7  151.88   16.40
  -7 -14   7   15.00    6.70
   7 -14  -7   28.90    7.60
   7  14  -7   18.80    6.80
  -7  14   7   20.10    6.70
  -6 -14   7   57.99   10.70
   6 -14  -7   56.09    9.00
   6  14  -7   83.09   12.40
  -6  14   7   64.19   11.10
  -5 -14   7    0.70    4.20
   5 -14  -7   -4.80    3.70
   5  14  -7    1.00    4.10
  -5  14   7   -4.30    3.50
   4 -14  -7    2.60    4.10
  -4 -14   7   -2.10    3.80
   4  14  -7    1.00    4.00
  -4  14   7    4.60    4.90
  -3 -14   7   26.60    7.20
  -3  14   7   20.40    7.00
  -2 -14   7   14.90    6.20
  -2  14   7   -0.70    4.40
  -1 -14   7   -3.80    3.70
   1  14  -7    3.90    5.20
  -1  14   7    5.40    4.90
   0 -14   7   -1.00    4.40
   0  14  -7    3.10    5.10
   0  14   7   -0.50    3.30
   0  14   7    8.30    5.20
   1 -14   7   27.90    7.60
   1  14   7   28.30    6.30
   1  14   7   16.70    6.30
  -1  14  -7   26.30    7.60
   2 -14   7    4.50    4.70
   2  14   7    0.10    4.40
  -2  14  -7    3.50    5.00
   2  14   7   -4.20    3.00
   3 -14   7   -2.20    4.70
   3  14   7   -0.30    3.20
  -3  14  -7    2.30    5.10
   3  14   7    3.00    4.90
   4 -14   7  185.88   18.20
   4  14   7  185.08   16.90
  -4  14  -7  172.98   17.50
   4  14   7  169.58   16.70
   5 -14   7   40.40    8.90
   5  14   7   14.40    7.00
   5  14   7   17.80    6.40
   6 -14   7  164.18   17.00
   6  14   7  116.89   14.50
   6  14   7  167.68   16.60
   7 -14   7    5.90    4.90
   7  14   7    7.90    5.20
   8 -14   7    3.20    5.40
   8  14   7    8.30    6.00
 -11 -15   7    4.50    6.60
  11 -15  -7   14.00    7.50
 -11  15   7    8.40    6.50
  11  15  -7   19.00    7.60
 -10 -15   7    2.20    5.80
  10 -15  -7   13.60    6.60
 -10  15   7    3.10    5.30
  10  15  -7   -0.70    5.80
  -9 -15   7   -1.30    5.90
   9 -15  -7    0.00    4.90
  -9  15   7    0.10    5.00
   9  15  -7    4.60    5.80
  -8 -15   7   -1.10    5.20
   8 -15  -7   -0.30    5.30
  -8  15   7    1.10    4.50
   8  15  -7   -1.20    4.10
  -7 -15   7   -2.20    4.70
   7 -15  -7    1.80    4.90
   7  15  -7    0.80    5.10
  -7  15   7   -2.40    4.70
   6 -15  -7   21.20    6.30
  -6 -15   7   12.10    6.90
  -6  15   7   29.80    8.80
   6  15  -7   28.50    7.90
  -5 -15   7   -5.20    4.10
   5  15  -7    2.40    4.80
  -5  15   7    2.90    5.30
  -4 -15   7   36.60    9.00
  -4  15   7   30.40    8.30
  -3 -15   7   76.19   12.10
  -3  15   7   71.29   11.50
  -2 -15   7   14.80    6.80
  -2  15   7   24.60    7.50
  -1 -15   7   20.40    7.30
  -1  15   7   11.30    6.30
   1  15  -7    2.90    5.50
   0 -15   7    6.40    5.40
   0  15  -7    0.40    4.60
   0  15   7   -4.80    4.30
   1 -15   7   11.50    6.20
   1  15   7   19.80    5.90
  -1  15  -7   20.00    7.50
   1  15   7   21.90    7.40
   2 -15   7    9.50    6.30
  -2  15  -7    1.40    4.80
   2  15   7    1.40    4.00
   2  15   7   -1.90    4.80
   3 -15   7   52.09   10.60
   3  15   7   52.29   10.60
  -3  15  -7   54.79   10.50
   3  15   7   65.29   10.40
   4 -15   7   15.10    6.30
   4  15   7    4.40    5.00
   4  15   7    6.10    5.50
  -4  15  -7   13.10    6.90
   5 -15   7    5.00    5.40
   5  15   7    4.20    5.60
   5  15   7   -1.20    4.00
   6 -15   7    1.90    4.40
   6  15   7    3.90    5.80
   6  15   7    1.60    5.20
   7 -15   7    5.90    5.10
   7  15   7   19.20    7.60
 -10 -16   7   -2.50    5.50
  10 -16  -7    3.80    6.40
  10  16  -7    8.70    7.50
 -10  16   7   12.60    7.10
   9 -16  -7   -3.60    5.00
  -9 -16   7   -2.60    6.00
   9  16  -7    2.50    6.10
  -9  16   7   -0.20    5.10
  -8 -16   7   38.20    9.50
  -8  16   7   35.50    9.80
   8  16  -7   43.00   10.10
  -7 -16   7   27.80    9.70
   7  16  -7   27.30    8.20
  -7  16   7   23.70    8.60
  -6 -16   7   47.60   10.90
   6  16  -7   14.70    6.90
  -6  16   7   22.90    8.30
  -5 -16   7   11.30    6.40
  -5  16   7   15.30    7.40
   5  16  -7    1.50    5.60
  -4 -16   7   23.20    7.60
  -4  16   7    1.40    5.10
  -3 -16   7   -2.60    4.00
  -3  16   7    2.40    5.10
  -2 -16   7    5.00    6.00
  -2  16   7   -2.00    4.90
  -1 -16   7   10.50    6.60
  -1  16   7   11.80    6.80
   1  16  -7   18.50    7.20
   0 -16   7   38.00    9.60
   0  16   7   32.30    8.40
   0  16  -7   44.40   10.30
   1 -16   7   -0.40    4.80
  -1  16  -7   -0.50    4.80
   1  16   7   -1.60    4.80
   2 -16   7   50.29   11.10
  -2  16  -7   67.29   12.00
   2  16   7   59.89    9.60
   2  16   7   62.19   11.30
   3 -16   7    1.40    4.90
  -3  16  -7    3.00    6.20
   3  16   7    1.70    3.50
   3  16   7    0.60    4.90
   4 -16   7   25.40    8.00
   4  16   7   59.29   11.30
  -4  16  -7   64.39   12.20
   4  16   7   68.89   11.10
   5 -16   7    2.00    5.50
   5  16   7    4.70    6.00
   5  16   7    0.40    4.50
   6 -16   7   67.69   12.40
   6  16   7   48.70   10.40
  -8 -17   7   15.20    7.90
  -8  17   7   28.20    9.10
   8  17  -7   10.00    7.30
  -7 -17   7   22.20    9.10
  -7  17   7   16.50    8.20
   7  17  -7   28.00    8.60
  -6 -17   7   11.50    6.90
   6  17  -7    7.60    6.00
  -6  17   7    4.70    6.00
  -5 -17   7    3.10    5.90
   5  17  -7   -3.40    4.70
  -5  17   7   -1.80    5.20
  -4 -17   7   -1.00    4.70
  -4  17   7   -1.70    4.70
  -3 -17   7   10.60    6.50
  -3  17   7    8.40    6.60
  -2 -17   7    7.80    6.70
  -2  17   7   21.80    8.10
  -1 -17   7    7.10    6.50
   1  17  -7   -2.40    5.30
  -1  17   7    3.20    5.40
   0 -17   7   65.19   12.00
   0  17   7   62.59   11.90
   0  17  -7  103.19   14.80
   1 -17   7   15.10    7.50
  -1  17  -7   12.00    7.50
   1  17   7   24.40    8.30
   2 -17   7    0.70    5.40
  -2  17  -7   25.30    8.50
   2  17   7   21.00    8.70
   3 -17   7   -3.30    5.10
  -3  17  -7    4.40    5.60
   3  17   7    5.00    6.70
   3  17   7    2.70    3.70
   4 -17   7   -3.30    4.80
   4  17   7   -2.20    5.20
  -4  17  -7   -6.30    5.60
   4  17   7    0.60    5.40
  -6  18   7   23.70    8.70
  -5 -18   7    4.40    6.00
  -5  18   7   -6.60    4.90
  -4 -18   7   -4.10    5.30
  -4  18   7    2.80    5.70
  -3 -18   7    6.70    6.20
  -3  18   7   -4.90    5.10
  -2 -18   7   -0.50    6.10
  -2  18   7    3.20    6.10
  -1 -18   7    3.60    6.30
  -1  18   7    9.20    7.00
   1  18  -7   -6.50    4.80
   0 -18   7    0.80    5.20
   0  18   7    7.50    6.90
   0  18  -7   10.40    6.90
   1 -18   7   23.10    8.80
   1  18   7   28.40    9.00
  -1  18  -7   30.00    9.10
  18   0  -8  105.69   15.20
  17   0  -8   -0.10    5.40
  16   0  -8   23.30    7.90
  15   0  -8    1.80    3.70
  15   0  -8    2.20    4.70
 -14   0   8  826.82   35.20
  14   0  -8  879.61   34.30
  14   0  -8  839.62   37.90
 -13   0   8    0.30    3.60
  13   0  -8    1.40    3.70
  13   0  -8    4.40    3.30
  12   0  -8  104.49    9.40
 -12   0   8  127.89   12.10
  12   0  -8  111.89   12.70
  11   0  -8   -1.20    2.60
  11   0  -8    1.00    2.20
 -11   0   8   -0.50    3.10
  10   0  -8   86.79   10.10
  10   0  -8  103.39    7.40
 -10   0   8   94.39   10.20
  -9   0   8    1.20    2.70
   9   0  -8    3.00    2.20
   9   0  -8    0.20    2.30
  -8   0   8  122.89    9.60
   8   0  -8  129.39    7.80
   8   0  -8  101.89   10.10
  -7   0   8    5.50    3.30
   7   0  -8    1.40    1.90
   7   0  -8   -0.90    1.80
   6   0  -8    5.10    3.00
  -6   0   8    7.20    3.50
   5   0  -8   -0.90    2.00
  -5   0   8    2.90    2.80
  -4   0   8 2232.68   75.99
  -3   0   8   -0.80    2.40
  -2   0   8  740.83   29.30
  -1   0   8    0.00    2.00
   0   0   8 1142.39   40.60
   0   0   8 1115.19   40.90
   1   0   8    0.00    2.10
   1   0   8    1.00    2.00
   2   0   8  250.97   13.60
   2   0   8  259.37   13.00
   3   0   8    2.10    2.60
   3   0   8    1.40    2.00
   4   0   8  286.07   15.70
   4   0   8  293.77   13.70
   5   0   8    2.10    2.10
   5   0   8   -0.40    2.70
   6   0   8  693.93   29.80
   6   0   8  642.54   24.40
   7   0   8    0.60    3.40
   8   0   8  421.56   22.40
   9   0   8    1.80    4.20
  10   0   8  476.45   26.00
  11   0   8    1.10    4.60
  12   0   8   29.90    8.50
  13   0   8    4.80    5.50
  18  -1  -8  127.79   16.80
  18   1  -8  132.89   16.70
  17  -1  -8   22.70    8.40
  17   1  -8   23.10    8.20
  16  -1  -8   16.50    7.80
  16   1  -8   12.00    5.60
  16   1  -8    8.00    5.60
  15  -1  -8    0.30    3.70
  15   1  -8   -3.00    4.20
  15   1  -8    1.20    3.80
  14  -1  -8   35.70    6.00
 -14  -1   8   51.99    8.10
  14  -1  -8   18.80    6.60
  14   1  -8   25.80    5.80
  14   1  -8   20.20    6.30
 -14   1   8   38.70    7.30
  13  -1  -8  149.88   14.70
 -13  -1   8  132.99   12.70
  13  -1  -8  141.99    9.70
  13   1  -8  112.89   13.10
 -13   1   8  134.89   12.50
  13   1  -8  140.59   12.00
  12  -1  -8  158.98   14.80
  12  -1  -8  166.48   10.10
 -12  -1   8  168.38   12.20
  12   1  -8  155.08   10.70
 -12   1   8  152.88   13.70
  12   1  -8  165.38   14.80
 -11  -1   8    3.10    3.20
  11  -1  -8    5.50    4.20
  11  -1  -8    3.40    2.70
  11   1  -8    4.10    3.90
  11   1  -8    7.00    3.40
 -11   1   8    6.10    4.10
  10  -1  -8   67.39    6.40
 -10  -1   8   76.69    9.40
  10  -1  -8   63.59    8.60
 -10   1   8   53.39    7.70
  10   1  -8   58.19    8.20
  10   1  -8   60.29    6.90
  -9  -1   8   51.99    7.40
   9  -1  -8   64.39    8.30
   9  -1  -8   66.69    6.20
   9   1  -8   77.89    8.80
  -9   1   8   68.19    8.30
   9   1  -8   49.70    6.20
  -8  -1   8   72.09    8.70
   8  -1  -8   59.49    5.50
   8  -1  -8   63.69    8.10
   8   1  -8   54.39    7.10
  -8   1   8   64.69    8.20
   8   1  -8   60.59    6.30
  -7  -1   8   38.90    6.40
   7  -1  -8   26.90    5.30
  -7   1   8   27.10    5.30
   7   1  -8   33.60    4.70
   7   1  -8   33.70    5.60
  -6  -1   8  306.07   16.10
   6  -1  -8  327.67   16.20
  -6   1   8  299.77   16.00
   6   1  -8  299.67   15.40
   5  -1  -8    2.90    2.70
  -5  -1   8   10.50    3.70
   5   1  -8    4.70    2.90
  -5   1   8   10.50    3.80
  -4  -1   8  204.28   12.50
   4  -1  -8  248.78   12.90
  -4   1   8  225.38   12.90
  -3  -1   8  503.25   21.70
  -3   1   8  492.15   21.70
  -2  -1   8    3.20    2.80
  -2   1   8   -0.80    2.00
  -1  -1   8   22.90    4.70
  -1   1   8   17.50    4.00
  -1   1   8   16.40    3.40
   0  -1   8  612.84   25.50
   0   1   8  634.54   25.60
   0   1   8  667.93   25.30
   1  -1   8   32.50    5.30
   1  -1   8   42.80    5.60
   1   1   8   51.09    6.00
   1   1   8   44.30    5.70
   2  -1   8  558.24   24.30
   2  -1   8  558.44   23.40
   2   1   8  613.44   24.70
   2   1   8  593.14   23.50
   3  -1   8  192.88   10.70
   3  -1   8  188.78   11.80
   3   1   8  196.18   11.90
   3   1   8  176.78   10.20
   4  -1   8   49.90    5.80
   4  -1   8   59.29    7.70
   4   1   8   50.29    7.20
   4   1   8   54.59    6.00
   5  -1   8    8.70    2.90
   5  -1   8   10.20    4.00
   5   1   8    7.90    4.10
   5   1   8    5.70    2.60
   6  -1   8   56.99    5.80
   6  -1   8   45.20    7.30
   6   1   8   48.10    5.10
   6   1   8   45.10    7.40
   7  -1   8    3.80    3.60
   7   1   8    1.30    3.40
   8  -1   8   61.69    9.30
   8   1   8   95.89   11.50
   9  -1   8    7.70    4.80
   9   1   8   20.80    6.50
  10  -1   8   26.80    7.20
  10   1   8   21.60    6.40
  11  -1   8   73.89   11.80
  11   1   8   58.89   10.40
  12  -1   8   81.19   12.50
  12   1   8   56.79   10.90
  13  -1   8    8.90    6.40
  13   1   8   -1.00    5.50
  18  -2  -8    9.80    7.40
  18   2  -8   11.00    6.50
  17  -2  -8    9.20    6.50
  17   2  -8   10.80    5.50
  17   2  -8    6.60    6.40
  16  -2  -8    4.60    5.30
  16   2  -8    0.20    5.00
  16   2  -8    0.40    4.50
  15  -2  -8   -2.00    4.90
  15   2  -8    3.70    4.10
  15   2  -8    3.00    4.30
 -14  -2   8  155.38   12.10
  14  -2  -8  144.59   15.50
  14   2  -8  152.68   13.50
  14   2  -8  136.19   14.50
 -14   2   8  149.88   13.50
  13  -2  -8   16.60    6.10
 -13  -2   8   14.20    5.00
 -13   2   8   15.30    5.80
  13   2  -8   22.90    5.80
  13   2  -8   17.50    5.70
  12  -2  -8  522.75   21.30
 -12  -2   8  462.85   24.10
  12  -2  -8  562.74   27.00
  12   2  -8  574.44   26.40
  12   2  -8  529.05   23.70
 -11  -2   8   39.30    6.90
  11  -2  -8   24.70    4.10
  11  -2  -8   14.40    5.10
  11   2  -8   33.40    5.80
 -11   2   8   28.60    5.90
  11   2  -8   39.00    6.90
  10  -2  -8   61.19    8.70
  10  -2  -8   61.49    5.70
 -10  -2   8   49.50    7.70
 -10   2   8   64.19    8.40
  10   2  -8   74.89    9.20
  10   2  -8   69.19    7.60
  -9  -2   8  131.99   10.30
   9  -2  -8  134.39    7.40
   9  -2  -8  151.48   11.20
   9   2  -8  125.19    8.80
  -9   2   8  130.89   10.20
   9   2  -8  137.09   10.30
  -8  -2   8  234.88   13.90
   8  -2  -8  227.18   10.30
   8  -2  -8  230.58   14.10
   8   2  -8  239.68   12.60
  -8   2   8  241.48   14.10
   8   2  -8  226.08   13.20
   7  -2  -8   22.80    5.10
  -7  -2   8    9.30    4.00
   7   2  -8   18.40    4.40
  -7   2   8   21.80    5.10
   7   2  -8   18.00    4.00
  -6  -2   8  383.06   18.40
   6  -2  -8  380.46   18.10
   6   2  -8  347.07   16.10
   6   2  -8  346.77   17.00
  -6   2   8  353.96   17.80
   5  -2  -8   -2.80    1.90
  -5  -2   8    3.40    3.10
  -5   2   8   -0.70    2.50
  -4  -2   8  628.24   26.60
   4  -2  -8  673.03   26.80
  -4   2   8  635.94   26.70
  -3  -2   8  165.58   10.60
  -3   2   8  165.78   10.60
  -2  -2   8 2076.39   69.89
  -2   2   8 2032.50   69.69
  -2   2   8 2019.50   67.19
  -1  -2   8   98.59    9.20
  -1   2   8   97.19    9.00
  -1   2   8  100.29    6.90
   0  -2   8   19.70    4.30
   0   2   8   16.60    3.50
   0   2   8   11.80    3.50
   1  -2   8  523.15   22.60
   1   2   8  556.64   22.70
   1   2   8  566.44   22.80
   2  -2   8  245.58   13.60
   2  -2   8  234.78   12.70
   2   2   8  257.27   13.40
   2   2   8  243.68   12.60
   3  -2   8   71.39    7.40
   3  -2   8   64.29    7.80
   3   2   8   67.59    7.00
   3   2   8   67.29    7.80
   4  -2   8  341.47   17.60
   4  -2   8  321.67   15.30
   4   2   8  327.77   15.10
   4   2   8  365.36   17.80
   5  -2   8    9.90    4.30
   5  -2   8   12.10    3.30
   5   2   8   15.00    3.50
   5   2   8   11.40    4.40
   6  -2   8  305.17   17.30
   6  -2   8  302.07   13.90
   6   2   8  306.27   17.40
   6   2   8  310.47   13.60
   7  -2   8   79.39   10.10
   7   2   8   93.79   11.00
   8  -2   8  695.93   32.00
   8   2   8  722.73   32.60
   9  -2   8    1.40    3.70
   9   2   8   -2.70    3.60
  10  -2   8   16.80    6.30
  10   2   8   20.30    6.70
  11  -2   8   23.10    7.40
  11   2   8   11.20    6.30
  12  -2   8   -1.20    4.70
  12   2   8    1.60    5.40
  13  -2   8   71.19   11.90
  13   2   8   79.19   13.00
  18  -3  -8   58.49   12.70
  18   3  -8   72.79   10.80
  18   3  -8   53.79   11.70
  17  -3  -8   21.10    8.40
  17   3  -8   26.50    7.80
  17   3  -8   10.70    6.10
  16  -3  -8    0.10    4.60
  16   3  -8    1.60    4.10
  16   3  -8    4.10    4.70
  15  -3  -8   86.29   12.80
  15   3  -8   49.60    9.30
  15   3  -8   62.59    9.70
 -14  -3   8   18.10    5.70
  14  -3  -8    7.60    5.10
  14   3  -8   21.70    6.10
 -14   3   8   18.90    5.70
  14   3  -8    7.90    4.90
 -13  -3   8  106.29   11.50
  13  -3  -8  142.39   14.70
  13   3  -8  120.59   11.80
 -13   3   8  117.09   12.00
  13   3  -8  101.79   12.00
 -12  -3   8   65.39    8.90
  12  -3  -8  106.59   12.10
  12   3  -8   86.09   10.00
  12   3  -8  101.99   10.40
 -11  -3   8  125.59   12.30
  11  -3  -8  103.59   11.80
  11  -3  -8  108.19    6.90
  11   3  -8  126.29   11.00
 -11   3   8  132.99   12.30
  11   3  -8  108.89   11.40
  10  -3  -8    3.50    2.00
  10  -3  -8    1.90    3.80
 -10  -3   8    1.10    3.30
 -10   3   8    3.70    3.50
  10   3  -8    1.20    2.70
  10   3  -8    3.70    3.30
  -9  -3   8    5.90    3.80
   9  -3  -8   -0.40    1.50
   9  -3  -8    0.40    3.00
   9   3  -8    1.30    2.30
  -9   3   8    0.00    2.80
   9   3  -8    3.00    2.50
  -8  -3   8   17.90    4.80
   8  -3  -8   23.20    5.40
  -8   3   8   18.70    4.80
   8   3  -8   38.20    6.00
   8   3  -8   37.20    5.80
  -7  -3   8  364.76   18.30
   7  -3  -8  349.96   18.30
  -7   3   8  349.96   18.20
   7   3  -8  387.46   17.40
   7   3  -8  365.86   17.40
   6  -3  -8  189.38   12.50
  -6  -3   8  221.68   13.10
  -6   3   8  211.88   12.90
   6   3  -8  220.18   11.90
   6   3  -8  221.28   12.00
   5  -3  -8   91.19    9.20
  -5  -3   8   78.19    8.90
  -5   3   8   73.29    8.40
   4  -3  -8  836.82   32.50
  -4  -3   8  810.82   32.70
  -4   3   8  829.02   28.60
  -4   3   8  839.42   32.80
  -3  -3   8   -0.30    2.50
  -3   3   8   -0.30    2.30
  -3   3   8   -1.10    1.30
  -2  -3   8   30.60    5.40
  -2   3   8   23.10    3.60
  -2   3   8   19.70    4.50
  -1  -3   8   27.60    4.90
  -1   3   8   16.80    3.40
  -1   3   8   28.30    4.90
   0  -3   8  442.26   19.70
   0   3   8  422.26   19.20
   0   3   8  442.96   18.60
   1  -3   8  427.86   19.30
   1   3   8  441.66   19.30
   1   3   8  420.76   18.80
   2  -3   8  174.98   10.50
   2   3   8  162.18   10.50
   2   3   8  165.68   10.20
   3  -3   8   10.80    3.40
   3  -3   8    7.30    3.50
   3   3   8   12.90    4.00
   3   3   8   16.80    3.90
   4  -3   8  499.35   23.20
   4  -3   8  480.55   21.00
   4   3   8  548.15   23.70
   4   3   8  504.75   20.80
   5  -3   8  123.59   11.50
   5  -3   8  112.69    8.10
   5   3   8  116.89    7.70
   5   3   8   97.59   10.50
   6  -3   8   -1.10    2.20
   6  -3   8    3.90    3.30
   6   3   8   -2.30    2.80
   6   3   8    4.10    2.50
   7  -3   8   23.80    6.50
   7   3   8   16.00    5.60
   8  -3   8    0.10    3.20
   8   3   8    3.10    3.90
   9  -3   8    6.30    5.00
   9   3   8   13.70    6.20
  10  -3   8    5.70    5.00
  10   3   8    1.10    4.60
  11  -3   8   -2.90    4.40
  11   3   8    3.10    5.40
  12  -3   8   30.10    8.20
  12   3   8   47.00   10.20
  13  -3   8   -2.30    4.90
  13   3   8   -4.60    4.80
  18  -4  -8   -0.10    5.70
  18   4  -8    4.20    7.10
  18   4  -8    6.50    6.00
  17  -4  -8    0.40    6.00
  17   4  -8    0.70    4.70
  17   4  -8   -0.90    5.00
  16  -4  -8  199.38   19.80
  16   4  -8  186.08   17.70
  16   4  -8  216.58   15.80
  15  -4  -8   34.40    8.80
  15   4  -8   52.49    9.50
 -15   4   8   39.90    9.60
  15   4  -8   39.20    7.90
  14  -4  -8  168.38   17.50
 -14  -4   8  177.58   13.50
  14   4  -8  215.28   15.10
  14   4  -8  190.38   14.00
 -14   4   8  172.18   13.50
  13  -4  -8   16.90    6.50
 -13  -4   8   12.00    5.20
  13   4  -8   15.00    5.30
 -13   4   8   16.50    5.50
  13   4  -8   25.60    5.90
  12  -4  -8   -2.30    3.00
 -12  -4   8   -1.80    2.30
 -12   4   8   -0.90    3.00
  12   4  -8   -2.10    3.30
  12   4  -8    6.00    4.30
  11  -4  -8   27.30    6.50
 -11  -4   8   43.50    7.30
  11   4  -8   31.30    6.10
 -11   4   8   21.30    5.40
  11   4  -8   45.90    7.20
  10  -4  -8   54.59    8.60
 -10  -4   8   48.40    7.80
 -10   4   8   48.10    7.70
  10   4  -8   47.40    7.10
  10   4  -8   47.60    7.30
   9  -4  -8   22.90    5.70
  -9  -4   8   20.80    5.20
  -9   4   8   22.40    5.20
   9   4  -8   27.80    5.30
   9   4  -8   21.20    4.90
  -8  -4   8   43.20    7.00
   8  -4  -8   30.60    6.10
   8   4  -8   40.10    5.90
   8   4  -8   18.20    4.50
  -8   4   8   36.10    6.40
  -7  -4   8  411.26   20.20
   7  -4  -8  393.66   19.90
  -7   4   8  424.16   20.50
   7   4  -8  408.86   19.00
   6  -4  -8   63.89    7.90
  -6  -4   8   55.69    7.60
   6   4  -8   75.19    7.80
  -6   4   8   57.79    7.90
  -6   4   8   63.69    3.50
  -5  -4   8  193.38   12.60
   5  -4  -8  228.68   13.00
  -5   4   8  215.08    8.50
  -5   4   8  198.98   12.80
  -4  -4   8  388.16   18.80
   4  -4  -8  377.66   18.10
  -4   4   8  385.36   14.30
  -4   4   8  355.56   18.30
  -3  -4   8  182.78   11.60
  -3   4   8  167.18   11.30
  -3   4   8  183.98    8.60
  -2  -4   8  352.16   17.60
  -2   4   8  369.36   17.80
  -2   4   8  366.36   15.00
  -1  -4   8  213.08   12.40
  -1   4   8  211.78   10.60
  -1   4   8  202.88   12.20
   0  -4   8  452.15   19.80
   0   4   8  495.25   20.00
   0   4   8  347.67   17.30
   1  -4   8   51.49    6.50
   1   4   8   62.49    7.20
   1   4   8   75.29    7.40
   2  -4   8  310.97   15.30
   2   4   8  279.97   14.60
   2   4   8  294.47   15.10
   3  -4   8  176.08   10.90
   3   4   8  195.78   12.10
   3   4   8  190.28   11.00
   4  -4   8    0.60    2.40
   4  -4   8    2.10    2.90
   4   4   8    2.50    2.60
   4   4   8   -4.20    2.30
   5  -4   8   64.89    7.20
   5  -4   8   52.59    8.00
   5   4   8   68.99    8.80
   5   4   8   65.99    6.90
   6  -4   8  250.27   13.50
   6  -4   8  281.87   16.60
   6   4   8  282.87   13.20
   6   4   8  283.97   16.80
   7  -4   8    1.90    3.50
   7   4   8    0.90    3.80
   8  -4   8   17.30    5.70
   8   4   8   27.60    6.90
   9  -4   8   10.40    5.40
   9   4   8    9.90    5.50
  10  -4   8  246.78   17.40
  10   4   8  244.68   18.20
  11  -4   8   34.10    8.10
  11   4   8   45.50    9.70
  12  -4   8    8.00    5.50
  12   4   8    8.80    6.40
  13  -4   8  132.49   16.00
  13   4   8   88.39   14.20
  17  -5  -8   42.00   10.40
  17   5  -8   30.20    7.80
  17   5  -8   42.20    9.60
  16  -5  -8    8.80    7.10
  16   5  -8   26.70    7.80
  16   5  -8   24.50    7.90
  15  -5  -8   21.50    7.90
  15   5  -8   19.30    6.00
 -15   5   8   31.20    8.50
  15   5  -8   20.80    6.40
 -14  -5   8  152.98   14.00
  14  -5  -8  117.49   14.80
 -14   5   8  130.99   13.50
  14   5  -8  121.39   13.20
 -13  -5   8   28.40    6.50
  13  -5  -8   22.00    7.20
  13   5  -8   34.50    7.40
 -13   5   8   20.70    6.00
  13   5  -8    2.80    3.30
  12  -5  -8   42.80    8.40
 -12   5   8   52.09    8.40
  12   5  -8   30.00    6.70
  12   5  -8   34.90    6.50
  11  -5  -8   49.00    8.80
 -11  -5   8   47.50    7.70
  11   5  -8   56.29    7.80
 -11   5   8   48.60    7.70
  11   5  -8   44.50    7.30
  10  -5  -8   41.20    7.70
 -10  -5   8   45.40    7.50
  10   5  -8   40.10    6.80
 -10   5   8   45.50    7.80
  10   5  -8   43.50    6.90
  -9  -5   8  195.18   13.20
   9  -5  -8  203.98   13.80
   9   5  -8  184.98   11.70
  -9   5   8  183.08   13.00
   9   5  -8  189.08   12.60
  -8  -5   8   15.70    4.60
   8  -5  -8    3.30    3.40
   8   5  -8    9.00    3.50
   8   5  -8   12.50    3.90
  -8   5   8   14.60    4.50
  -7  -5   8   53.69    7.90
   7  -5  -8   42.40    7.00
   7   5  -8   50.29    6.90
  -7   5   8   52.49    7.70
   7   5  -8   43.70    6.10
   6  -5  -8    1.90    2.70
  -6  -5   8    2.30    2.80
  -6   5   8    1.20    2.80
   6   5  -8    2.00    2.70
  -5  -5   8   29.80    5.80
   5  -5  -8   16.40    4.40
  -5   5   8   26.50    2.40
  -5   5   8   25.00    5.50
   5   5  -8   20.10    4.70
  -4  -5   8  128.39   10.00
   4  -5  -8  161.88   10.60
  -4   5   8  132.19    6.50
  -4   5   8  135.89   10.20
  -3  -5   8  464.15   22.30
  -3   5   8  509.35   18.70
  -3   5   8  528.25   23.10
  -2  -5   8   -0.90    2.40
  -2   5   8    1.70    2.70
  -2   5   8   -2.00    1.60
  -1  -5   8  169.98   11.20
  -1   5   8  193.18    9.80
  -1   5   8  165.68   11.10
   0  -5   8   73.69    8.10
   0   5   8   57.99    7.30
   1  -5   8   50.89    6.80
   1   5   8   54.29    6.30
   1   5   8   43.10    6.50
   2  -5   8   26.50    5.20
   2   5   8   20.60    4.40
   2   5   8   21.20    4.60
   3  -5   8   22.10    4.70
   3   5   8   19.30    4.90
   3   5   8   25.80    5.00
   4  -5   8  588.04   26.00
   4  -5   8  570.74   24.10
   4   5   8  549.95   23.40
   4   5   8  556.94   25.30
   5  -5   8    7.70    3.20
   5  -5   8    9.10    4.10
   5   5   8    1.50    3.80
   5   5   8    7.20    3.20
   6  -5   8   12.60    4.60
   6  -5   8   20.20    4.70
   6   5   8   11.10    3.80
   6   5   8   18.70    5.50
   7  -5   8  341.27   19.30
   7   5   8  311.17   19.20
   8  -5   8   -4.80    3.00
   8   5   8   -3.80    3.30
   9  -5   8   17.50    6.00
   9   5   8   28.00    7.30
  10  -5   8   52.99    9.50
  10   5   8   53.89   10.00
  11  -5   8   24.50    7.60
  11   5   8   14.60    7.10
  12  -5   8   14.80    6.70
  12   5   8   14.70    7.50
  17  -6  -8    8.80    7.70
  17   6  -8    2.70    8.90
  16  -6  -8   40.90   10.10
  16   6  -8   30.70    7.50
  16   6  -8   44.50    9.50
  15  -6  -8    5.40    5.30
 -15   6   8    4.50    4.90
  15   6  -8   -2.50    3.80
  15   6  -8   -3.10    4.50
 -14  -6   8   18.00    5.90
  14  -6  -8   22.20    7.50
  14   6  -8   22.70    6.60
 -14   6   8   16.50    5.70
  14   6  -8   18.50    6.60
  13  -6  -8    0.10    4.30
 -13  -6   8    1.50    4.30
  13   6  -8    2.80    4.40
 -13   6   8   -1.70    2.30
  13   6  -8   -0.70    4.60
 -12  -6   8  605.04   28.80
  12  -6  -8  642.04   31.20
  12   6  -8  603.84   29.10
 -12   6   8  628.74   29.50
  12   6  -8  672.13   28.30
  11  -6  -8   -3.30    3.70
 -11  -6   8    4.70    4.40
  11   6  -8    3.20    3.70
  11   6  -8   -1.70    3.10
 -11   6   8    1.10    3.40
  10  -6  -8   34.10    7.30
 -10  -6   8   29.40    6.50
  10   6  -8   23.00    5.10
 -10   6   8   20.20    5.50
  10   6  -8   20.70    5.50
   9  -6  -8  111.99   12.00
  -9  -6   8  131.09   12.80
   9   6  -8  111.19   11.20
   9   6  -8  121.09   10.60
  -9   6   8  136.59   13.00
  -8  -6   8   90.69   10.30
   8  -6  -8   82.19   10.20
  -8   6   8   80.79   10.10
   8   6  -8  103.59    9.30
   8   6  -8   82.29    9.30
   7  -6  -8   18.60    5.10
  -7  -6   8   23.20    5.70
  -7   6   8   26.30    5.80
   7   6  -8   14.20    4.60
   6  -6  -8    1.00    3.10
  -6  -6   8   -2.50    2.70
  -6   6   8    1.70    3.00
   6   6  -8   -3.80    1.90
   5  -6  -8   13.10    4.20
  -5  -6   8   16.30    4.80
  -5   6   8   16.60    1.70
  -5   6   8   23.00    5.10
   5   6  -8   12.40    4.10
  -4  -6   8  383.36   19.60
   4  -6  -8  373.66   18.60
  -4   6   8  380.76   14.20
  -4   6   8  412.66   19.80
  -3  -6   8  116.49   11.30
  -3   6   8  125.59    6.90
  -3   6   8  133.09   10.20
  -2  -6   8 1301.57   49.20
  -2   6   8 1353.26   45.10
  -2   6   8 1321.57   49.30
  -1  -6   8  102.69   10.20
  -1   6   8  112.69   10.50
  -1   6   8   93.59    6.80
   0  -6   8  151.08   10.60
   0   6   8  141.09   10.30
   0   6   8  137.29    8.90
   1  -6   8  389.26   19.10
   1   6   8  382.96   18.80
   1   6   8  400.76   18.00
   2  -6   8    5.20    3.30
   2   6   8    9.00    3.70
   2   6   8   12.00    3.80
   3  -6   8   93.09    9.40
   3   6   8   86.79    8.60
   3   6   8   98.59    9.90
   4  -6   8  195.28   12.40
   4   6   8  211.68   12.20
   4   6   8  227.08   14.20
   5  -6   8   26.90    5.40
   5  -6   8   32.90    6.50
   5   6   8   36.90    5.80
   5   6   8   35.70    7.20
   6  -6   8  218.78   12.70
   6  -6   8  229.88   15.00
   6   6   8  220.28   12.30
   6   6   8  198.58   14.50
   7  -6   8  130.89   13.10
   7  -6   8  117.49   11.70
   7   6   8  124.09   13.40
   8  -6   8   40.30    7.90
   8   6   8   30.80    7.80
   9  -6   8    4.30    4.70
   9   6   8   -2.30    4.20
  10  -6   8   43.90    8.80
  10   6   8   42.00    9.50
  11  -6   8   43.50    9.50
  11   6   8   39.80    9.50
  12  -6   8   33.50    9.10
  12   6   8   53.19   11.20
  17  -7  -8   49.99   11.50
  17   7  -8   58.49   11.00
  16  -7  -8    9.30    6.80
  16   7  -8    4.90    5.10
  15  -7  -8    4.30    5.80
 -15   7   8    0.10    4.40
  15   7  -8    8.80    5.70
  14  -7  -8   17.30    7.10
 -14  -7   8    9.50    5.40
  14   7  -8   13.60    5.40
 -14   7   8   17.20    6.00
  14   7  -8   16.60    6.10
 -13  -7   8   16.30    5.50
  13  -7  -8   26.20    7.50
  13   7  -8   38.90    7.50
  13   7  -8   36.50    8.00
 -13   7   8   38.70    8.00
 -12  -7   8  143.09   13.60
  12  -7  -8  103.29   13.20
  12   7  -8   98.79   11.70
 -12   7   8  143.19   14.20
  12   7  -8  110.59   11.20
 -11  -7   8    7.90    4.60
  11  -7  -8   14.90    6.10
  11   7  -8    4.30    4.40
 -11   7   8   15.80    5.60
  11   7  -8   10.10    4.30
  10  -7  -8    1.00    3.80
 -10  -7   8    1.20    3.60
  10   7  -8    0.40    3.70
  10   7  -8    2.90    2.90
 -10   7   8   -0.60    3.30
  -9  -7   8   12.50    4.70
   9  -7  -8    3.70    3.90
   9   7  -8    8.20    3.60
  -9   7   8   13.50    5.10
   9   7  -8   11.70    4.60
   8  -7  -8   14.50    5.00
  -8  -7   8    7.40    4.30
  -8   7   8    9.40    4.70
   8   7  -8   15.00    4.90
  -7  -7   8   42.60    7.50
   7  -7  -8   43.30    7.10
   7   7  -8   56.09    7.90
  -7   7   8   45.50    7.90
   6  -7  -8   20.40    5.10
  -6  -7   8   16.80    5.20
   6   7  -8   17.10    5.00
  -6   7   8   16.50    5.00
  -5  -7   8  183.08   12.90
   5  -7  -8  162.38   11.60
  -5   7   8  186.28    6.60
   5   7  -8  209.58   13.00
  -5   7   8  179.48   12.70
  -4  -7   8  615.34   27.50
   4  -7  -8  604.64   26.10
  -4   7   8  598.54   21.10
  -4   7   8  612.14   27.30
  -3  -7   8   51.39    7.80
  -3   7   8   47.20    4.60
  -3   7   8   44.80    7.20
  -2  -7   8   19.30    5.10
  -2   7   8   26.40    5.70
  -2   7   8   22.10    3.70
  -1  -7   8    0.90    2.90
  -1   7   8    3.40    3.30
  -1   7   8    6.00    2.70
   0  -7   8  285.67   15.50
   0   7   8  264.97   13.30
   0   7   8  234.08   14.50
   1  -7   8  311.47   17.00
   1   7   8  344.57   17.40
   2  -7   8    5.10    3.50
   2   7   8    0.20    3.00
   2   7   8    2.80    2.90
   3  -7   8   53.09    7.40
   3   7   8   53.59    7.20
   3   7   8   47.10    7.10
   4  -7   8  184.68   12.20
   4   7   8  195.88   13.20
   4   7   8  199.08   12.30
   5  -7   8    5.10    3.30
   5  -7   8    9.40    4.30
   5   7   8    1.00    3.70
   5   7   8    8.30    3.50
   6  -7   8   10.30    4.80
   6  -7   8    9.00    4.20
   6   7   8   13.20    5.40
   6   7   8    5.30    3.50
   7  -7   8    0.90    3.80
   7  -7   8   -1.70    3.10
   7   7   8   -3.10    4.00
   8  -7   8   34.10    7.90
   8   7   8   28.80    8.30
   9  -7   8  252.87   17.30
   9   7   8  240.98   20.70
  10  -7   8   -2.30    3.80
  10   7   8   -3.00    4.80
  11  -7   8  122.39   14.40
  11   7   8  101.39   14.90
  12  -7   8   21.80    7.30
  12   7   8   32.30    9.30
  16  -8  -8   86.99   14.20
  16   8  -8   75.39   12.10
  15  -8  -8    8.60    6.10
 -15   8   8   14.10    6.30
  15   8  -8    8.10    5.70
  14  -8  -8    1.40    6.20
 -14  -8   8    2.80    5.30
 -14   8   8    3.10    3.30
  14   8  -8   -5.40    3.30
 -13  -8   8    1.70    3.50
  13  -8  -8   11.60    6.40
 -13   8   8   11.80    5.40
  13   8  -8   11.10    5.30
 -12  -8   8   14.30    5.80
  12  -8  -8   15.40    6.50
 -12   8   8   11.30    5.20
  12   8  -8   10.60    5.50
 -11  -8   8   47.90    8.80
  11  -8  -8   40.00    8.60
 -11   8   8   45.60    8.30
  11   8  -8   41.20    6.50
  11   8  -8   42.90    8.00
 -10  -8   8   20.50    6.10
  10  -8  -8   32.00    7.50
  10   8  -8   22.20    6.40
 -10   8   8   22.60    6.50
  10   8  -8   35.90    6.00
  -9  -8   8   -3.30    3.00
   9  -8  -8   -1.50    3.40
   9   8  -8    4.40    3.80
  -9   8   8   -2.30    3.10
  -8  -8   8  170.18   13.00
   8  -8  -8  161.58   14.80
  -8   8   8  144.59   14.10
   8   8  -8  148.69   13.60
  -7  -8   8   87.79   10.60
   7  -8  -8   82.59   10.10
   7   8  -8   82.69    9.90
  -7   8   8   75.29    9.90
   6  -8  -8   25.20    5.60
  -6  -8   8   21.30    5.60
  -6   8   8   22.90    5.90
   6   8  -8   18.00    5.10
   5  -8  -8    3.30    3.30
  -5  -8   8   13.00    4.90
  -5   8   8    2.20    3.70
   5   8  -8    3.20    3.40
   4  -8  -8   69.29    8.30
  -4  -8   8   72.19    9.10
  -4   8   8   73.79    4.50
  -4   8   8   66.39    9.00
  -3  -8   8  204.78   13.90
  -3   8   8  214.58   10.00
  -3   8   8  218.58   14.20
  -2  -8   8  317.37   17.40
  -2   8   8  279.97   13.20
  -2   8   8  306.47   17.10
  -1  -8   8  243.88   15.10
  -1   8   8  255.97   15.30
  -1   8   8  248.08   12.70
   0  -8   8  235.08   14.80
   0   8   8  256.37   13.20
   0   8   8  228.28   14.40
   1  -8   8   13.00    4.60
   1   8   8   20.10    5.40
   2  -8   8    3.90    3.60
   2   8   8    2.70    3.20
   2   8   8    1.30    3.40
   3  -8   8  324.67   18.00
   3   8   8  362.76   18.40
   3   8   8  333.67   17.90
   4  -8   8  142.29   12.60
   4   8   8  139.09   12.70
   4   8   8  119.29   11.10
   5  -8   8   27.50    5.60
   5   8   8   19.30    5.60
   5   8   8   23.70    5.50
   6  -8   8   46.50    8.10
   6  -8   8   34.30    6.70
   6   8   8   39.70    6.50
   6   8   8   13.00    5.70
   7  -8   8    4.80    4.10
   7  -8   8    9.50    5.10
   7   8   8    8.60    5.50
   8  -8   8  328.47   19.70
   8   8   8  307.27   20.30
   9  -8   8    6.20    4.70
   9   8   8   -0.50    4.90
  10  -8   8  105.29   13.20
  10   8   8   94.39   14.00
  11  -8   8   47.70    9.70
  11   8   8   32.30    9.30
  16  -9  -8   12.00    7.50
  16   9  -8    4.80    6.20
  15  -9  -8   28.20    9.30
 -15   9   8   22.60    7.40
  15   9  -8   28.70    8.50
 -14  -9   8    4.20    5.60
  14  -9  -8    8.60    6.20
 -14   9   8    2.80    5.10
  14   9  -8    1.40    5.20
 -13  -9   8  292.97   19.00
  13  -9  -8  274.37   20.20
  13   9  -8  288.47   19.60
 -13   9   8  307.87   19.70
 -12  -9   8   25.00    7.30
  12  -9  -8   24.90    7.60
  12   9  -8   21.20    6.90
 -12   9   8    5.00    5.00
  11  -9  -8   48.80    9.20
 -11  -9   8   61.09   10.10
 -11   9   8   43.20    8.30
  11   9  -8   54.89    9.50
  10  -9  -8   22.20    6.80
 -10  -9   8   36.00    7.50
 -10   9   8   14.50    5.90
  10   9  -8   36.40    7.60
  -9  -9   8   38.00    7.60
   9  -9  -8   36.90    7.80
  -9   9   8   34.10    7.30
   9   9  -8   26.40    6.40
   8  -9  -8  101.49   11.90
  -8  -9   8  143.09   14.00
   8   9  -8   71.99   10.20
  -8   9   8  116.59   12.90
  -7  -9   8    7.30    4.90
   7  -9  -8    3.40    3.40
  -7   9   8    5.80    4.10
   7   9  -8   11.00    4.70
  -6  -9   8  374.46   20.50
   6  -9  -8  338.67   18.90
  -6   9   8  345.17   20.10
   6   9  -8  374.66   19.90
  -5  -9   8  556.04   27.30
   5  -9  -8  612.44   26.50
  -5   9   8  571.54   27.50
   5   9  -8  587.14   27.00
  -4  -9   8    3.80    4.00
   4  -9  -8    7.30    3.60
  -4   9   8    6.50    4.10
  -4   9   8    3.00    1.50
  -3  -9   8  265.17   16.20
  -3   9   8  244.08   11.30
  -3   9   8  238.48   15.60
  -2  -9   8   27.10    6.30
  -2   9   8   28.20    4.40
  -2   9   8   38.20    7.00
  -1  -9   8  515.95   24.70
  -1   9   8  498.65   24.20
  -1   9   8  490.05   20.90
   0  -9   8  149.19   13.70
   0   9   8  130.59   10.90
   0   9   8  120.49   11.90
   1  -9   8    7.50    4.00
   1   9   8    8.80    4.20
   1   9   8   13.40    4.30
   2  -9   8    0.80    3.60
   2   9   8   -0.20    3.20
   2   9   8   -3.40    3.30
   3  -9   8  165.98   12.30
   3   9   8  158.38   13.50
   3   9   8  146.49   11.40
   4  -9   8    0.20    3.10
   4   9   8    2.50    3.70
   4   9   8    2.70    3.90
   5  -9   8   27.60    6.40
   5   9   8   23.20    6.40
   5   9   8   38.90    6.90
   6  -9   8   22.70    6.20
   6  -9   8   29.40    6.60
   6   9   8   30.90    6.40
   6   9   8   26.10    6.90
   7  -9   8   44.30    8.60
   7  -9   8   48.10    7.90
   7   9   8   47.60    8.90
   8  -9   8    1.80    4.30
   8   9   8   -0.50    4.80
   9  -9   8   82.09   11.80
   9   9   8   75.49   12.10
  10  -9   8    8.20    5.50
  10   9   8   -5.90    5.00
  11  -9   8   36.20    8.60
  11   9   8   32.40    9.40
  15 -10  -8   31.80    9.20
 -15  10   8   14.20    6.20
  15  10  -8   47.00   10.20
 -14 -10   8    2.30    4.30
  14 -10  -8    0.40    4.60
  14  10  -8   -2.30    4.40
 -14  10   8   -3.00    4.20
 -13 -10   8    1.10    5.30
  13 -10  -8   -0.90    4.80
  13  10  -8   -1.10    4.50
 -13  10   8   -1.30    3.90
  12 -10  -8   25.20    7.80
 -12 -10   8   29.70    7.70
  12  10  -8   36.50    8.40
 -12  10   8   29.30    7.50
 -11 -10   8    0.50    4.20
  11 -10  -8    1.90    4.90
  11  10  -8   -2.80    3.50
 -11  10   8    7.00    4.60
 -10 -10   8   98.89   12.50
  10 -10  -8  120.59   13.50
 -10  10   8   82.39   11.60
  10  10  -8   91.59   12.00
  -9 -10   8   14.70    5.50
   9 -10  -8   21.20    6.40
  -9  10   8   15.60    5.60
   9  10  -8    4.60    4.80
   8 -10  -8  181.38   16.00
  -8 -10   8  126.39   13.80
  -8  10   8  157.58   15.30
   8  10  -8  192.28   16.30
  -7 -10   8   28.60    6.90
   7 -10  -8   19.00    5.90
   7  10  -8   15.50    5.50
  -7  10   8   14.60    5.40
  -6 -10   8   21.50    6.20
   6 -10  -8   19.50    5.60
  -6  10   8   16.10    5.60
   6  10  -8   21.30    6.30
  -5 -10   8   22.40    6.40
   5 -10  -8   33.70    6.60
  -5  10   8   27.70    6.90
   5  10  -8   28.80    6.50
  -4 -10   8  148.69   14.30
   4 -10  -8  148.09   11.00
  -4  10   8  141.59   14.20
  -3 -10   8   33.10    7.30
  -3  10   8   35.90    7.10
  -3  10   8   53.19    5.30
  -2 -10   8  202.88   14.60
  -2  10   8  206.88   11.10
  -2  10   8  207.78   14.60
  -1 -10   8    5.60    4.10
  -1  10   8    9.70    4.70
  -1  10   8    4.80    3.10
   0 -10   8   10.20    4.60
   0  10   8    6.60    4.60
   0  10   8    7.60    3.60
   1 -10   8   73.99    9.90
   1  10   8   82.09   10.20
   1  10   8  105.59   10.50
   2 -10   8  133.49   13.90
   2  10   8  132.29   12.10
   2  10   8  139.19   13.20
   3 -10   8   15.90    5.00
   3  10   8   22.50    6.00
   3  10   8   23.00    6.20
   4 -10   8   73.19    9.80
   4  10   8   67.69    9.20
   4  10   8   64.09    9.10
   5 -10   8   63.89    8.90
   5  10   8   58.99    9.40
   5  10   8   76.99    9.90
   6 -10   8   38.80    7.30
   6  10   8   41.20    8.40
   6  10   8   48.50    7.70
   7 -10   8    2.80    4.00
   7 -10   8    1.10    3.90
   7  10   8    0.80    4.50
   8 -10   8    7.20    5.30
   8  10   8    5.90    5.30
   9 -10   8    1.90    5.40
   9  10   8    3.70    5.40
  10 -10   8    5.50    5.20
  10  10   8   -5.60    5.30
  15 -11  -8    3.90    6.60
  15  11  -8    4.20    5.90
 -15  11   8   -1.70    5.00
  14 -11  -8   -4.20    4.90
 -14 -11   8    0.40    4.60
  14  11  -8    3.30    6.00
 -14  11   8    1.80    5.30
  13 -11  -8   40.60    9.70
 -13 -11   8   55.39   10.10
 -13  11   8   48.00   10.10
  13  11  -8   38.20    9.40
 -12 -11   8   11.30    6.00
  12 -11  -8   24.00    7.40
  12  11  -8    0.30    5.10
 -12  11   8   16.80    6.40
 -11 -11   8   -2.10    4.80
  11 -11  -8   -2.70    4.50
 -11  11   8    0.10    4.80
  11  11  -8   -6.20    3.00
  10 -11  -8    3.10    4.50
 -10 -11   8   10.20    6.00
 -10  11   8    3.10    5.10
  10  11  -8    8.20    5.10
   9 -11  -8    7.50    5.00
  -9 -11   8   11.60    5.80
  -9  11   8   21.50    6.90
   9  11  -8   11.60    5.70
  -8 -11   8    9.70    5.50
   8 -11  -8    9.00    5.10
   8  11  -8    8.10    5.20
  -8  11   8    3.70    4.60
   7 -11  -8    6.80    4.90
  -7 -11   8   12.20    5.60
   7  11  -8   12.10    5.50
  -7  11   8    5.40    4.50
  -6 -11   8  267.77   18.10
   6 -11  -8  255.57   16.20
  -6  11   8  284.17   18.40
   6  11  -8  225.48   16.60
  -5 -11   8  188.88   14.80
   5 -11  -8  199.68   13.50
  -5  11   8  207.78   15.30
   5  11  -8  175.48   15.90
  -4 -11   8   -4.80    2.90
   4 -11  -8    0.00    3.70
  -4  11   8    0.00    3.70
  -3 -11   8    4.80    4.30
  -3  11   8   -1.60    3.80
  -2 -11   8    3.20    4.20
  -2  11   8    2.40    4.00
  -2  11   8    2.20    2.60
  -1 -11   8  340.67   20.30
  -1  11   8  356.46   20.30
  -1  11   8  337.57   16.70
   0 -11   8    0.00    3.50
   0  11   8    3.90    3.40
   0  11   8    6.90    4.90
   1 -11   8   43.30    8.40
   1  11   8   47.00    7.20
   1  11   8   46.10    8.40
   2 -11   8    2.10    4.10
   2  11   8   -1.40    2.60
   2  11   8   11.70    5.30
   3 -11   8    2.60    3.80
   3  11   8    9.40    4.60
   3  11   8    3.60    4.00
   4 -11   8    8.30    5.10
   4  11   8   19.50    6.10
   4  11   8   20.70    6.50
   5 -11   8   17.70    5.80
   5  11   8   22.60    6.80
   5  11   8   21.20    6.10
   6 -11   8  200.88   14.80
   6  11   8  216.28   14.90
   6  11   8  224.18   19.30
   7 -11   8   54.59    8.90
   7 -11   8   50.19    9.30
   7  11   8   40.10    8.80
   8 -11   8   11.50    6.50
   8  11   8    4.50    5.70
   9 -11   8  232.78   19.60
   9  11   8  171.68   18.60
  10 -11   8    2.40    5.10
  10  11   8    9.30    7.40
 -14 -12   8    1.40    5.30
  14 -12  -8   -3.60    5.10
  14  12  -8    7.80    6.40
 -14  12   8    1.20    5.60
  13 -12  -8    4.70    5.90
 -13 -12   8    8.10    6.00
 -13  12   8   -0.90    5.20
  13  12  -8   -1.10    4.90
  12 -12  -8   19.50    7.90
 -12 -12   8   15.30    7.00
 -12  12   8   16.00    6.70
  12  12  -8   23.30    7.80
 -11 -12   8   31.40    8.20
  11 -12  -8   56.29   10.90
  11  12  -8   35.70    8.80
 -11  12   8   42.60    9.30
 -10 -12   8    0.90    4.70
  10 -12  -8    4.80    5.30
  10  12  -8   17.10    7.00
 -10  12   8   11.70    6.10
   9 -12  -8   11.90    5.40
  -9 -12   8    8.90    5.70
   9  12  -8   13.50    6.20
  -9  12   8    5.30    5.50
   8 -12  -8   -3.50    3.30
  -8 -12   8   -4.70    3.30
   8  12  -8   -0.60    3.80
  -8  12   8   -0.80    4.10
  -7 -12   8  155.28   15.90
   7 -12  -8  131.99   13.60
  -7  12   8  144.29   15.30
   7  12  -8  138.29   14.80
  -6 -12   8  105.59   13.30
   6 -12  -8  120.99   12.50
   6  12  -8  111.79   13.30
  -6  12   8  120.89   13.80
   5 -12  -8    2.00    3.90
  -5 -12   8   -2.10    4.30
  -5  12   8    2.30    4.30
   5  12  -8    1.90    4.10
  -4 -12   8  143.89   15.30
   4 -12  -8  145.79   13.00
  -4  12   8  167.78   16.10
  -3 -12   8  111.49   13.50
  -3  12   8  133.19   14.50
  -2 -12   8   -1.40    3.90
  -2  12   8   -1.70    3.80
  -1 -12   8  256.97   17.50
  -1  12   8  217.38   13.40
  -1  12   8  256.47   17.30
   0 -12   8   24.60    6.30
   0  12   8   15.50    4.50
   0  12   8   19.70    6.40
   1 -12   8   73.89   11.00
   1  12   8   71.09    9.30
   1  12   8   80.79   11.20
   2 -12   8   50.99    9.30
   2  12   8   49.60    9.10
   3 -12   8   90.99   12.10
   3  12   8   70.09   10.00
   3  12   8   73.49   10.50
   4 -12   8    0.90    4.00
   4  12   8    1.60    4.90
   4  12   8    1.10    4.30
   5 -12   8   17.90    6.60
   5  12   8   10.40    5.60
   5  12   8    2.80    5.00
   6 -12   8    3.00    3.90
   6  12   8   -1.10    4.20
   6  12   8    4.00    4.60
   7 -12   8   23.30    7.40
   7 -12   8   16.60    5.80
   7  12   8   26.60    7.80
   8 -12   8    5.30    5.00
   8  12   8   11.20    6.40
   9 -12   8    5.10    6.50
   9  12   8   12.60    6.90
 -13 -13   8   37.60    9.70
  13 -13  -8   27.70    9.40
 -13  13   8   23.00    7.70
  13  13  -8   31.70    9.40
  12 -13  -8    6.20    6.50
 -12 -13   8   -4.10    4.60
  12  13  -8    0.10    4.80
 -12  13   8    4.00    5.70
  11 -13  -8   65.39   11.90
 -11 -13   8   44.50    9.80
 -11  13   8   51.89   10.60
  11  13  -8   59.29   11.10
 -10 -13   8   58.79   11.50
  10 -13  -8   45.50    9.50
  10  13  -8   36.80    9.10
 -10  13   8   57.79   10.80
  -9 -13   8   12.10    6.10
   9 -13  -8   22.70    7.20
  -9  13   8   14.70    6.70
   9  13  -8   25.20    7.40
   8 -13  -8   36.90    8.50
  -8 -13   8   21.40    7.30
  -8  13   8   34.30    8.50
   8  13  -8   32.50    7.90
  -7 -13   8   28.90    8.10
   7 -13  -8   27.70    7.10
  -7  13   8   41.50    9.20
   7  13  -8   57.89   10.20
   6 -13  -8   15.60    6.00
  -6 -13   8   26.60    7.60
   6  13  -8   14.90    6.70
  -6  13   8   15.80    6.50
   5 -13  -8   17.90    5.50
  -5 -13   8    9.70    5.70
  -5  13   8    8.40    5.40
   5  13  -8    7.10    5.00
  -4 -13   8    4.20    4.90
   4 -13  -8    8.60    4.40
  -4  13   8   -0.10    4.50
  -3 -13   8  167.78   17.10
  -3  13   8  138.69   15.60
  -2 -13   8   11.10    5.70
  -2  13   8    4.50    4.90
  -1 -13   8   63.09   10.50
  -1  13   8   81.79   11.70
   0 -13   8   20.00    6.60
   0  13   8   23.50    5.70
   0  13   8   28.90    7.70
   1 -13   8   -0.60    4.10
   1  13   8    1.80    3.90
   1  13   8    5.20    3.90
   2 -13   8  104.99   13.10
   2  13   8   81.09   10.10
   2  13   8   98.79   12.60
   3 -13   8   12.90    5.60
   3  13   8   24.50    7.60
   3  13   8   15.60    6.20
   4 -13   8  102.89   13.50
   4  13   8   97.39   12.50
   4  13   8  117.19   13.70
   5 -13   8   38.10    8.70
   5  13   8   34.80    8.00
   5  13   8   31.90    8.00
   6 -13   8    0.30    4.60
   6  13   8   -4.30    4.00
   6  13   8    4.40    5.70
   7 -13   8   19.60    6.70
   7 -13   8   24.00    7.10
   7  13   8   18.30    7.50
   8 -13   8   -1.50    7.20
   8  13   8    3.90    5.60
 -12 -14   8    1.50    6.40
  12 -14  -8    3.50    5.60
 -12  14   8   -0.10    5.00
  12  14  -8    9.00    6.30
 -11 -14   8   37.90    9.30
  11 -14  -8   18.20    8.20
 -11  14   8   24.90    8.20
  11  14  -8   30.70    8.90
 -10 -14   8   43.40    9.40
  10 -14  -8   38.60    9.20
  10  14  -8   44.40    9.80
 -10  14   8   44.90    9.60
   9 -14  -8   47.40    9.70
  -9 -14   8   11.50    6.20
   9  14  -8   26.50    8.30
  -9  14   8   25.70    8.60
   8 -14  -8   15.80    7.00
  -8 -14   8   24.00    8.00
  -8  14   8    8.40    5.90
   8  14  -8   11.40    6.40
   7 -14  -8    6.40    5.50
  -7 -14   8    2.20    5.10
  -7  14   8    1.40    4.80
   7  14  -8    1.50    5.10
   6 -14  -8    9.40    5.30
  -6 -14   8    2.60    5.10
  -6  14   8   13.00    6.30
   6  14  -8    4.20    5.00
   5 -14  -8   18.90    6.00
  -5 -14   8   24.10    7.30
   5  14  -8   21.10    7.10
  -5  14   8   17.60    6.80
  -4 -14   8    1.00    4.40
   4 -14  -8    1.50    3.80
  -4  14   8   -1.20    3.70
  -3 -14   8   34.00    8.50
  -3  14   8   18.50    7.00
  -2 -14   8    6.90    5.40
  -2  14   8   20.70    7.00
  -1 -14   8    0.50    4.20
  -1  14   8   -0.70    3.90
   0 -14   8    5.00    4.90
   0  14   8    4.50    4.70
   1 -14   8  140.69   15.80
   1  14   8  134.89   13.10
   1  14   8  134.69   15.30
   2 -14   8   55.09   10.20
   2  14   8   64.19    9.70
   2  14   8   56.19   10.40
   3 -14   8  136.79   16.10
   3  14   8  153.38   14.90
   3  14   8  122.39   14.60
   4 -14   8  101.19   13.60
   4  14   8   97.09   13.30
   4  14   8   98.59   12.40
   5 -14   8   57.39    9.80
   5  14   8   87.99   11.90
   5  14   8   70.69   11.20
   6 -14   8   -2.40    4.10
   6  14   8    4.60    5.30
   6  14   8   -6.80    4.90
   7 -14   8    7.00    6.00
   7  14   8   -5.80    5.00
 -11 -15   8    6.70    6.40
  11 -15  -8    4.40    6.70
  11  15  -8   -5.00    5.10
 -11  15   8   -3.60    6.10
 -10 -15   8    3.10    5.80
  10 -15  -8    1.60    6.00
  10  15  -8   -2.30    6.10
 -10  15   8    8.70    7.10
   9 -15  -8   -0.40    5.70
  -9 -15   8    7.70    7.10
  -9  15   8    2.80    5.50
   9  15  -8    2.30    5.20
  -8 -15   8   13.60    7.00
   8 -15  -8    4.10    5.50
  -8  15   8    1.10    4.90
   8  15  -8    5.80    6.20
  -7 -15   8   57.19   11.20
   7 -15  -8   70.79   11.10
   7  15  -8   60.39   11.30
  -7  15   8   58.59   11.00
  -6 -15   8    8.90    6.50
   6 -15  -8    6.00    5.30
  -6  15   8   20.50    7.40
   6  15  -8   12.50    6.70
  -5 -15   8   11.40    6.40
  -5  15   8   14.50    7.00
  -4 -15   8    7.80    6.00
  -4  15   8    9.00    5.70
  -3 -15   8    0.00    4.50
  -3  15   8    4.50    5.30
  -2 -15   8   43.00    9.80
  -2  15   8   59.49   10.90
  -1 -15   8   11.10    6.00
  -1  15   8   12.00    6.80
   0 -15   8    8.70    6.10
   0  15   8    3.20    5.90
   1 -15   8   44.70    9.80
   1  15   8   49.20   10.00
   2 -15   8    3.00    5.30
   2  15   8    8.50    6.90
   2  15   8    5.50    4.70
   3 -15   8   29.80    8.80
   3  15   8    9.00    4.80
   3  15   8   48.00   10.30
   4 -15   8   -1.50    4.80
   4  15   8    0.80    4.00
   4  15   8    8.20    5.70
   5 -15   8   59.39   11.20
   5  15   8   48.10    9.90
   5  15   8   86.89   12.50
   6 -15   8   -1.50    4.70
   6  15   8    4.20    6.20
   6  15   8    6.80    5.60
 -10  16   8   19.50    7.80
   9 -16  -8   36.50    9.50
  -9 -16   8   36.00   10.00
   9  16  -8   50.09   10.90
  -9  16   8   51.19   11.30
  -8 -16   8    5.80    6.80
   8  16  -8   24.00    8.40
  -8  16   8   16.10    7.60
  -7 -16   8   21.40    8.20
   7  16  -8   20.70    7.90
  -7  16   8   33.80    9.30
  -6 -16   8   14.30    7.20
  -6  16   8   12.00    7.50
   6  16  -8   18.60    7.70
  -5 -16   8   -2.00    4.60
  -5  16   8    4.00    5.30
  -4 -16   8    1.70    5.00
  -4  16   8   -4.10    4.40
  -3 -16   8    5.30    5.90
  -3  16   8   -3.20    4.10
  -2 -16   8   39.40    9.10
  -2  16   8   20.00    7.80
  -1 -16   8   21.60    7.80
  -1  16   8   12.10    7.00
   0 -16   8    5.50    5.60
   0  16   8   -2.30    4.60
   1 -16   8   86.19   13.90
   1  16   8   89.99   13.50
   2 -16   8   -3.00    4.30
   2  16   8    2.50    5.90
   3 -16   8   59.49   11.60
   3  16   8   51.69   10.80
   4 -16   8   15.80    6.90
   4  16   8   18.60    8.30
   4  16   8   20.00    7.30
   5 -16   8    2.80    5.50
   5  16   8   -0.30    6.30
  -8  17   8    8.00    7.10
  -7 -17   8   26.30    9.10
  -7  17   8   63.19   13.70
   7  17  -8   70.39   12.40
  -6 -17   8    9.80    8.40
  -6  17   8    0.10    5.90
  -5 -17   8   19.70    8.40
  -5  17   8   11.20    7.00
  -4 -17   8    7.90    6.50
  -4  17   8   -4.70    4.70
  -3 -17   8   27.30    9.80
  -3  17   8   26.30    8.50
  -2 -17   8    2.20    5.10
  -2  17   8   -7.30    4.50
  -1 -17   8   11.10    6.90
  -1  17   8   20.80    7.90
   0 -17   8    0.30    4.90
   0  17   8   -4.10    4.60
   1 -17   8    7.60    6.90
   1  17   8   12.80    6.90
   2 -17   8    9.20    7.20
   2  17   8    3.50    5.30
   3 -17   8   25.10    8.60
   3  17   8   24.60    9.00
  -4  18   8    1.60    5.50
  -3 -18   8    0.60    6.20
  -3  18   8    3.20    6.10
  -2 -18   8    7.70    7.00
  -2  18   8   13.30    8.00
  -1 -18   8   -6.10    4.90
  -1  18   8    2.90    6.40
  18   0  -9    5.80    6.20
  17   0  -9    1.90    5.80
  16   0  -9   -4.50    4.10
 -15   0   9    1.10    3.90
  15   0  -9    2.50    4.90
 -14   0   9    3.50    4.20
  14   0  -9   -0.90    3.40
  14   0  -9    1.50    4.40
  13   0  -9  204.48   12.50
  13   0  -9  225.18   16.20
  12   0  -9    5.30    4.20
  12   0  -9    3.10    2.90
 -12   0   9    0.00    3.30
  11   0  -9   54.59    8.90
 -11   0   9   49.20    7.90
  11   0  -9   44.00    5.90
  10   0  -9   -2.90    2.10
  10   0  -9   -1.20    2.90
 -10   0   9    5.70    3.50
   9   0  -9  192.88   10.40
   9   0  -9  201.98   13.30
  -9   0   9  159.58   12.10
   8   0  -9   -0.70    2.60
  -8   0   9   -3.80    2.40
   8   0  -9    0.70    2.00
   7   0  -9   81.19    9.20
  -7   0   9   91.19   10.00
  -6   0   9    3.70    3.30
   6   0  -9   -1.40    2.00
  -5   0   9  157.58   11.10
  -4   0   9   -0.10    2.40
  -3   0   9 1365.56   49.80
  -2   0   9   -2.30    2.20
  -1   0   9  578.84   24.60
   0   0   9   -1.90    1.90
   0   0   9    1.40    2.40
   1   0   9   32.90    5.30
   1   0   9   26.60    5.00
   2   0   9    1.50    2.40
   2   0   9   -0.50    2.30
   3   0   9  295.67   14.90
   3   0   9  324.87   16.80
   4   0   9   -0.90    2.10
   4   0   9   -1.90    2.60
   5   0   9   21.80    4.20
   5   0   9   32.30    6.20
   6   0   9   -1.80    2.20
   6   0   9    1.50    3.20
   7   0   9  208.18   14.80
   8   0   9   -3.50    2.90
   9   0   9  227.18   16.50
  10   0   9   -1.80    4.10
  11   0   9   40.70    9.10
  12   0   9    0.10    5.00
  18  -1  -9   10.50    7.70
  18   1  -9    2.70    6.30
  17  -1  -9   59.79   12.00
  17   1  -9   64.69   11.50
  16  -1  -9   -2.80    4.60
  16   1  -9    4.80    5.60
 -15  -1   9   82.19   10.70
  15  -1  -9   80.29   11.70
 -15   1   9   85.09   10.80
  15   1  -9   68.49   11.00
  15   1  -9   85.09   10.00
 -14  -1   9   98.29   11.30
  14  -1  -9   95.49   12.80
  14   1  -9   95.99   10.20
 -14   1   9   80.89   10.40
  14   1  -9   99.99   12.60
  13  -1  -9   -2.30    2.70
 -13  -1   9   -1.00    2.70
  13  -1  -9   -1.50    4.00
 -13   1   9   -2.50    2.20
  13   1  -9   -0.10    3.50
  13   1  -9    0.70    3.50
  12  -1  -9  143.69    9.30
 -12  -1   9  133.79   13.20
  12  -1  -9  126.69   13.60
  12   1  -9  150.98   10.50
 -12   1   9  123.69   12.60
  12   1  -9  141.99   14.30
  11  -1  -9  290.37   17.80
  11  -1  -9  298.07   14.00
 -11  -1   9  285.57   17.10
 -11   1   9  283.67   16.90
  11   1  -9  299.17   15.20
  11   1  -9  280.27   17.10
 -10  -1   9   78.29    9.30
  10  -1  -9   63.99    8.60
  10  -1  -9   48.50    5.50
  10   1  -9   45.30    6.30
 -10   1   9   64.29    8.60
  10   1  -9   45.90    7.70
  -9  -1   9  560.54   25.70
   9  -1  -9  542.25   21.40
   9  -1  -9  537.55   25.30
   9   1  -9  588.64   25.60
  -9   1   9  546.05   25.40
   9   1  -9  538.05   22.60
   8  -1  -9  463.75   22.30
  -8  -1   9  456.15   22.20
   8   1  -9  450.05   21.50
   8   1  -9  451.95   19.50
  -8   1   9  479.05   22.50
   7  -1  -9  754.72   31.20
  -7  -1   9  729.73   31.40
   7   1  -9  767.42   31.10
  -7   1   9  766.42   31.80
  -6  -1   9  838.92   34.00
   6  -1  -9  844.12   33.60
   6   1  -9  824.52   32.80
  -6   1   9  821.52   33.70
  -5  -1   9  491.05   22.50
   5  -1  -9  463.25   21.50
  -5   1   9  492.15   22.40
  -4  -1   9   32.10    5.90
  -4   1   9   30.30    5.70
  -3  -1   9  131.79   10.00
  -3   1   9  152.98   10.40
  -2  -1   9  321.57   16.80
  -2   1   9  354.96   17.20
  -1  -1   9  469.85   22.00
  -1   1   9  530.05   21.30
  -1   1   9  516.75   22.40
   0  -1   9   21.80    4.90
   0   1   9   26.40    4.70
   0   1   9   31.80    5.50
   1  -1   9   12.80    3.80
   1  -1   9   27.70    5.30
   1   1   9   21.70    4.40
   1   1   9   20.20    4.30
   2  -1   9  279.97   14.50
   2  -1   9  273.57   15.10
   2   1   9  270.87   14.20
   2   1   9  301.47   15.50
   3  -1   9 1128.19   41.00
   3  -1   9 1111.89   42.70
   3   1   9 1119.29   42.60
   3   1   9 1126.49   40.80
   4  -1   9   26.10    5.40
   4  -1   9   16.20    4.00
   4   1   9   11.60    3.60
   4   1   9   15.70    4.70
   5  -1   9  113.39    8.00
   5  -1   9  118.69   11.60
   5   1   9  122.59    8.10
   5   1   9  112.19   11.50
   6  -1   9   -2.00    2.20
   6  -1   9    0.50    3.30
   6   1   9   -2.80    2.70
   6   1   9    1.00    2.30
   7  -1   9    1.00    3.40
   7   1   9    6.10    4.20
   8  -1   9   76.39   10.90
   8   1   9   85.39   11.30
   9  -1   9    1.60    4.40
   9   1   9   -5.70    3.30
  10  -1   9   11.70    5.70
  10   1   9   11.60    6.00
  11  -1   9   -1.00    3.90
  11   1   9    6.20    5.70
  12  -1   9   -5.00    4.30
  12   1   9    1.60    5.50
  18  -2  -9   10.70    7.40
  18   2  -9   23.00    7.70
  17  -2  -9   19.90    7.60
  17   2  -9   34.90    9.40
  16  -2  -9   34.00    9.30
  16   2  -9   28.10    7.80
  16   2  -9   26.70    7.00
 -15  -2   9   36.30    7.70
  15  -2  -9   37.50    8.70
 -15   2   9   59.39    9.20
  15   2  -9   21.80    5.90
  15   2  -9   28.40    7.80
  14  -2  -9   37.10    8.20
 -14  -2   9   38.20    7.30
 -14   2   9   26.10    6.60
  14   2  -9   40.70    8.40
  14   2  -9   27.80    6.50
 -13  -2   9   13.50    4.50
  13  -2  -9   49.20    9.20
  13   2  -9   39.00    8.00
  13   2  -9   42.20    7.00
  12  -2  -9   12.90    4.00
  12  -2  -9    5.00    4.50
 -12  -2   9   11.00    4.70
  12   2  -9   21.10    5.00
 -12   2   9    9.40    4.30
  12   2  -9   17.10    5.70
  11  -2  -9    0.20    2.50
  11  -2  -9    4.90    4.00
 -11  -2   9    3.60    3.60
 -11   2   9    2.70    3.50
  11   2  -9   -0.60    2.80
  11   2  -9   10.20    4.40
 -10  -2   9    2.10    3.30
  10  -2  -9    0.00    2.10
  10  -2  -9   -1.60    2.60
  10   2  -9    0.40    2.70
 -10   2   9    0.40    2.90
  10   2  -9   -0.50    3.00
  -9  -2   9  501.65   23.10
   9  -2  -9  451.45   22.40
   9   2  -9  403.46   19.60
  -9   2   9  475.65   22.40
   9   2  -9  424.06   21.30
  -8  -2   9  243.88   14.50
   8  -2  -9  203.58   13.60
   8   2  -9  208.28   13.10
  -8   2   9  220.58   14.00
   8   2  -9  213.08   12.10
  -7  -2   9  200.78   12.80
   7  -2  -9  167.48   11.80
   7   2  -9  183.08   10.80
   7   2  -9  174.18   11.70
  -7   2   9  200.18   12.90
   6  -2  -9  274.97   15.30
  -6  -2   9  270.07   15.40
   6   2  -9  285.67   14.70
  -6   2   9  248.38   15.00
   5  -2  -9   -0.10    2.70
  -5  -2   9    1.80    3.10
  -5   2   9    0.40    2.60
  -4  -2   9  163.28   11.20
  -4   2   9  164.68   11.20
  -3  -2   9  174.58   11.50
  -3   2   9  172.38   11.40
  -2  -2   9 1208.88   45.20
  -2   2   9 1229.88   45.20
  -1  -2   9   84.19    9.10
  -1   2   9   74.49    8.50
  -1   2   9   72.79    7.30
   0  -2   9  131.29    9.80
   0   2   9  159.58   10.20
   0   2   9  159.68    9.70
   1  -2   9   29.10    5.30
   1   2   9   23.40    4.80
   1   2   9   28.80    4.90
   2  -2   9  281.27   14.50
   2  -2   9  272.57   15.20
   2   2   9  283.77   15.00
   2   2   9  270.57   14.00
   3  -2   9  586.44   26.50
   3  -2   9  635.94   25.40
   3   2   9  615.14   24.90
   3   2   9  597.44   26.30
   4  -2   9  260.67   14.00
   4  -2   9  308.47   16.60
   4   2   9  279.37   14.00
   4   2   9  284.57   16.10
   5  -2   9   82.59    9.60
   5  -2   9   62.29    7.00
   5   2   9   70.59    9.10
   5   2   9   59.29    6.60
   6  -2   9   34.70    7.10
   6  -2   9   51.29    6.30
   6   2   9   54.09    5.90
   6   2   9   39.00    7.30
   7  -2   9   60.79    9.40
   7   2   9   71.09    9.80
   8  -2   9   13.40    5.50
   8   2   9    9.50    5.30
   9  -2   9    5.70    4.40
   9   2   9    8.20    4.90
  10  -2   9    8.70    5.30
  10   2   9   -3.90    3.60
  11  -2   9   12.50    6.20
  11   2   9   23.70    7.80
  12  -2   9   16.40    7.90
  12   2   9   20.70    8.50
  18  -3  -9   -1.10    5.90
  18   3  -9    0.80    6.60
  17  -3  -9    0.40    6.40
  17   3  -9    0.20    4.50
  17   3  -9    3.90    6.30
  16  -3  -9    9.00    6.70
  16   3  -9   15.30    6.30
  16   3  -9    2.70    5.40
 -15  -3   9  159.88   15.00
  15  -3  -9  150.88   16.80
  15   3  -9  157.98   16.00
  15   3  -9  145.19   13.90
 -15   3   9  145.89   14.50
 -14  -3   9    8.10    5.20
  14  -3  -9    9.20    5.70
  14   3  -9    9.60    4.70
  14   3  -9    6.70    4.40
 -14   3   9    4.80    4.70
  13  -3  -9   94.99   12.10
  13   3  -9   67.29   10.30
  13   3  -9   93.79   10.60
 -12  -3   9   13.00    5.50
  12  -3  -9   11.60    5.10
  12   3  -9    9.30    4.30
  12   3  -9   18.90    5.50
 -12   3   9   17.90    5.70
  11  -3  -9  135.49   13.70
 -11  -3   9  141.39   13.50
  11   3  -9  155.28   11.10
  11   3  -9  158.88   11.90
 -11   3   9  134.79   13.50
 -10  -3   9  114.49   11.90
  10  -3  -9  121.09   12.70
 -10   3   9  115.19   12.00
  10   3  -9  117.39   10.60
  10   3  -9  124.49   11.80
   9  -3  -9  436.16   22.10
  -9  -3   9  380.96   20.60
   9   3  -9  444.96   20.80
   9   3  -9  420.26   19.60
  -9   3   9  410.16   21.10
   8  -3  -9    2.00    3.10
  -8  -3   9    3.50    3.60
   8   3  -9   -2.10    2.30
  -8   3   9   -3.50    2.30
   8   3  -9    1.20    2.60
   7  -3  -9  364.76   19.10
  -7  -3   9  371.06   19.40
   7   3  -9  385.36   18.30
   7   3  -9  384.36   17.80
  -7   3   9  370.06   19.30
   6  -3  -9   35.00    6.20
  -6  -3   9   31.90    6.20
  -6   3   9   26.30    5.60
  -5  -3   9  349.67   17.80
   5  -3  -9  319.57   17.00
  -5   3   9  336.07   17.70
  -4  -3   9  283.67   15.60
  -4   3   9  287.07   15.70
  -4   3   9  272.87   12.10
  -3  -3   9    6.10    3.50
  -3   3   9   12.40    2.90
  -3   3   9   12.80    3.90
  -2  -3   9  108.09   10.30
  -2   3   9   87.69    6.60
  -2   3   9   97.79    9.50
  -1  -3   9   25.60    5.10
  -1   3   9   19.40    4.50
   0  -3   9  180.08   11.30
   0   3   9  167.58   10.80
   0   3   9  157.38    9.90
   1  -3   9  304.97   15.70
   1   3   9  300.17   15.10
   1   3   9  285.97   15.10
   2  -3   9    5.00    2.90
   2   3   9    2.40    3.20
   2   3   9    0.40    2.60
   3  -3   9   48.10    6.60
   3  -3   9   64.79    8.30
   3   3   9   61.99    7.00
   3   3   9   70.19    8.30
   4  -3   9    7.80    3.30
   4  -3   9    4.70    3.60
   4   3   9   14.60    4.60
   4   3   9   10.60    3.50
   5  -3   9  147.79    9.60
   5  -3   9  147.59   13.30
   5   3   9  130.99    8.90
   5   3   9  137.39   12.80
   6  -3   9  104.69    8.00
   6  -3   9   95.29   11.20
   6   3   9   92.09    7.20
   6   3   9   70.59    9.70
   7  -3   9   79.09   10.40
   7   3   9   83.09   10.80
   8  -3   9    3.00    4.10
   8   3   9    0.00    3.80
   9  -3   9   -1.60    3.70
   9   3   9   -6.10    3.20
  10  -3   9   11.50    6.00
  10   3   9   17.50    6.80
  11  -3   9   16.50    6.70
  11   3   9   35.50    8.90
  12  -3   9   32.00    9.60
  12   3   9   20.90    8.10
  18  -4  -9   11.20    7.30
  18   4  -9   21.00    9.10
  18   4  -9   30.80    8.50
  17  -4  -9   10.80    7.20
  17   4  -9   10.90    6.30
  17   4  -9   17.60    7.50
  16  -4  -9    0.50    5.20
  16   4  -9   10.90    5.60
  16   4  -9    7.30    5.60
  15  -4  -9    2.30    4.90
 -15  -4   9    3.20    5.00
 -15   4   9    3.00    4.10
  15   4  -9    9.00    5.30
  15   4  -9    5.20    5.20
  14  -4  -9    2.10    4.70
 -14  -4   9    4.10    4.30
  14   4  -9   -0.10    3.50
 -14   4   9    0.80    4.10
  14   4  -9    4.60    4.40
  13  -4  -9  101.49   12.90
  13   4  -9   83.39   10.10
  13   4  -9  104.59   12.00
 -13   4   9   97.39   11.30
 -12  -4   9    4.30    3.90
  12  -4  -9    7.10    4.90
 -12   4   9   -0.80    3.50
  12   4  -9   11.50    4.70
  12   4  -9    3.50    4.20
 -11  -4   9  141.59   13.80
  11  -4  -9  142.89   14.00
  11   4  -9  143.89   12.80
  11   4  -9  151.18   13.40
 -11   4   9  143.19   13.70
  10  -4  -9  174.78   15.60
 -10  -4   9  165.88   12.70
  10   4  -9  170.18   11.90
 -10   4   9  182.28   13.10
  10   4  -9  173.98   11.80
   9  -4  -9    0.70    2.80
  -9  -4   9    5.80    4.10
   9   4  -9    0.30    3.10
  -9   4   9    3.90    3.80
   9   4  -9    2.70    3.00
   8  -4  -9  107.59   11.40
  -8  -4   9  117.69   11.90
   8   4  -9  132.39    9.80
   8   4  -9  111.29   10.30
  -8   4   9  139.19   12.90
  -7  -4   9  110.59   11.30
   7  -4  -9   99.89   10.50
   7   4  -9  110.79   10.00
   7   4  -9   93.69    9.40
  -7   4   9  126.39   12.10
   6  -4  -9   26.20    5.50
  -6  -4   9   15.80    5.00
  -6   4   9   22.40    5.50
  -6   4   9   18.10    2.50
  -5  -4   9   54.49    7.80
   5  -4  -9   55.99    7.50
  -5   4   9   49.10    4.30
  -5   4   9   45.00    7.20
  -4  -4   9  271.97   15.40
  -4   4   9  273.87   11.60
  -4   4   9  259.17   15.20
  -3  -4   9  336.87   17.70
  -3   4   9  338.37   14.40
  -3   4   9  364.16   18.20
  -2  -4   9  126.89    9.80
  -2   4   9  126.89    7.70
  -2   4   9  112.09   10.80
  -1  -4   9  360.66   18.20
  -1   4   9  359.36   16.10
  -1   4   9  369.86   18.20
   0  -4   9  139.09   10.10
   0   4   9  145.09   10.10
   0   4   9  140.69    9.10
   1  -4   9  481.45   21.70
   1   4   9  446.36   20.60
   1   4   9  488.25   21.50
   2  -4   9   20.30    4.70
   2   4   9   31.40    5.30
   2   4   9   31.70    5.80
   3  -4   9  274.67   16.20
   3  -4   9  293.37   15.40
   3   4   9  292.57   15.00
   3   4   9  305.47   16.30
   4  -4   9   80.99    8.60
   4  -4   9   83.49    9.80
   4   4   9   81.29    9.40
   4   4   9   89.09    8.60
   5  -4   9  391.06   21.00
   5  -4   9  402.16   18.70
   5   4   9  396.46   18.00
   5   4   9  404.96   21.00
   6  -4   9   13.00    4.00
   6  -4   9   17.30    5.40
   6   4   9   11.50    3.70
   6   4   9   13.60    5.30
   7  -4   9   75.09   10.30
   7   4   9   59.59    9.40
   8  -4   9   62.69    9.70
   8   4   9   68.29   10.40
   9  -4   9   10.60    5.00
   9   4   9   21.50    7.20
  10  -4   9   29.80    7.90
  10   4   9   38.00    9.30
  11  -4   9   11.10    6.30
  11   4   9   14.00    6.70
  12  -4   9    5.60    6.40
  12   4   9   -5.00    4.90
  17  -5  -9   21.20    8.20
  17   5  -9   17.40    7.30
  17   5  -9   21.20    7.70
  16  -5  -9   91.39   14.30
  16   5  -9   61.99   11.00
  16   5  -9   85.89   11.60
  15  -5  -9   33.70    9.00
 -15  -5   9   43.70    8.30
 -15   5   9   46.60    9.30
  15   5  -9   56.99    9.80
  15   5  -9   42.70    8.40
  14  -5  -9  108.79   13.90
 -14  -5   9   89.89   11.40
  14   5  -9  102.09   11.90
  14   5  -9   66.39    9.80
  13  -5  -9   60.99   10.20
 -13  -5   9   27.40    6.70
 -13   5   9   51.19    8.60
  13   5  -9   50.19    8.50
 -12  -5   9   37.80    7.60
  12  -5  -9   56.49    9.60
 -12   5   9   51.09    8.70
  12   5  -9   55.49    8.50
 -11  -5   9   26.00    6.50
  11  -5  -9   25.90    6.90
  11   5  -9   30.90    6.20
 -11   5   9   38.70    7.50
  10  -5  -9   43.50    7.90
 -10  -5   9   66.89    9.80
 -10   5   9   70.49    9.60
  10   5  -9   45.90    7.40
  10   5  -9   37.40    6.40
  -9  -5   9  153.08   13.90
   9  -5  -9  143.79   13.80
   9   5  -9  125.09   11.70
  -9   5   9  158.98   14.50
   9   5  -9  147.49   12.70
  -8  -5   9   86.49   10.30
   8  -5  -9   99.59   11.20
  -8   5   9   97.59   10.80
   8   5  -9   79.09    8.90
   8   5  -9   59.39    7.40
  -7  -5   9  289.37   16.90
   7  -5  -9  295.57   16.90
   7   5  -9  304.47   16.20
  -7   5   9  282.47   16.70
   6  -5  -9   75.39    9.10
  -6  -5   9   65.99    9.00
   6   5  -9   68.09    8.20
  -6   5   9   72.89    3.80
  -6   5   9   74.49    9.40
  -5  -5   9    6.70    3.90
   5  -5  -9   -1.70    2.20
  -5   5   9    0.30    1.40
  -5   5   9   -1.70    2.20
   4  -5  -9   13.80    4.00
  -4  -5   9   17.10    4.90
  -4   5   9   13.00    2.50
  -4   5   9   16.00    4.90
  -3  -5   9    3.10    3.00
  -3   5   9    7.40    2.30
  -3   5   9    5.70    3.70
  -2  -5   9  294.17   16.10
  -2   5   9  281.87   13.00
  -2   5   9  289.67   16.00
  -1  -5   9    8.80    3.90
  -1   5   9    7.20    3.40
  -1   5   9    4.30    2.50
   0  -5   9   10.00    3.70
   0   5   9    8.50    3.80
   1  -5   9    1.90    3.00
   1   5   9   -2.30    2.00
   1   5   9    2.30    2.80
   2  -5   9    4.30    3.00
   2   5   9   -0.50    2.40
   2   5   9    5.60    3.00
   3  -5   9  494.85   22.30
   3   5   9  481.55   21.70
   3   5   9  478.35   22.60
   4  -5   9    2.30    3.10
   4  -5   9    3.90    3.70
   4   5   9    0.70    3.00
   4   5   9    0.90    3.30
   5  -5   9   85.89    9.00
   5  -5   9   80.79   10.00
   5   5   9   72.99    8.00
   5   5   9   82.69   10.40
   6  -5   9  119.79   12.70
   6  -5   9  125.09    9.10
   6   5   9   96.99    9.00
   6   5   9   83.99   11.00
   7  -5   9   65.29    9.60
   7   5   9   72.49   10.50
   8  -5   9  118.79   13.20
   8   5   9  116.29   13.70
   9  -5   9  111.29   13.30
   9   5   9  117.19   14.20
  10  -5   9   93.29   12.60
  10   5   9  120.49   15.00
  11  -5   9   30.90    8.90
  11   5   9   14.10    7.20
  12  -5   9   43.20    9.60
  12   5   9   40.20   10.20
  17  -6  -9   45.30   10.70
  17   6  -9   46.20    9.30
  16  -6  -9   -2.70    5.00
  16   6  -9   -4.30    4.50
  16   6  -9    5.90    6.20
  15  -6  -9    7.70    6.60
 -15  -6   9   12.90    6.00
  15   6  -9   16.10    5.50
  15   6  -9   15.00    6.20
 -15   6   9   16.50    6.80
  14  -6  -9   18.20    7.20
 -14  -6   9    3.90    4.70
  14   6  -9    4.90    5.40
  14   6  -9   11.00    5.60
 -14   6   9   -0.20    3.30
 -13  -6   9    4.90    4.70
  13  -6  -9    2.60    4.70
 -13   6   9    7.50    4.90
  13   6  -9   -0.50    4.40
  13   6  -9    6.30    4.40
  12  -6  -9   88.79   12.30
 -12  -6   9  123.39   13.30
 -12   6   9   91.99   11.80
  12   6  -9  123.39   12.00
  12   6  -9   96.99   11.40
  11  -6  -9   -0.10    4.00
 -11  -6   9    1.50    3.70
  11   6  -9   -1.40    3.60
 -11   6   9   -2.40    3.20
  11   6  -9   -1.40    3.70
  10  -6  -9   76.39   10.60
 -10  -6   9   95.79   11.20
  10   6  -9  101.79   10.30
 -10   6   9   92.59   11.40
  10   6  -9   85.39   10.50
   9  -6  -9   10.30    4.60
  -9  -6   9    7.50    4.50
   9   6  -9    6.20    3.80
   9   6  -9    2.40    3.10
  -9   6   9    8.00    4.30
  -8  -6   9   79.79   10.30
   8  -6  -9   89.79   10.50
  -8   6   9   86.89   10.70
   8   6  -9   89.79   10.00
   7  -6  -9   51.69    8.00
  -7  -6   9   61.09    8.80
  -7   6   9   65.39    9.20
   7   6  -9   52.59    7.70
  -6  -6   9    6.70    3.60
   6  -6  -9    5.30    3.70
   6   6  -9    2.40    3.50
  -6   6   9    3.50    3.60
   5  -6  -9   38.50    6.60
  -5  -6   9   41.40    7.10
  -5   6   9   40.10    3.50
  -5   6   9   47.40    7.70
   4  -6  -9   53.99    7.40
  -4  -6   9   52.49    7.90
  -4   6   9   57.49    8.00
  -4   6   9   52.99    4.60
  -3  -6   9  201.98   13.10
  -3   6   9  188.78   12.80
  -3   6   9  183.08    9.30
  -2  -6   9  336.57   18.00
  -2   6   9  337.57   17.90
  -2   6   9  327.17   14.50
  -1  -6   9   17.90    4.90
  -1   6   9   13.20    3.50
  -1   6   9    8.10    3.80
   0  -6   9  226.98   13.90
   0   6   9  226.68   12.20
   0   6   9  225.48   13.80
   1  -6   9   82.19    9.20
   1   6   9   78.19    8.80
   1   6   9   65.39    7.50
   2  -6   9  240.18   14.20
   2   6   9  237.18   14.00
   2   6   9  237.18   13.80
   3  -6   9   10.90    4.10
   3   6   9   18.50    4.70
   3   6   9   15.40    5.00
   4  -6   9    8.20    3.80
   4   6   9    3.10    3.70
   4   6   9    2.90    3.60
   5  -6   9   49.20    7.10
   5  -6   9   24.30    6.00
   5   6   9   29.40    5.60
   5   6   9   25.10    6.50
   6  -6   9    1.80    3.30
   6  -6   9   -2.80    3.40
   6   6   9    7.50    4.80
   6   6   9   -0.30    3.00
   7  -6   9   14.50    5.40
   7   6   9   28.60    7.70
   8  -6   9    8.80    5.10
   8   6   9    3.90    5.00
   9  -6   9   81.59   11.60
   9   6   9   91.79   12.70
  10  -6   9    8.40    5.40
  10   6   9    8.80    6.40
  11  -6   9    9.40    6.40
  11   6   9    5.10    6.20
  17  -7  -9    7.80    7.20
  17   7  -9    7.90    6.10
  16  -7  -9   -1.50    5.60
  16   7  -9   -2.60    5.10
 -15  -7   9   71.29   10.60
  15  -7  -9   40.20    9.80
  15   7  -9   55.29   10.30
 -15   7   9   49.20    9.50
  14  -7  -9    8.80    6.00
 -14  -7   9    8.40    5.00
  14   7  -9    0.50    4.40
  14   7  -9    4.10    5.10
 -14   7   9    9.60    5.90
 -13  -7   9   22.40    6.40
  13  -7  -9   36.30    8.80
 -13   7   9   16.00    5.70
  13   7  -9   18.10    6.40
  13   7  -9   36.60    7.60
  12  -7  -9   18.70    6.80
 -12  -7   9    5.70    4.90
 -12   7   9   24.50    7.20
  12   7  -9   14.20    5.40
  12   7  -9    9.00    5.40
 -11  -7   9   20.00    6.40
  11  -7  -9   19.50    6.40
 -11   7   9   10.90    5.30
  11   7  -9   12.80    4.70
  11   7  -9    5.60    4.90
 -10  -7   9  322.77   19.00
  10  -7  -9  277.77   18.20
 -10   7   9  279.77   17.90
  10   7  -9  299.17   17.90
  10   7  -9  257.87   15.20
   9  -7  -9  352.96   20.20
  -9  -7   9  350.86   20.00
   9   7  -9  344.87   19.30
  -9   7   9  325.57   19.60
   8  -7  -9    2.60    3.70
  -8  -7   9    1.80    3.60
   8   7  -9    4.20    3.40
  -8   7   9    3.70    3.90
   7  -7  -9  134.89   12.80
  -7  -7   9  128.09   12.70
  -7   7   9  109.49   11.90
   7   7  -9  127.19   12.00
  -6  -7   9   -1.50    3.20
   6  -7  -9   -2.30    2.50
   6   7  -9    4.00    3.30
  -6   7   9    1.30    3.00
  -5  -7   9  142.19   13.30
   5  -7  -9  161.68   11.70
  -5   7   9  151.88    6.60
  -5   7   9  166.88   12.40
  -4  -7   9   36.20    6.80
   4  -7  -9   57.79    7.80
  -4   7   9   62.69    5.10
  -4   7   9   47.40    7.90
  -3  -7   9   -0.40    3.10
  -3   7   9   -0.10    3.00
  -3   7   9    0.30    1.90
  -2  -7   9  274.97   16.30
  -2   7   9  270.37   16.10
  -2   7   9  273.17   12.90
  -1  -7   9    5.10    3.70
  -1   7   9    3.00    2.50
  -1   7   9    3.60    3.30
   0  -7   9  282.87   16.80
   0   7   9  319.87   15.50
   0   7   9  312.57   17.20
   1  -7   9  140.59   12.70
   1   7   9  119.89   10.70
   1   7   9  135.79   10.50
   2  -7   9    1.60    3.50
   2   7   9   12.30    4.30
   2   7   9    7.90    3.90
   3  -7   9   58.39    8.10
   3   7   9   79.59    9.30
   3   7   9   69.89    8.40
   4  -7   9   79.49    9.50
   4   7   9   92.59    9.60
   4   7   9   90.99   10.50
   5  -7   9   47.40    7.50
   5  -7   9   54.79    8.80
   5   7   9   59.59    7.80
   5   7   9   57.49    8.80
   6  -7   9  339.27   19.80
   6  -7   9  327.87   17.60
   6   7   9  333.57   17.10
   6   7   9  311.37   19.30
   7  -7   9   26.60    7.10
   7   7   9   43.80    8.60
   8  -7   9  182.88   16.80
   8   7   9  137.19   15.40
   9  -7   9   15.30    6.20
   9   7   9    8.40    6.00
  10  -7   9   26.50    8.20
  10   7   9   36.50    9.10
  11  -7   9   35.50    8.90
  11   7   9   33.90   10.20
  16  -8  -9    1.50    6.10
  16   8  -9   -1.40    5.00
  15  -8  -9   -1.10    4.90
 -15  -8   9    4.90    5.60
  15   8  -9    3.80    5.00
 -15   8   9    2.10    3.70
 -14  -8   9   -3.80    2.60
  14  -8  -9    5.70    6.10
  14   8  -9    4.80    5.00
 -14   8   9    5.70    4.80
  13  -8  -9   11.20    6.50
 -13  -8   9   -3.30    4.50
  13   8  -9    0.30    4.40
 -13   8   9    6.20    5.40
 -12  -8   9   13.70    5.60
  12  -8  -9   12.00    6.30
 -12   8   9   16.40    6.40
  12   8  -9   17.70    6.60
 -11  -8   9   37.40    8.20
  11  -8  -9   29.80    7.80
  11   8  -9   20.10    6.30
  11   8  -9   31.70    6.40
 -11   8   9   31.30    7.50
 -10  -8   9    9.90    5.60
  10  -8  -9    8.30    4.90
 -10   8   9   16.50    6.40
  10   8  -9    1.70    3.80
   9  -8  -9   28.20    6.80
  -9  -8   9   11.00    5.00
   9   8  -9   16.20    5.50
  -9   8   9   15.10    5.60
  -8  -8   9  410.56   22.70
   8  -8  -9  401.56   22.30
   8   8  -9  442.86   22.70
  -8   8   9  475.45   24.00
   7  -8  -9    7.00    4.50
  -7  -8   9    6.80    4.30
  -7   8   9    2.80    4.00
   7   8  -9    3.20    3.60
   6  -8  -9   78.69    9.60
  -6  -8   9   73.39    9.90
   6   8  -9   82.39    9.90
  -6   8   9   86.79   10.90
   5  -8  -9  152.88   11.40
  -5  -8   9  154.58   14.50
  -5   8   9  152.28   14.10
  -4  -8   9   39.80    7.40
   4  -8  -9   30.10    6.10
  -4   8   9   29.10    3.60
  -4   8   9   46.00    7.80
  -3  -8   9  370.26   20.00
  -3   8   9  366.26   19.90
  -3   8   9  337.47   14.80
  -2  -8   9    1.10    3.30
  -2   8   9    4.90    2.90
  -2   8   9   11.20    4.90
  -1  -8   9   12.70    5.00
  -1   8   9   11.70    3.70
  -1   8   9   12.40    4.60
   0  -8   9    3.30    3.60
   0   8   9    2.30    3.50
   0   8   9    2.70    2.90
   1  -8   9   -0.40    3.10
   1   8   9   -0.50    1.90
   1   8   9   -0.40    3.10
   2  -8   9   32.40    6.60
   2   8   9   32.90    6.20
   2   8   9   33.80    6.20
   3  -8   9    4.10    4.00
   3   8   9    4.00    4.00
   3   8   9   -0.70    3.10
   4  -8   9   15.70    5.30
   4   8   9   14.40    5.30
   4   8   9   12.10    4.40
   5  -8   9   92.59   10.70
   5   8   9  102.89   10.30
   5   8   9   88.29   11.30
   6  -8   9  158.48   11.90
   6  -8   9  134.69   14.40
   6   8   9  156.58   11.40
   6   8   9  165.38   15.80
   7  -8   9  247.58   17.20
   7   8   9  243.28   17.50
   8  -8   9   10.20    5.50
   8   8   9   10.60    6.00
   9  -8   9   32.40    8.10
   9   8   9   33.10    8.80
  10  -8   9    1.40    4.50
  10   8   9   -3.10    5.20
  11  -8   9   -3.70    4.60
  11   8   9   -4.10    5.40
  16  -9  -9   73.19   13.20
  16   9  -9   89.39   13.20
  15  -9  -9    1.80    5.80
 -15  -9   9   -5.10    5.70
 -15   9   9    1.30    4.20
  15   9  -9    1.10    5.30
  14  -9  -9   23.60    8.20
 -14  -9   9   20.40    7.00
  14   9  -9   20.50    7.10
 -14   9   9   25.40    7.30
 -13  -9   9   44.20    8.90
  13  -9  -9   42.60   10.00
 -13   9   9   55.39   10.30
  13   9  -9   40.80    9.60
  12  -9  -9   20.40    7.10
 -12  -9   9   26.70    7.50
  12   9  -9   17.70    6.60
 -12   9   9   15.70    6.20
  11  -9  -9    2.00    4.50
 -11  -9   9    8.60    5.00
  11   9  -9    8.70    5.30
 -11   9   9   -1.10    4.00
 -10  -9   9   45.10    8.90
  10  -9  -9   45.60    9.00
 -10   9   9   38.70    8.10
  10   9  -9   43.50    8.20
  -9  -9   9   93.09   12.00
   9  -9  -9   65.69   10.00
  -9   9   9   82.79   11.30
   9   9  -9   69.59   10.30
   8  -9  -9  216.28   15.30
  -8  -9   9  234.18   16.70
  -8   9   9  223.98   16.00
   8   9  -9  206.48   15.20
   7  -9  -9   40.00    7.60
  -7  -9   9   38.10    7.90
   7   9  -9   39.00    7.60
  -7   9   9   33.20    7.30
  -6  -9   9  466.05   25.10
   6  -9  -9  486.45   24.00
  -6   9   9  497.45   25.40
   6   9  -9  519.85   25.00
   5  -9  -9   31.70    6.60
  -5  -9   9   40.80    7.80
  -5   9   9   31.60    7.00
   4  -9  -9   22.10    5.20
  -4  -9   9   15.00    5.10
  -4   9   9   16.30    5.70
  -3  -9   9   15.50    5.40
  -3   9   9    8.90    4.60
  -3   9   9   14.80    3.40
  -2  -9   9  182.78   13.60
  -2   9   9  177.28   10.30
  -2   9   9  195.78   13.90
  -1  -9   9  164.88   14.90
  -1   9   9  186.18   11.00
  -1   9   9  178.68   13.20
   0  -9   9   78.19   10.00
   0   9   9   68.29    8.00
   0   9   9   74.29    9.50
   1  -9   9   26.00    6.00
   1   9   9   23.10    5.30
   1   9   9   24.60    6.00
   2  -9   9   12.50    4.70
   2   9   9   19.00    5.40
   2   9   9   10.70    4.50
   3  -9   9   25.00    6.10
   3   9   9   26.70    6.20
   3   9   9   46.80    7.90
   4  -9   9   84.99   10.20
   4   9   9   82.09    9.90
   4   9   9   66.49    9.70
   5  -9   9   18.80    6.00
   5   9   9    4.80    4.60
   5   9   9   13.40    5.00
   6  -9   9  205.48   18.00
   6  -9   9  153.48   14.30
   6   9   9  209.98   17.90
   6   9   9  196.58   13.50
   7  -9   9   45.30    8.60
   7   9   9   36.40    8.50
   8  -9   9  251.67   17.90
   8   9   9  214.98   19.80
   9  -9   9   -5.40    4.40
   9   9   9    4.60    5.70
  10  -9   9    9.40    6.00
  10   9   9   10.60    6.70
  15 -10  -9   23.50    8.90
 -15  10   9   20.50    7.80
  15  10  -9    6.30    6.10
 -14 -10   9    3.40    5.70
  14 -10  -9    1.60    5.40
 -14  10   9    5.40    5.80
  14  10  -9   -3.40    4.40
 -13 -10   9    2.50    5.00
  13 -10  -9   -1.10    4.70
 -13  10   9    2.90    5.50
  13  10  -9   -3.90    5.10
  12 -10  -9    0.70    5.40
 -12 -10   9    3.00    4.50
  12  10  -9    2.70    4.90
 -12  10   9    6.20    4.90
 -11 -10   9    6.00    4.80
  11 -10  -9    8.10    6.00
 -11  10   9   12.40    6.10
  11  10  -9   12.60    6.00
 -10 -10   9   79.19   11.50
  10 -10  -9   65.29   10.80
  10  10  -9   53.19    9.90
 -10  10   9   55.39    9.70
  -9 -10   9   17.10    6.50
   9 -10  -9   14.20    6.20
  -9  10   9   27.10    7.00
   9  10  -9    6.40    4.80
   8 -10  -9  867.51   37.60
  -8 -10   9  851.71   38.20
  -8  10   9  851.01   38.20
   8  10  -9  837.92   37.60
  -7 -10   9  168.08   16.40
   7 -10  -9  140.79   13.90
  -7  10   9  144.39   15.10
   7  10  -9  178.78   16.00
  -6 -10   9   12.70    5.60
   6 -10  -9   24.00    6.20
   6  10  -9   22.30    6.40
  -6  10   9   16.20    5.90
   5 -10  -9   78.29   10.00
  -5 -10   9   95.69   11.80
  -5  10   9   79.79   10.90
  -4 -10   9    4.40    4.10
   4 -10  -9    6.60    3.70
  -4  10   9    9.10    4.80
  -3 -10   9  185.88   16.50
  -3  10   9  182.48   16.40
  -3  10   9  172.98   10.70
  -2 -10   9   43.00    8.30
  -2  10   9   54.09    8.90
  -2  10   9   43.40    5.90
  -1 -10   9   46.40    8.20
  -1  10   9   35.50    7.30
  -1  10   9   48.10    6.50
   0 -10   9    1.10    3.60
   0  10   9   -2.30    3.10
   0  10   9   -3.10    2.90
   1 -10   9    0.80    3.50
   1  10   9    3.40    3.30
   1  10   9    0.00    3.50
   2 -10   9  162.78   15.60
   2  10   9  134.79   12.70
   2  10   9  153.58   14.30
   3 -10   9   60.89    9.50
   3  10   9   43.10    8.00
   3  10   9   48.60    8.50
   4 -10   9  109.89   11.90
   4  10   9   86.19   10.60
   4  10   9   78.99   10.90
   5 -10   9   43.60    7.90
   5  10   9   33.50    7.10
   5  10   9   39.70    8.10
   6 -10   9   33.60    7.40
   6 -10   9   45.90    9.10
   6  10   9   48.00    9.60
   6  10   9   36.00    7.20
   7 -10   9    8.30    5.40
   7  10   9    2.80    5.60
   8 -10   9    1.30    4.60
   8  10   9   -0.40    4.80
   9 -10   9   26.30    8.00
   9  10   9   28.90    8.90
  10 -10   9    4.20    6.20
  10  10   9   -2.50    5.20
 -15  11   9    1.70    5.90
 -14 -11   9   13.20    7.30
  14 -11  -9   30.10    9.50
 -14  11   9   25.10    7.80
  14  11  -9   31.10    9.10
  13 -11  -9    6.10    5.90
 -13 -11   9   14.50    7.00
  13  11  -9   14.90    6.30
 -13  11   9   -4.10    4.30
 -12 -11   9    9.90    5.60
  12 -11  -9    2.20    5.10
 -12  11   9    4.00    5.30
  12  11  -9   -0.50    4.00
 -11 -11   9    1.30    4.60
  11 -11  -9   -2.00    4.20
 -11  11   9    2.20    4.30
  11  11  -9   -3.30    4.40
 -10 -11   9  198.08   18.70
  10 -11  -9  194.68   18.20
  10  11  -9  200.48   18.40
 -10  11   9  211.48   19.50
   9 -11  -9   -1.10    3.80
  -9 -11   9   -1.00    4.40
   9  11  -9    0.80    4.10
  -9  11   9    3.00    4.80
   8 -11  -9    9.90    5.40
  -8 -11   9   14.70    5.80
  -8  11   9   14.60    6.00
   8  11  -9   17.00    6.40
  -7 -11   9   24.80    7.20
   7 -11  -9   22.00    6.40
   7  11  -9   29.10    7.30
  -7  11   9   15.50    6.10
   6 -11  -9  211.78   15.00
  -6 -11   9  218.58   16.30
  -6  11   9  195.98   18.10
   6  11  -9  214.78   15.80
  -5 -11   9    5.60    4.60
   5 -11  -9    3.50    3.50
  -5  11   9    1.10    4.40
  -4 -11   9  332.07   20.30
  -4  11   9  302.07   19.60
  -3 -11   9   -1.80    3.80
  -3  11   9    5.90    4.30
  -2 -11   9   54.69    9.30
  -2  11   9   60.39    6.90
  -2  11   9   53.59    9.20
  -1 -11   9    2.90    4.40
  -1  11   9    6.80    4.80
  -1  11   9    4.70    3.60
   0 -11   9   19.60    6.60
   0  11   9    4.50    4.50
   0  11   9    8.70    4.00
   1 -11   9   17.80    6.10
   1  11   9   12.00    5.40
   1  11   9   16.60    5.10
   2 -11   9   10.70    5.30
   2  11   9    7.40    5.00
   2  11   9   -0.20    2.30
   3 -11   9   17.50    6.00
   3  11   9   20.30    6.20
   3  11   9   20.50    6.20
   4 -11   9   70.49   10.50
   4  11   9   88.69   11.20
   4  11   9   74.99   10.70
   5 -11   9    0.00    4.20
   5  11   9    2.10    4.80
   5  11   9    0.70    3.80
   6 -11   9  199.08   14.90
   6  11   9  199.98   14.90
   6  11   9  194.08   18.20
   7 -11   9   -0.90    4.50
   7  11   9    3.20    5.60
   8 -11   9  162.78   16.80
   8  11   9  126.69   16.00
   9 -11   9    2.50    5.20
   9  11   9    2.30    6.10
  14 -12  -9   -1.80    6.10
 -14 -12   9   11.20    7.30
 -14  12   9    7.10    6.10
  14  12  -9    1.30    5.70
 -13 -12   9   11.50    6.90
  13 -12  -9   10.00    7.00
 -13  12   9   10.70    6.40
  13  12  -9   13.00    7.10
  12 -12  -9   68.89   12.10
 -12 -12   9   67.29   11.80
 -12  12   9   68.19   11.70
  12  12  -9   62.09   11.20
  11 -12  -9   -1.70    4.60
 -11 -12   9    3.80    6.10
  11  12  -9   -1.80    4.70
 -11  12   9    1.30    5.00
  10 -12  -9  132.79   15.20
 -10 -12   9  145.69   16.20
 -10  12   9  145.79   16.50
  10  12  -9  145.29   16.30
  -9 -12   9   24.60    7.80
   9 -12  -9   13.60    6.30
   9  12  -9   14.00    5.90
  -9  12   9   10.00    5.90
   8 -12  -9    1.80    4.30
  -8 -12   9   11.20    6.00
   8  12  -9    3.00    4.50
  -8  12   9   -0.20    4.70
   7 -12  -9    0.40    4.00
  -7 -12   9    7.30    5.30
   7  12  -9    2.40    4.50
  -7  12   9   -2.60    4.00
  -6 -12   9   34.40    8.40
   6 -12  -9   28.20    7.00
  -6  12   9   28.70    8.00
   6  12  -9   27.90    7.10
   5 -12  -9   15.50    5.00
  -5 -12   9   25.40    6.90
  -5  12   9   20.60    6.80
  -4 -12   9   31.30    7.80
  -4  12   9   46.60    9.40
  -3 -12   9   32.80    7.80
  -3  12   9   47.20    9.10
  -2 -12   9   -2.40    3.80
  -2  12   9   -1.50    3.80
  -1 -12   9   22.10    6.80
  -1  12   9   26.50    7.10
  -1  12   9   17.40    4.80
   0 -12   9   66.69   10.70
   0  12   9   74.29    9.20
   0  12   9   68.69   10.80
   1 -12   9    8.10    5.30
   1  12   9    6.10    5.30
   1  12   9    6.40    4.50
   2 -12   9   10.90    5.30
   2  12   9   10.70    5.60
   2  12   9    2.60    3.10
   3 -12   9    0.30    3.80
   3  12   9    2.50    4.30
   3  12   9   -3.60    3.90
   4 -12   9    4.10    4.20
   4  12   9    3.30    4.90
   4  12   9    1.80    5.10
   5 -12   9   66.69   10.70
   5  12   9   54.99    9.70
   5  12   9   76.09   11.10
   6 -12   9   46.30    9.10
   6  12   9   53.29    9.90
   6  12   9   36.00    9.10
   7 -12   9   16.70    7.20
   7  12   9   22.90    7.70
   8 -12   9   20.70    7.20
   8  12   9   37.80    9.30
  13 -13  -9    3.00    6.80
 -13 -13   9    9.40    6.80
  13  13  -9    1.00    5.80
 -13  13   9    5.50    6.10
 -12 -13   9    7.90    6.00
  12 -13  -9    8.90    7.00
 -12  13   9    8.70    6.40
  12  13  -9    3.50    5.80
 -11 -13   9    6.90    6.80
  11 -13  -9   12.00    6.60
 -11  13   9   12.60    6.50
  11  13  -9    7.80    6.40
  10 -13  -9    3.10    5.60
 -10 -13   9    0.90    4.90
  10  13  -9   -6.10    4.20
 -10  13   9   -2.90    4.00
   9 -13  -9    3.50    5.40
  -9 -13   9    1.00    5.10
  -9  13   9   10.40    5.70
   9  13  -9   11.90    6.50
   8 -13  -9   39.30    8.60
  -8 -13   9   62.29   11.00
  -8  13   9   44.30    9.70
   8  13  -9   42.80    9.30
   7 -13  -9   34.60    7.60
  -7 -13   9   28.60    8.30
   7  13  -9   35.90    8.60
  -7  13   9   29.60    8.30
  -6 -13   9    2.00    4.70
   6 -13  -9    7.70    4.90
   6  13  -9    8.50    5.50
  -6  13   9    7.60    6.10
  -5 -13   9   18.70    6.70
   5 -13  -9   21.40    6.30
  -5  13   9   25.10    7.40
  -4 -13   9   29.80    7.60
  -4  13   9   23.50    7.20
  -3 -13   9    5.30    5.00
  -3  13   9    1.10    4.70
  -2 -13   9  124.39   14.60
  -2  13   9  105.39   13.60
  -1 -13   9    0.30    4.50
  -1  13   9    6.50    5.10
   0 -13   9   13.00    5.90
   0  13   9   12.90    5.80
   0  13   9    2.80    3.90
   1 -13   9    9.10    5.10
   1  13   9   17.70    6.80
   1  13   9   12.80    4.80
   2 -13   9    2.40    5.00
   2  13   9    1.70    4.10
   2  13   9    4.30    4.80
   3 -13   9    4.90    4.70
   3  13   9   -3.20    3.70
   3  13   9    0.50    4.10
   4 -13   9    0.20    5.20
   4  13   9    6.30    5.20
   4  13   9   -1.60    4.50
   5 -13   9   -1.10    4.00
   5  13   9    7.10    6.00
   5  13   9   -0.40    4.70
   6 -13   9    3.30    5.10
   6  13   9   15.60    7.00
   7 -13   9   -3.00    5.10
   7  13   9    6.70    5.40
  12 -14  -9   20.60    8.20
 -12 -14   9   13.00    7.50
 -12  14   9   16.90    7.30
  12  14  -9   21.50    8.70
 -11 -14   9   15.70    7.30
  11 -14  -9    9.50    6.40
 -11  14   9   15.90    7.20
  11  14  -9   20.90    7.90
 -10 -14   9    7.80    6.10
  10 -14  -9   22.70    7.60
 -10  14   9   17.40    7.70
  10  14  -9   23.30    8.10
   9 -14  -9   13.40    6.80
  -9 -14   9   21.40    8.10
  -9  14   9   23.40    8.00
   9  14  -9   19.40    7.50
   8 -14  -9  205.88   18.30
  -8 -14   9  190.78   19.50
  -8  14   9  171.68   18.70
   8  14  -9  188.28   19.00
  -7 -14   9    1.00    5.10
   7 -14  -9    5.90    5.40
   7  14  -9   -1.60    4.80
  -7  14   9    4.80    5.30
   6 -14  -9   40.70    8.40
  -6 -14   9   52.99   10.80
  -6  14   9   43.00    9.90
   5 -14  -9   -3.40    3.70
  -5 -14   9   -6.10    3.70
  -5  14   9   -2.60    4.20
  -4 -14   9   -1.40    4.30
  -4  14   9    6.10    4.90
  -3 -14   9   34.10    9.00
  -3  14   9   47.20    9.50
  -2 -14   9   22.60    7.40
  -2  14   9   21.00    7.00
  -1 -14   9   -2.00    4.30
  -1  14   9    3.90    5.20
   0 -14   9   40.60    9.40
   0  14   9   46.50    9.40
   1 -14   9    8.30    5.40
   1  14   9   10.50    5.20
   1  14   9   17.30    6.90
   2 -14   9  162.88   17.70
   2  14   9  179.88   15.90
   2  14   9  159.38   16.70
   3 -14   9   21.50    7.20
   3  14   9   18.80    6.70
   3  14   9   12.10    5.30
   4 -14   9    6.80    5.60
   4  14   9   10.90    6.00
   4  14   9    8.60    5.70
   5 -14   9   49.80   10.70
   5  14   9   56.99   10.60
   5  14   9   65.99   10.90
   6 -14   9   28.50    8.40
   6  14   9   13.50    6.90
 -11  15   9    7.60    6.40
  10 -15  -9   16.10    7.50
 -10 -15   9   23.90    8.60
 -10  15   9   13.70    6.90
  10  15  -9   14.80    7.60
   9 -15  -9   -1.00    5.60
  -9 -15   9   -2.30    5.00
   9  15  -9    6.70    6.00
  -9  15   9    6.50    5.80
  -8 -15   9   38.30   10.00
   8 -15  -9   44.80    9.60
   8  15  -9   47.70   10.50
  -8  15   9   23.60    8.10
   7 -15  -9    3.10    5.60
  -7 -15   9    8.90    6.10
  -7  15   9    5.50    5.70
   7  15  -9    1.40    4.60
   6 -15  -9    6.90    5.50
  -6 -15   9   10.70    6.50
  -6  15   9   17.00    6.90
  -5 -15   9    6.90    5.30
  -5  15   9    9.90    6.20
  -4 -15   9   79.09   12.90
  -4  15   9   51.09   10.60
  -3 -15   9   -1.00    4.80
  -3  15   9    3.90    5.40
  -2 -15   9   78.59   12.70
  -2  15   9   90.89   13.30
  -1 -15   9   -4.40    4.10
  -1  15   9    0.20    4.80
   0 -15   9   86.39   13.20
   0  15   9   95.69   14.00
   1 -15   9   -1.60    5.00
   1  15   9    3.00    5.80
   2 -15   9   -1.30    5.00
   2  15   9   -3.00    4.40
   3 -15   9    8.00    5.90
   3  15   9    4.40    3.30
   3  15   9    3.00    5.70
   4 -15   9  197.68   19.20
   4  15   9  172.18   18.00
   4  15   9  191.78   18.30
   5 -15   9   -2.60    4.80
   5  15   9   -2.10    4.70
   5  15   9   -1.10    4.80
  -9 -16   9   19.40    8.30
   9 -16  -9   22.40    8.30
  -9  16   9   19.90    8.50
   9  16  -9   28.80    9.80
  -8 -16   9   45.30   10.50
   8  16  -9   20.10    7.50
  -8  16   9   33.60   10.60
  -7 -16   9   23.70    8.00
  -7  16   9   13.20    7.20
   7  16  -9   15.80    7.70
  -6 -16   9   23.10    8.80
  -6  16   9   18.50    8.20
  -5 -16   9    3.40    5.90
  -5  16   9    1.90    5.50
  -4 -16   9   -3.20    4.80
  -4  16   9   -3.30    4.80
  -3 -16   9   -4.20    4.80
  -3  16   9    0.80    5.30
  -2 -16   9   -0.80    4.90
  -2  16   9    3.30    5.90
  -1 -16   9   12.70    6.90
  -1  16   9    8.10    6.60
   0 -16   9   -3.90    4.70
   0  16   9    0.50    5.40
   1 -16   9    0.40    5.30
   1  16   9    0.50    5.40
   2 -16   9   65.19   12.30
   2  16   9   82.79   12.70
   3 -16   9    0.90    5.50
   3  16   9    1.90    5.70
  -7  17   9    8.80    6.70
  -6 -17   9   10.40    7.00
  -6  17   9   14.70    7.60
  -5 -17   9   16.30    7.90
  -5  17   9   15.80    7.20
  -4 -17   9   10.30    7.10
  -4  17   9   25.30    8.70
  -3 -17   9   10.70    7.00
  -3  17   9   -8.20    5.90
  -2 -17   9    6.80    7.20
  -2  17   9    8.60    6.90
  -1 -17   9   -2.50    6.50
  -1  17   9    1.00    5.70
   0 -17   9    9.20    7.20
   0  17   9   11.60    7.30
   1 -17   9   36.50   10.40
   1  17   9   33.40   10.10
  18   0 -10   -7.60    5.80
  17   0 -10    3.10    7.00
  16   0 -10   34.00    8.90
  15   0 -10   -1.40    4.50
 -15   0  10    0.80    4.60
  14   0 -10   70.79   11.20
  13   0 -10    4.30    3.30
 -13   0  10    2.80    4.20
  13   0 -10    5.50    4.80
  12   0 -10   69.09   10.20
 -12   0  10   76.19   10.40
  12   0 -10   69.69    7.80
 -11   0  10   -1.10    3.20
  11   0 -10   -0.40    3.40
  11   0 -10   -1.90    2.50
  10   0 -10  178.28   10.80
  10   0 -10  186.28   13.40
 -10   0  10  186.08   13.40
  -9   0  10   -0.20    3.00
   9   0 -10    0.00    2.60
  -8   0  10   17.20    5.50
   8   0 -10    6.30    3.60
  -7   0  10   -1.90    2.80
   7   0 -10   -2.60    2.00
   6   0 -10    1.40    2.80
  -6   0  10    3.30    3.00
  -5   0  10   -2.10    2.70
  -4   0  10 1488.35   54.69
  -3   0  10    2.60    2.80
  -2   0  10    5.60    3.30
  -1   0  10   -0.10    2.40
   0   0  10    2.90    2.90
   0   0  10    1.20    2.70
   1   0  10   -0.10    2.30
   1   0  10    1.60    2.70
   2   0  10    1.20    2.60
   2   0  10    1.90    2.60
   3   0  10   -2.90    2.20
   3   0  10    0.10    2.50
   4   0  10   15.50    4.10
   4   0  10    2.10    3.20
   5   0  10   -0.80    3.00
   5   0  10   -1.50    2.30
   6   0  10   97.59   11.50
   7   0  10    1.10    3.60
   8   0  10  328.77   20.30
   9   0  10    0.00    4.80
  10   0  10   74.39   11.80
  11   0  10    0.00    4.80
  12   0  10   30.40    9.10
  18  -1 -10   80.39   13.80
  18   1 -10   47.00   11.00
  17  -1 -10    9.00    6.80
  17   1 -10    8.40    6.30
  16  -1 -10    0.70    5.50
  16   1 -10    1.20    4.70
  15  -1 -10   34.10    8.70
 -15  -1  10   44.20    8.70
  15   1 -10   46.10    8.80
  15   1 -10   42.40    9.50
 -15   1  10   51.29    9.20
  14  -1 -10  360.16   22.50
  13  -1 -10   54.99   10.20
 -13  -1  10   61.99    9.20
 -13   1  10   52.59    8.90
  13   1 -10   45.80    8.90
  13   1 -10   62.59    8.10
  12  -1 -10  302.17   15.00
  12  -1 -10  287.07   18.60
 -12  -1  10  314.97   18.50
 -12   1  10  307.57   18.60
  12   1 -10  327.57   16.50
  12   1 -10  311.17   18.80
  11  -1 -10   -0.30    2.20
 -11  -1  10   -1.40    3.40
  11  -1 -10   -0.30    2.90
  11   1 -10    2.40    3.60
  11   1 -10    1.30    3.00
 -11   1  10   -0.40    3.30
  10  -1 -10    3.00    2.70
  10  -1 -10    6.60    4.30
 -10  -1  10    1.30    3.90
 -10   1  10    3.10    3.60
  10   1 -10   10.60    4.60
  10   1 -10    0.70    2.90
  -9  -1  10   21.90    6.10
   9  -1 -10   20.10    5.10
  -9   1  10   18.60    5.60
   9   1 -10   18.40    5.30
   9   1 -10   18.60    4.20
  -8  -1  10    4.90    3.90
   8  -1 -10    4.90    3.50
   8   1 -10    0.70    2.90
  -8   1  10    2.50    3.60
   7  -1 -10  102.09   10.50
  -7  -1  10   87.29   10.20
   7   1 -10   93.59   10.00
  -7   1  10  100.89   11.40
  -6  -1  10  266.87   15.90
   6  -1 -10  259.97   15.30
  -6   1  10  270.87   15.80
  -5  -1  10   74.19    9.20
  -5   1  10   68.19    8.70
  -4  -1  10  237.38   14.40
  -4   1  10  221.38   13.90
  -3  -1  10   12.00    4.30
  -3   1  10    8.90    3.80
  -2  -1  10 1166.68   43.30
  -2   1  10 1084.79   42.60
  -1  -1  10   24.00    5.30
  -1   1  10   34.50    5.60
  -1   1  10   33.10    6.10
   0  -1  10  519.95   23.10
   0   1  10  497.55   22.10
   0   1  10  499.15   22.70
   1  -1  10   21.50    4.80
   1  -1  10   24.30    5.40
   1   1  10   26.00    5.20
   1   1  10   23.90    5.30
   2  -1  10  298.47   16.30
   2  -1  10  303.07   15.50
   2   1  10  270.37   14.80
   2   1  10  287.47   15.90
   3  -1  10  160.28   10.40
   3  -1  10  124.69   12.00
   3   1  10  131.79   12.30
   3   1  10  132.89    9.50
   4  -1  10  216.58   14.30
   4  -1  10  222.58   12.60
   4   1  10  216.48   14.20
   4   1  10  215.28   12.30
   5  -1  10    6.00    3.30
   5  -1  10    4.00    3.80
   5   1  10   10.50    4.90
   5   1  10    2.70    2.80
   6  -1  10   66.19    9.60
   6   1  10   60.79    9.40
   7  -1  10   53.79    8.90
   7   1  10   62.59    9.50
   8  -1  10    8.60    5.10
   8   1  10   10.00    5.40
   9  -1  10    1.60    4.40
   9   1  10   -3.20    3.80
  10  -1  10   27.80    8.00
  10   1  10   22.00    7.20
  11  -1  10   21.70    7.90
  11   1  10   24.70    8.30
  12  -1  10   25.80    8.10
  12   1  10   25.90    8.50
  18  -2 -10    2.70    6.20
  18   2 -10   -2.10    6.10
  17  -2 -10    2.60    5.60
  17   2 -10   -0.30    5.50
  16  -2 -10   17.40    7.70
  16   2 -10    7.80    6.10
  16   2 -10   17.80    5.90
 -15  -2  10   12.70    6.20
  15  -2 -10   29.50    8.10
  15   2 -10   25.50    6.50
 -15   2  10   27.70    7.30
  15   2 -10   21.90    6.70
  14  -2 -10   30.40    7.40
  14   2 -10   20.50    6.60
  14   2 -10   20.60    5.40
 -14   2  10    2.70    3.60
 -13  -2  10   43.80    8.40
  13  -2 -10   19.00    6.60
  13   2 -10   18.90    5.40
  13   2 -10   31.40    7.30
 -13   2  10   42.80    8.20
 -12  -2  10   -2.70    3.70
  12  -2 -10   -2.50    3.10
  12   2 -10   -3.60    2.80
  12   2 -10    0.30    3.30
 -12   2  10    1.70    3.70
  11  -2 -10    9.70    3.10
  11  -2 -10   16.50    5.50
 -11  -2  10   14.60    5.70
  11   2 -10   11.60    4.80
  11   2 -10   12.30    4.10
 -11   2  10    7.40    4.50
  10  -2 -10   24.90    6.30
 -10  -2  10   17.70    5.50
 -10   2  10   12.10    4.80
  10   2 -10   17.60    5.70
  10   2 -10   14.60    4.30
   9  -2 -10   24.20    6.00
  -9  -2  10   26.10    6.40
  -9   2  10   19.50    5.50
   9   2 -10   37.80    6.70
   9   2 -10   35.20    5.70
   8  -2 -10  230.28   14.90
  -8  -2  10  267.17   16.00
   8   2 -10  246.48   14.70
  -8   2  10  225.38   15.00
  -7  -2  10  196.28   13.20
   7  -2 -10  164.58   12.20
  -7   2  10  187.38   12.90
   7   2 -10  171.28   11.70
  -6  -2  10   21.20    5.30
   6  -2 -10   18.20    5.00
  -6   2  10   15.00    4.70
  -5  -2  10   98.19   10.70
  -5   2  10  129.79   12.20
  -4  -2  10 1065.79   41.60
  -4   2  10 1073.59   41.70
  -3  -2  10   74.59    8.90
  -3   2  10   63.99    8.30
  -3   2  10   71.19    6.80
  -2  -2  10   13.90    4.70
  -2   2  10    0.40    1.40
  -2   2  10    7.60    3.90
  -1  -2  10  122.99   11.50
  -1   2  10  149.79    9.70
  -1   2  10  154.48   10.70
   0  -2  10  255.47   14.50
   0   2  10  233.18   13.10
   0   2  10  251.47   14.30
   1  -2  10    1.40    3.00
   1   2  10    4.60    2.90
   1   2  10    2.50    2.60
   2  -2  10   12.90    4.30
   2  -2  10   12.70    4.20
   2   2  10    8.10    3.90
   2   2  10   20.20    4.60
   3  -2  10  111.19   11.20
   3  -2  10  112.29   10.30
   3   2  10  109.49    8.60
   3   2  10  107.19   10.90
   4  -2  10   45.10    6.50
   4  -2  10   45.20    7.30
   4   2  10   39.90    7.10
   4   2  10   54.49    6.80
   5  -2  10   72.19    9.70
   5  -2  10   80.99    8.50
   5   2  10   80.29    8.00
   5   2  10   86.99   10.70
   6  -2  10   80.09   10.60
   6   2  10   78.79   10.60
   7  -2  10   44.70    8.70
   7   2  10   61.79    9.80
   8  -2  10  453.35   24.80
   8   2  10  444.66   25.00
   9  -2  10   25.80    7.50
   9   2  10   20.30    6.60
  10  -2  10   46.40    9.80
  10   2  10   52.69   10.00
  11  -2  10   31.90    8.50
  11   2  10   22.70    8.00
  12  -2  10    0.30    5.80
  12   2  10    4.20    6.60
  18  -3 -10   11.80    7.40
  18   3 -10    6.60    6.90
  17  -3 -10    4.70    5.30
  17   3 -10    4.30    6.00
  17   3 -10   10.20    6.40
  16  -3 -10    8.60    7.10
  16   3 -10   11.20    5.80
  16   3 -10   -2.40    4.10
 -15  -3  10    9.80    5.50
  15  -3 -10    2.20    5.40
  15   3 -10   10.00    5.80
  15   3 -10   23.80    6.80
 -15   3  10   10.20    5.40
  14  -3 -10   87.59   12.60
 -14   3  10   99.89   12.20
  14   3 -10  136.89   14.20
  14   3 -10  125.59   12.50
  13  -3 -10    7.60    5.00
 -13  -3  10    5.70    5.00
  13   3 -10    4.70    4.00
 -13   3  10    6.40    4.60
  13   3 -10    6.70    4.50
 -12  -3  10   86.09   11.00
  12  -3 -10   86.09   11.50
  12   3 -10   96.29   10.40
  12   3 -10   86.09   11.10
 -12   3  10   88.89   11.40
  11  -3 -10  298.67   18.90
 -11  -3  10  309.47   18.90
  11   3 -10  332.97   18.40
 -11   3  10  287.57   18.20
  11   3 -10  318.57   17.10
  10  -3 -10   66.09    9.70
 -10  -3  10   79.89   10.20
  10   3 -10   84.19    9.00
 -10   3  10   77.69   10.20
  10   3 -10   68.09    9.10
  -9  -3  10   99.29   11.40
   9  -3 -10  110.59   11.70
   9   3 -10  125.09   11.90
   9   3 -10   98.29    9.50
  -9   3  10  103.79   11.60
   8  -3 -10   24.40    6.00
  -8  -3  10   28.80    6.40
   8   3 -10   28.30    5.40
   8   3 -10   20.00    5.10
  -8   3  10   15.90    5.20
   7  -3 -10   54.89    8.00
  -7  -3  10   40.70    7.20
  -7   3  10   47.40    7.90
  -6  -3  10   28.80    6.20
   6  -3 -10   20.10    5.30
  -6   3  10   31.50    6.40
   5  -3 -10  434.36   22.20
  -5  -3  10  541.15   24.50
  -5   3  10  517.15   23.90
  -4  -3  10    3.80    3.30
  -4   3  10    2.10    3.10
  -4   3  10    3.10    2.10
  -3  -3  10   82.79    9.40
  -3   3  10  103.19    7.10
  -3   3  10  103.99   10.70
  -2  -3  10   12.20    4.10
  -2   3  10    2.00    3.00
  -2   3  10   16.90    3.50
  -1  -3  10  434.56   20.10
  -1   3  10  422.36   19.80
  -1   3  10  339.47   17.10
   0  -3  10  410.96   20.70
   0   3  10  476.45   21.40
   0   3  10  451.95   20.10
   1  -3  10   66.49    8.30
   1   3  10   82.19    8.50
   1   3  10   71.59    8.30
   2  -3  10  121.39   11.80
   2  -3  10  170.48   11.10
   2   3  10  153.08   10.50
   2   3  10  148.49   11.00
   3  -3  10   -0.80    2.60
   3  -3  10    0.90    2.90
   3   3  10   -0.20    2.50
   3   3  10   -0.40    3.20
   4  -3  10  118.59   10.70
   4  -3  10  120.99   12.30
   4   3  10  106.59   11.40
   4   3  10  116.69    8.80
   5  -3  10 1051.39   42.00
   5  -3  10 1005.00   38.50
   5   3  10 1015.00   37.80
   5   3  10  999.30   41.40
   6  -3  10   51.79    8.40
   6   3  10   50.09    8.80
   7  -3  10    0.40    4.00
   7   3  10    3.10    4.60
   8  -3  10   -1.70    4.00
   8   3  10   -2.90    4.00
   9  -3  10   14.50    6.20
   9   3  10   14.30    6.50
  10  -3  10   42.60    9.10
  10   3  10   34.60    9.20
  11  -3  10   14.80    7.20
  11   3  10   25.00    8.20
  17  -4 -10    6.00    6.60
  17   4 -10   11.60    5.90
  17   4 -10    1.80    6.20
  16  -4 -10   58.29   11.50
  16   4 -10   53.19    9.80
  16   4 -10   55.49   10.00
 -15  -4  10   13.20    5.70
  15  -4 -10    6.30    5.60
  15   4 -10   16.30    6.60
  15   4 -10   20.80    6.50
 -15   4  10   18.10    6.70
  14  -4 -10  492.75   26.90
  14   4 -10  426.26   22.90
 -14   4  10  459.45   24.50
  14   4 -10  423.76   23.50
 -13  -4  10  204.08   15.40
  13  -4 -10  242.78   17.70
  13   4 -10  217.68   14.90
 -13   4  10  211.28   15.50
  13   4 -10  207.18   15.00
  12  -4 -10  131.79   14.50
 -12  -4  10  110.29   12.60
  12   4 -10  116.29   11.80
 -12   4  10  111.69   12.50
  12   4 -10  123.39   12.70
 -11  -4  10   59.79    9.40
  11  -4 -10   51.29    8.80
 -11   4  10   47.00    8.40
  11   4 -10   35.10    6.80
  11   4 -10   50.29    7.90
  10  -4 -10    7.10    4.40
 -10  -4  10   10.60    4.80
 -10   4  10   16.00    5.60
  10   4 -10   21.20    5.50
  10   4 -10   10.00    4.10
  -9  -4  10  298.97   18.00
   9  -4 -10  301.97   18.10
  -9   4  10  308.07   18.50
   9   4 -10  289.17   16.60
   9   4 -10  317.07   16.80
  -8  -4  10  275.07   16.30
   8  -4 -10  236.78   15.40
  -8   4  10  237.38   15.70
   8   4 -10  218.38   13.60
   8   4 -10  261.27   14.70
   7  -4 -10   40.30    7.00
  -7  -4  10   34.80    6.90
  -7   4  10   40.50    3.70
  -7   4  10   29.60    6.60
  -6  -4  10  379.66   20.60
   6  -4 -10  430.36   20.90
  -6   4  10  405.46   15.50
  -6   4  10  395.46   20.90
   5  -4 -10   26.80    5.50
  -5  -4  10   27.50    6.30
  -5   4  10   17.30    5.00
  -5   4  10   20.80    3.30
  -4  -4  10  552.14   25.80
  -4   4  10  575.64   25.90
  -4   4  10  546.15   21.20
  -3  -4  10   26.70    5.80
  -3   4  10   32.70    6.50
  -3   4  10   30.20    4.40
  -2  -4  10  324.27   18.00
  -2   4  10  344.67   15.50
  -2   4  10  344.67   18.20
  -1  -4  10    3.80    3.60
  -1   4  10    4.40    2.40
  -1   4  10    1.30    3.00
   0  -4  10    7.30    3.80
   0   4  10    8.20    4.10
   0   4  10    5.50    3.00
   1  -4  10  257.17   15.30
   1   4  10  280.37   15.20
   1   4  10  265.37   14.60
   2  -4  10   31.40    6.00
   2   4  10   40.90    6.40
   2   4  10   37.70    6.30
   3  -4  10   43.30    7.50
   3  -4  10   47.80    7.00
   3   4  10   63.99    7.90
   3   4  10   53.29    7.80
   4  -4  10  596.64   27.40
   4  -4  10  595.54   25.20
   4   4  10  562.14   26.50
   4   4  10  531.55   24.10
   5  -4  10  463.25   23.90
   5  -4  10  470.75   21.60
   5   4  10  446.96   20.70
   5   4  10  478.25   24.00
   6  -4  10   73.39   10.20
   6  -4  10   79.69   10.10
   6   4  10   82.29   10.90
   7  -4  10    3.00    4.30
   7   4  10   -3.20    3.60
   8  -4  10   -1.40    4.00
   8   4  10   -3.20    4.00
   9  -4  10  117.49   14.10
   9   4  10  111.29   14.10
  10  -4  10   74.19   11.80
  10   4  10   90.29   13.40
  11  -4  10    3.30    6.00
  11   4  10   25.70    8.80
  17  -5 -10    4.70    6.50
  17   5 -10   16.70    6.70
  17   5 -10   13.00    6.60
  16  -5 -10   11.60    7.70
  16   5 -10    9.30    5.50
  16   5 -10    9.80    6.20
 -15  -5  10    3.50    5.20
  15  -5 -10    0.20    5.40
  15   5 -10   -1.20    4.60
 -15   5  10    0.10    2.80
  15   5 -10   -0.60    4.00
 -14  -5  10    6.60    5.10
  14  -5 -10    7.30    5.90
  14   5 -10    9.80    5.30
  14   5 -10    4.70    5.10
 -14   5  10   -0.40    4.80
 -13  -5  10   28.00    6.70
  13  -5 -10   23.00    7.20
 -13   5  10   19.50    6.70
  13   5 -10   11.60    5.30
  13   5 -10   20.60    6.20
 -12  -5  10   15.30    6.10
  12  -5 -10   20.90    6.80
  12   5 -10   12.30    4.90
  12   5 -10   14.90    4.80
 -12   5  10   17.20    5.80
 -11  -5  10   97.89   12.10
  11  -5 -10   93.19   11.90
  11   5 -10   89.29   10.40
 -11   5  10   93.59   11.70
 -10  -5  10   18.70    5.90
  10  -5 -10   27.30    6.80
 -10   5  10   25.80    6.40
  10   5 -10   17.30    5.10
  -9  -5  10    1.10    3.50
   9  -5 -10    4.40    3.50
  -9   5  10   -1.10    3.00
   9   5 -10   -0.40    2.00
   9   5 -10   -1.30    3.60
   8  -5 -10  115.69   12.40
  -8  -5  10  133.89   13.30
  -8   5  10  138.99   13.20
   8   5 -10  108.39   10.90
   7  -5 -10   11.30    4.50
  -7  -5  10   14.90    4.90
  -7   5  10   11.60    4.70
   6  -5 -10  296.37   16.80
  -6  -5  10  281.57   16.90
  -6   5  10  283.67   11.10
  -6   5  10  262.07   16.60
   5  -5 -10   15.00    4.70
  -5  -5  10   17.60    5.20
  -5   5  10    9.30    4.20
  -5   5  10   15.50    2.70
  -4  -5  10    0.00    2.70
  -4   5  10   -2.30    2.40
  -4   5  10   -0.40    1.80
  -3  -5  10   21.30    5.60
  -3   5  10   27.10    5.90
  -3   5  10   27.00    4.10
  -2  -5  10  150.58   11.60
  -2   5  10  156.98    9.30
  -2   5  10  173.38   12.00
  -1  -5  10   34.40    6.60
  -1   5  10   27.80    5.70
  -1   5  10   49.40    6.20
   0  -5  10  238.08   14.70
   0   5  10  238.58   14.40
   1  -5  10  208.48   13.50
   1   5  10  230.28   13.70
   1   5  10  204.28   12.60
   2  -5  10  623.84   27.00
   2   5  10  586.04   26.10
   2   5  10  599.84   26.50
   3  -5  10    1.00    2.70
   3   5  10   -2.40    2.60
   3   5  10    1.40    3.30
   4  -5  10   90.99   11.00
   4  -5  10  114.79   11.20
   4   5  10  114.29   10.70
   4   5  10  103.29   11.50
   5  -5  10   58.99    8.30
   5  -5  10   44.30    8.30
   5   5  10   34.20    6.00
   5   5  10   48.30    8.20
   6  -5  10   28.70    7.00
   6  -5  10   55.19    7.70
   6   5  10   46.90    8.70
   7  -5  10  146.19   15.00
   7   5  10  145.19   15.50
   8  -5  10    4.30    4.80
   8   5  10    7.30    5.80
   9  -5  10   38.50    8.70
   9   5  10   16.70    7.20
  10  -5  10   26.60    8.00
  10   5  10   45.90   10.00
  11  -5  10   -7.20    4.10
  11   5  10   -5.70    5.20
  17  -6 -10   17.40    8.50
  17   6 -10   18.20    7.50
  16  -6 -10    1.40    5.70
  16   6 -10    2.20    5.90
  16   6 -10    2.80    5.40
  15  -6 -10   12.10    6.90
 -15  -6  10   16.90    6.60
  15   6 -10    5.40    5.90
 -15   6  10    0.60    3.60
  15   6 -10   12.30    6.70
 -14  -6  10   74.89   11.10
  14  -6 -10   72.09   11.90
 -14   6  10   64.89   10.90
  14   6 -10   68.49   10.00
  14   6 -10   61.09    9.80
 -13  -6  10   46.60    8.80
  13  -6 -10   40.80    8.90
  13   6 -10   39.50    8.30
  13   6 -10   56.89    8.70
 -13   6  10   34.40    8.00
  12  -6 -10    7.20    5.50
 -12  -6  10   20.10    6.20
 -12   6  10   20.50    6.90
  12   6 -10   31.20    7.50
  12   6 -10   16.50    5.70
  11  -6 -10  102.59   12.90
 -11  -6  10  128.79   13.50
  11   6 -10  124.19   12.20
 -11   6  10  125.29   13.70
  11   6 -10  121.69   12.60
  10  -6 -10   12.10    5.40
 -10  -6  10   14.20    6.00
  10   6 -10   12.00    5.20
  10   6 -10    4.40    4.10
 -10   6  10   11.60    5.60
  -9  -6  10  314.27   19.10
   9  -6 -10  304.67   18.90
   9   6 -10  320.97   18.20
  -9   6  10  349.07   20.00
  -8  -6  10   68.29    9.60
   8  -6 -10   59.49    9.00
  -8   6  10   60.59    9.40
   8   6 -10   79.99    9.60
   7  -6 -10  135.09   12.80
  -7  -6  10  116.99   12.50
  -7   6  10  115.29   12.20
   7   6 -10  108.09   10.90
   6  -6 -10   20.00    5.50
  -6  -6  10   16.00    5.50
  -6   6  10   15.00    5.00
  -5  -6  10   20.30    5.80
   5  -6 -10   17.10    4.80
  -5   6  10   21.60    5.60
  -5   6  10   15.10    2.70
  -4  -6  10   83.19   10.20
  -4   6  10   76.39    5.50
  -4   6  10   83.09   10.20
  -3  -6  10    5.60    3.60
  -3   6  10    4.60    2.50
  -3   6  10    5.00    3.50
  -2  -6  10  614.94   28.50
  -2   6  10  624.44   28.50
  -2   6  10  666.93   25.00
  -1  -6  10    5.50    3.70
  -1   6  10    4.30    3.50
  -1   6  10    8.90    3.30
   0  -6  10   88.69   10.20
   0   6  10   41.70    6.20
   0   6  10   82.89    9.70
   1  -6  10   46.00    7.40
   1   6  10   31.30    6.40
   1   6  10   55.19    7.50
   2  -6  10   52.89    7.60
   2   6  10   29.10    6.10
   2   6  10   48.90    7.40
   3  -6  10   24.70    5.80
   3   6  10   23.50    5.60
   3   6  10   19.10    5.50
   4  -6  10    1.10    3.70
   4  -6  10    3.10    4.10
   4   6  10    7.50    4.60
   4   6  10    8.60    4.00
   5  -6  10   72.99    8.80
   5  -6  10   60.29    9.40
   5   6  10   56.09    9.00
   5   6  10   64.29    7.70
   6  -6  10   50.09    7.60
   6  -6  10   58.69    9.60
   6   6  10   44.50    8.70
   7  -6  10   12.40    6.00
   7   6  10   20.50    6.90
   8  -6  10  219.58   19.10
   8   6  10  238.18   20.60
   9  -6  10   -2.10    4.40
   9   6  10   -4.70    4.20
  10  -6  10   38.50    8.60
  10   6  10   35.90    9.50
  11  -6  10   10.20    6.80
  11   6  10    3.90    6.30
  16  -7 -10   12.60    7.60
  16   7 -10   19.90    6.90
 -16   7  10    8.80    7.30
  15  -7 -10  107.79   15.30
 -15   7  10  105.49   13.70
  15   7 -10  129.19   14.70
  14  -7 -10   10.70    6.60
 -14  -7  10   21.10    7.00
  14   7 -10    8.70    5.70
 -14   7  10   26.70    7.70
  14   7 -10   17.80    7.20
  13  -7 -10  106.79   14.20
 -13  -7  10  116.69   13.80
 -13   7  10  115.09   13.80
  13   7 -10  116.39   12.00
  13   7 -10  101.69   12.80
  12  -7 -10   17.30    7.00
 -12  -7  10   17.10    6.50
 -12   7  10   17.60    6.20
  12   7 -10   39.50    7.70
  12   7 -10   27.40    6.70
  11  -7 -10   59.19   10.00
 -11  -7  10   41.60    8.80
  11   7 -10   62.19    8.30
 -11   7  10   35.20    7.80
  11   7 -10   41.00    8.00
  10  -7 -10    5.60    4.60
 -10  -7  10    5.10    4.60
 -10   7  10    6.10    4.50
  10   7 -10    7.30    4.30
  -9  -7  10    1.30    3.70
   9  -7 -10    0.60    3.70
   9   7 -10   -3.20    3.20
  -9   7  10   -4.60    3.10
  -8  -7  10   10.50    5.50
   8  -7 -10   20.50    6.10
  -8   7  10   17.90    6.00
   8   7 -10   24.10    6.00
   7  -7 -10  278.07   16.90
  -7  -7  10  274.77   17.40
  -7   7  10  267.27   17.40
   7   7 -10  262.47   16.20
   6  -7 -10    1.40    2.90
  -6  -7  10   -4.10    2.70
  -6   7  10    1.20    3.20
   5  -7 -10   64.79    8.70
  -5  -7  10   50.59    8.20
  -5   7  10   71.39    9.60
  -5   7  10   58.09    5.60
  -4  -7  10   32.30    6.70
  -4   7  10   43.10    4.60
  -4   7  10   43.00    7.60
  -3  -7  10   86.19   10.40
  -3   7  10   84.69    7.20
  -3   7  10  100.99   11.40
  -2  -7  10   98.49   11.10
  -2   7  10  101.89    8.70
  -2   7  10  109.99   11.90
  -1  -7  10   52.59    8.40
  -1   7  10   70.29    9.20
  -1   7  10   71.69    7.60
   0  -7  10   42.80    7.70
   0   7  10   29.50    6.60
   0   7  10   34.40    5.80
   1  -7  10   30.80    6.30
   1   7  10   37.50    6.30
   1   7  10   37.80    7.00
   2  -7  10  282.87   16.60
   2   7  10  256.67   15.80
   2   7  10  263.77   15.60
   3  -7  10   45.90    7.70
   3   7  10   47.60    8.10
   3   7  10   39.70    6.80
   4  -7  10   -0.70    3.30
   4   7  10   -0.90    3.50
   4   7  10    3.80    3.50
   5  -7  10  112.39   11.60
   5  -7  10   88.49   11.20
   5   7  10   90.39   11.30
   5   7  10  103.79   10.60
   6  -7  10   11.60    5.00
   6  -7  10    8.90    5.10
   6   7  10    7.40    5.20
   7  -7  10   -1.30    3.90
   7   7  10    1.70    5.20
   8  -7  10   -0.40    4.40
   8   7  10    8.70    6.00
   9  -7  10   26.00    7.80
   9   7  10   24.80    8.30
  10  -7  10   10.90    6.10
  10   7  10    7.10    6.90
  16  -8 -10    8.70    7.80
  16   8 -10   15.60    7.00
 -16   8  10    3.80    7.10
 -15  -8  10    2.60    4.30
  15  -8 -10    5.00    5.90
  15   8 -10    5.90    5.60
 -15   8  10    4.40    5.80
  14  -8 -10  182.88   18.90
 -14  -8  10  161.48   16.60
  14   8 -10  149.29   16.10
 -14   8  10  176.38   17.50
  13  -8 -10   -5.80    3.80
 -13  -8  10   -2.30    4.50
  13   8 -10   -1.40    4.20
 -13   8  10    2.20    5.00
  12  -8 -10   27.30    8.00
 -12  -8  10   33.50    8.20
 -12   8  10   33.70    8.30
  12   8 -10   30.20    7.40
 -11  -8  10    8.80    5.40
  11  -8 -10    0.20    3.80
  11   8 -10   -0.60    4.60
 -11   8  10    8.90    5.20
 -10  -8  10    3.60    4.70
  10  -8 -10    4.90    4.50
  10   8 -10    4.10    4.40
 -10   8  10    2.90    4.30
   9  -8 -10  420.06   23.80
  -9  -8  10  443.66   24.40
  -9   8  10  458.65   24.90
   9   8 -10  476.25   24.10
  -8  -8  10    7.80    4.50
   8  -8 -10    9.50    5.20
  -8   8  10   17.40    6.50
   8   8 -10   17.00    5.60
  -7  -8  10   41.90    8.10
   7  -8 -10   63.59    9.20
  -7   8  10   45.00    8.40
   7   8 -10   43.30    7.80
   6  -8 -10  356.06   19.50
  -6  -8  10  326.67   19.90
  -6   8  10  349.07   20.40
   5  -8 -10   -1.10    2.90
  -5  -8  10   -1.40    3.40
  -5   8  10   -3.50    2.90
  -4  -8  10   94.49   11.40
  -4   8  10   77.59    6.40
  -4   8  10   76.89   10.20
  -3  -8  10   20.30    6.00
  -3   8  10   38.20    7.40
  -3   8  10   44.70    5.30
  -2  -8  10    0.60    3.40
  -2   8  10   -0.40    3.60
  -2   8  10    2.80    2.80
  -1  -8  10   -0.80    2.90
  -1   8  10   -1.30    3.00
  -1   8  10    3.80    3.20
   0  -8  10    6.00    3.70
   0   8  10   14.50    4.90
   0   8  10   14.30    4.40
   1  -8  10   10.90    4.60
   1   8  10   -0.60    2.00
   1   8  10    5.40    4.40
   2  -8  10   24.40    6.00
   2   8  10   18.50    5.20
   2   8  10   26.00    6.20
   3  -8  10  169.38   12.90
   3   8  10  167.48   14.50
   3   8  10  150.08   13.60
   4  -8  10   12.70    5.30
   4   8  10   11.40    5.40
   4   8  10    6.80    4.20
   5  -8  10  116.19   12.10
   5  -8  10   97.19   12.30
   5   8  10   93.59   11.70
   5   8  10  117.79   11.50
   6  -8  10   27.70    6.20
   6  -8  10    8.80    5.30
   6   8  10    8.90    5.70
   7  -8  10   28.30    7.60
   7   8  10   23.30    7.80
   8  -8  10    7.60    5.30
   8   8  10   18.20    7.00
   9  -8  10   14.80    6.40
   9   8  10   18.20    7.50
  10  -8  10   40.00    9.70
  10   8  10   53.59   11.80
  16  -9 -10   -4.00    6.30
 -15  -9  10    3.90    5.80
  15  -9 -10    2.80    5.50
 -15   9  10    4.70    5.80
  15   9 -10   -8.80    4.80
 -14  -9  10   -3.20    4.90
  14  -9 -10    0.70    5.00
  14   9 -10   -3.60    4.60
 -14   9  10    1.90    4.50
 -13  -9  10   40.20    8.70
  13  -9 -10   45.90   10.20
 -13   9  10   55.39   10.60
  13   9 -10   48.70    9.20
  12  -9 -10   24.70    7.40
 -12  -9  10   19.40    6.60
  12   9 -10   10.50    6.70
 -12   9  10    9.30    6.00
  11  -9 -10    1.00    3.80
 -11  -9  10    5.70    5.20
  11   9 -10    2.40    4.40
 -11   9  10    3.50    4.80
 -10  -9  10    1.10    4.40
  10  -9 -10    3.30    4.60
 -10   9  10    5.60    5.10
  10   9 -10   -0.40    4.30
  -9  -9  10   20.70    6.50
   9  -9 -10   27.90    7.40
  -9   9  10   32.10    8.20
   9   9 -10   41.10    8.50
   8  -9 -10   14.80    5.70
  -8  -9  10   22.00    6.80
  -8   9  10   22.90    6.80
   8   9 -10    9.70    5.00
  -7  -9  10  155.58   15.60
   7  -9 -10  180.98   13.70
  -7   9  10  197.08   15.00
   7   9 -10  134.99   14.20
  -6  -9  10   63.19   10.20
   6  -9 -10   49.80    8.40
  -6   9  10   59.39    9.70
   5  -9 -10    7.30    4.30
  -5  -9  10   13.80    5.50
  -5   9  10   14.20    5.60
  -4  -9  10    4.30    3.80
  -4   9  10    2.80    3.90
  -3  -9  10  106.79   12.20
  -3   9  10   92.39   11.40
  -3   9  10  109.79    7.60
  -2  -9  10   -5.80    3.10
  -2   9  10   -1.00    3.50
  -2   9  10    1.80    2.80
  -1  -9  10  190.08   14.30
  -1   9  10  198.88   14.70
  -1   9  10  186.38   11.70
   0  -9  10   30.30    6.60
   0   9  10   44.70    6.90
   0   9  10   35.70    7.30
   1  -9  10   23.30    6.60
   1   9  10   32.80    6.50
   1   9  10   15.80    5.90
   2  -9  10  252.57   16.60
   2   9  10  248.88   15.40
   2   9  10  215.78   15.10
   3  -9  10    7.70    4.50
   3   9  10    7.40    4.90
   3   9  10    9.20    4.90
   4  -9  10  157.28   14.90
   4   9  10  153.38   14.10
   4   9  10  153.68   14.70
   5  -9  10   39.60    7.80
   5   9  10   48.80    8.20
   5   9  10   45.50    8.70
   6  -9  10   -0.10    4.00
   6  -9  10   -3.30    3.80
   6   9  10    2.60    5.20
   7  -9  10   86.99   12.00
   7   9  10   82.39   12.70
   8  -9  10    2.20    5.60
   8   9  10    6.50    5.90
   9  -9  10  194.08   19.00
   9   9  10  180.28   19.20
 -15 -10  10   18.40    8.00
  15 -10 -10    3.60    6.60
 -15  10  10    4.80    5.90
  15  10 -10   10.90    6.90
  14 -10 -10    7.40    6.80
 -14 -10  10    6.30    6.20
  14  10 -10    5.50    5.60
 -14  10  10    5.60    5.60
  13 -10 -10    3.40    5.30
 -13 -10  10   12.50    6.20
  13  10 -10    6.30    5.40
 -13  10  10   18.70    7.70
 -12 -10  10   19.60    7.30
  12 -10 -10   20.40    7.60
  12  10 -10   18.90    7.20
 -12  10  10   13.70    6.10
 -11 -10  10   32.30    8.20
  11 -10 -10   32.10    8.30
  11  10 -10   36.40    8.40
 -11  10  10   25.80    7.90
 -10 -10  10    1.50    4.40
  10 -10 -10    5.50    5.20
  10  10 -10    5.80    5.30
 -10  10  10    4.70    4.80
   9 -10 -10   91.29   12.00
  -9 -10  10  100.19   13.20
   9  10 -10   99.59   12.60
  -9  10  10   96.79   13.00
   8 -10 -10    7.00    4.50
  -8 -10  10    3.80    4.70
  -8  10  10   10.40    5.60
   8  10 -10   15.10    5.80
   7 -10 -10    2.10    4.60
  -7 -10  10    3.90    4.40
   7  10 -10   -4.80    3.60
  -7  10  10    1.30    4.30
  -6 -10  10  110.89   13.50
   6 -10 -10   88.99   11.50
  -6  10  10   82.49   11.60
  -5 -10  10  131.79   14.60
   5 -10 -10  109.39   11.90
  -5  10  10  109.69   13.20
  -4 -10  10   66.29   10.50
  -4  10  10   67.69   10.30
  -3 -10  10   18.30    6.20
  -3  10  10    0.30    3.70
  -2 -10  10  238.88   16.60
  -2  10  10  211.28   12.20
  -2  10  10  207.48   15.40
  -1 -10  10    8.10    5.10
  -1  10  10    2.10    3.60
  -1  10  10    0.80    3.40
   0 -10  10    8.00    4.90
   0  10  10   15.30    4.90
   0  10  10    4.00    4.60
   1 -10  10   38.70    8.00
   1  10  10   33.30    6.90
   1  10  10   51.29    8.60
   2 -10  10    6.00    4.50
   2  10  10   -0.40    3.70
   2  10  10   -1.10    4.00
   3 -10  10   57.49    9.80
   3  10  10   69.09    9.80
   3  10  10   81.89   10.80
   4 -10  10   27.80    6.90
   4  10  10   32.70    7.50
   4  10  10   29.20    7.30
   5 -10  10   53.69    9.10
   5  10  10   32.10    7.10
   5  10  10   50.69    9.30
   6 -10  10    7.50    5.10
   6 -10  10    5.50    4.90
   6  10  10   -1.10    5.30
   7 -10  10   60.79   10.50
   7  10  10   29.60    9.10
   8 -10  10   42.60    9.40
   8  10  10   49.50   10.50
   9 -10  10    4.50    5.50
   9  10  10    4.40    6.40
 -14 -11  10    8.40    6.80
  14 -11 -10    1.40    6.10
  14  11 -10   18.40    7.50
 -14  11  10    8.10    6.40
 -13 -11  10   24.20    8.00
  13 -11 -10   49.30   11.00
 -13  11  10   41.70    9.70
  13  11 -10   49.70   10.40
 -12 -11  10   -5.30    3.90
  12 -11 -10    2.30    5.00
 -12  11  10    2.70    5.30
  12  11 -10    4.10    5.40
  11 -11 -10   16.10    7.10
 -11 -11  10   10.90    6.50
 -11  11  10    5.40    5.20
  11  11 -10   13.70    6.50
  10 -11 -10    3.70    4.90
 -10 -11  10    3.60    5.10
  10  11 -10    3.80    5.50
 -10  11  10    1.70    4.50
  -9 -11  10    3.20    4.80
   9 -11 -10   -0.30    4.50
   9  11 -10   -2.10    3.90
  -9  11  10   -0.60    4.00
  -8 -11  10    1.40    4.70
   8 -11 -10    0.40    3.90
   8  11 -10    3.80    3.90
  -8  11  10    3.60    4.60
  -7 -11  10  170.58   17.30
   7 -11 -10  167.58   15.80
  -7  11  10  159.88   16.50
   7  11 -10  170.58   16.70
  -6 -11  10   53.99    9.50
   6 -11 -10   54.79    8.80
  -6  11  10   42.00    8.80
  -5 -11  10  253.67   18.40
   5 -11 -10  266.97   16.50
  -5  11  10  252.47   17.90
  -4 -11  10   68.59   11.00
  -4  11  10   55.79   10.10
  -3 -11  10    0.10    3.70
  -3  11  10   -4.60    3.40
  -2 -11  10   51.59    9.30
  -2  11  10   46.20    9.00
  -1 -11  10   70.49   10.80
  -1  11  10   66.49   10.20
  -1  11  10   65.59    8.10
   0 -11  10   10.40    5.20
   0  11  10    3.70    3.80
   0  11  10    0.60    3.90
   1 -11  10    2.20    4.30
   1  11  10   12.40    5.40
   1  11  10   11.70    5.00
   2 -11  10   10.70    5.10
   2  11  10   -1.60    2.40
   2  11  10    9.50    5.70
   3 -11  10  111.09   13.40
   3  11  10  100.09   12.10
   3  11  10  118.19   13.50
   4 -11  10    0.30    4.30
   4  11  10   10.60    5.30
   4  11  10    4.00    4.80
   5 -11  10   11.40    5.50
   5  11  10    5.70    5.00
   5  11  10    4.50    5.20
   6 -11  10    2.30    4.80
   6 -11  10    0.80    4.40
   6  11  10    1.70    5.10
   7 -11  10   46.50    9.60
   7  11  10   28.00    8.30
   8 -11  10   -2.30    5.20
   8  11  10    0.00    5.40
 -13 -12  10   12.00    7.30
  13 -12 -10    7.80    6.80
  13  12 -10    7.80    6.40
 -13  12  10    3.90    5.50
  12 -12 -10    6.10    6.00
 -12 -12  10   13.90    7.30
  12  12 -10   17.40    7.70
 -12  12  10   14.30    7.10
 -11 -12  10    1.20    5.30
  11 -12 -10    5.60    6.30
 -11  12  10    1.00    5.10
  11  12 -10    1.20    5.30
 -10 -12  10   25.60    8.10
  10 -12 -10   26.50    8.10
 -10  12  10   24.50    7.80
  10  12 -10   21.70    7.50
   9 -12 -10   25.90    8.00
  -9 -12  10   16.50    6.70
   9  12 -10   33.60    8.40
  -9  12  10   35.80    8.90
   8 -12 -10   99.79   12.60
  -8 -12  10   88.39   13.10
   8  12 -10  101.09   13.00
  -8  12  10  108.89   14.30
  -7 -12  10   50.69   10.00
   7 -12 -10   71.49   10.70
  -7  12  10   33.10    8.90
   7  12 -10   40.00    9.00
   6 -12 -10   60.79    9.20
  -6 -12  10   70.29   11.30
  -6  12  10   64.69   10.90
  -5 -12  10    8.20    5.30
   5 -12 -10    2.30    3.80
  -5  12  10   12.60    5.90
  -4 -12  10   61.59   10.40
  -4  12  10   83.49   12.30
  -3 -12  10   10.70    5.70
  -3  12  10    4.90    5.00
  -2 -12  10   26.70    7.40
  -2  12  10   15.70    6.50
  -1 -12  10    7.50    4.90
  -1  12  10    5.00    4.70
   0 -12  10   58.99   10.40
   0  12  10   44.00    7.60
   0  12  10   46.00    9.00
   1 -12  10  181.28   17.80
   1  12  10  183.48   17.40
   1  12  10  197.48   13.80
   2 -12  10   34.30    8.10
   2  12  10   22.30    6.80
   2  12  10   18.10    5.80
   3 -12  10  232.18   17.60
   3  12  10  257.67   17.80
   3  12  10  246.88   16.70
   4 -12  10    8.00    4.90
   4  12  10    8.60    5.50
   4  12  10    1.90    4.40
   5 -12  10   -0.50    4.60
   5  12  10    0.20    4.40
   5  12  10   -0.30    5.20
   6 -12  10    7.50    5.70
   6  12  10   12.90    6.90
   7 -12  10   -5.20    5.60
   7  12  10    2.70    5.80
 -13  13  10    1.60    5.70
  12 -13 -10    8.60    6.80
 -12 -13  10   -4.10    4.90
  12  13 -10   11.40    7.50
 -12  13  10    6.30    5.70
 -11 -13  10    2.40    5.70
  11 -13 -10   -5.30    4.80
  11  13 -10    1.10    5.40
 -11  13  10    2.90    5.40
  10 -13 -10   53.59   10.20
 -10 -13  10   35.20    9.30
 -10  13  10   29.40    9.20
  10  13 -10   34.50    9.00
   9 -13 -10    5.20    5.70
  -9 -13  10   -1.70    4.60
   9  13 -10   -1.80    4.90
  -9  13  10    7.80    5.70
   8 -13 -10   10.20    6.10
  -8 -13  10    5.00    5.80
   8  13 -10    3.40    5.50
  -8  13  10   -0.50    4.40
  -7 -13  10    5.70    5.60
   7 -13 -10    3.30    4.60
  -7  13  10    0.40    4.60
   7  13 -10   -2.40    4.20
  -6 -13  10    7.50    5.40
   6 -13 -10    0.00    3.90
  -6  13  10    4.90    5.20
  -5 -13  10   28.00    8.30
  -5  13  10   24.70    7.50
  -4 -13  10   45.30    9.70
  -4  13  10   43.50    9.60
  -3 -13  10   69.09   11.50
  -3  13  10   64.39   11.10
  -2 -13  10    6.50    5.20
  -2  13  10    9.60    5.60
  -1 -13  10   70.59   11.60
  -1  13  10   70.89   11.20
   0 -13  10   32.00    8.00
   0  13  10   22.90    7.40
   1 -13  10   55.49   10.10
   1  13  10   78.09   10.10
   1  13  10   52.19    9.70
   2 -13  10   -0.30    4.40
   2  13  10   -0.10    4.60
   2  13  10    2.70    4.60
   3 -13  10    2.20    4.60
   3  13  10   12.10    6.90
   3  13  10   14.10    6.20
   4 -13  10   64.99   11.00
   4  13  10   53.99   10.30
   4  13  10   53.69   10.30
   5 -13  10    0.60    5.20
   5  13  10   -4.60    3.90
   5  13  10    3.00    5.50
   6 -13  10    1.00    5.20
   6  13  10    3.90    6.00
 -11 -14  10   39.40   10.50
  11 -14 -10   22.20    8.20
 -11  14  10   14.10    7.90
  11  14 -10   17.30    8.20
 -10 -14  10    6.50    7.20
  10 -14 -10   12.10    6.60
  10  14 -10   10.40    6.90
 -10  14  10   -2.00    5.00
   9 -14 -10   83.69   12.20
  -9 -14  10   72.29   12.40
  -9  14  10   48.80   11.10
   9  14 -10   70.99   12.30
   8 -14 -10    1.90    5.20
  -8 -14  10   -3.30    4.70
   8  14 -10    4.10    5.30
  -8  14  10   -2.20    5.00
  -7 -14  10   28.60    8.40
   7 -14 -10   17.50    7.00
  -7  14  10   40.30    9.90
  -6 -14  10   53.99   10.70
   6 -14 -10   26.40    7.20
  -6  14  10   24.60    8.40
  -5 -14  10   -3.20    4.60
  -5  14  10    0.30    5.00
  -4 -14  10   17.30    7.50
  -4  14  10   27.30    8.20
  -3 -14  10    6.20    5.80
  -3  14  10   -1.80    4.60
  -2 -14  10   58.29   10.80
  -2  14  10   58.39   11.30
  -1 -14  10   30.30    8.30
  -1  14  10   24.40    8.00
   0 -14  10    1.40    4.80
   0  14  10   12.20    6.80
   1 -14  10   77.49   12.60
   1  14  10   57.49   10.50
   2 -14  10   -1.40    4.70
   2  14  10    4.10    4.40
   2  14  10   -4.60    5.40
   3 -14  10   42.30    9.30
   3  14  10   52.09   10.10
   4 -14  10    7.50    6.20
   4  14  10   12.40    6.70
   4  14  10   -3.00    4.90
   5 -14  10   38.90    9.80
   5  14  10   51.79   10.30
   5  14  10   49.99   10.10
 -10 -15  10   15.50    8.00
  10 -15 -10    4.70    6.70
  10  15 -10    9.70    7.10
 -10  15  10   17.60    8.50
  -9 -15  10    2.30    6.70
   9 -15 -10   10.20    6.70
  -9  15  10   15.50    7.30
   9  15 -10   15.50    7.70
  -8 -15  10    4.20    6.40
   8 -15 -10   -3.60    4.70
   8  15 -10    0.20    5.50
  -8  15  10   -1.80    5.30
   7 -15 -10   28.80    7.80
  -7 -15  10   49.00   10.70
  -7  15  10   23.00    8.70
  -6 -15  10   -1.80    5.00
   6 -15 -10    6.40    5.10
  -6  15  10    0.00    4.90
  -5 -15  10   -2.20    4.90
  -5  15  10    2.30    5.40
  -4 -15  10    4.10    6.00
  -4  15  10    2.90    5.40
  -3 -15  10    9.40    6.10
  -3  15  10   16.40    7.60
  -2 -15  10    2.20    5.50
  -2  15  10    0.90    5.10
  -1 -15  10    0.40    5.30
  -1  15  10    8.40    6.60
   0 -15  10   -0.90    4.90
   0  15  10    8.20    6.20
   1 -15  10   11.00    6.30
   1  15  10    3.60    5.70
   2 -15  10   11.40    6.80
   2  15  10    8.30    6.60
   3 -15  10    4.50    5.90
   3  15  10    0.70    5.10
   3  15  10    0.80    3.40
   4 -15  10    5.30    5.30
   4  15  10    0.30    6.20
   4  15  10    7.20    5.20
  -8 -16  10   30.20    9.30
   8  16 -10   13.20    8.00
  -8  16  10   18.70    8.40
  -7 -16  10   13.30    7.50
  -7  16  10   23.30    8.70
  -6 -16  10    5.30    6.20
  -6  16  10    4.00    5.40
  -5 -16  10   18.20    8.10
  -5  16  10   22.20    8.60
  -4 -16  10   38.00   10.40
  -4  16  10   39.50   10.40
  -3 -16  10   11.10    6.40
  -3  16  10   14.20    7.30
  -2 -16  10    8.10    5.70
  -2  16  10    9.60    6.50
  -1 -16  10   13.60    7.20
  -1  16  10    4.20    6.50
   0 -16  10    5.90    6.50
   0  16  10   -0.90    6.00
   1 -16  10   83.69   13.50
   1  16  10   63.89   12.20
   2 -16  10   48.00   11.40
   2  16  10   41.00   10.20
  -5  17  10   -2.90    5.40
  -4 -17  10    3.80    7.30
  -4  17  10    1.40    5.80
  -3 -17  10    1.00    5.70
  -3  17  10    1.70    6.20
  -2 -17  10   22.20    8.70
  -2  17  10   12.30    7.70
  -1  17  10   41.20   11.10
  18   0 -11   -7.00    6.90
  17   0 -11   -4.00    4.60
  16   0 -11    2.20    4.70
 -16   0  11    0.50    4.70
  15   0 -11   41.50    9.60
 -14   0  11    0.90    3.90
  14   0 -11   -1.20    3.60
  13   0 -11   28.40    5.80
  13   0 -11   16.80    5.90
 -13   0  11   19.50    5.90
  12   0 -11   -2.90    3.20
 -12   0  11   -0.80    3.40
  12   0 -11   -1.00    2.90
  11   0 -11   20.50    4.60
 -11   0  11    8.70    4.80
  11   0 -11   25.00    6.40
  10   0 -11    1.60    3.60
 -10   0  11    4.80    4.50
  -9   0  11    3.30    3.80
   9   0 -11    3.30    3.20
  -8   0  11   -1.90    3.40
   8   0 -11    4.00    3.50
   7   0 -11   43.00    7.10
  -7   0  11   24.90    6.30
  -6   0  11   -3.70    2.60
  -5   0  11  215.08   14.40
  -4   0  11   -1.30    3.00
  -3   0  11  162.28   12.00
  -2   0  11   -1.00    2.80
  -1   0  11  522.75   22.90
  -1   0  11  494.15   23.60
   0   0  11   -2.70    2.80
   0   0  11   -0.60    2.50
   1   0  11  147.79   11.00
   1   0  11  144.99   10.60
   2   0  11   -0.20    2.70
   2   0  11    0.00    2.70
   3   0  11   38.80    7.20
   3   0  11   50.49    7.30
   4   0  11   -0.70    3.40
   4   0  11   -3.10    2.60
   5   0  11  145.59   14.00
   5   0  11  149.69   10.40
   6   0  11   -0.30    3.90
   7   0  11  245.58   17.30
   8   0  11    7.80    5.00
   9   0  11   96.69   13.00
  10   0  11    2.80    5.30
  11   0  11   95.99   14.00
  18  -1 -11    6.50    6.80
  18   1 -11   -2.60    5.00
  17  -1 -11   -1.40    6.20
  17   1 -11   -5.20    4.80
 -16  -1  11   -1.10    4.40
  16  -1 -11    0.20    5.40
 -16   1  11   -0.90    4.80
  16   1 -11    5.20    5.50
  15  -1 -11   29.30    8.20
  15   1 -11   42.20    9.30
 -15   1  11    8.30    4.70
 -14  -1  11   -2.20    3.50
  14  -1 -11    1.10    4.20
  14   1 -11   -3.80    3.70
 -14   1  11   -0.70    4.50
  14   1 -11   -3.70    3.40
  13  -1 -11    9.60    5.30
 -13  -1  11    2.10    4.30
  13   1 -11    5.90    5.00
  13   1 -11    2.60    3.90
 -13   1  11    8.20    4.90
  12  -1 -11   85.89   11.40
 -12  -1  11   59.59    9.60
  12   1 -11   92.49    9.50
 -12   1  11   90.39   11.40
  12   1 -11   97.09   11.90
 -11  -1  11  231.78   15.60
  11  -1 -11  185.18   17.00
  11   1 -11  195.38   12.30
  11   1 -11  200.08   14.40
 -11   1  11  210.38   15.00
 -10  -1  11  235.38   16.00
  10  -1 -11  214.88   15.20
 -10   1  11  266.07   16.60
  10   1 -11  219.08   15.00
  -9  -1  11  145.59   14.10
   9  -1 -11  153.48   14.30
  -9   1  11  152.18   14.60
   9   1 -11  177.28   12.80
   8  -1 -11  128.39   12.80
  -8  -1  11  139.49   13.30
  -8   1  11  134.09   13.50
   8   1 -11  158.48   14.10
  -7  -1  11  180.58   13.40
   7  -1 -11  221.78   14.00
  -7   1  11  175.08   13.40
  -6  -1  11  145.09   13.60
  -6   1  11  172.98   12.60
  -5  -1  11  116.69   12.20
  -5   1  11  117.89   11.90
  -4  -1  11    9.20    4.30
  -4   1  11   13.70    4.90
  -3  -1  11   32.00    6.50
  -3   1  11   30.60    6.40
  -2  -1  11   47.00    7.50
  -2   1  11   60.39    7.10
  -2   1  11   39.70    6.90
  -1  -1  11   14.60    4.50
  -1   1  11   12.10    3.60
  -1   1  11   10.30    3.90
   0  -1  11   58.49    7.90
   0  -1  11   63.09    8.10
   0   1  11   70.09    8.20
   0   1  11   63.59    8.20
   1  -1  11  255.87   15.00
   1  -1  11  264.67   15.50
   1   1  11  283.17   15.50
   1   1  11  254.67   15.00
   2  -1  11    6.70    3.60
   2  -1  11    8.00    3.80
   2   1  11    4.30    3.60
   2   1  11    5.80    3.60
   3  -1  11  190.18   12.30
   3  -1  11  198.38   13.50
   3   1  11  183.58   11.90
   3   1  11  168.58   14.70
   4  -1  11   47.50    8.00
   4  -1  11   50.69    7.20
   4   1  11   52.39    8.30
   4   1  11   41.10    6.40
   5  -1  11   -2.00    3.40
   5  -1  11   -0.40    3.00
   5   1  11    2.40    3.20
   5   1  11   -0.60    3.60
   6  -1  11   -4.60    3.30
   6   1  11    1.40    3.90
   7  -1  11   32.80    8.00
   7   1  11   39.70    8.10
   8  -1  11   -1.30    3.90
   8   1  11    4.00    4.80
   9  -1  11   24.50    7.40
   9   1  11   14.10    6.10
  10  -1  11    4.70    5.10
  10   1  11    1.30    5.00
  11  -1  11   17.30    7.80
  11   1  11   19.00    7.60
  17  -2 -11    3.00    5.70
  17   2 -11    1.90    5.50
  16  -2 -11    6.00    6.80
 -16  -2  11   -1.20    4.60
  16   2 -11    4.20    5.10
 -16   2  11   -1.60    4.60
  15  -2 -11  105.49   14.40
  15   2 -11  111.89   11.70
 -15   2  11   71.39   11.40
  15   2 -11   81.39   11.70
 -14  -2  11    8.80    5.40
  14  -2 -11    3.50    5.20
  14   2 -11    2.00    5.10
 -14   2  11    2.10    4.70
  14   2 -11    3.10    4.50
 -13  -2  11  170.08   15.90
  13  -2 -11  158.18   16.10
 -13   2  11  113.49   13.30
  13   2 -11  154.78   13.10
  13   2 -11  112.99   13.30
 -12  -2  11   81.39   11.10
  12  -2 -11   86.59   11.50
  12   2 -11   77.79    9.20
  12   2 -11   74.49   10.90
 -12   2  11   77.19   10.80
  11  -2 -11  260.77   17.10
 -11  -2  11  246.08   16.60
  11   2 -11  251.07   16.50
 -11   2  11  237.98   16.40
  11   2 -11  235.48   14.20
  10  -2 -11    8.10    4.30
 -10  -2  11    1.10    3.60
 -10   2  11    0.10    3.40
  10   2 -11   12.20    4.60
  10   2 -11    5.30    3.90
   9  -2 -11   66.99    9.70
  -9  -2  11   76.59   10.50
  -9   2  11   62.09    9.20
   9   2 -11  100.99   11.10
  -8  -2  11   18.20    5.70
   8  -2 -11   12.20    4.40
   8   2 -11   11.70    4.40
  -8   2  11   11.30    4.80
   7  -2 -11  340.27   18.70
  -7  -2  11  340.97   19.20
  -7   2  11  301.57   18.30
  -6  -2  11  138.09   13.10
  -6   2  11  133.49   12.80
  -5  -2  11  260.27   15.90
  -5   2  11  258.87   15.90
  -4  -2  11   56.79    8.30
  -4   2  11   72.39    9.20
  -3  -2  11  991.60   39.50
  -3   2  11  997.60   36.40
  -3   2  11  953.80   39.20
  -2  -2  11   22.30    5.40
  -2   2  11   20.20    5.40
  -2   2  11   12.70    3.70
  -1  -2  11  376.66   19.40
  -1   2  11  365.36   19.30
  -1   2  11  375.86   18.00
   0  -2  11  171.98   11.90
   0   2  11  149.79   11.20
   0   2  11  167.18   11.00
   1  -2  11   35.10    6.30
   1  -2  11   19.50    5.20
   1   2  11   22.50    5.10
   1   2  11   42.60    6.80
   2  -2  11    0.40    3.30
   2  -2  11    1.90    3.00
   2   2  11    1.80    3.10
   2   2  11   -1.50    2.60
   3  -2  11  591.14   26.20
   3  -2  11  621.74   28.30
   3   2  11  572.64   25.50
   3   2  11  613.14   27.60
   4  -2  11   19.20    5.90
   4  -2  11   12.90    4.60
   4   2  11   25.70    6.50
   4   2  11   21.80    4.90
   5  -2  11  137.69   10.40
   5  -2  11  167.48   15.20
   5   2  11  141.99   10.00
   5   2  11  161.38   14.90
   6  -2  11   40.60    8.10
   6   2  11   38.60    8.00
   7  -2  11  187.08   17.40
   7   2  11  231.78   16.70
   8  -2  11   13.10    5.90
   8   2  11   11.60    6.10
   9  -2  11   75.89   11.80
   9   2  11   60.39   10.90
  10  -2  11   44.10    9.70
  10   2  11   71.09   12.20
  11  -2  11   16.00    7.30
  11   2  11   19.50    8.00
  17  -3 -11    2.70    5.20
  17   3 -11    2.60    5.90
  16  -3 -11   32.20    8.70
 -16  -3  11   18.90    7.40
  16   3 -11   17.40    6.50
  16   3 -11   12.40    6.20
 -16   3  11   21.70    7.00
  15  -3 -11   53.69   11.20
  15   3 -11   79.39   11.70
  15   3 -11   82.69   10.90
 -15   3  11   62.99   10.60
  14  -3 -11   82.59   12.30
 -14  -3  11   53.19    9.90
 -14   3  11   51.69    9.50
  14   3 -11   68.09   10.50
  14   3 -11   61.99    9.00
  13  -3 -11   13.60    6.10
 -13  -3  11   22.80    6.70
  13   3 -11   11.00    5.20
 -13   3  11    9.50    5.40
  13   3 -11   19.80    5.70
 -12  -3  11  295.57   18.60
  12  -3 -11  237.88   17.30
  12   3 -11  248.88   15.60
  12   3 -11  261.07   17.20
 -12   3  11  281.97   18.10
  11  -3 -11  118.39   13.30
 -11  -3  11  106.69   12.80
 -11   3  11  157.58   15.00
  11   3 -11  105.49   10.90
  11   3 -11  140.29   13.70
 -10  -3  11    6.10    4.50
  10  -3 -11   -1.60    3.60
  10   3 -11    0.60    3.30
 -10   3  11    2.50    3.90
  10   3 -11    1.80    3.40
   9  -3 -11  265.77   16.60
  -9  -3  11  247.48   16.30
  -9   3  11  254.47   16.50
   9   3 -11  230.58   14.90
   8  -3 -11   -1.00    2.80
  -8  -3  11   -1.40    3.10
  -8   3  11    3.30    3.90
  -7  -3  11  122.49   12.60
   7  -3 -11  161.98   14.30
  -7   3  11  123.99   13.00
   6  -3 -11    3.90    3.50
  -6  -3  11   -0.30    3.30
  -6   3  11    0.10    3.00
  -5  -3  11  470.55   23.50
  -5   3  11  467.75   19.00
  -5   3  11  453.65   23.00
  -4  -3  11   -1.50    3.00
  -4   3  11    6.00    3.70
  -4   3  11    0.30    2.10
  -3  -3  11   19.60    5.30
  -3   3  11   18.80    5.10
  -3   3  11   10.00    3.20
  -2  -3  11  297.17   16.90
  -2   3  11  284.27   16.50
  -2   3  11  281.97   14.40
  -1  -3  11    9.80    4.20
  -1   3  11    4.30    3.20
  -1   3  11    2.40    3.10
   0  -3  11   12.60    4.50
   0   3  11   21.70    5.20
   0   3  11   10.60    3.80
   1  -3  11  698.93   30.30
   1   3  11  712.73   29.70
   1   3  11  708.13   30.00
   2  -3  11   47.60    7.50
   2  -3  11   48.40    7.90
   2   3  11   48.30    7.40
   2   3  11   47.10    7.30
   3  -3  11  239.68   15.90
   3  -3  11  280.37   15.60
   3   3  11  260.17   14.90
   3   3  11  262.37   16.00
   4  -3  11  129.29   13.20
   4  -3  11  141.29   10.70
   4   3  11  153.28   10.60
   4   3  11  130.39   13.00
   5  -3  11   79.89    9.20
   5  -3  11   56.19    9.10
   5   3  11   68.69    9.80
   5   3  11   72.19    8.20
   6  -3  11   36.90    7.80
   6   3  11   33.40    8.00
   7  -3  11   56.69   10.00
   7   3  11   57.69    9.90
   8  -3  11   16.70    6.30
   8   3  11   20.90    7.00
   9  -3  11    3.20    5.00
   9   3  11   -2.00    5.30
  10  -3  11    6.00    5.50
  10   3  11   15.90    7.30
  11  -3  11  167.88   18.10
  11   3  11  126.49   16.50
  17  -4 -11   47.40   11.70
  17   4 -11   60.29   10.50
  17   4 -11   31.40    8.80
 -16  -4  11   36.30    8.70
  16  -4 -11   27.40    8.80
  16   4 -11   31.10    8.50
 -16   4  11   26.80    7.70
  16   4 -11   25.40    7.40
 -15  -4  11   29.90    7.80
  15  -4 -11   22.50    8.00
  15   4 -11   40.60    8.80
  15   4 -11   37.30    7.90
 -15   4  11   48.70    9.80
  14  -4 -11   -3.30    4.60
 -14  -4  11   -1.30    4.10
  14   4 -11   -0.60    4.40
  14   4 -11    0.00    4.40
 -14   4  11   -2.10    4.30
  13  -4 -11    2.10    4.90
 -13  -4  11   -7.10    3.40
  13   4 -11   -1.80    3.30
 -13   4  11   -1.50    4.20
  13   4 -11    1.70    3.90
  12  -4 -11   17.00    6.60
 -12  -4  11   23.10    7.40
  12   4 -11   21.70    6.20
 -12   4  11   30.00    7.30
  12   4 -11   26.10    6.70
  11  -4 -11   -4.90    3.10
 -11  -4  11    0.20    4.00
  11   4 -11   -2.30    2.70
 -11   4  11   -0.50    3.70
  11   4 -11   -2.40    2.90
 -10  -4  11    7.40    4.40
  10  -4 -11    2.30    3.50
  10   4 -11    4.20    4.00
 -10   4  11    3.70    4.70
  10   4 -11    0.10    3.60
   9  -4 -11  103.29   12.00
  -9  -4  11  112.89   12.70
  -9   4  11  156.48   14.90
   9   4 -11  119.99   11.40
   9   4 -11  101.79   11.10
   8  -4 -11   28.60    6.60
  -8  -4  11    8.50    4.90
  -8   4  11   30.60    7.00
   7  -4 -11  122.99   12.50
  -7  -4  11   96.89   11.60
  -7   4  11  128.09   13.30
  -7   4  11  111.39    6.50
  -6  -4  11   20.50    5.90
   6  -4 -11   25.20    5.80
  -6   4  11   34.40    4.20
  -6   4  11   32.40    6.90
  -5  -4  11   82.29   10.30
  -5   4  11   93.29    6.40
  -5   4  11   86.89   10.50
  -4  -4  11  236.68   15.30
  -4   4  11  212.88   14.60
  -4   4  11  248.88   11.80
  -3  -4  11  291.37   17.30
  -3   4  11  303.47   14.30
  -3   4  11  304.87   17.50
  -2  -4  11   52.19    8.20
  -2   4  11   65.29    6.90
  -2   4  11   46.20    7.60
  -1  -4  11  271.67   16.30
  -1   4  11  287.77   16.60
   0  -4  11    9.20    4.10
   0   4  11    5.20    3.50
   0   4  11   12.40    4.20
   1  -4  11    8.20    4.00
   1   4  11    8.60    3.90
   1   4  11    1.60    3.00
   2  -4  11   99.29   10.50
   2   4  11   94.59   10.00
   2   4  11  115.39   11.30
   3  -4  11   37.50    6.90
   3  -4  11   41.30    7.40
   3   4  11   32.80    6.00
   3   4  11   40.70    7.20
   4  -4  11  100.19   10.60
   4  -4  11  128.09   13.00
   4   4  11  103.79   11.80
   4   4  11   88.89    9.60
   5  -4  11   26.40    6.70
   5  -4  11   20.30    5.50
   5   4  11   22.30    5.30
   5   4  11   23.40    6.40
   6  -4  11   21.50    6.40
   6   4  11   27.80    7.20
   7  -4  11  140.29   15.10
   7   4  11  113.79   13.70
   8  -4  11   85.89   12.00
   8   4  11   81.29   12.20
   9  -4  11   67.79   11.00
   9   4  11   47.50   10.20
  10  -4  11   51.19   10.20
  10   4  11   28.50    9.30
  17  -5 -11   41.70   10.60
  17   5 -11   46.80    9.50
  17   5 -11   53.69   10.80
  16  -5 -11    0.90    6.10
 -16  -5  11    4.40    5.30
 -16   5  11   -1.10    3.70
  16   5 -11    3.10    5.10
  16   5 -11    3.20    5.90
 -15  -5  11    5.90    5.80
  15  -5 -11   -0.60    5.50
 -15   5  11    6.70    5.60
  15   5 -11    9.80    5.10
  15   5 -11   11.30    5.90
  14  -5 -11   -2.40    4.20
 -14  -5  11    7.60    5.10
  14   5 -11    4.10    4.40
 -14   5  11    3.80    5.30
  14   5 -11    4.80    5.10
 -13  -5  11    2.20    4.40
  13  -5 -11   -2.00    4.00
  13   5 -11    2.20    4.80
  13   5 -11    0.70    4.80
 -13   5  11    6.00    5.00
 -12  -5  11  189.28   17.00
  12  -5 -11  152.88   16.10
  12   5 -11  165.08   14.80
 -12   5  11  164.48   16.30
  12   5 -11  167.28   15.10
 -11  -5  11   89.09   11.90
  11  -5 -11   85.09   11.60
  11   5 -11   91.79   11.10
  11   5 -11   77.19    9.90
 -11   5  11   62.49   10.10
 -10  -5  11   28.70    7.30
  10  -5 -11   46.70    8.60
  10   5 -11   48.20    7.80
  10   5 -11   33.30    7.00
 -10   5  11   43.10    8.70
   9  -5 -11  210.18   15.00
  -9  -5  11  200.98   14.90
   9   5 -11  212.38   13.90
  -9   5  11  181.58   16.80
  -8  -5  11   25.60    6.60
   8  -5 -11   32.90    7.20
  -8   5  11   32.00    7.10
  -7  -5  11   53.79    8.90
   7  -5 -11   59.79    8.80
  -7   5  11   46.70    8.40
   6  -5 -11   46.60    7.70
  -6  -5  11   48.10    8.50
  -6   5  11   53.79    8.70
  -6   5  11   60.09    5.00
  -5  -5  11   12.10    4.70
  -5   5  11   14.90    3.00
  -5   5  11    4.40    4.00
  -4  -5  11   32.40    7.00
  -4   5  11   22.70    5.90
  -4   5  11   26.70    4.20
  -3  -5  11   24.60    6.10
  -3   5  11   13.60    4.80
  -3   5  11   25.80    4.30
  -2  -5  11   95.59   11.00
  -2   5  11   90.29    8.20
  -2   5  11   97.49   10.90
  -1  -5  11   92.79   10.80
  -1   5  11   91.09    8.80
  -1   5  11  103.99   11.20
   0  -5  11   58.79    8.70
   0   5  11   42.20    7.30
   0   5  11   61.69    7.70
   1  -5  11   38.60    7.50
   1   5  11   20.20    4.90
   1   5  11   34.60    6.60
   2  -5  11    1.30    3.50
   2   5  11   -2.00    2.90
   2   5  11    0.40    3.20
   3  -5  11   17.40    5.60
   3  -5  11    7.70    4.10
   3   5  11    7.00    4.00
   3   5  11   16.40    5.80
   4  -5  11   65.59    8.50
   4  -5  11   54.39    9.20
   4   5  11   67.39    9.50
   4   5  11   60.49    8.20
   5  -5  11  102.69   12.30
   5  -5  11  110.69   11.10
   5   5  11  112.99   10.70
   5   5  11  116.29   13.20
   6  -5  11  260.17   17.60
   6   5  11  246.48   17.40
   7  -5  11   12.00    5.60
   7   5  11    6.50    5.40
   8  -5  11    4.40    5.40
   8   5  11   22.00    7.90
   9  -5  11   -2.70    4.50
   9   5  11   -3.70    5.00
  10  -5  11   20.80    7.50
  10   5  11   20.90    8.70
  17  -6 -11    3.60    6.60
  17   6 -11   -3.40    5.00
 -16  -6  11    2.00    5.10
  16  -6 -11    8.40    7.00
 -16   6  11    1.00    4.70
  16   6 -11    4.50    5.70
  16   6 -11    0.40    5.00
  15  -6 -11   62.19   11.90
 -15  -6  11   68.29   11.10
  15   6 -11   53.49    9.80
 -15   6  11   46.60    9.90
  15   6 -11   64.09    9.90
 -14  -6  11    0.50    4.50
  14  -6 -11    4.60    5.40
  14   6 -11    2.60    4.60
 -14   6  11   -2.00    4.40
  14   6 -11    0.90    4.10
  13  -6 -11  248.68   18.70
 -13  -6  11  258.27   17.90
 -13   6  11  247.98   17.90
  13   6 -11  247.08   17.30
  13   6 -11  214.28   15.40
 -12  -6  11   -0.60    3.90
  12  -6 -11    2.80    4.70
 -12   6  11   -2.20    4.00
  12   6 -11    1.70    3.90
  12   6 -11    0.30    3.60
  11  -6 -11   68.99   10.70
 -11  -6  11   55.09    9.80
  11   6 -11   86.39   11.00
 -11   6  11   70.49   10.70
  11   6 -11   86.39   10.60
  10  -6 -11  246.98   17.30
 -10  -6  11  254.47   17.30
  10   6 -11  241.38   15.80
 -10   6  11  229.68   16.80
  -9  -6  11   19.50    6.10
   9  -6 -11    8.70    4.80
   9   6 -11   21.40    6.10
  -9   6  11   10.30    5.50
  -8  -6  11   13.90    5.40
   8  -6 -11   26.90    6.70
  -8   6  11   21.50    6.10
  -7  -6  11   28.50    7.10
   7  -6 -11   22.50    6.10
  -7   6  11   30.50    7.40
  -6  -6  11    9.10    5.00
   6  -6 -11   11.30    4.40
  -6   6  11    6.00    4.10
  -5  -6  11   53.69    8.80
  -5   6  11   48.20    8.40
  -5   6  11   46.30    4.90
  -4  -6  11    1.20    3.70
  -4   6  11    4.30    3.70
  -4   6  11    3.90    2.20
  -3  -6  11  218.08   14.90
  -3   6  11  195.58   10.80
  -3   6  11  197.48   14.10
  -2  -6  11    3.70    3.80
  -2   6  11    0.60    2.40
  -2   6  11   -1.50    2.80
  -1  -6  11  176.18   13.20
  -1   6  11  175.98   12.90
  -1   6  11  160.38   10.70
   0  -6  11   57.79    8.70
   0   6  11   61.49    8.70
   1  -6  11   -2.00    3.50
   1   6  11   -1.20    3.10
   1   6  11    4.30    3.50
   2  -6  11   38.10    6.90
   2   6  11   36.50    6.70
   2   6  11   31.80    6.50
   3  -6  11  277.47   16.70
   3   6  11  278.87   16.20
   3   6  11  251.67   16.20
   4  -6  11    2.70    3.50
   4  -6  11    5.00    4.70
   4   6  11   12.30    4.80
   4   6  11    3.70    4.00
   5  -6  11   68.59    9.10
   5  -6  11   71.79   10.60
   5   6  11   79.59   11.10
   5   6  11   61.49    8.20
   6  -6  11   17.80    6.40
   6   6  11   21.50    6.80
   7  -6  11   23.10    6.90
   7   6  11   26.40    7.50
   8  -6  11   -0.40    4.50
   8   6  11    3.50    5.40
   9  -6  11   14.80    6.90
   9   6  11   11.80    6.60
  10  -6  11    9.70    6.90
  10   6  11    6.80    7.00
 -16  -7  11   14.10    8.10
  16  -7 -11   54.49   11.70
 -16   7  11   76.59   12.60
  16   7 -11   65.69   11.80
 -15  -7  11   -1.50    5.30
  15  -7 -11    9.00    6.60
  15   7 -11   16.80    6.70
 -15   7  11   -2.20    5.40
 -14  -7  11   24.90    7.80
  14  -7 -11   12.40    6.70
  14   7 -11   17.80    6.80
 -14   7  11    9.70    6.00
  14   7 -11   19.00    7.30
  13  -7 -11    0.30    5.50
 -13  -7  11   11.20    6.00
 -13   7  11    2.00    4.60
  13   7 -11    4.90    5.00
  13   7 -11    2.60    4.60
  12  -7 -11    8.00    5.60
 -12  -7  11   -0.10    5.00
  12   7 -11    4.10    4.50
  12   7 -11    3.00    4.00
 -12   7  11    5.50    4.60
  11  -7 -11    7.30    5.40
 -11  -7  11   20.90    7.00
 -11   7  11   12.10    6.20
  11   7 -11    6.40    4.90
  10  -7 -11   98.09   12.30
 -10  -7  11  104.39   13.00
  10   7 -11  115.59   12.40
 -10   7  11  103.49   13.10
   9  -7 -11   20.50    6.40
  -9  -7  11   14.80    6.00
  -9   7  11   27.70    7.10
   9   7 -11   26.50    6.70
   8  -7 -11  284.87   18.30
  -8  -7  11  292.57   18.80
  -8   7  11  292.77   18.80
   8   7 -11  277.97   17.30
  -7  -7  11   63.79   10.20
   7  -7 -11   62.59    9.20
  -7   7  11   51.49    9.00
   6  -7 -11    3.70    4.20
  -6  -7  11    1.40    3.40
  -6   7  11    4.90    4.10
  -5  -7  11   85.29   11.30
  -5   7  11  108.79   12.30
  -4  -7  11  172.88   15.70
  -4   7  11  158.68    9.00
  -4   7  11  171.78   13.30
  -3  -7  11  123.89   13.20
  -3   7  11  119.69   12.80
  -3   7  11  110.79    7.90
  -2  -7  11   90.49   11.00
  -2   7  11   94.79   11.00
  -2   7  11  104.39    9.00
  -1  -7  11   79.79   10.30
  -1   7  11   66.49    7.70
  -1   7  11   63.59    9.30
   0  -7  11  202.78   14.20
   0   7  11  214.08   14.50
   0   7  11  171.48   12.00
   1  -7  11  136.69   13.20
   1   7  11  109.09   12.20
   1   7  11  131.79   12.10
   2  -7  11    6.60    4.20
   2   7  11    0.20    3.40
   2   7  11    1.30    4.20
   3  -7  11    8.70    4.20
   3   7  11    4.10    4.00
   3   7  11   11.60    4.90
   4  -7  11  113.89   12.20
   4  -7  11  147.79   14.90
   4   7  11  122.49   13.30
   4   7  11  131.09   12.60
   5  -7  11    2.80    4.10
   5  -7  11    4.60    4.00
   5   7  11    1.90    4.80
   5   7  11    1.60    3.60
   6  -7  11  149.59   15.80
   6   7  11  161.78   16.00
   7  -7  11    2.50    4.90
   7   7  11   -1.80    4.20
   8  -7  11   66.39   10.80
   8   7  11   54.49   10.40
   9  -7  11   -0.10    5.30
   9   7  11  -11.30    4.20
  16  -8 -11   -4.30    5.30
  16   8 -11   -3.30    5.50
 -16   8  11   -2.00    5.40
  15  -8 -11    7.20    6.40
 -15  -8  11   10.20    6.50
  15   8 -11    4.60    5.40
 -15   8  11    6.00    6.50
  14  -8 -11    0.00    5.00
 -14  -8  11    1.70    4.80
  14   8 -11    5.50    6.10
 -14   8  11    3.20    5.20
  13  -8 -11    5.90    5.30
 -13  -8  11   -4.00    5.00
 -13   8  11    1.50    4.60
  13   8 -11   -0.90    4.60
 -12  -8  11   17.90    6.60
  12  -8 -11   27.50    8.20
  12   8 -11   37.70    8.70
 -12   8  11   21.10    7.60
 -11  -8  11    8.80    5.60
  11  -8 -11   12.00    5.50
  11   8 -11    3.80    4.90
 -11   8  11   10.70    5.90
 -10  -8  11   25.90    7.50
  10  -8 -11   38.40    8.30
 -10   8  11   38.10    8.70
  10   8 -11   52.29    9.00
  -9  -8  11    6.40    5.70
   9  -8 -11   11.40    5.50
   9   8 -11   12.60    5.70
  -9   8  11    6.00    4.90
   8  -8 -11   13.30    5.50
  -8  -8  11   25.60    7.10
   8   8 -11   30.40    6.90
  -8   8  11   33.10    7.70
  -7  -8  11   26.70    7.00
   7  -8 -11    7.90    4.70
  -7   8  11   19.10    6.20
  -6  -8  11   49.99    9.30
   6  -8 -11   59.09    9.40
  -6   8  11   51.99    9.20
  -5  -8  11    9.90    5.20
  -5   8  11   12.50    5.30
  -4  -8  11    0.10    3.50
  -4   8  11    2.60    3.90
  -3  -8  11   32.70    7.40
  -3   8  11   55.89    6.30
  -3   8  11   50.39    8.80
  -2  -8  11  194.68   14.50
  -2   8  11  200.88   14.70
  -2   8  11  188.28   11.40
  -1  -8  11  154.38   14.60
  -1   8  11  130.69   11.10
  -1   8  11  128.79   13.50
   0  -8  11   32.50    7.50
   0   8  11   25.80    6.80
   0   8  11   22.50    5.30
   1  -8  11  282.37   17.60
   1   8  11  269.97   17.30
   2  -8  11   29.10    7.00
   2   8  11   29.50    6.60
   2   8  11   13.10    5.10
   3  -8  11   66.89   10.10
   3   8  11   89.49   10.60
   3   8  11   90.09   10.90
   4  -8  11    2.70    3.50
   4   8  11    2.30    4.00
   4   8  11    5.10    4.60
   5  -8  11   18.60    6.20
   5  -8  11   17.20    6.20
   5   8  11    9.80    5.40
   5   8  11    7.80    4.80
   6  -8  11    6.20    5.30
   6   8  11    4.50    5.70
   7  -8  11  193.88   18.50
   7   8  11  203.78   19.40
   8  -8  11   -6.00    4.10
   8   8  11    5.00    6.30
   9  -8  11   31.70    8.50
   9   8  11   41.30   10.40
 -15  -9  11   -0.80    4.90
  15  -9 -11    1.10    5.70
  15   9 -11    3.50    5.40
 -15   9  11    3.60    5.80
 -14  -9  11   72.49   12.40
  14  -9 -11   60.99   11.70
  14   9 -11   77.99   12.30
 -14   9  11   75.09   12.40
 -13  -9  11    0.20    4.70
  13  -9 -11    8.10    5.70
  13   9 -11   -2.40    4.80
 -13   9  11   -2.20    4.40
 -12  -9  11   40.50    9.40
  12  -9 -11   43.80    9.30
 -12   9  11   43.30    9.70
  12   9 -11   65.09   10.90
  11  -9 -11   -2.50    4.60
 -11  -9  11    0.10    4.90
 -11   9  11    2.80    5.00
  11   9 -11    2.80    4.80
 -10  -9  11   26.90    7.60
  10  -9 -11   15.00    6.60
  10   9 -11   15.90    6.50
 -10   9  11   17.50    6.80
   9  -9 -11   33.40    7.60
  -9  -9  11   36.70    8.90
  -9   9  11   38.30    8.80
   9   9 -11   20.80    6.60
   8  -9 -11   88.19   11.70
  -8  -9  11   54.09    9.80
   8   9 -11   71.89   10.40
  -8   9  11   69.29   11.10
   7  -9 -11   12.20    5.20
  -7  -9  11    0.60    4.40
  -7   9  11    9.10    5.30
   6  -9 -11   63.09    9.50
  -6  -9  11   71.19   10.90
  -6   9  11   75.49   11.20
  -5  -9  11   -2.60    3.70
  -5   9  11   -1.90    3.70
  -4  -9  11  316.97   20.10
  -4   9  11  345.97   20.80
  -3  -9  11   10.50    5.30
  -3   9  11   14.90    5.90
  -2  -9  11  174.98   16.50
  -2   9  11  195.28   14.80
  -2   9  11  186.18   11.50
  -1  -9  11   15.70    5.80
  -1   9  11   11.70    4.50
  -1   9  11   15.50    6.30
   0  -9  11   14.50    5.60
   0   9  11   14.80    5.50
   0   9  11   14.40    4.70
   1  -9  11    6.30    4.50
   1   9  11   12.50    5.40
   1   9  11    8.30    4.30
   2  -9  11  193.28   14.70
   2   9  11  201.08   14.10
   2   9  11  201.98   14.50
   3  -9  11    7.00    5.00
   3   9  11    9.00    5.10
   3   9  11    6.30    4.60
   4  -9  11   31.30    7.30
   4   9  11   45.50    8.40
   4   9  11   24.70    7.20
   5  -9  11   44.00    8.90
   5  -9  11   37.10    7.60
   5   9  11   46.10    8.30
   5   9  11   33.50    8.40
   6  -9  11  108.29   13.90
   6   9  11   80.19   11.90
   7  -9  11    1.50    5.20
   7   9  11    8.10    6.30
   8  -9  11   74.19   12.00
   8   9  11   63.09   11.70
  15 -10 -11    2.10    5.50
 -15 -10  11    5.20    6.10
  15  10 -11    7.90    7.50
 -15  10  11   -0.20    4.80
 -14 -10  11   54.39   11.40
  14 -10 -11   33.90    9.60
  14  10 -11   33.40    9.30
 -14  10  11   37.70    8.80
 -13 -10  11   25.50    8.60
  13 -10 -11   25.60    8.50
 -13  10  11   29.80    8.50
  13  10 -11   33.50    8.70
  12 -10 -11   -3.40    4.70
 -12 -10  11   -1.30    4.90
 -12  10  11    0.40    4.50
  12  10 -11   -0.80    5.00
  11 -10 -11   27.80    8.30
 -11 -10  11   38.60    9.70
  11  10 -11   30.50    8.60
 -11  10  11   39.40    9.20
  10 -10 -11   13.30    6.60
 -10 -10  11    2.60    4.90
 -10  10  11    8.40    5.50
  10  10 -11   10.20    5.80
   9 -10 -11   23.90    6.90
  -9 -10  11   12.90    6.20
   9  10 -11   25.10    7.20
  -9  10  11   35.80    8.60
   8 -10 -11  116.29   13.50
  -8 -10  11   90.59   12.70
   8  10 -11  133.29   14.20
  -8  10  11  117.49   14.30
   7 -10 -11   55.59    9.20
  -7 -10  11   35.30    8.30
  -7  10  11   52.49    9.80
   6 -10 -11  175.58   15.80
  -6 -10  11  185.08   17.90
  -6  10  11  144.09   15.50
  -5 -10  11   29.90    7.80
  -5  10  11   32.70    7.90
  -4 -10  11   55.09   10.00
  -4  10  11   58.19   10.00
  -3 -10  11  165.88   16.10
  -3  10  11  142.89   15.00
  -2 -10  11   17.60    6.40
  -2  10  11    6.50    4.90
  -1 -10  11   23.30    7.20
  -1  10  11   18.60    5.90
  -1  10  11   11.30    4.60
   0 -10  11   40.20    9.10
   0  10  11   48.40    7.60
   0  10  11   48.40    9.00
   1 -10  11   24.30    6.90
   1  10  11   10.30    5.10
   1  10  11   13.80    5.10
   2 -10  11    1.10    3.70
   2  10  11   16.60    6.30
   2  10  11   12.00    5.50
   3 -10  11   15.40    5.90
   3  10  11   36.20    7.90
   3  10  11   27.80    6.80
   4 -10  11   44.00    8.40
   4  10  11   51.79    9.30
   4  10  11   69.79   10.20
   5 -10  11   90.19   11.40
   5  10  11   77.79   11.80
   5  10  11   66.89    9.80
   6 -10  11   11.50    6.30
   6  10  11   15.20    6.70
   7 -10  11   36.40    8.80
   7  10  11   27.80    8.20
   8 -10  11    2.80    4.80
   8  10  11    4.60    6.70
  14 -11 -11   18.30    8.20
 -14 -11  11   16.50    8.20
  14  11 -11   18.30    8.00
 -14  11  11   14.20    7.00
  13 -11 -11    8.00    6.90
 -13 -11  11    1.20    5.70
 -13  11  11    1.20    4.90
  13  11 -11    7.10    6.60
  12 -11 -11   -0.30    4.80
 -12 -11  11   -3.30    4.90
  12  11 -11   -1.60    5.30
 -12  11  11    5.10    5.90
  11 -11 -11   14.90    6.80
 -11 -11  11   13.70    6.70
  11  11 -11    8.60    5.90
 -11  11  11    9.10    6.20
 -10 -11  11    3.90    5.30
  10 -11 -11    7.00    5.70
 -10  11  11    1.50    4.20
  10  11 -11    2.60    5.00
   9 -11 -11   72.59   11.20
  -9 -11  11   90.69   13.10
   9  11 -11   55.59   10.20
  -9  11  11   80.79   12.30
  -8 -11  11   13.90    6.70
   8 -11 -11   17.50    6.50
   8  11 -11    9.20    5.50
  -8  11  11   11.60    6.20
   7 -11 -11   31.30    7.90
  -7 -11  11   44.50    9.80
  -7  11  11   24.90    7.60
  -6 -11  11    7.10    6.40
   6 -11 -11    6.60    4.60
  -6  11  11   14.30    6.10
  -5 -11  11   30.40    8.10
  -5  11  11   44.90    9.50
  -4 -11  11  265.07   18.60
  -4  11  11  216.98   17.10
  -3 -11  11    9.70    5.70
  -3  11  11   11.30    5.40
  -2 -11  11  174.48   17.40
  -2  11  11  189.68   17.50
  -1 -11  11   -3.20    3.70
  -1  11  11   -2.90    4.60
   0 -11  11  130.19   14.60
   0  11  11  124.09   12.00
   0  11  11  114.89   13.90
   1 -11  11   -0.30    4.20
   1  11  11    8.90    4.80
   1  11  11    5.00    5.20
   2 -11  11    4.50    5.10
   2  11  11   -0.60    2.50
   2  11  11    2.90    5.50
   3 -11  11   43.70    8.80
   3  11  11   48.20    9.00
   3  11  11   66.69   10.50
   4 -11  11   -2.70    4.30
   4  11  11    5.90    5.00
   4  11  11   -1.40    3.90
   5 -11  11  100.39   13.30
   5  11  11  106.39   13.60
   5  11  11   90.39   13.00
   6 -11  11  259.07   22.50
   6  11  11  271.07   19.90
   7 -11  11   17.60    7.40
   7  11  11   18.00    7.30
  13 -12 -11    6.70    6.70
 -13 -12  11   -2.00    4.80
  13  12 -11   14.60    7.60
 -13  12  11   -0.30    5.10
  12 -12 -11   14.90    7.00
 -12 -12  11   -4.20    5.40
  12  12 -11   -4.30    5.20
 -12  12  11    0.80    4.90
  11 -12 -11    4.40    5.50
 -11 -12  11    3.70    5.60
 -11  12  11    0.50    4.90
  11  12 -11    3.20    5.30
  10 -12 -11    7.20    6.10
 -10 -12  11   18.00    8.20
  10  12 -11    7.30    6.20
 -10  12  11   13.70    7.00
  -9 -12  11   -2.40    4.80
   9 -12 -11   -1.60    4.90
   9  12 -11    2.40    5.30
  -9  12  11    0.60    5.10
   8 -12 -11  146.29   15.50
  -8 -12  11  120.09   15.60
  -8  12  11  130.19   15.70
   7 -12 -11    9.80    6.00
  -7 -12  11    8.50    6.30
  -7  12  11    9.40    6.00
  -6 -12  11   26.30    8.30
   6 -12 -11   32.60    7.80
  -6  12  11   36.60    9.30
  -5 -12  11   26.40    7.80
  -5  12  11   36.30    8.70
  -4 -12  11   31.30    8.50
  -4  12  11   37.60    8.90
  -3 -12  11   28.30    8.00
  -3  12  11   16.50    6.70
  -2 -12  11  109.99   14.30
  -2  12  11  145.39   16.00
  -1 -12  11   -1.20    4.70
  -1  12  11    3.40    5.10
   0 -12  11   47.30    9.70
   0  12  11   43.80    9.30
   1 -12  11   71.09   11.50
   1  12  11   73.09    9.90
   1  12  11   78.99   11.30
   2 -12  11   46.70    9.50
   2  12  11   38.10    7.90
   2  12  11   48.20    9.30
   3 -12  11   -3.10    4.70
   3  12  11    3.50    5.50
   3  12  11    3.30    4.80
   4 -12  11   40.00    9.10
   4  12  11   30.20    7.70
   4  12  11   44.80    8.80
   5 -12  11   37.30    8.60
   5  12  11   44.60    9.70
   5  12  11   36.70   10.50
   6 -12  11    8.60    6.70
   6  12  11    0.90    6.20
  12 -13 -11   32.70   10.40
 -12 -13  11   16.80    7.50
  12  13 -11   16.60    7.80
 -12  13  11   17.70    7.30
  11 -13 -11    5.90    5.90
 -11 -13  11   -4.10    4.70
  11  13 -11   -3.10    5.80
 -11  13  11    3.80    5.80
 -10 -13  11   73.79   12.70
  10 -13 -11   52.89   10.70
 -10  13  11   60.89   12.10
  10  13 -11   47.60   10.90
  -9 -13  11   16.80    7.40
   9 -13 -11   18.20    7.00
  -9  13  11   16.60    7.50
   9  13 -11   12.60    6.70
  -8 -13  11    3.60    5.90
   8 -13 -11    3.00    5.10
  -8  13  11   -1.10    5.00
   7 -13 -11   -2.50    4.40
  -7 -13  11    7.70    6.40
  -7  13  11   -1.10    4.50
  -6 -13  11   27.50    8.20
  -6  13  11   21.20    7.50
  -5 -13  11    6.60    5.60
  -5  13  11    1.70    5.30
  -4 -13  11  126.09   15.60
  -4  13  11  101.79   14.50
  -3 -13  11   -0.60    4.30
  -3  13  11    1.80    4.50
  -2 -13  11  102.09   13.80
  -2  13  11  109.99   14.30
  -1 -13  11   21.50    7.20
  -1  13  11   17.20    6.90
   0 -13  11   15.40    6.60
   0  13  11   10.90    6.00
   1 -13  11    7.70    5.60
   1  13  11   21.60    7.20
   2 -13  11    7.90    5.90
   2  13  11   12.60    5.80
   2  13  11    7.40    5.10
   3 -13  11   -4.50    4.10
   3  13  11    1.30    4.40
   3  13  11   -4.40    5.20
   4 -13  11   49.70   10.20
   4  13  11   34.50    9.10
   4  13  11   39.60    9.50
   5 -13  11    2.40    5.30
   5  13  11    6.80    5.70
  11 -14 -11    6.60    6.50
 -11 -14  11    8.30    7.20
 -11  14  11   11.30    6.90
  11  14 -11   21.50    8.50
  10 -14 -11   38.20    9.50
 -10 -14  11   27.00    9.20
  10  14 -11   43.90   10.30
 -10  14  11   24.80    8.60
   9 -14 -11    1.30    5.60
  -9 -14  11   -4.60    5.40
   9  14 -11    3.50    6.00
  -9  14  11    3.70    5.80
  -8 -14  11   37.80   10.30
   8 -14 -11   41.00    9.50
  -8  14  11   27.10    8.90
  -7 -14  11    1.60    5.70
   7 -14 -11   -1.40    4.80
  -7  14  11    6.60    6.00
  -6 -14  11    9.10    6.50
  -6  14  11    3.50    5.10
  -5 -14  11   21.60    7.90
  -5  14  11   21.40    7.70
  -4 -14  11   -0.10    4.90
  -4  14  11   -0.80    5.00
  -3 -14  11    3.30    5.10
  -3  14  11   11.70    6.80
  -2 -14  11   28.60    8.00
  -2  14  11   21.10    8.30
  -1 -14  11   -1.20    4.50
  -1  14  11    0.30    4.90
   0 -14  11   48.80   10.10
   0  14  11   57.29   11.00
   1 -14  11   -1.40    4.90
   1  14  11    5.70    5.60
   2 -14  11   38.30    9.40
   2  14  11   44.60    9.80
   3 -14  11   33.00    9.50
   3  14  11   22.70    7.40
   4 -14  11  118.39   15.60
   4  14  11  123.69   14.50
   4  14  11  104.69   14.30
  -9 -15  11    5.60    7.10
   9 -15 -11    6.90    6.00
  -9  15  11    9.00    7.50
   9  15 -11    2.10    6.10
   8 -15 -11   16.00    7.70
  -8 -15  11    4.50    6.70
  -8  15  11   13.20    8.20
   7 -15 -11   20.50    7.90
  -7 -15  11   16.90    7.90
  -7  15  11   19.90    8.40
  -6 -15  11   -2.80    6.10
  -6  15  11    1.10    5.50
  -5 -15  11   42.10    9.90
  -5  15  11   34.50    9.40
  -4 -15  11    8.70    6.60
  -4  15  11   10.20    6.70
  -3 -15  11    3.40    5.90
  -3  15  11   -1.20    5.20
  -2 -15  11   61.99   11.60
  -2  15  11   76.49   12.60
  -1 -15  11   18.20    7.60
  -1  15  11    6.70    6.40
   0 -15  11   81.39   13.10
   0  15  11   70.59   12.20
   1 -15  11   -4.30    4.80
   1  15  11    1.60    6.00
   2 -15  11   25.00    8.10
   2  15  11   18.10    8.00
   3  15  11    0.50    5.80
  -7 -16  11   10.10    7.70
  -7  16  11   23.40    8.70
  -6 -16  11   -0.50    5.50
  -6  16  11   -0.70    5.30
  -5 -16  11    0.50    5.40
  -5  16  11    6.40    7.40
  -4 -16  11    3.00    5.50
  -4  16  11    9.30    6.50
  -3 -16  11   21.10    8.50
  -3  16  11   19.40    7.70
  -2 -16  11   69.99   12.70
  -2  16  11   71.79   12.80
  -1 -16  11   -2.90    5.10
  -1  16  11    1.70    5.90
   0 -16  11   90.29   14.90
   0  16  11   60.39   12.00
  17   0 -12    5.60    5.60
 -16   0  12    0.40    4.30
  16   0 -12    7.70    5.70
 -15   0  12    0.70    4.80
  15   0 -12   -0.60    4.60
  14   0 -12   46.40    9.60
 -14   0  12   36.50    8.30
  13   0 -12    1.90    4.20
 -13   0  12   -2.00    4.20
  12   0 -12   -2.70    3.30
 -12   0  12    3.40    5.10
 -11   0  12   -1.40    3.60
  11   0 -12   -1.30    3.30
 -10   0  12   48.80    8.70
  10   0 -12   30.70    7.10
   9   0 -12   -0.70    3.00
  -9   0  12    2.80    4.30
  -8   0  12    2.60    4.00
   8   0 -12    0.60    3.40
  -7   0  12   -1.30    3.10
  -6   0  12  488.05   24.60
  -5   0  12   -0.80    3.00
  -4   0  12  220.58   14.90
  -3   0  12   -2.90    2.80
  -2   0  12   15.10    5.00
  -1   0  12   -5.70    2.00
  -1   0  12   -1.30    2.60
   0   0  12  113.49   11.60
   0   0  12   98.99   10.60
   1   0  12   -1.00    2.60
   1   0  12    2.20    3.30
   2   0  12  133.79   12.90
   2   0  12  118.59   11.60
   3   0  12   -2.30    3.00
   3   0  12   -3.10    2.80
   4   0  12    7.90    4.30
   4   0  12   -0.80    4.00
   5   0  12    1.30    3.80
   6   0  12   46.00    8.80
   7   0  12    4.60    5.20
   8   0  12   85.99   12.30
   9   0  12   -4.90    4.50
  10   0  12  125.49   15.90
  17  -1 -12    3.20    5.80
  17   1 -12    4.30    5.00
 -16  -1  12    2.60    4.30
  16  -1 -12    1.10    5.40
  16   1 -12    2.00    5.30
 -16   1  12    7.00    5.30
  15  -1 -12   65.09   11.80
 -15  -1  12   70.49   11.30
 -15   1  12   45.40    9.40
  15   1 -12   93.79   13.00
  14  -1 -12   28.00    8.70
 -14  -1  12    1.90    5.30
  14   1 -12   13.50    6.00
 -14   1  12    5.40    4.90
 -13  -1  12   10.90    5.40
  13  -1 -12    2.20    4.60
 -13   1  12    7.30    5.00
  13   1 -12    8.10    5.40
  13   1 -12    5.80    4.30
  12  -1 -12   -1.50    3.40
 -12  -1  12   -1.20    4.00
  12   1 -12    0.00    4.30
 -12   1  12   -2.50    3.90
  12   1 -12   -0.50    3.30
 -11  -1  12    8.50    5.30
  11  -1 -12    0.30    3.90
 -11   1  12    0.40    3.90
  11   1 -12    4.30    4.30
  10  -1 -12  280.97   18.30
 -10  -1  12  305.37   19.10
  10   1 -12  315.17   18.60
 -10   1  12  304.47   19.00
   9  -1 -12   47.20    8.30
  -9  -1  12   46.50    8.80
   9   1 -12   60.09    9.10
  -9   1  12   84.79   11.30
   8  -1 -12  271.67   17.10
  -8  -1  12  260.97   17.30
  -8   1  12  296.57   18.20
  -7  -1  12   67.49    9.50
  -7   1  12   80.39   10.40
  -6  -1  12  121.39   12.90
  -6   1  12  107.69   11.90
  -5  -1  12    1.60    3.00
  -5   1  12   -2.10    2.80
  -4  -1  12   22.80    6.00
  -4   1  12   24.80    6.20
  -3  -1  12  104.99   11.60
  -3   1  12  146.29   13.50
  -2  -1  12   78.79   10.00
  -2   1  12  110.99   10.10
  -2   1  12   94.79   10.60
  -1  -1  12   27.50    6.10
  -1   1  12   33.30    6.00
  -1   1  12   32.50    6.50
   0  -1  12  355.06   18.80
   0  -1  12  369.56   19.20
   0   1  12  327.07   18.40
   0   1  12  333.87   18.00
   1  -1  12    2.50    3.30
   1  -1  12   -3.60    2.30
   1   1  12    0.00    3.10
   1   1  12   -3.70    2.30
   2  -1  12  284.07   17.00
   2  -1  12  256.07   15.80
   2   1  12  294.87   16.30
   2   1  12  262.07   16.40
   3  -1  12  140.69   13.60
   3  -1  12  128.39   12.20
   3   1  12  130.09   12.90
   3   1  12  136.29   12.10
   4  -1  12   27.10    6.00
   4  -1  12   13.20    5.30
   4   1  12   33.60    6.20
   4   1  12   25.50    6.40
   5  -1  12   11.80    5.40
   5   1  12    3.30    4.30
   6  -1  12   -0.90    3.60
   6   1  12   -2.20    3.90
   7  -1  12    4.30    4.60
   7   1  12   -0.40    4.00
   8  -1  12    1.00    5.00
   8   1  12   10.90    5.40
   9  -1  12   -2.00    4.20
   9   1  12   -5.70    5.00
  10  -1  12   29.30    8.20
  10   1  12   18.60    7.90
  17  -2 -12   28.00    8.80
  17   2 -12   22.50    8.50
 -16  -2  12   18.90    6.10
  16  -2 -12   47.30   10.70
 -16   2  12   60.49   10.70
  16   2 -12   56.19   10.50
 -15  -2  12   23.10    7.30
  15  -2 -12    4.70    5.50
  15   2 -12    2.50    5.20
 -15   2  12   18.90    6.90
  14  -2 -12   13.20    6.10
 -14  -2  12   10.80    6.20
  14   2 -12   18.90    6.00
 -14   2  12   19.00    6.40
  14   2 -12   21.60    7.30
 -13  -2  12    8.10    5.10
  13  -2 -12    3.20    5.20
  13   2 -12    2.80    4.80
  13   2 -12   -1.00    3.80
 -13   2  12    6.10    4.90
 -12  -2  12  133.99   14.50
  12  -2 -12  135.19   15.10
 -12   2  12  126.89   14.30
  12   2 -12  169.78   15.90
  12   2 -12  145.99   12.70
 -11  -2  12   25.30    6.90
  11  -2 -12   23.00    6.70
  11   2 -12   23.90    6.50
 -11   2  12   21.70    6.70
  10  -2 -12  454.75   23.70
 -10  -2  12  413.46   23.40
  10   2 -12  411.46   22.70
 -10   2  12  438.76   23.80
  -9  -2  12   14.40    5.90
   9  -2 -12    9.20    5.00
  -9   2  12   12.40    5.40
   9   2 -12   13.30    4.90
  -8  -2  12  119.19   13.10
   8  -2 -12  103.09   11.80
  -8   2  12  126.69   13.40
  -7  -2  12   65.79    9.50
   7  -2 -12   41.00    7.50
  -7   2  12   54.29    8.70
  -6  -2  12  317.57   19.20
  -6   2  12  350.96   19.70
  -5  -2  12   40.40    7.50
  -5   2  12   33.10    6.80
  -4  -2  12   64.09    9.00
  -4   2  12   47.80    6.30
  -4   2  12   48.10    8.10
  -3  -2  12   29.90    6.60
  -3   2  12   36.90    7.10
  -3   2  12   31.10    5.30
  -2  -2  12   72.49    9.60
  -2   2  12   60.79    9.10
  -2   2  12   56.99    7.40
  -1  -2  12   43.70    7.40
  -1   2  12   34.40    7.00
  -1   2  12   35.70    6.10
   0  -2  12    2.60    3.40
   0   2  12    0.20    3.50
   0   2  12    1.30    3.70
   1  -2  12   87.39   10.30
   1  -2  12   67.29    9.20
   1   2  12   94.89   10.40
   1   2  12   88.19   10.10
   2  -2  12   10.10    4.50
   2  -2  12    9.90    4.30
   2   2  12   11.20    4.50
   2   2  12    7.60    4.10
   3  -2  12   66.29    9.60
   3  -2  12   56.39    8.40
   3   2  12   74.49    9.70
   3   2  12   51.39    7.80
   4  -2  12    5.50    4.00
   4  -2  12    5.50    4.10
   4   2  12    2.40    3.30
   4   2  12    1.30    4.20
   5  -2  12   -1.80    4.00
   5  -2  12   -2.40    6.70
   5   2  12   -2.60    3.90
   6  -2  12   93.09   12.20
   6   2  12   89.89   12.00
   7  -2  12   37.20    8.40
   7   2  12   48.10    9.10
   8  -2  12   98.39   13.00
   8   2  12   93.79   13.30
   9  -2  12   32.30    8.50
   9   2  12   11.50    6.30
  10  -2  12   95.69   13.90
  10   2  12   73.39   12.60
  17  -3 -12   -1.00    5.90
  17   3 -12    4.80    6.10
 -16  -3  12   13.30    6.50
  16  -3 -12   47.00   10.70
  16   3 -12   32.00    8.80
 -16   3  12   23.80    7.70
 -15  -3  12    2.40    4.90
  15  -3 -12    3.40    5.60
  15   3 -12    5.90    4.70
  15   3 -12    4.30    5.30
 -15   3  12   11.20    6.10
 -14  -3  12   37.20    8.50
  14  -3 -12   41.80    9.60
 -14   3  12   25.60    7.80
  14   3 -12   33.00    7.10
  14   3 -12   28.50    7.40
  13  -3 -12  155.28   16.60
 -13  -3  12  137.39   15.30
  13   3 -12  158.18   15.90
  13   3 -12  162.38   14.30
 -13   3  12  172.38   16.90
 -12  -3  12    5.80    5.10
  12  -3 -12    1.80    4.40
  12   3 -12    8.10    4.50
  12   3 -12    6.70    4.80
 -12   3  12    3.70    4.60
 -11  -3  12   23.30    6.90
  11  -3 -12   34.20    7.80
  11   3 -12   21.40    5.40
  11   3 -12   28.40    7.00
 -11   3  12   27.70    7.60
 -10  -3  12   70.39   10.60
  10  -3 -12   69.89   10.50
 -10   3  12   60.69    9.90
  10   3 -12   92.79   11.10
  -9  -3  12   -1.30    4.20
   9  -3 -12    0.50    3.90
  -9   3  12    3.40    4.20
  -8  -3  12  155.48   15.20
   8  -3 -12  143.09   13.80
  -8   3  12  146.39   14.60
   7  -3 -12   -0.10    3.40
  -7  -3  12    6.60    4.50
  -7   3  12   -0.90    3.50
  -6  -3  12  193.88   14.30
  -6   3  12  200.98   14.40
  -5  -3  12  178.38   13.30
  -5   3  12  169.68   13.10
  -5   3  12  167.78   10.00
  -4  -3  12   52.49    8.50
  -4   3  12   46.40    5.90
  -4   3  12   65.19    9.50
  -3  -3  12   96.09   11.30
  -3   3  12  109.69   12.00
  -3   3  12  107.19    9.50
  -2  -3  12  187.68   13.50
  -2   3  12  180.78   13.20
  -1  -3  12  154.78   12.30
  -1   3  12  170.48   11.30
  -1   3  12  186.68   12.90
   0  -3  12  436.16   22.30
   0   3  12  440.46   22.20
   0   3  12  464.35   21.70
   1  -3  12    9.40    4.40
   1   3  12   16.90    4.80
   1   3  12   13.00    4.70
   2  -3  12    3.30    3.70
   2  -3  12    2.00    3.60
   2   3  12   -0.70    3.40
   2   3  12    7.40    4.20
   3  -3  12    4.20    3.90
   3  -3  12    4.10    3.90
   3   3  12    3.90    4.10
   3   3  12    7.30    4.40
   4  -3  12   62.59    9.60
   4  -3  12   65.99    8.90
   4   3  12   80.59   10.30
   4   3  12   55.99    8.00
   5  -3  12  166.08   16.00
   5  -3  12  188.88   14.60
   5   3  12  163.28   15.60
   6  -3  12   21.30    6.40
   6   3  12   24.80    6.90
   7  -3  12   -0.90    3.70
   7   3  12   -3.40    3.60
   8  -3  12    2.70    4.70
   8   3  12    7.30    5.90
   9  -3  12   -0.40    4.80
   9   3  12   -2.30    5.00
  10  -3  12   50.69   10.70
  10   3  12   51.99   11.50
  17  -4 -12   47.00   11.70
  17   4 -12   60.39   11.50
  16  -4 -12   -3.40    5.00
 -16  -4  12   -0.20    5.10
 -16   4  12    3.80    5.60
  16   4 -12    4.20    4.80
  16   4 -12   -0.40    5.50
  15  -4 -12   12.80    6.40
 -15  -4  12   10.80    6.30
 -15   4  12    6.80    5.70
  15   4 -12    8.80    5.40
  15   4 -12    8.00    5.20
 -14  -4  12    2.70    5.40
  14  -4 -12    9.10    5.80
  14   4 -12    6.40    5.40
  14   4 -12   19.00    7.00
 -14   4  12    4.90    5.20
 -13  -4  12    5.50    5.10
  13  -4 -12   -2.10    4.50
 -13   4  12    3.30    4.60
  13   4 -12    6.20    5.00
  13   4 -12    0.60    4.10
  12  -4 -12    6.90    5.30
 -12  -4  12    4.50    5.50
  12   4 -12    4.20    4.60
 -12   4  12   -0.50    4.40
  12   4 -12    5.20    4.10
  11  -4 -12   -0.80    3.90
 -11  -4  12    3.80    5.10
  11   4 -12   -4.30    3.00
 -11   4  12    2.50    4.50
  11   4 -12    0.60    4.10
  10  -4 -12  136.49   14.80
 -10  -4  12  152.18   15.40
  10   4 -12  175.08   14.90
 -10   4  12  149.49   15.40
   9  -4 -12  247.28   16.70
  -9  -4  12  233.28   16.40
  -9   4  12  206.98   15.90
  -8  -4  12   98.79   12.20
   8  -4 -12   92.59   11.50
  -8   4  12   89.49   11.50
   7  -4 -12   51.09    8.60
  -7  -4  12   66.79    9.80
  -7   4  12   60.69    9.50
  -7   4  12   57.29    5.60
  -6  -4  12   24.50    6.60
  -6   4  12   14.10    5.20
  -6   4  12   17.50    3.50
  -5  -4  12   13.50    5.30
  -5   4  12   14.90    3.40
  -5   4  12    9.80    5.00
  -4  -4  12  553.64   26.70
  -4   4  12  540.35   22.10
  -4   4  12  531.05   26.30
  -3  -4  12   83.59   10.50
  -3   4  12   90.99    8.40
  -3   4  12   81.19   10.30
  -2  -4  12  278.97   17.10
  -2   4  12  279.87   14.70
  -2   4  12  280.57   17.10
  -1  -4  12   20.30    5.60
  -1   4  12   29.20    6.50
  -1   4  12    5.00    3.00
   0  -4  12  164.78   12.80
   0   4  12  154.98   14.00
   0   4  12  140.39   12.30
   1  -4  12  179.38   13.50
   1   4  12  183.58   13.20
   1   4  12  193.98   13.20
   2  -4  12  225.68   15.30
   2  -4  12  192.28   13.80
   2   4  12  214.48   14.10
   2   4  12  217.98   14.30
   3  -4  12  228.08   15.20
   3  -4  12  262.57   17.20
   3   4  12  258.37   16.20
   3   4  12  246.58   14.90
   4  -4  12    4.00    4.20
   4  -4  12    1.50    4.00
   4   4  12    2.40    4.10
   4   4  12    4.90    3.70
   5  -4  12   11.60    5.20
   5  -4  12   17.30    5.60
   5   4  12   13.90    6.10
   6  -4  12   -1.60    3.60
   6   4  12    8.80    5.60
   7  -4  12   36.10    8.80
   7   4  12   22.10    7.30
   8  -4  12   28.10    8.20
   8   4  12   28.10    8.30
   9  -4  12    1.10    4.50
   9   4  12    7.00    6.00
  17  -5 -12   24.70    9.00
  17   5 -12   48.40    9.90
  17   5 -12   44.50    9.80
 -16  -5  12    3.70    6.10
  16  -5 -12   -2.00    5.90
  16   5 -12    3.00    5.30
  16   5 -12    0.00    5.40
 -16   5  12   -4.80    5.30
 -15  -5  12    5.10    5.60
  15  -5 -12   14.50    7.00
 -15   5  12    7.60    5.60
  15   5 -12    4.80    5.10
  15   5 -12    5.30    5.60
  14  -5 -12   -4.50    3.70
 -14  -5  12   -2.90    5.50
 -14   5  12    1.40    5.30
  14   5 -12   -3.20    3.90
  14   5 -12   -0.20    3.60
  13  -5 -12   11.50    6.20
 -13  -5  12    6.30    5.40
  13   5 -12   11.70    5.80
  13   5 -12   16.10    5.90
 -13   5  12   27.30    7.70
  12  -5 -12   63.99   10.90
 -12  -5  12   60.39   10.30
  12   5 -12   69.79    9.90
 -12   5  12   61.79   10.40
  12   5 -12   82.39   10.60
  11  -5 -12    2.50    4.70
 -11  -5  12    1.60    4.30
 -11   5  12    0.30    4.90
  11   5 -12    3.00    4.10
  11   5 -12   -5.30    3.10
 -10  -5  12   99.19   12.70
  10  -5 -12   86.69   11.70
 -10   5  12   88.59   12.20
  10   5 -12   90.29   10.70
  -9  -5  12   30.00    7.50
   9  -5 -12   32.10    7.10
  -9   5  12   19.30    6.50
   8  -5 -12  160.28   15.40
  -8  -5  12  177.88   16.50
  -8   5  12  184.48   17.10
   7  -5 -12   -1.20    3.50
  -7  -5  12    9.70    5.20
  -7   5  12    3.60    4.30
  -6  -5  12   24.30    6.50
  -6   5  12   27.10    6.90
  -6   5  12   25.30    3.80
  -5  -5  12    7.00    4.30
  -5   5  12   11.00    2.90
  -5   5  12   10.40    4.60
  -4  -5  12    0.50    3.50
  -4   5  12    6.80    4.50
  -4   5  12    6.60    2.90
  -3  -5  12   29.50    7.20
  -3   5  12   20.50    4.50
  -3   5  12   29.10    6.60
  -2  -5  12   88.19   11.10
  -2   5  12   64.49    7.60
  -2   5  12   80.19   10.30
  -1  -5  12   65.49    9.60
  -1   5  12   61.69    7.70
  -1   5  12   56.29    8.70
   0  -5  12  139.49   14.00
   0   5  12  143.69   12.30
   0   5  12  158.58   12.20
   1  -5  12   83.19   10.50
   1   5  12   91.69   10.70
   1   5  12   73.49    9.40
   2  -5  12   70.89    9.50
   2   5  12   65.79    8.90
   2   5  12   61.09    8.90
   3  -5  12   84.39   11.30
   3  -5  12   95.49   11.00
   3   5  12   98.39   11.90
   3   5  12  116.19   11.70
   4  -5  12   88.29   10.70
   4  -5  12   75.89   10.90
   4   5  12  101.49   11.90
   4   5  12   78.39    9.70
   5  -5  12   36.90    7.10
   5  -5  12   43.50    8.60
   5   5  12   21.00    6.60
   6  -5  12   35.20    8.50
   6   5  12   47.30    9.20
   7  -5  12   18.60    6.70
   7   5  12    7.20    6.10
   8  -5  12    1.80    5.10
   8   5  12    8.00    6.10
   9  -5  12   47.60   10.20
   9   5  12   54.39   10.90
 -16  -6  12   62.99   11.30
  16  -6 -12   52.99   12.00
 -16   6  12   20.80    8.50
  16   6 -12   40.90    9.40
  15  -6 -12   -1.80    4.80
 -15  -6  12   -3.60    5.20
  15   6 -12    4.10    4.00
 -15   6  12    3.40    5.70
  15   6 -12   -5.20    5.60
  14  -6 -12    2.00    5.00
 -14  -6  12   15.90    6.70
 -14   6  12   18.20    7.10
  14   6 -12    1.50    4.20
  14   6 -12   11.10    5.60
  13  -6 -12    0.60    4.60
 -13  -6  12    8.00    5.30
  13   6 -12    4.20    5.20
  13   6 -12    2.30    3.50
 -13   6  12    8.60    5.30
 -12  -6  12    1.90    4.80
  12  -6 -12   -0.50    4.40
 -12   6  12    3.60    4.90
  12   6 -12    0.70    2.90
  12   6 -12    2.00    4.40
  11  -6 -12   33.10    8.10
 -11  -6  12   35.80    8.70
  11   6 -12   33.90    7.40
 -11   6  12   31.40    8.00
  10  -6 -12    8.80    5.00
 -10  -6  12    2.70    4.70
 -10   6  12    4.20    4.70
  10   6 -12    0.60    4.60
  -9  -6  12  106.69   13.10
   9  -6 -12   99.19   12.50
  -9   6  12  102.59   13.10
   8  -6 -12  166.88   15.90
  -8  -6  12  167.08   16.50
  -8   6  12  184.28   17.20
  -7  -6  12   -1.00    3.90
   7  -6 -12   10.00    5.00
  -7   6  12   12.80    5.00
  -6  -6  12  155.28   15.40
  -6   6  12  146.19   14.80
  -5  -6  12    2.80    4.00
  -5   6  12   -1.60    3.30
  -5   6  12    1.00    2.20
  -4  -6  12    1.50    3.70
  -4   6  12    0.70    3.60
  -4   6  12   -1.90    2.00
  -3  -6  12    5.50    4.30
  -3   6  12    5.90    3.20
  -3   6  12    0.70    3.60
  -2  -6  12   26.50    6.60
  -2   6  12   27.10    5.20
  -2   6  12   29.20    7.00
  -1  -6  12   19.80    6.00
  -1   6  12   20.10    6.00
  -1   6  12   19.40    4.90
   0  -6  12    7.90    4.90
   0   6  12   -1.20    2.20
   0   6  12    0.10    3.90
   1  -6  12  255.57   16.30
   1   6  12  245.58   16.10
   1   6  12  219.98   14.40
   2  -6  12   36.80    7.30
   2   6  12   27.30    6.50
   2   6  12   20.20    6.00
   3  -6  12   76.79   10.30
   3   6  12   72.09   10.00
   3   6  12   65.79    8.90
   4  -6  12    5.40    4.80
   4  -6  12   10.80    4.80
   4   6  12   21.00    5.90
   4   6  12   14.20    5.70
   5  -6  12  182.08   13.50
   5  -6  12  160.78   16.20
   5   6  12  186.08   17.20
   6  -6  12    3.30    4.80
   6   6  12   -3.00    4.00
   7  -6  12   16.70    7.00
   7   6  12   16.10    6.70
   8  -6  12   95.39   13.80
   8   6  12  112.49   15.00
   9  -6  12    6.80    5.60
   9   6  12    2.00    5.60
  16  -7 -12    6.80    6.70
 -16  -7  12    6.60    7.20
 -16   7  12    1.70    6.20
  16   7 -12   10.00    7.60
 -15  -7  12    0.80    4.90
  15  -7 -12    4.70    6.50
  15   7 -12   12.30    6.50
 -15   7  12   -5.00    3.50
 -14  -7  12    5.10    5.20
  14  -7 -12    1.10    5.30
  14   7 -12    4.20    5.30
  14   7 -12   -1.70    4.90
 -14   7  12    3.30    5.70
 -13  -7  12   35.70    8.90
  13  -7 -12   49.99   10.30
  13   7 -12   35.10    7.80
 -13   7  12   47.80    9.70
  13   7 -12   50.29    9.50
  12  -7 -12   66.69   11.40
 -12  -7  12   87.89   12.70
 -12   7  12   99.39   13.40
  12   7 -12  103.19   12.40
  11  -7 -12   11.80    6.00
 -11  -7  12   13.80    6.10
  11   7 -12   21.70    7.10
 -11   7  12   16.20    6.80
  10  -7 -12   55.39    9.70
 -10  -7  12   37.00    8.40
 -10   7  12   59.99   10.30
  10   7 -12   46.40    8.60
  -9  -7  12   12.30    6.00
   9  -7 -12   13.10    5.80
  -9   7  12   20.10    6.40
   8  -7 -12   34.90    7.70
  -8  -7  12   33.30    7.80
  -8   7  12   31.70    7.70
   7  -7 -12   39.60    7.70
  -7  -7  12   40.30    8.50
  -7   7  12   30.70    7.50
  -6  -7  12   -2.20    3.90
  -6   7  12   -2.40    3.40
  -5  -7  12  235.98   16.70
  -5   7  12  229.28   16.40
  -4  -7  12   32.80    7.90
  -4   7  12   28.90    4.80
  -4   7  12   41.70    8.10
  -3  -7  12   -1.60    3.70
  -3   7  12   -0.60    3.60
  -3   7  12   -0.70    2.50
  -2  -7  12   94.29   12.20
  -2   7  12   92.99    8.90
  -2   7  12   71.89   10.40
  -1  -7  12   62.59    9.60
  -1   7  12   66.29    8.20
  -1   7  12   72.89   10.50
   0  -7  12  326.37   19.90
   0   7  12  313.37   19.00
   0   7  12  327.77   17.30
   1  -7  12   15.30    5.80
   1   7  12   24.00    6.60
   1   7  12   18.00    5.70
   2  -7  12    6.90    4.60
   2   7  12   12.60    5.00
   2   7  12   17.10    5.80
   3  -7  12   83.99   10.90
   3   7  12   78.89   10.30
   3   7  12   96.09   11.60
   4  -7  12   -2.40    3.90
   4  -7  12   -3.40    3.40
   4   7  12    4.70    4.00
   4   7  12   -2.60    3.70
   5  -7  12  150.78   14.40
   5  -7  12  137.79   15.20
   5   7  12  145.49   15.20
   6  -7  12   10.50    6.20
   6   7  12    2.30    4.80
   7  -7  12   15.00    7.00
   7   7  12   16.50    6.90
   8  -7  12    1.00    4.60
   8   7  12    2.00    5.60
  15  -8 -12    3.50    5.90
 -15  -8  12   -1.00    6.00
  15   8 -12   -5.10    5.90
 -15   8  12   -0.60    5.70
  14  -8 -12    4.20    5.70
 -14  -8  12   -0.70    5.40
 -14   8  12   -1.60    5.20
  14   8 -12    0.90    5.50
 -13  -8  12    3.00    6.20
  13  -8 -12   -0.60    4.90
 -13   8  12   -2.80    4.30
  13   8 -12   -0.90    4.60
  12  -8 -12   28.30    8.10
 -12  -8  12   39.60    9.30
  12   8 -12   23.70    7.10
 -12   8  12   37.00    9.00
 -11  -8  12  114.49   14.60
  11  -8 -12  100.69   13.30
  11   8 -12  119.09   13.70
 -11   8  12  109.99   14.50
  10  -8 -12  151.48   16.00
 -10  -8  12  165.38   17.40
  10   8 -12  162.88   15.70
 -10   8  12  142.39   16.00
  -9  -8  12   59.09   10.40
   9  -8 -12   68.69   10.50
  -9   8  12   57.79   10.40
   8  -8 -12   75.29   10.80
  -8  -8  12   74.59   11.40
  -8   8  12   64.79   10.90
  -7  -8  12  215.88   16.70
   7  -8 -12  202.78   15.50
  -7   8  12  242.98   17.30
  -6  -8  12   14.70    6.00
  -6   8  12    9.40    4.90
  -5  -8  12   20.00    6.80
  -5   8  12   19.00    5.90
  -4  -8  12  173.18   16.60
  -4   8  12  153.58   15.50
  -3  -8  12  136.09   14.20
  -3   8  12  132.39   14.30
  -3   8  12  115.89    8.70
  -2  -8  12   24.40    6.80
  -2   8  12   16.00    4.60
  -2   8  12   23.60    6.60
  -1  -8  12    1.90    4.10
  -1   8  12    0.50    3.40
  -1   8  12    1.10    3.70
   0  -8  12    3.20    4.30
   0   8  12   -1.10    3.50
   0   8  12    6.60    4.40
   1  -8  12   50.69    8.80
   1   8  12   17.90    5.10
   1   8  12   77.79   10.50
   2  -8  12   26.00    7.00
   2   8  12   25.10    6.70
   2   8  12   23.80    6.80
   3  -8  12  306.17   19.20
   3   8  12  308.47   18.90
   3   8  12  284.17   17.80
   4  -8  12   16.20    6.40
   4   8  12   24.60    6.80
   4   8  12   20.70    6.10
   5  -8  12  124.29   13.40
   5  -8  12  139.19   15.60
   5   8  12  152.18   15.80
   6  -8  12  175.48   17.90
   6   8  12  174.98   17.80
   7  -8  12   -1.60    4.70
   7   8  12   -8.60    5.10
   8  -8  12    7.50    6.00
   8   8  12   12.00    7.10
 -15  -9  12   36.90   10.00
  15  -9 -12   25.90    8.90
 -15   9  12   32.80    9.50
  15   9 -12   33.60    9.70
  14  -9 -12   -0.60    5.70
 -14  -9  12   -1.90    4.90
  14   9 -12   -1.70    4.90
 -14   9  12    4.10    6.00
 -13  -9  12   -2.10    5.50
  13  -9 -12    1.30    5.00
  13   9 -12   -2.50    5.60
 -13   9  12   -2.30    4.40
  12  -9 -12    8.60    6.50
 -12  -9  12   13.20    6.70
  12   9 -12    7.80    5.70
 -12   9  12    7.20    6.50
 -11  -9  12    0.20    5.20
  11  -9 -12   -0.70    4.90
  11   9 -12    1.20    5.40
 -11   9  12    2.20    6.00
 -10  -9  12   74.89   12.10
  10  -9 -12   44.70    9.30
 -10   9  12   58.39   10.90
  10   9 -12   54.59    9.80
  -9  -9  12   88.79   12.80
   9  -9 -12   73.89   11.20
  -9   9  12   58.89   10.80
   8  -9 -12   14.80    5.60
  -8  -9  12    3.40    5.10
  -8   9  12   11.30    5.80
   7  -9 -12  138.59   14.80
  -7  -9  12  136.59   15.50
  -7   9  12  170.88   17.20
  -6  -9  12   98.29   13.00
  -6   9  12   84.49   12.10
  -5  -9  12   68.39   10.70
  -5   9  12   52.89    9.60
  -4  -9  12   24.20    7.00
  -4   9  12   15.40    6.00
  -3  -9  12    8.30    5.20
  -3   9  12   21.80    6.60
  -2  -9  12   13.60    6.10
  -2   9  12   12.50    4.60
  -2   9  12   15.00    6.50
  -1  -9  12   67.09   10.60
  -1   9  12   66.39    8.60
  -1   9  12   84.89   11.40
   0  -9  12   18.60    6.60
   0   9  12    2.40    4.20
   0   9  12   12.80    5.20
   1  -9  12    1.50    4.50
   1   9  12   -2.20    2.40
   1   9  12    5.40    4.60
   2  -9  12   32.60    7.80
   2   9  12   32.70    7.70
   2   9  12   36.80    7.40
   3  -9  12   13.20    5.40
   3   9  12   16.30    5.50
   3   9  12   16.30    6.50
   4  -9  12   16.70    6.70
   4   9  12   13.90    6.00
   4   9  12    6.50    5.60
   5  -9  12   29.80    7.80
   5  -9  12   42.90    9.10
   5   9  12   36.20    9.00
   6  -9  12    0.10    4.60
   6   9  12    4.50    5.60
   7  -9  12   58.99   11.10
   7   9  12   92.89   13.60
 -14 -10  12    5.00    7.20
  14 -10 -12    2.80    6.20
  14  10 -12    4.20    5.90
 -14  10  12    9.10    6.70
 -13 -10  12   -3.60    5.30
  13 -10 -12    1.20    5.70
 -13  10  12   -0.70    5.50
  13  10 -12   -1.50    5.30
  12 -10 -12   -1.70    4.60
 -12 -10  12    0.70    5.00
 -12  10  12   -3.20    4.30
  12  10 -12    2.30    5.60
 -11 -10  12   31.90    8.90
  11 -10 -12   29.30    8.20
  11  10 -12   30.60    8.50
 -11  10  12   36.40    9.30
 -10 -10  12   -5.40    4.50
  10 -10 -12    5.50    5.90
  10  10 -12   -2.60    4.00
 -10  10  12    1.30    5.00
  -9 -10  12   91.69   13.30
   9 -10 -12   88.59   12.70
  -9  10  12   95.89   13.80
   8 -10 -12   -1.80    4.20
  -8 -10  12    3.50    5.30
  -8  10  12    0.60    4.50
   7 -10 -12  104.29   12.50
  -7 -10  12   86.69   12.70
  -7  10  12   79.79   12.20
  -6 -10  12   46.00    9.50
  -6  10  12   37.60    8.30
  -5 -10  12   25.40    7.70
  -5  10  12   47.00    9.60
  -4 -10  12   15.60    6.60
  -4  10  12   19.10    6.60
  -3 -10  12   28.90    7.70
  -3  10  12   15.70    6.40
  -2 -10  12    1.70    4.20
  -2  10  12    4.00    4.50
  -1 -10  12    3.50    5.00
  -1  10  12   -0.40    3.90
  -1  10  12    2.90    3.90
   0 -10  12   -0.40    3.90
   0  10  12    5.80    4.70
   0  10  12   -1.90    3.70
   1 -10  12  239.58   17.60
   1  10  12  298.77   17.40
   1  10  12  252.87   18.00
   2 -10  12    2.40    4.30
   2  10  12   -2.70    4.00
   2  10  12    8.90    5.20
   3 -10  12   94.49   12.20
   3  10  12   83.79   11.40
   3  10  12   86.99   11.50
   4 -10  12   27.80    7.80
   4  10  12   17.30    7.10
   4  10  12   16.40    6.40
   5 -10  12  134.79   14.90
   5 -10  12   96.29   13.70
   5  10  12  107.09   13.80
   6 -10  12    4.50    5.30
   6  10  12    0.10    5.00
   7 -10  12    5.60    5.80
   7  10  12    9.70    6.60
 -13 -11  12   -1.80    5.50
  13 -11 -12    3.70    6.60
  13  11 -12    0.40    6.20
 -13  11  12    7.30    6.00
  12 -11 -12   28.90    8.90
 -12 -11  12   27.50    8.90
  12  11 -12   23.50    8.00
 -12  11  12   19.00    8.00
  11 -11 -12  121.29   15.20
 -11 -11  12  120.49   16.30
 -11  11  12  107.29   15.20
  11  11 -12  137.69   15.80
  10 -11 -12    0.80    4.60
 -10 -11  12    2.40    5.40
  10  11 -12    8.90    6.00
 -10  11  12    2.10    5.10
  -9 -11  12   -0.10    5.10
   9 -11 -12    3.50    5.00
  -9  11  12   -2.80    4.60
  -8 -11  12    1.10    5.30
   8 -11 -12    4.30    5.10
  -8  11  12    2.30    5.00
   7 -11 -12   87.19   12.10
  -7 -11  12  122.39   15.40
  -7  11  12  117.29   15.20
  -6 -11  12   20.50    7.40
  -6  11  12   24.20    7.60
  -5 -11  12  161.48   17.20
  -5  11  12  181.98   18.30
  -4 -11  12   62.39   11.20
  -4  11  12   50.99   10.00
  -3 -11  12   33.80    8.70
  -3  11  12   44.10    9.10
  -2 -11  12   19.50    7.00
  -2  11  12   29.90    7.70
  -1 -11  12    1.20    4.50
  -1  11  12    4.10    4.90
   0 -11  12    0.90    4.60
   0  11  12   -0.50    3.90
   0  11  12    5.80    5.20
   1 -11  12   -0.80    4.40
   1  11  12   -3.80    4.30
   1  11  12   -3.20    3.70
   2 -11  12   47.10    9.20
   2  11  12   44.90    9.00
   3 -11  12   92.09   12.40
   3  11  12   71.59   10.70
   3  11  12   86.69   12.00
   4 -11  12    2.50    4.80
   4  11  12    4.90    5.60
   4  11  12   12.20    6.30
   5 -11  12  160.98   16.50
   5  11  12  174.68   18.00
   6 -11  12    4.40    5.80
   6  11  12   -2.40    4.90
 -12 -12  12   10.00    7.40
  12 -12 -12   27.70    8.80
 -12  12  12   28.50    9.30
  12  12 -12   11.30    6.60
 -11 -12  12  147.29   18.00
  11 -12 -12   72.29   12.10
 -11  12  12  107.59   14.90
  11  12 -12   80.79   12.70
 -10 -12  12   14.40    7.50
  10 -12 -12   29.20    8.20
  10  12 -12   21.20    7.70
 -10  12  12   20.50    8.20
   9 -12 -12   63.39   11.40
  -9 -12  12   86.89   13.40
  -9  12  12   91.49   13.90
  -8 -12  12   33.40    9.20
   8 -12 -12   61.09   10.40
  -8  12  12   42.10    9.60
   7 -12 -12   87.49   11.90
  -7 -12  12   58.99   11.50
  -7  12  12   69.39   12.10
  -6 -12  12   -1.00    4.70
  -6  12  12   -2.50    3.90
  -5 -12  12    9.30    5.80
  -5  12  12   17.60    7.40
  -4 -12  12   26.90    8.50
  -4  12  12   32.70    8.80
  -3 -12  12   -4.00    4.90
  -3  12  12    1.50    5.00
  -2 -12  12   16.80    6.90
  -2  12  12   22.50    6.90
  -1 -12  12   69.09   11.50
  -1  12  12   78.99   12.00
   0 -12  12    3.30    4.90
   0  12  12    8.50    6.00
   1 -12  12    7.60    6.30
   1  12  12   28.30    6.90
   1  12  12   18.60    6.60
   2 -12  12    9.60    5.60
   2  12  12    4.60    5.30
   2  12  12    5.30    5.70
   3 -12  12  113.99   14.50
   3  12  12   92.99   13.00
   3  12  12  117.09   13.80
   4 -12  12   -3.00    5.20
   4  12  12    2.60    5.20
   4  12  12   -6.30    5.60
   5 -12  12   70.59   11.40
   5  12  12   67.19   11.20
 -11 -13  12   10.60    7.60
  11 -13 -12   33.50    9.40
 -11  13  12   25.00    8.20
  11  13 -12   17.60    7.70
 -10 -13  12   14.00    7.10
  10 -13 -12    7.60    5.70
 -10  13  12    2.70    5.50
  10  13 -12   11.10    6.80
   9 -13 -12    5.50    6.10
  -9 -13  12    9.60    7.20
  -9  13  12   14.80    7.90
  -8 -13  12   25.50    8.50
   8 -13 -12   37.10    8.90
  -8  13  12   27.90    8.90
   7 -13 -12    0.40    4.80
  -7 -13  12    4.40    6.30
  -7  13  12   -2.60    5.00
  -6 -13  12    8.10    6.70
  -6  13  12    6.50    6.30
  -5 -13  12    6.20    5.90
  -5  13  12    3.20    5.60
  -4 -13  12   24.30    8.50
  -4  13  12   18.40    7.30
  -3 -13  12    1.90    5.40
  -3  13  12   -1.40    5.10
  -2 -13  12   21.20    7.60
  -2  13  12   11.10    6.30
  -1 -13  12    0.90    5.20
  -1  13  12    4.00    5.40
   0 -13  12   -4.80    3.60
   0  13  12   -1.80    4.90
   1 -13  12   10.00    6.60
   1  13  12    5.50    6.50
   2 -13  12    7.80    5.60
   2  13  12   -4.90    5.30
   3 -13  12    1.10    5.60
   3  13  12    3.50    5.30
   3  13  12   -1.20    4.60
   4 -13  12   27.50    8.80
   4  13  12   19.60    7.70
   4  13  12   20.80    8.00
 -10 -14  12   29.60   10.10
  10 -14 -12   52.39   11.00
  10  14 -12   34.80   10.10
 -10  14  12   46.90   10.70
  -9 -14  12  136.29   17.70
   9 -14 -12  127.89   15.80
  -9  14  12  131.19   17.60
  -8 -14  12    3.20    6.50
   8 -14 -12    1.00    4.80
  -8  14  12    6.10    5.90
  -7 -14  12    5.70    6.20
  -7  14  12   14.60    7.60
  -6 -14  12   14.30    7.50
  -6  14  12   20.10    7.70
  -5 -14  12    0.30    5.20
  -5  14  12    2.10    5.90
  -4 -14  12   20.90    7.70
  -4  14  12   16.60    7.10
  -3 -14  12   50.99   11.10
  -3  14  12   33.70    8.90
  -2 -14  12   -1.30    5.80
  -2  14  12   10.80    6.70
  -1 -14  12   31.40    8.80
  -1  14  12   36.30    9.30
   0 -14  12    4.70    5.90
   0  14  12   -2.40    4.50
   1 -14  12   52.19   11.30
   1  14  12   53.39   11.20
   2 -14  12    1.20    5.30
   2  14  12    3.70    6.50
   3 -14  12   25.60    8.30
   3  14  12   28.20    9.40
   8 -15 -12   -2.00    5.80
  -8 -15  12   -8.00    5.30
  -8  15  12    5.00    6.40
  -7 -15  12    7.10    7.00
  -7  15  12    3.50    5.70
  -6 -15  12   13.00    7.70
  -6  15  12   19.80    7.90
  -5 -15  12   45.30   10.90
  -5  15  12   32.50    9.70
  -4 -15  12   15.10    7.80
  -4  15  12   10.50    7.00
  -3 -15  12    4.30    6.20
  -3  15  12   15.30    7.50
  -2 -15  12   -0.90    6.00
  -2  15  12    4.10    6.40
  -1 -15  12    5.90    6.40
  -1  15  12   10.90    6.30
   0 -15  12   -0.20    5.50
   0  15  12    2.00    5.70
   1 -15  12   -4.80    5.00
   1  15  12    1.50    5.60
 -17   0  13   43.80    9.70
  17   0 -13   90.39   14.10
 -16   0  13   -0.80    5.40
  16   0 -13   -2.00    4.70
  15   0 -13  169.28   18.00
 -15   0  13  173.98   17.30
  14   0 -13    2.40    4.90
 -14   0  13   -2.70    3.80
  13   0 -13  321.27   21.10
 -13   0  13  298.37   20.10
  12   0 -13    3.40    4.30
 -12   0  13   -8.20    3.20
 -11   0  13    2.20    4.40
  11   0 -13    2.60    4.50
 -10   0  13    8.40    4.90
  10   0 -13    3.70    4.30
   9   0 -13   35.80    7.30
  -9   0  13   52.49    9.40
  -8   0  13    2.00    4.00
  -7   0  13  739.33   33.90
  -6   0  13   -0.50    3.40
  -5   0  13  239.58   16.20
  -4   0  13    0.60    3.30
  -3   0  13   12.60    5.00
  -2   0  13    1.00    2.90
  -2   0  13   -0.20    3.50
  -1   0  13  113.19   11.60
  -1   0  13  104.49   11.60
   0   0  13    3.80    3.80
   0   0  13    1.70    3.20
   1   0  13   14.60    5.20
   1   0  13   24.60    6.30
   2   0  13   -2.40    3.10
   2   0  13    0.80    4.00
   3   0  13  115.69   11.60
   3   0  13  105.89   12.40
   4   0  13   -1.60    3.90
   4   0  13    0.70    3.90
   5   0  13   29.30    7.60
   6   0  13   -0.70    3.90
   7   0  13  410.26   24.80
   8   0  13    0.30    4.50
   9   0  13   92.09   14.30
  17  -1 -13    3.30    6.50
 -17  -1  13   -2.70    3.50
 -17   1  13    2.00    5.90
  17   1 -13   -1.20    5.20
 -16  -1  13   -0.10    5.50
  16  -1 -13   -2.10    4.90
  16   1 -13   -0.70    6.00
 -16   1  13    4.10    5.80
  15  -1 -13   35.30    8.90
 -15  -1  13   28.00    7.60
  15   1 -13   18.10    7.40
 -15   1  13   37.80    8.60
 -14  -1  13    9.20    6.20
  14  -1 -13    6.80    5.80
 -14   1  13    2.00    4.70
  14   1 -13    4.00    5.70
  13  -1 -13   88.59   12.60
 -13  -1  13  106.29   13.70
  13   1 -13   86.99   12.70
 -13   1  13  102.99   13.00
  12  -1 -13   28.00    7.60
 -12  -1  13   21.80    6.90
  12   1 -13   30.80    7.70
 -12   1  13   33.20    8.40
  11  -1 -13   65.79   10.40
 -11  -1  13   63.39   10.70
 -11   1  13   47.50    9.10
  11   1 -13   45.10    8.90
 -10  -1  13    3.30    4.80
  10  -1 -13    5.80    4.80
 -10   1  13    5.10    4.50
  10   1 -13   -1.10    3.00
   9  -1 -13   21.50    6.30
  -9  -1  13   31.00    7.70
  -9   1  13   30.50    7.30
  -8  -1  13   12.20    5.70
  -8   1  13    4.50    4.30
  -7  -1  13  246.28   16.90
  -7   1  13  233.08   16.50
  -6  -1  13   26.10    6.50
  -6   1  13   21.70    6.50
  -5  -1  13    1.70    3.70
  -5   1  13    3.80    4.10
  -4  -1  13   13.40    5.00
  -4   1  13   13.00    5.00
  -3  -1  13  124.59   12.70
  -3   1  13  101.89   11.90
  -3   1  13  111.79   10.60
  -2  -1  13   55.69    9.10
  -2   1  13   51.79    7.40
  -2   1  13   47.70    8.10
  -1  -1  13  469.85   22.80
  -1  -1  13  436.96   23.10
  -1   1  13  443.86   23.20
  -1   1  13  448.66   22.00
   0  -1  13   29.20    6.50
   0  -1  13   30.80    7.20
   0   1  13   44.20    8.10
   0   1  13   43.60    7.40
   1  -1  13  318.37   19.10
   1  -1  13  355.96   19.60
   1   1  13  358.36   19.60
   1   1  13  369.26   19.60
   2  -1  13  231.38   15.20
   2  -1  13  217.38   15.30
   2   1  13  226.08   15.30
   2   1  13  220.08   14.60
   3  -1  13  166.78   15.50
   3  -1  13  190.18   13.40
   3   1  13  185.78   13.10
   3   1  13  183.78   16.00
   4  -1  13   23.60    6.20
   4  -1  13   22.10    6.60
   4   1  13   22.70    5.80
   4   1  13   24.90    6.70
   5  -1  13  114.09   13.70
   5   1  13  117.29   13.60
   6  -1  13    8.30    5.60
   6   1  13    3.80    5.00
   7  -1  13   -1.00    4.70
   7   1  13   -8.20    3.60
   8  -1  13   36.70    9.00
   8   1  13   50.49   10.10
   9  -1  13   41.20    9.60
   9   1  13   33.10    9.50
 -17  -2  13    2.40    5.30
  17  -2 -13    9.70    7.10
  17   2 -13    5.50    6.20
 -17   2  13   10.30    6.50
  16  -2 -13   68.79   12.40
 -16  -2  13   84.19   13.00
  16   2 -13   71.29   12.50
 -16   2  13   42.50    9.60
  15  -2 -13   -1.20    5.10
 -15  -2  13   -1.60    4.70
 -15   2  13    0.70    5.00
  15   2 -13    2.50    4.60
 -14  -2  13   21.30    7.20
  14  -2 -13   33.70    9.00
  14   2 -13   16.30    6.60
 -14   2  13   16.20    6.50
  13  -2 -13    3.70    4.90
 -13  -2  13    6.60    5.30
 -13   2  13    1.90    4.10
  13   2 -13    8.40    5.80
  13   2 -13    4.70    4.50
  12  -2 -13   49.90    9.50
 -12  -2  13   45.20    9.00
 -12   2  13   32.80    8.40
  12   2 -13   57.59    9.90
 -11  -2  13  167.08   16.40
  11  -2 -13  128.39   14.40
 -11   2  13  126.49   14.70
  11   2 -13  189.58   17.00
 -10  -2  13  116.59   13.60
  10  -2 -13  112.49   13.30
  10   2 -13  131.79   14.00
 -10   2  13  120.19   14.00
   9  -2 -13    4.20    4.30
  -9  -2  13    8.90    5.30
  -9   2  13    3.80    4.60
   8  -2 -13   -2.40    3.20
  -8  -2  13   -0.20    3.80
  -8   2  13   -1.40    3.40
  -7  -2  13  142.69   14.40
  -7   2  13  119.89   13.40
  -6  -2  13    4.40    3.70
  -6   2  13    2.10    3.90
  -5  -2  13  109.19   12.70
  -5   2  13   88.59   11.10
  -4  -2  13   95.29   11.90
  -4   2  13   76.09   10.30
  -4   2  13   80.39    8.50
  -3  -2  13   95.39   11.70
  -3   2  13   96.79   11.40
  -2  -2  13   57.39    9.00
  -2   2  13   57.59    7.80
  -2   2  13   60.69    9.00
  -1  -2  13  379.56   20.90
  -1   2  13  358.86   20.10
  -1   2  13  345.87   18.60
   0  -2  13    9.30    4.60
   0  -2  13    6.00    4.50
   0   2  13    7.00    4.00
   0   2  13   10.30    4.50
   1  -2  13   41.40    7.80
   1  -2  13   26.90    6.10
   1   2  13   16.90    5.40
   1   2  13   36.00    7.20
   2  -2  13  151.88   14.10
   2  -2  13  160.38   15.00
   2   2  13  141.19   13.50
   2   2  13  153.88   14.00
   3  -2  13    8.50    4.80
   3  -2  13   -3.90    3.40
   3   2  13    4.80    4.50
   3   2  13    2.20    3.80
   4  -2  13    5.90    4.50
   4  -2  13   -0.20    3.70
   4   2  13    0.90    3.40
   4   2  13    0.50    4.60
   5  -2  13  165.08   16.30
   5   2  13  189.98   17.60
   6  -2  13   36.00    8.50
   6   2  13   17.50    6.70
   7  -2  13  124.89   14.90
   7   2  13  141.39   16.20
   8  -2  13   15.10    6.50
   8   2  13   19.70    8.10
   9  -2  13   29.30    8.70
   9   2  13   48.70   10.60
 -17  -3  13   12.90    7.50
  17  -3 -13   15.70    7.20
  17   3 -13   17.90    7.50
 -17   3  13    9.20    6.70
  16  -3 -13   34.30    9.30
 -16  -3  13   43.30    9.80
  16   3 -13   42.40    9.30
 -16   3  13   35.10    9.30
 -15  -3  13    2.30    5.60
  15  -3 -13    7.40    6.40
 -15   3  13   15.50    7.50
  15   3 -13    6.10    5.80
 -14  -3  13   40.20    9.00
  14  -3 -13   32.20    8.70
 -14   3  13   54.69   10.80
  14   3 -13   40.10    9.10
  14   3 -13   50.89    8.50
  13  -3 -13   -3.80    3.40
 -13  -3  13   -0.80    5.00
  13   3 -13    2.80    3.80
  13   3 -13    1.60    4.40
 -13   3  13   -7.00    3.50
  12  -3 -13   48.10    9.70
 -12  -3  13   53.19   10.00
  12   3 -13   47.60    9.10
 -12   3  13   46.40    9.40
 -11  -3  13  130.79   14.70
  11  -3 -13  117.59   14.00
 -11   3  13  132.89   15.10
  11   3 -13  107.29   12.70
  10  -3 -13   28.20    7.40
 -10  -3  13   28.80    8.00
 -10   3  13   35.40    8.30
  -9  -3  13  122.09   13.90
   9  -3 -13   84.89   11.60
  -9   3  13   86.09   11.70
  -8  -3  13    7.40    5.00
   8  -3 -13    9.30    4.50
  -8   3  13    6.80    5.00
  -7  -3  13   -0.80    4.10
  -7   3  13   -0.80    3.60
  -6  -3  13   13.30    5.10
  -6   3  13    2.70    4.00
  -6   3  13    6.80    3.10
  -5  -3  13   -0.10    3.50
  -5   3  13    2.10    3.70
  -5   3  13    2.30    2.60
  -4  -3  13   40.10    7.80
  -4   3  13   53.39    6.90
  -4   3  13   49.50    8.40
  -3  -3  13   22.60    6.30
  -3   3  13   13.50    4.00
  -3   3  13   20.70    6.00
  -2  -3  13  120.09   13.00
  -2   3  13   83.39   10.90
  -1  -3  13  104.39   12.20
  -1   3  13  109.39   11.90
  -1   3  13  108.09   10.70
   0  -3  13   -1.50    3.30
   0   3  13    1.70    3.80
   0   3  13    4.10    3.80
   1  -3  13   50.59    9.10
   1  -3  13   44.90    8.10
   1   3  13   54.79    8.20
   1   3  13   39.80    7.60
   2  -3  13  113.89   12.70
   2  -3  13  106.99   12.50
   2   3  13   90.79   10.70
   2   3  13   96.59   11.40
   3  -3  13  186.18   16.90
   3  -3  13  173.68   15.30
   3   3  13  159.98   12.30
   3   3  13  131.19   13.80
   4  -3  13   -2.10    3.20
   4  -3  13    0.40    3.30
   4   3  13    3.80    4.40
   4   3  13    0.30    3.90
   5  -3  13  159.38   16.30
   5   3  13  201.18   18.00
   6  -3  13   43.80    9.00
   6   3  13   42.40    9.00
   7  -3  13    2.50    4.70
   7   3  13    0.80    4.40
   8  -3  13    0.60    5.10
   8   3  13   -2.00    5.00
   9  -3  13    8.40    6.10
   9   3  13   -1.30    5.00
  16  -4 -13    0.00    5.80
 -16  -4  13   -0.40    5.90
 -16   4  13    3.90    5.10
  16   4 -13   -6.10    4.90
  15  -4 -13  189.28   19.90
 -15  -4  13  170.98   17.80
  15   4 -13  220.88   19.80
 -15   4  13  183.48   18.70
  15   4 -13  163.28   15.80
  14  -4 -13   29.70    8.40
 -14  -4  13   35.20    8.40
  14   4 -13   39.70    8.30
 -14   4  13   32.00    8.10
  14   4 -13   52.09    9.90
  13  -4 -13  204.18   20.20
 -13  -4  13  228.38   20.30
  13   4 -13  210.08   16.10
 -13   4  13  215.38   20.00
  13   4 -13  217.78   15.00
  12  -4 -13   48.50    9.60
 -12  -4  13   43.60    9.90
  12   4 -13   47.50    8.10
 -12   4  13   71.19   11.50
  12   4 -13   60.89   10.20
  11  -4 -13    2.90    4.10
 -11  -4  13    3.40    5.20
 -11   4  13    8.30    5.30
  11   4 -13   10.80    5.50
 -10  -4  13   23.60    7.40
  10  -4 -13   20.10    6.50
 -10   4  13   14.30    6.10
  -9  -4  13   52.39    9.40
   9  -4 -13   75.89   10.70
  -9   4  13   52.39    9.60
   8  -4 -13  104.49   12.50
  -8  -4  13   82.69   11.60
  -8   4  13  106.19   12.80
  -7  -4  13  197.78   15.50
  -7   4  13  211.68   15.70
  -6  -4  13    0.00    3.80
  -6   4  13    1.70    2.30
  -6   4  13    4.40    3.90
  -5  -4  13  138.09   14.30
  -5   4  13  130.49    8.70
  -5   4  13  121.59   13.60
  -4  -4  13   85.79   11.30
  -4   4  13   86.59   11.20
  -4   4  13   65.79    7.60
  -3  -4  13  154.58   15.00
  -3   4  13  160.18   15.30
  -3   4  13  146.09   10.30
  -2  -4  13  296.47   18.30
  -2   4  13  269.27   15.20
  -2   4  13  274.37   17.60
  -1  -4  13  139.59   13.90
  -1   4  13  118.69   11.10
  -1   4  13  138.69   13.70
   0  -4  13   38.00    8.00
   0   4  13   46.00    8.20
   0   4  13   46.60    7.50
   1  -4  13   32.60    7.70
   1   4  13   32.60    7.10
   1   4  13   36.00    7.30
   2  -4  13   18.20    6.10
   2  -4  13   21.40    6.70
   2   4  13   27.00    6.40
   2   4  13   24.20    6.60
   3  -4  13  143.29   14.00
   3  -4  13  192.88   16.90
   3   4  13  169.18   12.60
   3   4  13  128.39   13.60
   4  -4  13    9.70    5.20
   4  -4  13    7.90    5.20
   4   4  13   16.00    5.30
   4   4  13   16.10    6.00
   5  -4  13   30.50    7.70
   5   4  13   44.20    9.00
   6  -4  13    6.20    5.50
   6   4  13   12.60    5.90
   7  -4  13    7.40    5.70
   7   4  13    2.70    5.40
   8  -4  13   21.00    7.70
   8   4  13   45.60   10.60
  16  -5 -13   -0.60    5.60
 -16  -5  13    4.20    5.90
 -16   5  13    0.70    5.20
  16   5 -13   -3.30    5.40
  16   5 -13    3.80    5.60
 -15  -5  13   -0.60    4.80
  15  -5 -13   -0.90    5.40
  15   5 -13   -3.30    5.50
  15   5 -13   -8.40    4.30
 -15   5  13    5.60    6.00
 -14  -5  13    3.60    5.00
  14  -5 -13    8.20    6.20
  14   5 -13   13.40    5.90
 -14   5  13    1.00    4.80
  14   5 -13    3.30    4.70
 -13  -5  13    5.70    5.40
  13  -5 -13   11.10    5.80
 -13   5  13    9.80    5.90
  13   5 -13   12.70    6.20
  13   5 -13    3.50    5.40
 -12  -5  13    3.90    5.20
  12  -5 -13   -1.40    3.80
 -12   5  13   -5.80    3.80
  12   5 -13   -2.80    4.00
  12   5 -13    1.70    4.00
 -11  -5  13   69.79   11.50
  11  -5 -13   61.89   10.40
 -11   5  13   72.69   11.40
 -10  -5  13    1.60    4.60
  10  -5 -13    1.30    4.20
 -10   5  13    5.80    5.00
   9  -5 -13   98.49   12.50
  -9  -5  13   86.09   12.20
  -9   5  13   99.09   12.90
  -8  -5  13  112.49   13.40
   8  -5 -13  123.29   14.00
  -8   5  13   90.89   12.60
  -7  -5  13    0.90    2.90
  -7   5  13    0.80    4.10
  -6  -5  13   59.29    9.70
  -6   5  13   49.99    9.20
  -5  -5  13   25.20    7.10
  -5   5  13   28.80    4.80
  -5   5  13   30.40    7.40
  -4  -5  13   84.89   11.30
  -4   5  13   69.49    7.40
  -4   5  13   75.79   10.80
  -3  -5  13    1.60    4.10
  -3   5  13   11.40    5.20
  -3   5  13    7.70    3.60
  -2  -5  13  451.75   24.10
  -2   5  13  432.46   20.40
  -2   5  13  430.26   23.40
  -1  -5  13   28.90    7.30
  -1   5  13   27.70    6.70
   0  -5  13  216.08   15.70
   0   5  13  223.18   14.30
   0   5  13  225.68   15.60
   1  -5  13  123.79   13.20
   1   5  13  135.49   13.60
   1   5  13  102.19   11.20
   2  -5  13    9.50    4.80
   2  -5  13   10.40    5.30
   2   5  13    7.90    4.60
   2   5  13    3.50    4.20
   3  -5  13  249.58   16.50
   3  -5  13  242.98   17.30
   3   5  13  255.77   17.10
   3   5  13  248.38   16.10
   4  -5  13   13.10    5.40
   4  -5  13   12.30    5.80
   4   5  13   14.30    5.20
   4   5  13   12.40    5.80
   5  -5  13   -0.70    4.30
   5   5  13   -4.70    4.00
   6  -5  13    9.10    5.80
   6   5  13    8.10    5.80
   7  -5  13    0.20    4.60
   7   5  13    4.10    5.70
   8  -5  13   39.70    9.70
   8   5  13   41.90   10.00
  16  -6 -13   -0.30    6.00
 -16  -6  13   11.40    6.60
 -16   6  13    8.10    6.20
  16   6 -13   -2.70    4.80
  16   6 -13   10.30    6.70
  15  -6 -13    1.70    4.80
 -15  -6  13    0.60    5.30
  15   6 -13    6.10    5.50
  15   6 -13    1.40    4.00
 -15   6  13    3.70    6.30
 -14  -6  13    3.50    5.60
  14  -6 -13   22.10    8.40
 -14   6  13   25.70    8.10
  14   6 -13    2.90    3.90
  14   6 -13   16.00    7.00
  13  -6 -13   -1.80    4.50
 -13  -6  13   -4.60    3.80
  13   6 -13   -3.90    4.70
 -13   6  13   12.30    6.30
  13   6 -13    0.80    3.50
 -12  -6  13  103.49   13.70
  12  -6 -13   90.19   12.70
  12   6 -13   87.69   11.30
 -12   6  13   84.59   12.60
 -11  -6  13   36.60    8.80
  11  -6 -13   47.10    9.50
 -11   6  13   32.40    8.00
 -10  -6  13   14.50    6.20
  10  -6 -13   25.50    7.40
 -10   6  13   19.30    7.00
   9  -6 -13   61.09   10.20
  -9  -6  13   64.59   10.70
  -9   6  13   65.19   11.10
  -8  -6  13    2.50    4.40
   8  -6 -13    3.10    4.40
  -8   6  13   -0.20    3.80
  -7  -6  13   -2.20    4.30
  -7   6  13    3.40    4.30
  -6  -6  13   19.90    6.60
  -6   6  13    8.60    5.30
  -5  -6  13    7.50    5.00
  -5   6  13    6.30    4.40
  -4  -6  13   14.40    6.20
  -4   6  13   13.50    3.90
  -4   6  13   15.80    5.80
  -3  -6  13  150.48   15.20
  -3   6  13  123.79   10.40
  -3   6  13  123.49   13.70
  -2  -6  13  334.37   20.40
  -2   6  13  323.07   16.90
  -2   6  13  348.97   20.40
  -1  -6  13  478.45   25.70
  -1   6  13  485.55   22.80
  -1   6  13  505.25   25.90
   0  -6  13   15.00    5.70
   0   6  13    6.00    4.70
   0   6  13    0.60    2.70
   1  -6  13   15.80    5.80
   1   6  13   11.70    6.00
   1   6  13   17.70    5.70
   2  -6  13    0.80    3.70
   2   6  13   -3.50    3.10
   2   6  13    1.30    3.90
   3  -6  13    8.60    4.60
   3  -6  13    3.40    4.50
   3   6  13    6.50    4.70
   3   6  13    8.60    4.60
   4  -6  13    6.40    5.00
   4  -6  13    3.80    4.50
   4   6  13    7.60    5.30
   4   6  13    9.10    5.30
   5  -6  13  183.18   17.90
   5   6  13  175.38   17.30
   6  -6  13    8.90    5.40
   6   6  13    5.50    5.50
   7  -6  13   87.19   13.00
   7   6  13  105.39   14.50
   8  -6  13    0.90    5.50
   8   6  13    0.20    6.30
  15  -7 -13   -1.10    5.20
 -15  -7  13   -4.20    4.90
  15   7 -13    5.60    5.80
 -15   7  13   -6.00    4.90
 -14  -7  13   68.39   12.10
  14  -7 -13   64.79   12.40
 -14   7  13   64.29   11.80
  14   7 -13   63.89   10.60
  14   7 -13   77.89   12.60
 -13  -7  13   -0.60    4.60
  13  -7 -13    7.90    6.10
  13   7 -13    9.20    5.30
 -13   7  13    7.40    6.60
 -12  -7  13    5.80    5.90
  12  -7 -13    8.30    5.90
  12   7 -13    3.90    4.70
 -12   7  13    3.10    5.60
 -11  -7  13   61.89   10.90
  11  -7 -13   52.89   10.00
  11   7 -13   71.69   10.50
 -11   7  13   88.99   13.00
 -10  -7  13   10.30    5.90
  10  -7 -13   28.50    7.80
 -10   7  13   20.30    7.10
   9  -7 -13   21.00    7.10
  -9  -7  13   32.90    8.50
  -9   7  13   46.30    9.70
   8  -7 -13    6.70    5.00
  -8  -7  13    7.80    5.70
  -8   7  13    8.50    5.50
  -7  -7  13   58.79   10.30
  -7   7  13   44.10    9.20
  -6  -7  13    1.60    4.80
  -6   7  13    9.60    4.80
  -5  -7  13   -3.10    4.00
  -5   7  13   -5.70    3.40
  -4  -7  13   16.40    6.50
  -4   7  13   29.50    7.20
  -3  -7  13    1.80    3.90
  -3   7  13    3.30    3.30
  -3   7  13   10.00    5.10
  -2  -7  13   43.40    8.50
  -2   7  13   54.99    9.60
  -2   7  13   58.79    7.70
  -1  -7  13   47.20    8.80
  -1   7  13   68.49    8.60
  -1   7  13   59.79    9.70
   0  -7  13   -2.00    4.30
   0   7  13    2.30    4.60
   0   7  13    0.10    3.50
   1  -7  13  223.08   15.90
   1   7  13  199.08   14.40
   1   7  13  193.08   14.80
   2  -7  13    5.80    4.70
   2   7  13   -0.30    3.40
   2   7  13   -1.90    4.00
   3  -7  13   14.10    6.00
   3   7  13   20.40    5.80
   3   7  13   20.60    7.10
   4  -7  13   51.49    9.10
   4  -7  13   44.00    9.10
   4   7  13   49.80    8.70
   4   7  13   40.70    8.70
   5  -7  13   36.90    8.70
   5   7  13   49.80   10.00
   6  -7  13   60.79   11.00
   6   7  13   81.49   12.70
   7  -7  13    7.50    5.50
   7   7  13   -0.10    6.60
  15  -8 -13   31.30    9.50
 -15  -8  13   42.40   10.10
  15   8 -13   49.80   10.50
 -15   8  13   42.30   10.50
  14  -8 -13   -4.50    4.50
 -14  -8  13   -2.00    5.00
  14   8 -13    6.40    5.60
 -14   8  13   -1.20    5.60
 -13  -8  13   36.60    9.30
  13  -8 -13   41.30   10.40
  13   8 -13   62.99   10.90
 -13   8  13   42.10   10.10
  12  -8 -13   34.00    8.60
 -12  -8  13   42.10   10.10
 -12   8  13   54.49   11.20
  12   8 -13   44.90    9.50
 -11  -8  13   -1.30    4.40
  11  -8 -13    0.30    4.60
  11   8 -13    2.60    5.60
 -11   8  13    6.00    5.80
 -10  -8  13   67.29   11.90
  10  -8 -13   59.99   10.80
 -10   8  13   54.19   10.50
   9  -8 -13    3.40    4.70
  -9  -8  13    9.80    6.30
  -9   8  13    1.20    4.40
  -8  -8  13   42.80    9.70
   8  -8 -13   63.19   10.40
  -8   8  13   47.90    9.60
  -7  -8  13   94.39   13.20
  -7   8  13   83.29   12.60
  -6  -8  13   37.00    8.60
  -6   8  13   38.00    8.50
  -5  -8  13  122.29   14.60
  -5   8  13  102.49   13.10
  -4  -8  13   12.30    5.60
  -4   8  13    2.40    4.40
  -3  -8  13   -5.10    3.60
  -3   8  13   -1.60    3.60
  -2  -8  13    2.30    4.80
  -2   8  13    4.60    4.30
  -2   8  13   -2.30    3.40
  -1  -8  13   26.00    7.20
  -1   8  13   12.50    5.00
  -1   8  13   15.70    6.40
   0  -8  13   75.49   11.30
   0   8  13   79.19   10.20
   0   8  13   69.79   10.70
   1  -8  13    3.80    4.10
   1   8  13    0.20    4.10
   1   8  13   -0.30    4.10
   2  -8  13   82.99   11.50
   2   8  13  117.69   12.90
   2   8  13   84.49   11.40
   3  -8  13   10.20    5.60
   3   8  13   10.30    5.50
   3   8  13    8.70    5.10
   4  -8  13  172.58   16.70
   4  -8  13  170.08   17.50
   4   8  13  179.28   16.00
   4   8  13  187.88   17.30
   5  -8  13    6.30    5.80
   5   8  13    7.40    6.60
   6  -8  13    0.80    4.80
   6   8  13    0.20    5.00
   7  -8  13    4.60    6.10
   7   8  13    3.00    5.90
  14  -9 -13    1.60    6.10
 -14  -9  13    2.10    5.70
 -14   9  13   -1.30    5.00
  14   9 -13   -0.50    5.30
 -13  -9  13    1.70    5.30
  13  -9 -13   -1.20    5.00
  13   9 -13   -1.30    5.20
 -13   9  13    0.50    5.90
 -12  -9  13   -3.40    4.60
  12  -9 -13    7.80    6.30
  12   9 -13    5.40    5.80
 -12   9  13    6.20    6.90
  11  -9 -13    4.10    6.30
 -11  -9  13    0.90    5.40
 -11   9  13    2.20    5.00
  11   9 -13    3.00    5.30
 -10  -9  13    4.90    5.50
  10  -9 -13    6.70    6.40
 -10   9  13    0.60    4.90
  -9  -9  13   -1.20    4.80
   9  -9 -13    1.00    4.50
  -9   9  13   -1.20    5.20
  -8  -9  13   18.80    7.50
   8  -9 -13    8.70    5.60
  -8   9  13    5.40    5.50
  -7  -9  13    4.30    5.60
  -7   9  13   21.40    7.50
  -6  -9  13   22.90    7.10
  -6   9  13   19.00    6.60
  -5  -9  13   19.50    6.80
  -5   9  13   25.10    7.60
  -4  -9  13   85.59   12.60
  -4   9  13  100.49   13.10
  -3  -9  13    1.90    4.50
  -3   9  13   -0.30    4.80
  -2  -9  13  192.08   18.30
  -2   9  13  230.38   17.20
  -1  -9  13    2.20    4.80
  -1   9  13   -0.50    4.00
  -1   9  13    2.40    4.50
   0  -9  13   12.70    6.60
   0   9  13    8.90    5.90
   0   9  13    4.20    4.70
   1  -9  13   73.19   11.20
   1   9  13   57.19    9.80
   2  -9  13   19.60    7.40
   2   9  13   11.90    6.00
   2   9  13   13.00    5.80
   3  -9  13  103.39   13.10
   3   9  13   99.49   12.80
   3   9  13  114.19   13.20
   4  -9  13   75.89   11.50
   4  -9  13   57.39   10.50
   4   9  13   70.79   10.50
   4   9  13   67.19   11.10
   5  -9  13   -0.50    4.50
   5   9  13    2.10    5.30
   6  -9  13  181.88   19.40
   6   9  13  206.98   20.20
 -14 -10  13   -0.10    5.20
  14 -10 -13    5.80    6.10
 -14  10  13   -0.80    5.70
  14  10 -13   -9.80    5.80
 -13 -10  13   -3.10    6.00
  13 -10 -13    6.80    6.20
 -13  10  13    2.50    5.80
  13  10 -13    3.90    6.90
 -12 -10  13   54.29   11.90
  12 -10 -13   56.09   11.50
  12  10 -13   68.49   11.50
 -12  10  13   40.10    9.80
 -11 -10  13    0.10    5.60
  11 -10 -13    2.10    4.90
 -11  10  13   -1.30    4.60
  11  10 -13    1.70    5.30
 -10 -10  13   18.00    7.60
  10 -10 -13   21.80    7.60
 -10  10  13   20.90    8.10
   9 -10 -13    9.20    5.90
  -9 -10  13   11.40    6.80
  -9  10  13   15.20    7.10
   8 -10 -13   35.00    8.90
  -8 -10  13   66.29   12.00
  -8  10  13   30.70    8.80
  -7 -10  13    0.30    5.10
  -7  10  13   17.50    7.10
  -6 -10  13   72.49   11.80
  -6  10  13   75.69   12.00
  -5 -10  13    4.90    5.40
  -5  10  13    6.30    5.30
  -4 -10  13    6.80    5.20
  -4  10  13    4.20    5.10
  -3 -10  13    1.60    4.60
  -3  10  13    4.20    5.00
  -2 -10  13   -0.70    4.40
  -2  10  13   -3.50    4.00
  -1 -10  13   31.20    8.60
  -1  10  13   33.50    8.30
   0 -10  13   21.20    7.10
   0  10  13   21.10    6.30
   0  10  13   38.50    8.40
   1 -10  13    4.70    4.60
   1  10  13   -3.60    4.40
   1  10  13   -8.10    4.00
   2 -10  13   55.29   10.20
   2  10  13   49.80    9.50
   2  10  13   73.49   10.90
   3 -10  13   -0.90    5.10
   3  10  13   -1.40    3.90
   3  10  13    1.10    5.10
   4 -10  13   27.50    8.40
   4  10  13   28.10    8.00
   4  10  13   28.40    8.90
   5 -10  13   -1.70    4.70
   5  10  13   -4.00    5.60
   6 -10  13    5.70    6.00
   6  10  13   -3.10    6.30
 -13 -11  13   -7.90    6.00
  13 -11 -13    3.70    6.10
  13  11 -13   10.90    7.40
 -13  11  13    2.90    6.30
  12 -11 -13   13.80    7.30
 -12 -11  13   18.20    8.20
 -12  11  13    9.90    6.90
  12  11 -13    4.00    6.10
 -11 -11  13    6.50    6.00
  11 -11 -13   12.20    7.30
  11  11 -13    9.20    6.40
 -11  11  13   13.20    7.10
  10 -11 -13   15.70    7.90
 -10 -11  13   -0.10    5.40
 -10  11  13   11.90    6.90
   9 -11 -13   -4.20    4.10
  -9 -11  13    3.60    5.70
  -9  11  13   -3.80    4.40
  -8 -11  13   25.10    8.10
   8 -11 -13   36.80    9.20
  -8  11  13   46.10   10.30
  -7 -11  13   12.20    6.60
  -7  11  13   14.40    6.90
  -6 -11  13  131.59   16.00
  -6  11  13  144.89   16.70
  -5 -11  13    4.40    5.70
  -5  11  13   10.20    6.10
  -4 -11  13    6.20    5.80
  -4  11  13   11.00    5.90
  -3 -11  13   47.40   10.20
  -3  11  13   18.70    7.40
  -2 -11  13   13.70    6.90
  -2  11  13    1.70    4.60
  -1 -11  13   -6.30    4.10
  -1  11  13    7.80    5.50
   0 -11  13    0.10    4.90
   0  11  13    6.50    5.10
   1 -11  13   14.90    6.50
   1  11  13   15.20    7.20
   1  11  13    9.50    5.30
   2 -11  13    4.60    5.90
   2  11  13    1.10    3.00
   2  11  13    1.20    5.20
   3 -11  13    8.20    5.90
   3  11  13    9.20    6.40
   3  11  13   15.90    7.10
   4 -11  13    6.70    4.80
   4  11  13    1.90    8.80
   4  11  13   11.10    6.40
   5 -11  13   19.00    8.10
   5  11  13   13.10    7.10
 -12 -12  13   49.40   11.60
  12 -12 -13   58.29   12.30
  12  12 -13   55.69   11.60
 -12  12  13   55.89   11.90
  11 -12 -13   -2.30    5.10
 -11 -12  13   -1.00    6.20
 -11  12  13    1.60    5.10
  10 -12 -13    9.80    6.70
 -10 -12  13    4.00    7.70
 -10  12  13   15.00    7.30
  -9 -12  13   18.20    7.90
   9 -12 -13   22.60    8.10
  -9  12  13   13.40    6.80
  -8 -12  13   -2.20    5.10
   8 -12 -13   -3.90    4.50
  -8  12  13   10.50    6.20
  -7 -12  13   21.90    8.10
  -7  12  13   15.30    7.10
  -6 -12  13  126.99   16.30
  -6  12  13  116.89   15.30
  -5 -12  13    1.40    5.30
  -5  12  13   -1.90    4.50
  -4 -12  13    0.40    4.90
  -4  12  13    7.30    5.30
  -3 -12  13    2.80    5.40
  -3  12  13    6.10    5.30
  -2 -12  13   21.70    8.40
  -2  12  13   32.10    8.60
  -1 -12  13    7.50    6.60
  -1  12  13   11.10    7.20
   0 -12  13   47.80   10.20
   0  12  13   59.39   11.20
   1 -12  13    5.50    5.20
   1  12  13    5.30    5.70
   2 -12  13   11.50    6.50
   2  12  13   13.00    7.10
   2  12  13   13.30    6.70
   3 -12  13   11.20    6.20
   3  12  13   20.90    7.70
   3  12  13    2.40    5.80
   4 -12  13    4.50    5.30
   4  12  13    4.10    6.10
  10 -13 -13   -0.20    6.30
 -10 -13  13   -0.40    5.60
 -10  13  13    7.30    6.80
   9 -13 -13   -0.90    4.80
  -9 -13  13    4.10    6.40
  -9  13  13    4.30    5.90
   8 -13 -13   21.00    7.80
  -8 -13  13   19.50    8.00
  -8  13  13   17.00    7.80
  -7 -13  13    0.90    5.60
  -7  13  13   -0.50    5.20
  -6 -13  13   10.80    7.40
  -6  13  13   13.10    7.40
  -5 -13  13    4.40    6.30
  -5  13  13    5.50    5.50
  -4 -13  13  114.09   15.30
  -4  13  13   98.39   14.50
  -3 -13  13   15.30    6.70
  -3  13  13   13.90    6.60
  -2 -13  13  157.38   18.50
  -2  13  13  157.08   18.20
  -1 -13  13   -5.20    4.60
  -1  13  13    1.60    5.40
   0 -13  13   33.00    9.30
   0  13  13   25.90    8.00
   1 -13  13    2.90    5.10
   1  13  13   13.80    7.20
   2 -13  13   13.60    6.90
   2  13  13    4.10    6.40
   3  13  13   16.40    7.20
  -9 -14  13    6.40    7.90
   9 -14 -13    3.20    6.40
  -9  14  13    0.20    6.20
  -8 -14  13   11.90    7.60
  -8  14  13   -2.10    5.70
  -7 -14  13    7.10    7.00
  -7  14  13   10.50    7.50
  -6 -14  13    5.90    6.30
  -6  14  13    0.20    5.80
  -5 -14  13    0.00    6.20
  -5  14  13   -1.10    5.40
  -4 -14  13   -8.80    4.70
  -4  14  13   -4.90    5.00
  -3 -14  13   34.30    9.40
  -3  14  13   42.50   10.70
  -2 -14  13    8.80    7.10
  -2  14  13   19.60    7.70
  -1 -14  13   10.40    6.70
  -1  14  13    6.80    6.40
   0 -14  13    8.20    6.60
   0  14  13   19.40    8.30
   1 -14  13    7.30    7.30
   1  14  13    5.10    6.80
  -6  15  13   35.90    9.80
  -5 -15  13    1.50    5.40
  -5  15  13    0.00    6.10
  -4 -15  13   65.09   13.00
  -4  15  13   51.99   11.40
  -3 -15  13    2.10    6.00
  -3  15  13    3.00    7.00
  -2  15  13    0.40    6.50
  17   0 -14   -2.30    7.10
 -16   0  14   21.50    8.20
  16   0 -14   10.80    7.20
 -15   0  14   -0.80    4.80
  15   0 -14    0.00    5.60
  14   0 -14    6.90    6.30
 -14   0  14   -2.00    4.40
 -13   0  14    4.60    5.60
  13   0 -14   -0.50    3.90
  12   0 -14    2.00    4.70
 -12   0  14    3.10    5.00
  11   0 -14   -2.20    3.70
 -11   0  14   -2.00    4.30
  10   0 -14    2.10    3.60
 -10   0  14   -6.70    3.50
  -9   0  14   -1.50    3.90
  -8   0  14   51.69    9.20
  -7   0  14   -1.20    3.50
  -6   0  14    8.50    4.60
  -5   0  14    1.10    3.40
  -4   0  14  204.18   15.30
  -3   0  14   -0.70    3.70
  -2   0  14  499.25   24.30
  -2   0  14  513.05   26.00
  -1   0  14   -2.10    3.30
  -1   0  14    4.80    3.90
   0   0  14  176.88   15.40
   0   0  14  183.78   14.30
   1   0  14    3.40    4.20
   1   0  14   -3.90    3.50
   2   0  14  190.58   17.00
   2   0  14  160.48   15.00
   3   0  14   -3.50    3.20
   3   0  14   -0.50    4.10
   4   0  14  144.09   15.20
   4   0  14  181.68   21.90
   5   0  14   -2.10    3.90
   6   0  14  157.38   17.40
   7   0  14    4.90    5.30
   8   0  14  133.39   16.40
  16  -1 -14   -1.70    4.70
 -16  -1  14    0.20    5.90
 -16   1  14   -0.20    5.30
  16   1 -14    2.70    6.10
 -15  -1  14   -1.90    4.60
  15  -1 -14    3.90    5.00
  15   1 -14   -3.20    5.00
 -15   1  14    0.90    5.00
  14  -1 -14   -5.10    5.00
 -14  -1  14   -3.80    4.10
 -14   1  14   -1.90    4.80
  14   1 -14    1.80    4.80
  13  -1 -14   90.49   13.30
 -13  -1  14   68.79   11.60
  13   1 -14   85.89   12.40
 -13   1  14   76.19   12.00
  12  -1 -14   69.09   11.20
 -12  -1  14   70.49   11.20
  12   1 -14   51.29    9.80
 -12   1  14   79.59   12.10
 -11  -1  14  127.09   14.80
  11  -1 -14  171.08   16.70
 -11   1  14  142.39   15.60
  11   1 -14  171.98   16.90
  10  -1 -14  105.89   13.20
 -10  -1  14  144.99   15.90
 -10   1  14  105.39   13.30
  -9  -1  14   29.20    7.70
  -9   1  14   34.40    8.20
  -8  -1  14  129.79   14.50
  -8   1  14  114.99   13.70
  -7  -1  14  160.58   16.10
  -7   1  14  178.18   16.80
  -6  -1  14    1.00    4.10
  -6   1  14    3.70    4.40
  -5  -1  14   23.50    6.50
  -5   1  14   22.80    6.50
  -4  -1  14    6.50    4.90
  -4   1  14    9.20    5.40
  -3  -1  14   19.90    6.60
  -3   1  14   21.90    6.70
  -3   1  14   27.60    5.80
  -2  -1  14   -6.20    3.10
  -2   1  14    9.10    4.90
  -2   1  14   -1.30    3.20
  -1  -1  14    8.50    4.90
  -1  -1  14   -2.70    3.70
  -1   1  14   12.70    4.70
  -1   1  14    7.00    4.50
   0  -1  14  335.67   19.40
   0  -1  14  316.77   19.20
   0   1  14  317.57   18.60
   0   1  14  332.97   19.40
   1  -1  14   -2.20    3.30
   1  -1  14   -2.60    3.00
   1   1  14    4.30    4.50
   1   1  14   -0.30    3.50
   2  -1  14    4.30    4.90
   2  -1  14    5.10    4.60
   2   1  14   -0.20    3.80
   2   1  14    0.30    4.10
   3  -1  14    6.30    4.70
   3  -1  14    1.90    4.10
   3   1  14   10.80    5.20
   3   1  14    1.90    4.30
   4  -1  14   87.29   12.10
   4  -1  14  107.99   13.20
   4   1  14   59.29   10.20
   5  -1  14   59.79   10.20
   5   1  14   43.20    9.20
   6  -1  14    1.00    4.40
   6   1  14    2.80    5.60
   7  -1  14    2.00    5.20
   7   1  14   -5.80    4.50
   8  -1  14   25.10    8.50
   8   1  14   30.20    8.60
  16  -2 -14   -3.60    5.30
 -16  -2  14    2.20    6.10
  16   2 -14    6.50    5.90
 -16   2  14   -0.90    5.90
  15  -2 -14   68.79   12.80
 -15  -2  14   41.40    9.80
 -15   2  14   57.49   11.30
  15   2 -14   48.40   10.10
  14  -2 -14   13.50    7.10
 -14  -2  14   24.60    7.70
  14   2 -14   28.80    8.30
 -14   2  14   19.50    7.00
  13  -2 -14    8.30    5.70
 -13  -2  14    3.30    4.90
  13   2 -14    0.60    5.00
 -13   2  14    2.50    5.60
 -12  -2  14  180.78   18.30
  12  -2 -14  185.98   18.50
  12   2 -14  210.88   18.70
 -12   2  14  183.48   18.40
 -11  -2  14    1.20    5.30
  11  -2 -14    7.20    5.30
  11   2 -14    7.50    5.10
 -11   2  14    5.90    5.30
  10  -2 -14  229.48   16.90
 -10  -2  14  233.98   17.70
 -10   2  14  234.68   17.50
  -9  -2  14   62.09   10.20
   9  -2 -14   49.00    9.10
  -9   2  14   47.80    9.40
  -8  -2  14  131.29   14.70
  -8   2  14  120.19   13.90
  -7  -2  14   17.50    6.30
  -7   2  14   12.10    5.80
  -6  -2  14  218.58   16.40
  -6   2  14  237.08   16.80
  -5  -2  14   14.80    5.60
  -5   2  14   13.70    5.50
  -5   2  14   18.00    4.90
  -4  -2  14  124.19   13.80
  -4   2  14  119.49   11.00
  -4   2  14  123.79   13.80
  -3  -2  14   81.19   11.30
  -3   2  14   76.79   10.80
  -2  -2  14  169.08   15.90
  -2   2  14  136.59   12.50
  -2   2  14  132.19   14.30
  -1  -2  14   19.90    5.90
  -1   2  14   31.50    6.50
  -1   2  14   20.40    6.00
   0  -2  14   43.10    7.90
   0  -2  14   29.90    7.20
   0   2  14   40.80    7.60
   0   2  14   37.80    8.30
   1  -2  14  213.78   15.50
   1  -2  14  203.08   15.20
   1   2  14  211.98   14.90
   1   2  14  236.78   15.90
   2  -2  14  113.59   13.20
   2  -2  14  123.99   13.20
   2   2  14   94.89   12.00
   2   2  14  131.69   13.10
   3  -2  14    5.00    5.00
   3  -2  14    8.40    4.80
   3   2  14   10.60    5.60
   3   2  14    2.80    4.20
   4  -2  14   39.10    7.70
   4  -2  14   48.50    9.30
   4   2  14   43.70    8.80
   5  -2  14    3.80    5.20
   5   2  14   -1.80    4.50
   6  -2  14   33.50    8.50
   6   2  14   40.00    9.30
   7  -2  14   14.40    7.10
   7   2  14   10.80    6.40
   8  -2  14   62.89   12.20
   8   2  14   74.89   12.80
 -16  -3  14   -2.40    5.50
  16  -3 -14   -5.60    5.00
  16   3 -14   -0.20    5.20
 -16   3  14    0.20    5.20
  15  -3 -14   -0.10    5.50
 -15  -3  14   -2.70    4.40
 -15   3  14    2.90    5.70
  15   3 -14    4.20    6.20
  14  -3 -14    3.70    5.80
 -14  -3  14    0.30    4.80
 -14   3  14   -1.60    4.80
  14   3 -14    2.20    4.50
  13  -3 -14    6.80    5.20
 -13  -3  14   -0.10    5.30
 -13   3  14   -8.00    3.80
  13   3 -14    3.60    4.40
 -12  -3  14   72.79   12.10
  12  -3 -14   74.29   11.70
 -12   3  14   63.49   11.20
  12   3 -14   63.19   10.80
 -11  -3  14   40.50    9.30
  11  -3 -14   39.20    9.00
 -11   3  14   49.99    9.80
 -10  -3  14  259.47   18.70
  10  -3 -14  255.77   20.90
 -10   3  14  255.17   18.50
  -9  -3  14   94.69   12.80
   9  -3 -14   96.09   12.60
  -9   3  14  120.69   14.30
  -8  -3  14    4.20    4.90
  -8   3  14    6.40    5.50
  -7  -3  14   35.90    8.30
  -7   3  14   43.30    8.90
  -7   3  14   46.80    6.10
  -6  -3  14   17.10    6.20
  -6   3  14   15.60    6.00
  -6   3  14   25.60    4.90
  -5  -3  14   11.70    5.60
  -5   3  14    5.00    4.90
  -5   3  14   11.90    4.10
  -4  -3  14   57.49    9.80
  -4   3  14   57.19    9.80
  -4   3  14   60.59    7.80
  -3  -3  14   25.10    7.10
  -3   3  14   22.00    5.20
  -3   3  14   14.80    5.80
  -2  -3  14    3.30    4.30
  -2   3  14   -0.10    3.60
  -2   3  14    4.10    3.30
  -1  -3  14   15.60    6.40
  -1   3  14   10.40    5.10
  -1   3  14   21.10    5.60
   0  -3  14  108.59   12.80
   0   3  14   97.09   10.90
   0   3  14   99.09   11.90
   1  -3  14  149.09   14.90
   1  -3  14  129.49   14.00
   1   3  14  161.38   15.50
   1   3  14  150.58   14.30
   2  -3  14   21.20    6.20
   2  -3  14   35.20    8.20
   2   3  14   33.50    7.10
   2   3  14   37.10    7.80
   3  -3  14   70.49   11.30
   3  -3  14  118.99   12.90
   3   3  14  101.89   11.80
   3   3  14   97.59   12.20
   4  -3  14   -3.00    3.80
   4  -3  14    2.50    4.70
   4   3  14    8.70    5.30
   5  -3  14    2.00    4.80
   5   3  14    3.60    5.20
   6  -3  14    8.30    6.00
   6   3  14   23.40    7.50
   7  -3  14   90.09   13.50
   7   3  14   48.50   10.80
   8  -3  14    6.90    6.00
   8   3  14    2.80    6.40
 -16  -4  14    3.10    6.40
  16  -4 -14   -4.50    4.90
 -16   4  14   16.10    7.30
  16   4 -14    7.40    6.80
  15  -4 -14    4.30    5.20
 -15  -4  14   14.40    7.70
  15   4 -14    9.30    6.20
 -15   4  14   -2.60    5.10
  15   4 -14    1.10    4.60
  14  -4 -14    8.90    5.40
 -14  -4  14   28.30    8.60
  14   4 -14   28.90    7.70
  14   4 -14   17.90    6.10
 -14   4  14   20.70    8.40
 -13  -4  14   -3.10    4.90
  13  -4 -14    0.50    5.30
  13   4 -14   -7.20    3.80
 -13   4  14   -6.70    4.30
 -12  -4  14   -2.10    4.70
  12  -4 -14    3.90    4.70
 -12   4  14    4.20    5.50
 -11  -4  14   36.20    9.20
  11  -4 -14   52.69   10.30
 -11   4  14   58.69   10.70
 -10  -4  14  145.69   16.30
  10  -4 -14  122.39   14.30
 -10   4  14  115.09   14.60
   9  -4 -14    7.40    5.00
  -9  -4  14    6.20    5.20
  -9   4  14    3.30    4.40
  -8  -4  14   15.80    6.40
  -8   4  14   19.00    6.50
  -7  -4  14    8.10    4.60
  -7   4  14    9.40    5.10
  -6  -4  14    8.30    5.10
  -6   4  14    9.70    5.00
  -6   4  14    8.60    3.20
  -5  -4  14   40.00    8.40
  -5   4  14   42.60    6.10
  -5   4  14   21.60    6.70
  -4  -4  14  128.49   14.20
  -4   4  14   97.79   12.40
  -4   4  14  119.29   10.40
  -3  -4  14   74.09   10.80
  -3   4  14   47.50    7.20
  -3   4  14   55.19    9.30
  -2  -4  14  159.28   15.60
  -2   4  14  143.29   14.70
  -2   4  14  143.19   12.50
  -1  -4  14   -5.60    3.90
  -1   4  14   -0.40    3.30
  -1   4  14   -1.10    3.30
   0  -4  14   59.19    9.50
   0   4  14   45.30    8.90
   0   4  14   46.90    8.00
   1  -4  14   95.69   12.00
   1  -4  14   76.39   11.00
   1   4  14   80.39   10.20
   1   4  14   85.99   10.90
   2  -4  14  122.99   13.60
   2  -4  14  128.09   14.20
   2   4  14  137.69   13.60
   2   4  14  119.69   13.00
   3  -4  14   12.70    5.60
   3  -4  14    7.00    5.00
   3   4  14   10.70    5.60
   3   4  14   13.60    5.30
   4  -4  14  259.77   17.10
   4  -4  14  268.67   19.00
   4   4  14  273.07   18.60
   5  -4  14   -4.20    4.10
   5   4  14    1.30    5.00
   6  -4  14  101.89   14.10
   6   4  14  107.49   14.00
   7  -4  14    5.80    6.60
   7   4  14    9.30    6.60
 -16  -5  14   -3.50    5.30
  16  -5 -14   -4.20    6.00
  16   5 -14   -4.30    5.70
  16   5 -14    0.00    6.80
 -16   5  14    1.20    6.40
 -15  -5  14   43.60    9.90
  15  -5 -14   33.40   10.10
  15   5 -14   41.10    9.40
 -15   5  14   27.00    8.20
  15   5 -14   33.30    8.70
 -14  -5  14   31.10    8.90
  14  -5 -14   30.90    9.00
  14   5 -14   36.60    8.30
 -14   5  14   42.10    9.70
  14   5 -14   29.20    8.50
 -13  -5  14   30.80    8.80
  13  -5 -14   29.90    8.60
 -13   5  14   39.40    9.40
 -12  -5  14   21.00    7.90
  12  -5 -14   15.00    6.40
 -12   5  14   35.90    9.30
  11  -5 -14    2.30    4.80
 -11  -5  14   -2.10    4.40
 -11   5  14   14.60    7.20
  10  -5 -14  160.18   16.60
 -10  -5  14  166.38   17.30
 -10   5  14  135.69   16.40
   9  -5 -14   20.90    6.70
  -9  -5  14   21.60    7.30
  -9   5  14   25.90    8.10
  -8  -5  14  121.59   14.80
  -8   5  14  133.49   15.60
  -7  -5  14  122.49   14.50
  -7   5  14  143.69   15.40
  -6  -5  14    4.60    4.70
  -6   5  14    3.20    4.60
  -5  -5  14  162.48   16.60
  -5   5  14  160.38   16.80
  -5   5  14  185.08   11.00
  -4  -5  14   14.90    6.20
  -4   5  14   10.90    5.70
  -4   5  14   12.50    4.20
  -3  -5  14  151.38   15.80
  -3   5  14  139.69   11.90
  -3   5  14  165.18   16.30
  -2  -5  14   94.19   12.50
  -2   5  14  125.49   11.20
  -2   5  14  116.49   13.30
  -1  -5  14   17.30    5.90
  -1   5  14   11.20    5.10
   0  -5  14   37.00    8.40
   0   5  14   36.20    7.30
   0   5  14   30.20    7.30
   1  -5  14   83.49   11.70
   1   5  14   92.49   11.50
   1   5  14   70.49    9.70
   2  -5  14   12.40    5.90
   2  -5  14   20.10    6.70
   2   5  14   14.00    5.40
   2   5  14   16.40    6.00
   3  -5  14  266.67   18.00
   3  -5  14  291.77   19.80
   3   5  14  280.37   17.90
   3   5  14  319.07   19.50
   4  -5  14    7.50    5.60
   4  -5  14    6.10    5.40
   4   5  14    4.00    5.20
   5  -5  14  117.19   14.20
   5   5  14  106.59   13.60
   6  -5  14    0.60    5.20
   6   5  14    7.20    6.50
   7  -5  14    2.80    5.10
   7   5  14    3.60    6.70
 -15  -6  14    7.60    7.40
  15  -6 -14   -3.20    4.90
  15   6 -14    8.40    5.70
 -15   6  14    3.30    5.70
  15   6 -14   14.00    7.30
  14  -6 -14   20.90    8.20
 -14  -6  14   14.90    6.90
  14   6 -14   26.30    7.70
 -14   6  14   44.00   10.00
 -13  -6  14   31.80    8.60
  13  -6 -14   29.80    8.80
  13   6 -14   25.40    7.20
 -13   6  14   28.90    8.90
 -12  -6  14   88.09   13.00
  12  -6 -14  112.79   14.80
 -12   6  14  102.99   14.40
  11  -6 -14  100.09   13.70
 -11  -6  14   90.19   13.40
 -11   6  14   81.59   12.60
  10  -6 -14    7.50    5.40
 -10  -6  14   -0.70    4.50
 -10   6  14    3.30    5.10
   9  -6 -14  156.08   15.80
  -9  -6  14  121.59   14.70
  -9   6  14  117.59   14.60
  -8  -6  14   84.69   12.90
  -8   6  14   99.99   21.20
  -7  -6  14   13.90    6.10
  -7   6  14   34.60    8.40
  -6  -6  14   22.50    6.90
  -6   6  14   22.80    6.80
  -5  -6  14   -1.20    4.00
  -5   6  14   -7.10    3.10
  -4  -6  14  185.38   17.90
  -4   6  14  227.68   16.70
  -4   6  14  203.08   12.20
  -3  -6  14    2.40    4.90
  -3   6  14    6.10    4.80
  -3   6  14   -3.00    2.70
  -2  -6  14  238.68   17.50
  -2   6  14  255.07   14.80
  -2   6  14  219.18   16.50
  -1  -6  14  105.59   12.90
  -1   6  14  119.99   11.60
  -1   6  14  104.29   12.70
   0  -6  14    2.20    4.90
   0   6  14   -2.30    3.80
   0   6  14    4.50    4.10
   1  -6  14  118.39   13.60
   1   6  14  115.79   12.50
   1   6  14   95.19   11.70
   2  -6  14   62.29   10.00
   2   6  14   59.79    9.50
   2   6  14   76.89   10.70
   3  -6  14    0.70    4.80
   3  -6  14   10.30    6.00
   3   6  14    8.80    5.00
   3   6  14    8.90    5.60
   4  -6  14   42.60    9.30
   4  -6  14   46.50    9.20
   4   6  14   38.20    8.90
   5  -6  14    4.80    5.20
   5   6  14    5.70    6.20
   6  -6  14   15.70    6.70
   6   6  14   -0.70    6.20
   7  -6  14    2.20    5.50
   7   6  14    1.50    5.70
 -15  -7  14    0.90    5.90
  15  -7 -14    6.60    6.60
 -15   7  14    5.60    6.20
  15   7 -14    2.60    6.00
  14  -7 -14   37.00   10.20
 -14  -7  14   37.50    9.80
 -14   7  14   49.00   11.00
  14   7 -14   36.00    9.10
 -13  -7  14    1.60    5.20
  13  -7 -14    2.40    5.60
  13   7 -14    4.40    5.20
 -13   7  14   -1.60    5.80
 -12  -7  14   11.60    6.70
  12  -7 -14   -3.00    4.60
 -12   7  14    4.10    5.90
 -11  -7  14   68.39   12.10
  11  -7 -14   48.00   10.10
 -11   7  14   66.29   11.80
 -10  -7  14    0.30    5.00
  10  -7 -14   -2.00    4.00
 -10   7  14    1.90    4.90
  -9  -7  14   19.00    7.20
   9  -7 -14   13.00    6.30
  -9   7  14    6.80    5.70
  -8  -7  14   82.49   12.40
  -8   7  14   86.19   12.80
  -7  -7  14    0.40    4.80
  -7   7  14    2.90    5.10
  -6  -7  14   49.90    9.90
  -6   7  14   46.00    9.70
  -5  -7  14   26.80    7.80
  -5   7  14   21.00    7.20
  -4  -7  14    0.60    4.50
  -4   7  14   -0.90    3.80
  -3  -7  14   76.39   11.80
  -3   7  14   85.99   12.20
  -3   7  14   65.99    8.20
  -2  -7  14  142.79   15.60
  -2   7  14   98.19   10.50
  -2   7  14  122.99   14.20
  -1  -7  14   36.70    8.80
  -1   7  14   66.09    8.90
  -1   7  14   61.99   10.60
   0  -7  14   19.90    6.70
   0   7  14   18.90    6.40
   0   7  14   -0.50    2.90
   1  -7  14    2.60    4.10
   1   7  14    1.50    4.30
   1   7  14   -0.80    4.50
   2  -7  14   77.59   11.40
   2   7  14   67.59   10.30
   2   7  14   82.99   11.50
   3  -7  14  107.79   13.20
   3  -7  14  101.49   13.70
   3   7  14   98.19   12.20
   3   7  14  109.79   13.50
   4  -7  14    4.10    5.20
   4  -7  14   -3.60    4.40
   4   7  14    3.50    5.30
   5  -7  14   37.50    9.30
   5   7  14   41.30    9.90
   6  -7  14    2.40    5.10
   6   7  14    7.40    6.50
  14  -8 -14    6.20    6.20
 -14  -8  14   -2.70    4.80
  14   8 -14   12.80    6.80
 -14   8  14   -1.60    4.80
  13  -8 -14    8.00    6.50
 -13  -8  14   12.00    7.30
 -13   8  14   11.70    6.80
  13   8 -14   12.30    6.10
  12  -8 -14    8.40    6.50
 -12  -8  14   -2.70    4.70
 -12   8  14    3.50    5.00
  11  -8 -14   -4.00    4.20
 -11  -8  14   -2.80    4.30
 -11   8  14   -1.00    4.50
 -10  -8  14    7.20    5.80
  10  -8 -14    0.10    4.90
 -10   8  14    5.50    5.70
   9  -8 -14   90.69   12.80
  -9  -8  14  103.79   14.50
  -9   8  14  125.09   15.70
  -8  -8  14    1.40    4.90
  -8   8  14   -1.40    4.90
  -7  -8  14   37.30    9.20
  -7   8  14   49.10   10.00
  -6  -8  14    0.00    5.00
  -6   8  14    1.50    4.60
  -5  -8  14   45.20    9.50
  -5   8  14   56.79   10.20
  -4  -8  14   15.10    6.80
  -4   8  14   26.40    7.70
  -3  -8  14   29.80    8.30
  -3   8  14   30.70    8.40
  -2  -8  14   31.00    8.40
  -2   8  14   18.00    6.70
  -2   8  14   23.50    6.40
  -1  -8  14  109.89   14.00
  -1   8  14   78.89    9.90
  -1   8  14   79.29   11.90
   0  -8  14   74.09   11.70
   0   8  14   66.29    9.80
   0   8  14   73.79   11.50
   1  -8  14  197.28   18.30
   1   8  14  196.18   18.20
   1   8  14  180.58   16.40
   2  -8  14    4.00    5.00
   2   8  14    3.10    4.50
   2   8  14    2.40    4.20
   3  -8  14  115.49   14.40
   3   8  14  127.29   14.20
   3   8  14  135.69   14.20
   4  -8  14    4.50    5.90
   4  -8  14    3.40    5.00
   4   8  14    5.20    5.90
   5  -8  14   -0.20    4.50
   5   8  14   -5.70    5.20
   6  -8  14   28.00    8.50
   6   8  14   30.90    9.00
  14  -9 -14    7.90    6.30
 -14  -9  14    1.50    5.60
 -14   9  14   10.20    7.60
  14   9 -14    6.50    5.90
 -13  -9  14   36.50    9.80
  13  -9 -14   30.80    9.40
  13   9 -14   45.90   10.10
 -13   9  14   33.80    9.50
 -12  -9  14   12.30    7.30
  12  -9 -14    9.10    6.30
 -12   9  14    4.10    5.80
 -11  -9  14    5.20    6.20
  11  -9 -14    2.60    6.20
 -11   9  14   -4.00    4.10
 -10  -9  14    2.50    5.80
  10  -9 -14   -4.80    4.10
 -10   9  14   -2.60    4.70
   9  -9 -14   32.50    8.60
  -9  -9  14   29.70    8.80
  -9   9  14   50.99   10.50
  -8  -9  14    2.30    5.30
  -8   9  14    1.90    4.90
  -7  -9  14  185.88   19.00
  -7   9  14  155.88   17.40
  -6  -9  14    7.10    6.00
  -6   9  14   10.10    6.30
  -5  -9  14  157.28   17.20
  -5   9  14  152.98   16.80
  -4  -9  14   -0.10    4.60
  -4   9  14    0.20    4.30
  -3  -9  14   52.19   10.10
  -3   9  14   51.09    9.90
  -2  -9  14   17.20    7.00
  -2   9  14   29.40    7.90
  -1  -9  14    8.10    6.20
  -1   9  14    4.80    5.00
  -1   9  14    5.90    5.20
   0  -9  14   75.59   12.00
   0   9  14   55.09   10.20
   0   9  14   75.19    9.90
   1  -9  14  118.69   14.50
   1   9  14  101.99   13.10
   2  -9  14   30.70    8.60
   2   9  14   20.20    7.00
   2   9  14   10.70    5.30
   3  -9  14  133.09   15.10
   3   9  14   83.99   12.40
   3   9  14  126.69   14.20
   4  -9  14    2.40    5.40
   4  -9  14    4.70    5.20
   4   9  14    3.50    5.70
   5  -9  14   50.29   10.60
   5   9  14   47.10   10.00
  13 -10 -14   58.49   11.90
 -13 -10  14   55.59   11.70
  13  10 -14   50.69   10.70
 -13  10  14   83.99   14.50
 -12 -10  14   23.60    8.60
  12 -10 -14   11.20    6.40
 -12  10  14    4.90    6.20
  11 -10 -14    1.70    4.90
 -11 -10  14    2.40    6.20
 -11  10  14   -0.20    5.00
  10 -10 -14   50.79   10.50
 -10 -10  14   25.00    8.70
 -10  10  14   44.70   10.50
  -9 -10  14   52.09   10.90
   9 -10 -14   43.00    9.80
  -9  10  14   47.50   11.00
  -8 -10  14   -1.30    5.20
  -8  10  14    0.50    5.20
  -7 -10  14  106.59   14.70
  -7  10  14   91.19   13.60
  -6 -10  14   20.70    7.40
  -6  10  14   17.80    7.40
  -5 -10  14   -1.60    4.80
  -5  10  14    4.00    4.70
  -4 -10  14   22.20    8.10
  -4  10  14   20.60    7.70
  -3 -10  14   -2.40    4.50
  -3  10  14   10.50    5.70
  -2 -10  14   -3.80    4.40
  -2  10  14   -0.60    5.10
  -1 -10  14   79.69   12.10
  -1  10  14   80.89   12.30
   0 -10  14    5.10    5.40
   0  10  14    3.80    5.70
   1 -10  14   25.10    7.80
   1  10  14   34.80    8.20
   1  10  14   44.50    8.70
   2 -10  14    2.70    5.00
   2  10  14   16.70    7.00
   2  10  14   18.20    6.80
   3 -10  14  169.98   17.20
   3  10  14  124.49   14.70
   3  10  14  130.99   15.20
   4 -10  14    9.30    6.20
   4 -10  14    2.50    5.20
   4  10  14    4.10    5.60
 -12 -11  14   -0.40    6.80
  12 -11 -14    1.40    5.60
 -12  11  14   -2.30    5.40
  11 -11 -14    3.90    6.00
 -11 -11  14    3.90    6.50
 -11  11  14    7.40    6.80
  10 -11 -14    0.40    6.40
 -10 -11  14   18.10    7.70
 -10  11  14   16.60    7.20
  -9 -11  14   13.80    7.40
   9 -11 -14   21.50    7.50
  -9  11  14   30.00    9.10
  -8 -11  14    3.00    5.90
  -8  11  14    2.90    5.50
  -7 -11  14   21.60    8.20
  -7  11  14   16.60    7.60
  -6 -11  14   10.10    6.50
  -6  11  14    6.70    6.60
  -5 -11  14   24.90    8.40
  -5  11  14   22.40    7.90
  -4 -11  14   19.50    7.50
  -4  11  14   16.50    7.30
  -3 -11  14   10.90    6.10
  -3  11  14    7.30    6.00
  -2 -11  14   -0.20    4.50
  -2  11  14   -1.60    5.20
  -1 -11  14   10.10    5.90
  -1  11  14    8.70    6.30
   0 -11  14   -1.20    4.20
   0  11  14    2.40    5.80
   1 -11  14   43.80    9.70
   1  11  14   27.10    8.20
   2 -11  14   25.90    8.70
   2  11  14   13.40    6.90
   2  11  14   -0.40    3.90
   3 -11  14    5.60    5.80
   3  11  14    7.10    5.70
   3  11  14    9.40    6.30
 -11 -12  14    5.60    6.90
  11 -12 -14    3.70    6.90
 -11  12  14    2.00    5.90
 -10 -12  14    6.50    7.00
  10 -12 -14   -6.80    4.10
 -10  12  14    3.90    6.10
  -9 -12  14   65.39   12.70
   9 -12 -14   77.59   12.80
  -9  12  14   64.89   12.50
  -8 -12  14    0.80    5.50
  -8  12  14    2.70    6.70
  -7 -12  14    8.50    6.10
  -7  12  14   12.90    7.10
  -6 -12  14    2.40    5.00
  -6  12  14    2.40    5.20
  -5 -12  14    2.90    5.10
  -5  12  14   -2.40    5.00
  -4 -12  14    6.00    7.00
  -4  12  14    9.40    6.20
  -3 -12  14   10.80    6.50
  -3  12  14   21.30    7.60
  -2 -12  14   14.90    7.00
  -2  12  14   29.40    8.40
  -1 -12  14   14.70    7.10
  -1  12  14    2.00    5.50
   0 -12  14   15.30    7.50
   0  12  14   10.00    6.90
   1 -12  14   43.40   10.40
   1  12  14   35.60   11.10
   2 -12  14    6.70    5.80
   2  12  14    6.00    6.30
  -9 -13  14    0.00    6.20
   9 -13 -14   -0.60    5.30
  -9  13  14    5.50    7.00
  -8 -13  14   12.50    7.50
  -8  13  14   11.30    7.30
  -7 -13  14   83.59   14.80
  -7  13  14   99.09   15.10
  -6 -13  14   32.50    9.70
  -6  13  14   40.90   10.50
  -5 -13  14  165.18   19.30
  -5  13  14  194.38   20.70
  -4 -13  14   32.90    9.50
  -4  13  14   44.20   10.50
  -3 -13  14   28.70    9.20
  -3  13  14   58.69   11.90
  -2 -13  14    4.50    6.20
  -2  13  14    1.50    4.90
  -1 -13  14    5.20    6.30
  -1  13  14   17.80    7.70
   0 -13  14    0.60    5.60
   0  13  14    4.50    5.70
   1 -13  14   11.30    6.70
   1  13  14    5.70    6.00
  -7  14  14    5.50    6.60
  -6 -14  14   -0.70    5.80
  -6  14  14    2.50    5.80
  -5 -14  14    8.50    7.00
  -5  14  14    9.80    7.10
  -4 -14  14   10.20    7.30
  -4  14  14    1.00    6.00
  -3 -14  14   20.00    8.70
  -3  14  14   20.40    8.80
  -2 -14  14   -3.10    5.70
  -2  14  14    4.50    6.30
  16   0 -15    7.30    6.10
 -16   0  15   -2.70    5.30
 -15   0  15    8.20    6.40
  15   0 -15   33.00    9.70
  14   0 -15    1.80    5.20
 -14   0  15    0.80    4.80
  13   0 -15    1.70    4.80
 -13   0  15    9.60    6.10
  12   0 -15    0.90    4.20
 -12   0  15   -3.80    3.70
 -11   0  15   33.00    8.70
  11   0 -15   35.90    8.70
 -10   0  15   -5.70    3.40
  -9   0  15   42.90    9.40
  -8   0  15    1.10    4.40
  -7   0  15  457.45   25.90
  -6   0  15   -0.10    4.00
  -5   0  15  379.76   22.70
  -4   0  15    6.90    4.80
  -3   0  15   24.10    6.50
  -3   0  15   12.20    5.50
  -2   0  15   -2.50    3.20
  -2   0  15   -3.90    3.10
  -1   0  15   15.00    5.50
  -1   0  15   12.50    5.40
   0   0  15    5.10    5.10
   0   0  15    0.90    3.70
   1   0  15   90.39   11.60
   1   0  15   88.89   11.20
   2   0  15   -2.00   11.50
   2   0  15   -0.70    4.40
   3   0  15  129.29   14.70
   3   0  15  135.29   14.30
   4   0  15    4.00    5.40
   5   0  15   82.99   12.30
   6   0  15    0.30    4.90
   7   0  15   62.99   12.00
  16  -1 -15    3.60    7.00
 -16  -1  15   -0.60    5.70
 -16   1  15    0.60    6.50
  16   1 -15    5.40    6.40
 -15  -1  15   -2.10    4.80
  15  -1 -15    0.50    5.20
  15   1 -15    5.20    7.00
 -15   1  15    4.30    5.50
  14  -1 -15    1.40    5.20
 -14  -1  15   -5.30    5.20
 -14   1  15   -3.80    4.00
  14   1 -15    3.30    4.50
 -13  -1  15   14.60    6.80
  13  -1 -15    7.10    5.90
 -13   1  15   11.60    6.10
  13   1 -15   10.60    6.80
 -12  -1  15   42.50    9.40
  12  -1 -15   76.29   12.30
 -12   1  15   92.79   13.10
  12   1 -15   64.79   11.20
  11  -1 -15  153.58   16.30
 -11  -1  15  143.19   16.50
 -11   1  15  132.09   15.60
 -10  -1  15   18.00    7.00
 -10   1  15   19.80    7.20
  -9  -1  15  212.98   20.10
  -9   1  15  232.28   17.70
  -8  -1  15   30.90    7.90
  -8   1  15   33.70    8.30
  -7  -1  15   35.30    8.50
  -7   1  15   35.20    8.70
  -6  -1  15   17.80    6.60
  -6   1  15   15.40    6.50
  -5  -1  15    1.10    4.50
  -5   1  15    6.10    5.10
  -4  -1  15   51.09    9.20
  -4   1  15   22.60    5.50
  -4   1  15   39.70    8.40
  -3  -1  15   75.49   11.20
  -3   1  15   53.09    8.50
  -3   1  15   63.89   10.30
  -2  -1  15    0.50    3.30
  -2  -1  15    6.20    4.70
  -2   1  15    1.50    3.80
  -2   1  15    5.70    4.40
  -1  -1  15   15.40    6.30
  -1  -1  15   11.70    5.30
  -1   1  15   17.40    5.80
  -1   1  15    7.70    4.50
   0  -1  15    1.40    4.40
   0  -1  15    1.20    3.80
   0   1  15    3.90    4.90
   0   1  15    1.50    4.10
   1  -1  15  152.38   15.30
   1  -1  15  160.78   15.50
   1   1  15  153.58   15.20
   1   1  15  140.29   14.70
   2  -1  15    1.10    3.60
   2  -1  15   -1.50    4.30
   2   1  15    2.30    4.20
   2   1  15   -2.70    4.20
   3  -1  15  338.47   19.90
   3  -1  15  344.47   21.60
   3   1  15  290.77   20.00
   3   1  15  333.47   19.50
   4  -1  15   10.70    6.30
   4   1  15    4.80    5.10
   5  -1  15    9.10    6.80
   5   1  15   11.20    6.00
   6  -1  15    0.10    5.10
   6   1  15    0.20    5.20
   7  -1  15   19.60    7.80
   7   1  15   51.39   10.80
  16  -2 -15    0.00    6.70
 -16  -2  15    1.00    6.10
 -16   2  15    3.60    6.60
  16   2 -15   -4.90    4.50
 -15  -2  15   59.29   11.90
  15  -2 -15   78.89   13.20
  15   2 -15   70.59   12.10
 -15   2  15   76.69   12.80
 -14  -2  15    2.80    4.80
  14  -2 -15    0.30    5.00
  14   2 -15   -1.20    4.70
 -14   2  15   -2.10    4.50
  13  -2 -15   31.70    9.10
 -13  -2  15   32.20    8.70
 -13   2  15   13.30    6.40
  13   2 -15   27.00    8.10
  12  -2 -15    8.60    6.20
 -12  -2  15   13.60    6.90
 -12   2  15    7.30    5.60
 -11  -2  15   76.29   11.90
  11  -2 -15   61.29   10.80
 -11   2  15   59.69   10.90
 -10  -2  15   81.89   12.60
 -10   2  15   49.00    9.90
  -9  -2  15  347.37   22.50
  -9   2  15  334.27   22.00
  -8  -2  15   25.70    7.40
  -8   2  15   30.90    8.20
  -7  -2  15  164.78   16.90
  -7   2  15  152.18   16.30
  -6  -2  15   20.00    6.60
  -6   2  15   20.00    5.40
  -6   2  15   15.10    6.30
  -5  -2  15    8.60    5.30
  -5   2  15    3.50    4.00
  -5   2  15   -1.30    3.90
  -4  -2  15    2.90    4.50
  -4   2  15   12.00    4.30
  -4   2  15   11.50    5.70
  -3  -2  15    2.10    4.50
  -3   2  15    1.60    4.30
  -3   2  15    6.80    3.90
  -2  -2  15    8.50    5.20
  -2   2  15    9.70    4.50
  -2   2  15    4.50    5.00
  -1  -2  15   16.10    6.00
  -1  -2  15    9.10    5.20
  -1   2  15   10.40    5.30
  -1   2  15    7.20    4.30
   0  -2  15    2.30    5.20
   0  -2  15    0.60    4.50
   0   2  15   -0.70    3.70
   0   2  15    2.10    4.80
   1  -2  15   72.59   10.80
   1  -2  15   84.99   11.30
   1   2  15   82.09   11.10
   1   2  15   54.69    9.30
   2  -2  15   29.70    7.50
   2  -2  15   19.10    6.40
   2   2  15   25.30    6.90
   2   2  15   30.80    7.50
   3  -2  15   -0.30    4.10
   3  -2  15    0.40    4.30
   3   2  15   -0.50    4.50
   3   2  15    6.30    4.90
   4  -2  15    4.90    5.50
   4   2  15    8.60    6.10
   5  -2  15   45.80   10.00
   5   2  15   51.79   10.10
   6  -2  15    3.90    6.00
   6   2  15   14.40    7.40
   7  -2  15  124.49   16.00
   7   2  15   97.49   14.50
 -16  -3  15   14.80    8.30
  16  -3 -15    2.60    6.30
  16   3 -15    1.50    5.40
 -16   3  15   11.30    7.00
  15  -3 -15   13.50    7.50
 -15  -3  15   25.50    8.50
 -15   3  15   24.90    8.80
  15   3 -15    7.10    6.70
  14  -3 -15   35.00    9.20
 -14  -3  15   43.80   10.10
  14   3 -15   78.99   12.50
 -14   3  15   44.10   10.20
  13  -3 -15   20.60    8.10
 -13  -3  15   20.00    7.60
 -13   3  15   12.10    6.80
  13   3 -15   11.20    6.00
  12  -3 -15   -3.10    3.80
 -12  -3  15    4.30    6.30
 -12   3  15   -0.70    4.20
  11  -3 -15   19.40    7.50
 -11  -3  15   22.60    7.40
 -11   3  15   19.90    7.50
 -10  -3  15   49.10    9.80
  10  -3 -15   71.09   11.30
 -10   3  15   43.30    9.60
  -9  -3  15  122.39   14.90
  -9   3  15  119.09   14.70
  -8  -3  15    1.60    4.80
  -8   3  15    2.10    5.00
  -7  -3  15  124.69   14.60
  -7   3  15  125.49   14.70
  -6  -3  15  100.89   13.30
  -6   3  15   95.49    9.40
  -6   3  15  102.69   13.20
  -5  -3  15   -1.50    4.00
  -5   3  15    2.10    3.40
  -5   3  15    2.00    4.10
  -4  -3  15  340.77   21.80
  -4   3  15  368.46   18.70
  -4   3  15  354.66   21.80
  -3  -3  15   93.29   12.60
  -3   3  15   90.69   10.20
  -3   3  15   82.79   11.70
  -2  -3  15   34.00    7.90
  -2   3  15   42.20    7.50
  -2   3  15   43.80    8.70
  -1  -3  15   77.79   11.30
  -1   3  15   83.49   11.90
  -1   3  15   91.19   10.90
   0  -3  15   28.60    7.40
   0  -3  15   24.20    6.80
   0   3  15   17.70    5.70
   0   3  15   22.30    7.00
   1  -3  15   50.39    9.60
   1  -3  15   65.59   10.40
   1   3  15   91.19   11.60
   1   3  15   84.69   11.00
   2  -3  15    7.20    5.30
   2  -3  15   12.40    5.50
   2   3  15    6.60    4.90
   2   3  15   10.80    5.80
   3  -3  15  115.39   14.20
   3  -3  15  143.49   14.60
   3   3  15  134.79   13.80
   3   3  15  136.09   14.90
   4  -3  15    9.40    5.60
   4   3  15   14.90    6.50
   5  -3  15    9.00    6.10
   5   3  15   -4.50    4.60
   6  -3  15    2.50    5.60
   6   3  15    4.20    5.80
  15  -4 -15   35.50   10.20
 -15  -4  15   35.90    9.80
  15   4 -15   39.70   10.20
 -15   4  15   45.50   10.40
  14  -4 -15    7.40    5.40
 -14  -4  15    4.90    6.10
  14   4 -15    4.70    5.70
 -14   4  15    6.00    6.80
  13  -4 -15   27.10    8.90
 -13  -4  15   26.30    8.70
 -13   4  15   22.80    8.20
  12  -4 -15    0.50    4.80
 -12  -4  15    5.70    5.80
 -12   4  15    2.10    5.00
  11  -4 -15    4.80    5.30
 -11  -4  15   -3.10    4.40
 -11   4  15    2.50    5.10
  10  -4 -15   -3.10    3.30
 -10  -4  15   -0.10    4.90
 -10   4  15   11.20    6.00
  -9  -4  15   -0.90    5.10
  -9   4  15    6.80    5.20
  -8  -4  15   64.19   11.50
  -8   4  15   55.19   10.30
  -7  -4  15  306.77   20.60
  -7   4  15  285.97   20.00
  -6  -4  15   14.80    6.20
  -6   4  15   22.10    6.90
  -5  -4  15  171.68   17.10
  -5   4  15  178.38   17.80
  -5   4  15  158.38   11.20
  -4  -4  15   38.10    8.90
  -4   4  15   39.30    8.30
  -4   4  15   43.30    6.90
  -3  -4  15   18.30    6.50
  -3   4  15    7.60    4.40
  -3   4  15   28.30    7.70
  -2  -4  15    5.30    5.40
  -2   4  15   -0.70    3.20
  -2   4  15    9.40    5.60
  -1  -4  15   17.80    6.60
  -1   4  15   16.90    5.30
  -1   4  15    8.20    5.00
   0  -4  15    3.60    5.30
   0   4  15    1.90    3.60
   0   4  15    1.60    4.30
   1  -4  15    4.20    4.90
   1  -4  15   19.10    6.70
   1   4  15    6.90    4.80
   1   4  15    2.40    4.30
   2  -4  15  115.59   13.50
   2  -4  15  131.39   14.60
   2   4  15  136.39   14.40
   2   4  15  120.99   13.50
   3  -4  15   20.80    7.20
   3  -4  15    7.60    5.80
   3   4  15    8.10    5.40
   3   4  15   15.40    6.20
   4  -4  15   24.40    7.70
   4   4  15   22.40    7.60
   5  -4  15  176.38   18.30
   5   4  15  171.78   17.70
   6  -4  15   18.90    7.10
   6   4  15    2.10    5.70
  15  -5 -15   -7.70    4.60
 -15  -5  15   13.80    7.60
  15   5 -15    3.60    5.40
 -15   5  15   -0.60    5.70
  14  -5 -15    8.50    5.70
 -14  -5  15    6.60    6.10
 -14   5  15    4.60    5.90
  13  -5 -15   19.80    7.80
 -13  -5  15   40.60   10.30
 -13   5  15   12.10    6.50
 -12  -5  15   72.59   12.50
  12  -5 -15   73.39   12.30
 -12   5  15   59.89   11.90
  11  -5 -15  100.49   13.70
 -11  -5  15  110.39   14.90
 -11   5  15  111.99   15.10
 -10  -5  15   -6.90    3.70
  10  -5 -15   -0.80    4.50
 -10   5  15    3.90    5.30
  -9  -5  15   77.39   12.30
  -9   5  15   92.89   13.30
  -8  -5  15   -2.30    3.90
  -8   5  15    5.00    5.10
  -7  -5  15    7.90    5.50
  -7   5  15    3.30    5.10
  -6  -5  15    5.20    5.10
  -6   5  15    5.80    5.50
  -5  -5  15    2.70    4.80
  -5   5  15   -2.10    3.80
  -4  -5  15   -3.00    4.20
  -4   5  15    1.10    4.00
  -4   5  15    1.50    3.10
  -3  -5  15   18.10    7.10
  -3   5  15   10.50    5.70
  -3   5  15   13.30    4.90
  -2  -5  15    7.90    5.50
  -2   5  15    5.30    4.00
  -2   5  15    6.90    5.00
  -1  -5  15   52.89    9.90
  -1   5  15   67.69   10.80
   0  -5  15   20.70    6.70
   0   5  15   20.10    6.70
   0   5  15   14.80    5.30
   1  -5  15   33.60    8.40
   1  -5  15   20.50    6.60
   1   5  15   25.20    6.80
   1   5  15   30.00    7.60
   2  -5  15   32.70    8.10
   2  -5  15   30.40    8.10
   2   5  15   26.00    7.00
   2   5  15   45.10    9.00
   3  -5  15  110.79   14.10
   3  -5  15   94.19   12.90
   3   5  15  113.79   13.10
   3   5  15   92.49   12.60
   4  -5  15   -2.40    5.30
   4   5  15    0.50    5.10
   5  -5  15   17.10    6.90
   5   5  15   36.90    9.10
   6  -5  15    3.90    5.80
   6   5  15   13.20    7.00
 -15  -6  15   21.50    8.60
  15  -6 -15    3.10    6.70
 -15   6  15   14.80    7.30
  14  -6 -15    0.20    6.10
 -14  -6  15    8.80    7.30
 -14   6  15    2.70    5.50
  13  -6 -15   15.50    7.40
 -13  -6  15   15.50    7.70
 -13   6  15    6.90    5.80
  12  -6 -15   17.10    6.90
 -12  -6  15   -0.60    5.50
 -12   6  15    3.90    5.40
  11  -6 -15   10.20    6.10
 -11  -6  15    1.00    5.40
 -11   6  15    1.90    5.40
  10  -6 -15  134.09   16.00
 -10  -6  15  104.99   14.80
 -10   6  15  115.89   15.20
  -9  -6  15    6.60    5.90
  -9   6  15   14.30    6.30
  -8  -6  15   26.00    7.70
  -8   6  15   14.80    6.60
  -7  -6  15  131.49   16.00
  -7   6  15  156.98   17.10
  -6  -6  15    2.50    4.70
  -6   6  15    2.10    4.70
  -5  -6  15    6.80    5.50
  -5   6  15   -0.60    4.00
  -4  -6  15   25.70    7.60
  -4   6  15   26.60    7.60
  -3  -6  15    1.80    5.10
  -3   6  15    5.70    5.00
  -3   6  15    3.50    3.90
  -2  -6  15  108.39   13.80
  -2   6  15  108.49   13.50
  -2   6  15  114.69   11.50
  -1  -6  15    5.80    5.10
  -1   6  15    0.30    4.10
  -1   6  15    4.50    4.30
   0  -6  15   23.50    7.80
   0   6  15   28.10    7.30
   0   6  15   21.30    6.30
   1  -6  15    2.60    5.30
   1   6  15    5.60    4.50
   1   6  15    3.70    4.90
   2  -6  15   19.80    7.20
   2  -6  15   12.90    6.20
   2   6  15   10.30    5.90
   2   6  15   21.80    6.60
   3  -6  15    4.20    5.50
   3  -6  15    5.30    5.40
   3   6  15   -8.00    4.20
   3   6  15   -1.00    5.10
   4  -6  15    3.20    5.20
   4   6  15   14.80    7.20
   5  -6  15    6.40    6.00
   5   6  15    4.00    6.00
  14  -7 -15   29.10    9.10
 -14  -7  15    4.50    6.50
 -14   7  15   10.40    7.30
  13  -7 -15   13.90    7.40
 -13  -7  15    4.10    5.80
 -13   7  15    5.30    5.90
 -12  -7  15   -1.40    5.10
  12  -7 -15   -5.60    4.70
 -12   7  15    1.90    5.70
 -11  -7  15   -3.20    4.70
  11  -7 -15   -3.20    4.30
 -11   7  15   -3.00    4.70
 -10  -7  15    4.10    5.20
  10  -7 -15    4.00    5.00
 -10   7  15   -4.80    4.40
  -9  -7  15   -3.60    4.80
  -9   7  15    4.20    5.70
  -8  -7  15   -3.20    4.40
  -8   7  15    4.20    5.40
  -7  -7  15   19.00    7.10
  -7   7  15   18.50    7.20
  -6  -7  15   19.20    7.10
  -6   7  15   25.30    7.70
  -5  -7  15   30.50    8.80
  -5   7  15   19.80    7.10
  -4  -7  15   23.80    7.70
  -4   7  15   29.50    8.60
  -3  -7  15    2.90    4.80
  -3   7  15    4.20    5.30
  -2  -7  15   95.09   13.20
  -2   7  15   95.59   13.00
  -2   7  15  105.49   11.40
  -1  -7  15   31.20    8.10
  -1   7  15   31.60    6.70
  -1   7  15   35.30    8.30
   0  -7  15    5.30    5.70
   0   7  15    0.10    2.80
   0   7  15    0.70    4.70
   1  -7  15   15.70    7.10
   1   7  15   22.00    6.60
   1   7  15   18.40    6.60
   2  -7  15   41.80    9.20
   2   7  15   45.30    8.90
   2   7  15   47.30    9.60
   3  -7  15    4.70    5.60
   3  -7  15   16.10    7.00
   3   7  15   13.50    6.40
   3   7  15   20.60    6.80
   4  -7  15   32.70    8.60
   4   7  15   26.20    8.30
   5  -7  15    6.50    5.50
   5   7  15    1.70    5.70
  14  -8 -15   11.30    7.60
 -14  -8  15    9.10    8.30
 -14   8  15    9.30    7.80
  13  -8 -15   36.10    9.60
 -13  -8  15   39.80    9.90
 -13   8  15   36.60   10.00
 -12  -8  15   60.69   12.60
  12  -8 -15   79.89   13.50
 -12   8  15   67.49   12.80
 -11  -8  15   45.60   10.60
  11  -8 -15   52.29   10.70
 -11   8  15   36.30    9.90
 -10  -8  15    1.90    5.50
  10  -8 -15    1.80    5.20
 -10   8  15    3.50    6.00
  -9  -8  15   25.00    8.10
  -9   8  15   36.70    9.80
  -8  -8  15   82.99   13.20
  -8   8  15  116.69   15.20
  -7  -8  15    3.10    5.10
  -7   8  15   10.10    5.90
  -6  -8  15   34.50    9.00
  -6   8  15   27.30    7.90
  -5  -8  15    1.90    5.10
  -5   8  15   -1.70    4.50
  -4  -8  15    4.60    5.90
  -4   8  15    6.80    5.70
  -3  -8  15    3.80    5.30
  -3   8  15    5.80    5.30
  -2  -8  15   66.69   11.80
  -2   8  15   82.49   12.40
  -1  -8  15   13.20    6.70
  -1   8  15   11.50    6.60
  -1   8  15   19.30    6.10
   0  -8  15   48.70    9.80
   0   8  15   38.80    8.80
   0   8  15   41.30    8.40
   1  -8  15   22.50    8.00
   1   8  15   46.10    9.20
   1   8  15   20.90    7.70
   2  -8  15   43.20    9.30
   2   8  15   64.89   10.70
   2   8  15   66.39   10.70
   3  -8  15   -3.20    4.50
   3  -8  15   -4.50    5.10
   3   8  15    5.50    5.30
   3   8  15    3.50    5.50
   4  -8  15    6.80    6.20
   4   8  15    5.20    5.80
  13  -9 -15   -5.30    4.60
 -13  -9  15   -0.80    5.60
 -13   9  15    5.40    6.00
  12  -9 -15    0.70    4.80
 -12  -9  15    5.00    6.70
 -12   9  15   -5.50    4.50
  11  -9 -15   28.10    8.80
 -11  -9  15   37.00   10.20
 -11   9  15   31.30    9.70
 -10  -9  15    7.10    6.70
  10  -9 -15    5.40    6.70
 -10   9  15   19.10    8.00
  -9  -9  15    3.30    6.10
  -9   9  15    0.00    4.80
  -8  -9  15   53.99   11.30
  -8   9  15   53.09   10.70
  -7  -9  15   -0.70    4.80
  -7   9  15    6.70    5.70
  -6  -9  15    9.60    6.40
  -6   9  15    5.60    5.80
  -5  -9  15   -4.10    4.40
  -5   9  15    4.90    5.70
  -4  -9  15    9.00    6.10
  -4   9  15   10.00    6.50
  -3  -9  15   -1.30    5.10
  -3   9  15    1.30    4.80
  -2  -9  15   15.30    6.80
  -2   9  15   13.50    6.50
  -1  -9  15   30.30    8.70
  -1   9  15   31.00    8.30
   0  -9  15   -2.90    4.20
   0   9  15    6.50    5.40
   0   9  15   13.10    5.90
   1  -9  15   19.90    7.80
   1   9  15   -1.20    3.10
   1   9  15   20.50    7.00
   2  -9  15    4.00    5.70
   2   9  15    3.20    5.50
   2   9  15    3.80    6.00
   3  -9  15    6.40    5.70
   3  -9  15    1.10    5.10
   3   9  15   11.70    6.20
   3   9  15   13.70    6.10
   4  -9  15   -3.20    5.10
   4   9  15    3.30    6.10
  12 -10 -15   11.20    7.70
 -12 -10  15    8.40    7.50
 -12  10  15    6.60    6.80
  11 -10 -15   -5.20    5.10
 -11 -10  15   -1.60    6.40
 -11  10  15   -0.70    4.80
 -10 -10  15   16.00    7.80
  10 -10 -15    7.20    6.30
 -10  10  15   12.70    7.60
  -9 -10  15   -0.30    5.70
  -9  10  15   -7.80    3.80
  -8 -10  15    8.40    6.90
  -8  10  15   17.80    7.80
  -7 -10  15    5.20    5.70
  -7  10  15    8.30    6.10
  -6 -10  15   24.40    8.40
  -6  10  15   21.50    7.90
  -5 -10  15    2.10    5.40
  -5  10  15   10.80    6.20
  -4 -10  15    4.30    5.40
  -4  10  15   -1.00    5.30
  -3 -10  15   -0.80    4.60
  -3  10  15   -4.80    3.90
  -2 -10  15   98.79   14.20
  -2  10  15   66.69   12.10
  -1 -10  15    4.70    6.10
  -1  10  15    5.70    5.60
   0 -10  15   81.89   13.00
   0  10  15   79.79   12.60
   1 -10  15    6.00    5.90
   1  10  15    4.40    8.20
   1  10  15    5.50    5.50
   2 -10  15   42.60   10.00
   2  10  15   39.60    9.20
   2  10  15   36.90    9.00
   3 -10  15    0.40    6.10
   3  10  15    1.80    5.40
 -11 -11  15   -0.90    6.00
  11 -11 -15    3.00    6.20
 -11  11  15   -5.90    4.90
 -10 -11  15   38.20   11.00
  10 -11 -15   33.60    9.20
 -10  11  15   26.30    9.50
  -9 -11  15   16.20    8.00
  -9  11  15   20.40    8.50
  -8 -11  15   13.50    7.90
  -8  11  15    3.00    5.90
  -7 -11  15   -2.60    5.20
  -7  11  15    0.80    5.20
  -6 -11  15   73.59   13.10
  -6  11  15  100.79   14.80
  -5 -11  15    1.70    5.60
  -5  11  15    0.50    5.60
  -4 -11  15   74.19   12.90
  -4  11  15   76.29   12.50
  -3 -11  15    0.40    5.50
  -3  11  15    1.40    5.10
  -2 -11  15    6.80    6.40
  -2  11  15    1.70    5.30
  -1 -11  15   -7.10    4.40
  -1  11  15   -7.70    4.10
   0 -11  15    5.20    6.60
   0  11  15   -4.50    4.80
   1 -11  15    3.40    5.80
   1  11  15   18.00    7.40
   2 -11  15   -2.60    5.40
   2  11  15    4.80    5.60
  -9 -12  15    2.40    6.10
  -9  12  15    8.60    7.00
  -8 -12  15    8.60    7.10
  -8  12  15   43.90   10.60
  -7 -12  15   19.40    8.50
  -7  12  15   29.80    9.60
  -6 -12  15    7.70    6.90
  -6  12  15    2.00    6.70
  -5 -12  15   -4.70    5.40
  -5  12  15   -0.10    6.40
  -4 -12  15   12.50    7.50
  -4  12  15   22.50    8.50
  -3 -12  15   28.50    8.90
  -3  12  15   15.00    7.30
  -2 -12  15   34.30    9.60
  -2  12  15   30.50    9.30
  -1 -12  15    3.20    6.00
  -1  12  15   -6.10    5.00
   0 -12  15   18.20    7.70
   0  12  15   21.80    8.30
  -7 -13  15   18.10    8.10
  -7  13  15   -0.80    5.60
  -6 -13  15   19.50    8.10
  -6  13  15   34.90   10.40
  -5 -13  15    6.70    6.30
  -5  13  15    3.80    5.70
  -4 -13  15    7.50    6.70
  -4  13  15    6.20    6.60
  -3 -13  15    3.20    6.20
  -3  13  15    2.30    6.40
  -2 -13  15    2.30    5.80
  -2  13  15    5.20    6.50
  15   0 -16   -0.60    5.50
 -15   0  16    3.70    5.80
 -14   0  16    6.20    5.90
  14   0 -16    2.50    5.70
  13   0 -16    0.10    5.00
 -13   0  16   -2.80    4.60
 -12   0  16  109.29   14.70
 -11   0  16   -3.10    4.50
 -10   0  16    5.70    5.70
  -9   0  16    0.50    4.50
  -8   0  16  147.19   16.60
  -7   0  16    7.20    5.30
  -6   0  16  118.69   14.40
  -5   0  16   -2.20    4.10
  -4   0  16   64.79   11.00
  -4   0  16   78.69   10.40
  -3   0  16   -3.50    3.20
  -3   0  16   -0.10    4.10
  -2   0  16   24.00    7.20
  -2   0  16   34.20    7.30
  -1   0  16   -0.10    4.10
  -1   0  16   -3.30    3.90
   0   0  16   77.59   11.30
   0   0  16   85.79   11.50
   1   0  16    1.60    3.90
   1   0  16   -0.60    3.70
   2   0  16   18.80    6.90
   2   0  16    6.10    5.10
   3   0  16    1.40    4.70
   4   0  16   22.70    8.00
   5   0  16    1.70    5.00
 -15  -1  16   10.60    7.00
  15  -1 -16   -2.00    5.50
 -15   1  16    2.80    6.30
  15   1 -16   -3.20    5.50
  14  -1 -16   10.00    8.20
 -14  -1  16   19.70    7.70
  14   1 -16   13.30    7.00
 -14   1  16   16.10    7.80
  13  -1 -16    0.30    5.50
 -13  -1  16   -1.10    5.60
  13   1 -16   -0.50    4.80
 -13   1  16   -1.90    5.70
  12  -1 -16   94.19   13.70
 -12  -1  16  129.09   16.50
 -12   1  16  138.59   16.60
 -11  -1  16   22.00    7.70
 -11   1  16   35.20    9.30
 -10  -1  16    7.80    5.60
 -10   1  16    7.20    5.80
  -9  -1  16   -4.10    4.20
  -9   1  16   -0.60    4.10
  -8  -1  16   17.90    6.90
  -8   1  16    9.20    5.70
  -7  -1  16   45.90    9.50
  -7   1  16   36.60    8.80
  -6  -1  16   20.70    7.00
  -6   1  16   10.60    5.70
  -5  -1  16   24.00    7.50
  -5   1  16   15.60    5.30
  -5   1  16   19.40    7.10
  -4  -1  16   18.10    6.60
  -4   1  16   15.90    6.60
  -4   1  16   28.30    6.60
  -3  -1  16   10.50    5.90
  -3  -1  16    6.50    4.20
  -3   1  16   12.10    5.60
  -3   1  16    7.20    4.60
  -2  -1  16   56.69    9.30
  -2  -1  16   76.89   11.30
  -2   1  16   60.19    9.10
  -2   1  16   78.89   11.30
  -1  -1  16    4.00    4.60
  -1  -1  16   13.80    6.10
  -1   1  16   13.80    6.40
  -1   1  16    5.80    4.20
   0  -1  16  123.29   14.00
   0  -1  16  119.99   14.00
   0   1  16   84.49   11.80
   0   1  16  129.99   14.00
   1  -1  16   34.20    7.90
   1  -1  16   55.19    9.80
   1   1  16   44.50    9.00
   1   1  16   34.80    8.00
   2  -1  16   57.59   10.40
   2  -1  16   64.29   10.20
   2   1  16   59.59   10.30
   2   1  16   50.89    9.50
   3  -1  16   -1.20    5.00
   3  -1  16    6.80    5.60
   3   1  16    9.30    5.80
   4  -1  16    7.30    6.00
   4   1  16   17.50    7.40
   5  -1  16    4.60    5.80
   5   1  16   -3.10    5.20
 -15  -2  16    0.90    6.00
  15  -2 -16   -1.70    5.90
  15   2 -16   -4.10    4.80
 -15   2  16   -3.00    4.30
  14  -2 -16    7.80    5.80
 -14  -2  16    3.90    5.70
  14   2 -16    8.40    6.20
 -14   2  16   -4.60    4.60
  13  -2 -16   30.50    8.50
 -13  -2  16   22.70    8.10
 -13   2  16    8.90    6.30
  12  -2 -16    3.60    5.90
 -12  -2  16    7.30    6.10
 -12   2  16    9.00    6.70
 -11  -2  16   81.79   13.50
 -11   2  16   96.69   14.00
 -10  -2  16   43.30    9.50
 -10   2  16   22.00    7.60
  -9  -2  16    0.30    4.80
  -9   2  16   -2.10    3.90
  -8  -2  16    3.50    5.20
  -8   2  16    1.10    4.40
  -7  -2  16   14.40    6.50
  -7   2  16   29.50    8.00
  -7   2  16   17.50    5.20
  -6  -2  16   82.69   12.50
  -6   2  16   86.29    9.80
  -6   2  16   95.19   12.90
  -5  -2  16    6.30    5.40
  -5   2  16    0.40    4.10
  -5   2  16    2.60    4.60
  -4  -2  16  432.66   24.80
  -4   2  16  395.76   24.20
  -4   2  16  387.76   20.80
  -3  -2  16   -8.20    4.20
  -3   2  16   -2.10    3.60
  -3   2  16   -0.80    3.20
  -2  -2  16  221.58   16.10
  -2  -2  16  198.58   18.90
  -2   2  16  226.38   15.50
  -2   2  16  244.58   17.80
  -1  -2  16   35.40    8.90
  -1  -2  16   33.40    7.90
  -1   2  16   29.20    7.60
  -1   2  16   28.40    7.10
   0  -2  16   71.99   10.90
   0  -2  16   73.49   11.70
   0   2  16   49.90    8.90
   0   2  16   55.09    9.80
   1  -2  16   28.30    8.10
   1  -2  16   36.50    8.50
   1   2  16   31.10    7.60
   1   2  16   35.40    7.90
   2  -2  16   13.70    6.30
   2  -2  16   18.70    6.40
   2   2  16    8.60    5.70
   2   2  16   18.90    6.20
   3  -2  16    0.80    5.70
   3  -2  16    7.10    5.40
   3   2  16   -0.60    4.50
   4  -2  16  266.17   22.80
   4   2  16  248.08   21.70
   5  -2  16   -2.50    4.50
   5   2  16   -0.10    4.60
 -15  -3  16   18.50    7.50
  15  -3 -16   10.70    7.70
 -15   3  16   33.30    9.40
  15   3 -16   15.20    8.00
  14  -3 -16    3.00    5.90
 -14  -3  16   21.40    8.20
 -14   3  16   15.80    7.50
  13  -3 -16   10.40    6.90
 -13  -3  16    6.30    6.80
 -13   3  16   24.10    7.90
 -12  -3  16   24.90    8.50
  12  -3 -16   20.20    7.30
 -12   3  16   11.40    6.90
 -11  -3  16   10.10    6.20
 -11   3  16   19.20    7.20
 -10  -3  16   -3.00    4.50
 -10   3  16    4.10    5.80
  -9  -3  16  116.89   14.70
  -9   3  16  133.59   15.70
  -8  -3  16   14.80    6.90
  -8   3  16   19.40    7.40
  -7  -3  16  104.99   14.20
  -7   3  16  116.99   14.70
  -6  -3  16   -3.60    4.10
  -6   3  16   -6.10    3.10
  -6   3  16    0.20    3.20
  -5  -3  16  132.09   15.80
  -5   3  16  147.29   16.20
  -5   3  16  162.98   11.80
  -4  -3  16   42.90    8.90
  -4   3  16   34.30    8.30
  -4   3  16   37.40    7.00
  -3  -3  16    2.90    5.30
  -3   3  16    5.60    4.90
  -3   3  16   -0.50    3.10
  -2  -3  16  173.78   17.40
  -2   3  16  149.88   13.90
  -2   3  16  155.18   16.50
  -1  -3  16   25.50    7.40
  -1  -3  16   21.50    6.90
  -1   3  16   14.90    6.10
  -1   3  16   29.40    7.20
   0  -3  16    2.60    4.30
   0  -3  16    4.70    5.00
   0   3  16    6.00    4.90
   0   3  16    1.50    4.10
   1  -3  16   13.20    6.10
   1  -3  16   13.70    6.60
   1   3  16    9.20    5.90
   1   3  16   12.50    5.90
   2  -3  16   80.59   12.20
   2  -3  16   96.29   12.30
   2   3  16   83.49   11.80
   2   3  16  101.09   12.70
   3  -3  16    4.70    5.40
   3  -3  16   10.40    6.40
   3   3  16   13.80    6.70
   4  -3  16   33.00    8.80
   4   3  16   16.00    7.10
   5  -3  16   16.80    7.60
   5   3  16   20.40    7.90
  15  -4 -16    4.90    6.40
 -15  -4  16   12.00    7.70
 -15   4  16    2.00    6.40
 -14  -4  16   43.50   10.70
  14  -4 -16   44.80   10.90
 -14   4  16   55.29   12.20
  13  -4 -16   -4.50    4.60
 -13  -4  16    3.40    6.10
 -13   4  16    2.70    5.50
  12  -4 -16   -2.30    5.10
 -12  -4  16   15.20    6.90
 -12   4  16    7.90    6.50
  11  -4 -16   -1.10    4.40
 -11  -4  16   16.60    7.40
 -11   4  16    9.30    6.60
 -10  -4  16   63.09   11.60
 -10   4  16   66.79   12.20
  -9  -4  16    6.40    6.10
  -9   4  16    1.10    4.40
  -8  -4  16   -5.80    4.10
  -8   4  16    4.00    4.90
  -7  -4  16    2.30    4.80
  -7   4  16   -1.30    4.00
  -6  -4  16   -0.50    4.50
  -6   4  16    7.40    5.60
  -5  -4  16    7.10    5.70
  -5   4  16    7.80    4.40
  -5   4  16    5.00    5.20
  -4  -4  16  464.55   26.80
  -4   4  16  465.95   22.50
  -4   4  16  444.76   26.20
  -3  -4  16    6.20    5.80
  -3   4  16   22.80    7.10
  -3   4  16   14.50    5.30
  -2  -4  16   82.89   12.40
  -2   4  16   73.09   11.50
  -1  -4  16  151.48   16.80
  -1   4  16  135.19   15.10
  -1   4  16  136.29   13.50
   0  -4  16    1.10    5.20
   0  -4  16    8.20    5.70
   0   4  16    5.70    5.30
   0   4  16    3.30    4.40
   1  -4  16   12.10    6.00
   1  -4  16    8.60    5.70
   1   4  16   22.40    6.80
   1   4  16   15.70    6.20
   2  -4  16   13.10    6.80
   2  -4  16    3.40    5.10
   2   4  16   -0.10    3.70
   2   4  16    4.30    5.80
   3  -4  16    0.00    4.90
   3  -4  16    0.40    5.10
   3   4  16    2.70    5.90
   4  -4  16    6.50    5.40
   4   4  16    6.40    6.20
   5  -4  16    2.90    5.80
   5   4  16    3.70    6.20
  14  -5 -16   33.60    9.20
 -14  -5  16   22.40    8.00
 -14   5  16   16.60    7.80
 -13  -5  16    3.50    6.40
  13  -5 -16    0.10    4.80
 -13   5  16    1.10    5.60
  12  -5 -16   -2.10    4.70
 -12  -5  16    3.40    6.00
 -12   5  16    7.80    6.40
  11  -5 -16   47.00   10.40
 -11  -5  16   41.70   10.00
 -11   5  16   26.50    8.50
 -10  -5  16   11.60    6.70
 -10   5  16   17.80    7.80
  -9  -5  16    0.90    5.40
  -9   5  16    4.80    5.70
  -8  -5  16   34.10    9.00
  -8   5  16   36.00    9.10
  -7  -5  16    6.10    5.90
  -7   5  16    9.20    6.00
  -6  -5  16   -3.70    4.30
  -6   5  16   -1.10    4.50
  -5  -5  16   29.40    8.40
  -5   5  16   30.40    8.00
  -4  -5  16    1.80    5.20
  -4   5  16    2.30    5.10
  -3  -5  16  280.27   20.20
  -3   5  16  292.67   17.10
  -3   5  16  317.27   20.90
  -2  -5  16    0.90    4.50
  -2   5  16    5.20    5.20
  -2   5  16   12.40    5.00
  -1  -5  16  146.29   16.10
  -1   5  16  134.49   15.00
  -1   5  16   92.99   11.50
   0  -5  16   86.09   12.30
   0   5  16  101.19   13.40
   0   5  16   87.89   11.30
   1  -5  16   16.00    6.70
   1  -5  16   10.00    6.10
   1   5  16   14.90    6.60
   1   5  16   18.50    6.00
   2  -5  16   95.89   13.10
   2  -5  16   76.69   12.40
   2   5  16  113.79   13.80
   2   5  16   97.49   12.90
   3  -5  16    2.20    5.30
   3  -5  16   -4.10    4.10
   3   5  16    0.30    5.40
   4  -5  16    3.90    5.90
   4   5  16   20.80    7.60
 -14  -6  16   -4.00    4.80
  14  -6 -16    8.50    7.20
 -14   6  16   -2.30    5.40
 -13  -6  16   31.00   10.20
  13  -6 -16   23.70    8.70
 -13   6  16   36.10    9.90
 -12  -6  16    0.40    7.20
  12  -6 -16   13.50    7.00
 -12   6  16    5.40    6.20
  11  -6 -16    6.80    6.10
 -11  -6  16    0.30    5.20
 -11   6  16   -3.90    4.80
 -10  -6  16    1.80    6.00
 -10   6  16    3.70    5.80
  -9  -6  16   23.10    8.00
  -9   6  16   39.50    9.70
  -8  -6  16   21.70    8.00
  -8   6  16   17.80    6.60
  -7  -6  16    3.80    5.30
  -7   6  16   -2.70    4.10
  -6  -6  16   52.39   10.60
  -6   6  16   38.00    9.00
  -5  -6  16   -3.00    4.80
  -5   6  16  -10.40    3.70
  -4  -6  16   64.69   11.40
  -4   6  16   29.80    8.00
  -3  -6  16   96.79   13.60
  -3   6  16  101.19   14.00
  -2  -6  16  254.67   19.00
  -2   6  16  239.48   18.50
  -2   6  16  219.68   15.10
  -1  -6  16   29.40    8.20
  -1   6  16   29.50    8.00
  -1   6  16   42.70    8.20
   0  -6  16    3.00    5.80
   0   6  16    4.40    4.70
   0   6  16   -9.90    4.20
   1  -6  16   45.50    9.90
   1  -6  16   59.09   11.10
   1   6  16   76.49   11.00
   1   6  16   58.19   10.80
   2  -6  16   15.70    7.60
   2  -6  16   22.70    7.70
   2   6  16   21.70    7.30
   2   6  16   25.50    7.50
   3  -6  16    9.30    6.60
   3  -6  16   -0.10    4.60
   3   6  16    8.20    5.50
   4  -6  16   69.29   12.40
   4   6  16   85.39   13.40
  13  -7 -16    0.60    5.40
 -13  -7  16   -0.40    6.70
 -13   7  16    4.60    6.20
  12  -7 -16   11.20    6.90
 -12  -7  16   11.20    7.70
 -12   7  16    8.30    7.10
  11  -7 -16   13.10    6.80
 -11  -7  16    6.50    6.90
 -11   7  16   15.00    7.70
 -10  -7  16   68.29   12.70
 -10   7  16   87.49   13.80
  -9  -7  16   29.80    8.80
  -9   7  16   30.40    8.90
  -8  -7  16    1.80    5.50
  -8   7  16   -3.10    3.90
  -7  -7  16   22.70    7.90
  -7   7  16   16.20    7.30
  -6  -7  16    0.30    4.90
  -6   7  16   -2.90    4.40
  -5  -7  16    9.50    6.40
  -5   7  16   -0.80    4.60
  -4  -7  16   -0.10    5.20
  -4   7  16    3.50    5.20
  -3  -7  16   17.50    7.20
  -3   7  16   44.30   10.10
  -2  -7  16   18.20    7.00
  -2   7  16   27.60    7.90
  -1  -7  16   11.40    6.20
  -1   7  16    6.80    5.70
  -1   7  16   13.00    5.50
   0  -7  16   65.59   11.80
   0   7  16   60.09   10.40
   1  -7  16   -1.70    5.40
   1   7  16    6.80    5.70
   1   7  16   18.80    7.00
   2  -7  16   61.99   11.40
   2  -7  16   65.49   11.40
   2   7  16   49.99   10.30
   2   7  16   42.80    9.50
   3  -7  16    2.10    5.90
   3  -7  16   10.10    6.60
   3   7  16   -1.30    4.50
  13  -8 -16   -2.30    4.70
 -13  -8  16   -3.00    5.50
 -13   8  16    3.70    7.00
 -12  -8  16    6.70    7.00
  12  -8 -16    0.00    5.40
 -12   8  16   -2.20    5.40
  11  -8 -16   96.69   14.20
 -11  -8  16   76.19   13.60
 -11   8  16   78.49   13.80
 -10  -8  16   -3.00    4.90
 -10   8  16   -2.50    5.20
  -9  -8  16    1.40    5.30
  -9   8  16    2.40    5.20
  -8  -8  16   45.70   10.40
  -8   8  16   44.90   10.60
  -7  -8  16   -4.60    4.00
  -7   8  16   -4.40    4.30
  -6  -8  16   44.20   10.30
  -6   8  16   39.20    9.80
  -5  -8  16    7.10    6.00
  -5   8  16    4.20    5.90
  -4  -8  16    8.90    6.00
  -4   8  16   38.60    9.90
  -3  -8  16   40.90    9.50
  -3   8  16   59.59   11.20
  -2  -8  16    7.20    5.70
  -2   8  16   11.90    6.40
  -1  -8  16   57.89   11.00
  -1   8  16   48.30   10.20
   0  -8  16   -0.90    4.80
   0   8  16    4.80    5.00
   0   8  16   -1.00    5.70
   1  -8  16   15.80    6.90
   1   8  16   14.90    6.80
   1   8  16   12.60    6.80
   2  -8  16   -0.20    4.60
   2  -8  16    7.20    6.60
   2   8  16    0.90    4.50
   2   8  16    1.10    4.90
   3  -8  16    7.50    6.50
   3  -8  16   -0.20    5.70
   3   8  16    1.10    6.60
 -12  -9  16    8.40    8.00
  12  -9 -16    4.60    6.10
 -12   9  16    4.50    6.40
 -11  -9  16    3.90    6.00
  11  -9 -16    0.50    5.80
 -11   9  16    5.50    7.20
 -10  -9  16   -0.30    5.40
 -10   9  16   -2.30    5.00
  -9  -9  16   13.40    7.50
  -9   9  16   -6.10    4.60
  -8  -9  16   29.40    9.00
  -8   9  16   37.60    9.40
  -7  -9  16   -0.20    5.10
  -7   9  16    0.20    4.80
  -6  -9  16    2.60    5.70
  -6   9  16    7.00    6.10
  -5  -9  16   26.10    8.60
  -5   9  16   33.20    9.10
  -4  -9  16   -4.70    4.70
  -4   9  16    1.20    4.80
  -3  -9  16   48.80   10.80
  -3   9  16   43.90   10.30
  -2  -9  16   -4.90    4.90
  -2   9  16   -1.50    4.90
  -1  -9  16    4.30    5.80
  -1   9  16    4.40    6.40
   0  -9  16   67.59   12.20
   0   9  16   84.59   13.10
   1  -9  16    2.30    5.20
   1   9  16    5.30    6.50
   1   9  16   -1.80    3.00
   2  -9  16   55.39   10.80
   2   9  16   56.09   10.40
   2   9  16   47.90    9.80
 -11 -10  16   14.70    8.60
  11 -10 -16   16.70    8.80
 -11  10  16   27.70    9.70
 -10 -10  16   17.40    8.30
 -10  10  16   12.20    7.40
  -9 -10  16   41.50   11.00
  -9  10  16   62.29   12.50
  -8 -10  16    1.20    6.70
  -8  10  16    0.40    5.00
  -7 -10  16    6.40    6.60
  -7  10  16    3.20    5.70
  -6 -10  16   43.30   10.80
  -6  10  16   36.40    9.90
  -5 -10  16   11.30    7.10
  -5  10  16    3.20    5.20
  -4 -10  16   30.80    9.70
  -4  10  16   30.80    9.30
  -3 -10  16    2.90    5.40
  -3  10  16   -2.70    5.50
  -2 -10  16   44.10   10.60
  -2  10  16   42.10   10.10
  -1 -10  16   12.10    7.10
  -1  10  16   25.00    8.90
   0 -10  16    5.90    6.60
   0  10  16   -4.10    5.00
   1 -10  16  142.09   17.50
   1  10  16  148.89   16.90
  -9 -11  16   19.60    8.80
  -9  11  16   14.30    8.40
  -8 -11  16   24.60    9.10
  -8  11  16   14.10    7.50
  -7 -11  16   55.99   12.50
  -7  11  16   49.40   11.30
  -6 -11  16    6.50    7.10
  -6  11  16    5.50    6.10
  -5 -11  16   32.90   10.10
  -5  11  16   47.90   11.00
  -4 -11  16   29.80    9.10
  -4  11  16   36.30    9.80
  -3 -11  16   11.90    7.10
  -3  11  16   14.90    7.60
  -2 -11  16   19.40    7.70
  -2  11  16    6.60    6.80
  -1 -11  16   -0.30    5.20
  -1  11  16   15.10    7.30
  -7  12  16   -4.30    5.30
  -6 -12  16   22.50    8.40
  -6  12  16   28.70    9.30
  -5 -12  16    1.10    6.30
  -5  12  16   -0.70    5.30
  -4 -12  16    8.70    7.30
  -4  12  16   -1.70    5.70
  -3 -12  16   -1.20    6.00
  -3  12  16    0.70    6.00
 -14   0  17    3.90    6.80
  14   0 -17   -1.30    5.70
 -13   0  17   -1.90    5.30
 -12   0  17    2.70    5.90
 -11   0  17   22.20    7.90
 -10   0  17    1.30    4.80
  -9   0  17    4.40    5.70
  -8   0  17    5.00    5.50
  -7   0  17   76.79   12.30
  -6   0  17   -3.40    3.90
  -5   0  17   22.30    7.80
  -4   0  17    1.10    4.90
  -4   0  17   -3.30    3.90
  -3   0  17   73.09   10.40
  -3   0  17   68.09   11.50
  -2   0  17   -1.70    4.00
  -2   0  17   -4.30    3.80
  -1   0  17   -3.80    3.00
  -1   0  17    4.50    5.50
   0   0  17   -1.30    4.40
   0   0  17    2.40    4.30
   1   0  17   51.29   10.20
   1   0  17   69.49   11.40
   2   0  17    4.20    5.70
   2   0  17   -2.00    5.10
   3   0  17    6.80    5.90
   4   0  17   -1.90    5.90
 -14  -1  17   17.50    7.70
  14  -1 -17    1.80    6.40
 -14   1  17   10.60    7.00
 -13  -1  17   49.70   11.90
 -13   1  17   33.90    9.80
 -12  -1  17    8.60    6.40
 -12   1  17   18.00    7.60
 -11  -1  17   54.59   10.90
 -11   1  17   38.90    9.80
 -10  -1  17   12.80    6.60
 -10   1  17    9.00    6.50
  -9  -1  17   64.19   11.80
  -9   1  17   52.49   10.90
  -8  -1  17   21.80    7.40
  -8   1  17   37.80    9.10
  -7  -1  17   11.80    6.80
  -7   1  17    0.00    5.00
  -6  -1  17   56.79   11.10
  -6   1  17   71.99   11.60
  -6   1  17   74.39    9.90
  -5  -1  17    1.20    4.70
  -5   1  17    2.00    4.50
  -5   1  17   -0.70    3.30
  -4  -1  17   -1.10    4.20
  -4   1  17   -0.30    4.40
  -4   1  17    2.80    3.80
  -3  -1  17    4.60    5.70
  -3  -1  17   18.50    6.20
  -3   1  17   18.30    6.20
  -3   1  17   16.90    6.80
  -2  -1  17   20.40    7.10
  -2  -1  17   24.40    7.00
  -2   1  17    2.20    5.30
  -2   1  17   14.70    6.00
  -1  -1  17   79.59   12.20
  -1  -1  17  104.29   13.30
  -1   1  17  109.79   13.00
  -1   1  17  101.79   13.30
   0  -1  17    3.20    4.50
   0  -1  17   -1.70    5.10
   0   1  17    5.00    4.60
   0   1  17    3.50    5.10
   1  -1  17  211.78   19.30
   1  -1  17  210.68   19.50
   1   1  17  178.88   18.10
   1   1  17  185.48   18.30
   2  -1  17   -0.30    4.60
   2  -1  17    3.20    5.40
   2   1  17   -0.20    5.30
   2   1  17    5.40    5.30
   3  -1  17   32.90    8.70
   3   1  17   62.69   11.60
   4  -1  17    8.70    6.50
   4   1  17    3.90    6.00
  14  -2 -17    4.20    6.50
 -14  -2  17    3.90    6.60
 -14   2  17   11.20    6.70
  13  -2 -17    5.40    6.20
 -13  -2  17    4.80    6.00
 -13   2  17    2.50    5.70
 -12  -2  17   22.40    8.20
 -12   2  17   32.30    9.10
 -11  -2  17   49.20   10.60
 -11   2  17   22.10    8.10
 -10  -2  17   17.80    7.40
 -10   2  17    8.40    6.40
  -9  -2  17  110.19   15.00
  -9   2  17   94.89   13.80
  -8  -2  17   14.70    6.80
  -8   2  17   12.20    6.00
  -7  -2  17  167.68   18.10
  -7   2  17  173.08   18.20
  -6  -2  17   11.60    6.60
  -6   2  17    6.90    5.60
  -6   2  17    9.90    4.60
  -5  -2  17   62.29   11.30
  -5   2  17   68.09    9.30
  -5   2  17   59.69   10.80
  -4  -2  17    7.80    5.70
  -4   2  17   12.50    6.60
  -4   2  17    4.70    3.80
  -3  -2  17    3.70    4.90
  -3   2  17    2.20    4.10
  -3   2  17    0.90    4.80
  -2  -2  17    2.90    4.40
  -2  -2  17   -6.00    4.60
  -2   2  17    0.70    4.60
  -2   2  17   -1.60    3.40
  -1  -2  17   18.30    7.30
  -1  -2  17   27.60    7.70
  -1   2  17   31.60    8.00
  -1   2  17   45.30    8.70
   0  -2  17    2.30    4.70
   0  -2  17    7.60    5.60
   0   2  17    3.30    5.50
   0   2  17   -2.60    4.30
   1  -2  17   84.59   12.40
   1  -2  17   55.29   10.30
   1   2  17   74.89   11.90
   1   2  17   65.09   10.80
   2  -2  17    4.40    5.40
   2  -2  17    6.30    5.60
   2   2  17    8.00    6.00
   2   2  17    2.90    6.10
   3  -2  17  120.99   15.40
   3   2  17  139.99   15.90
   4  -2  17   -2.90    4.70
   4   2  17   -3.20    5.60
 -14  -3  17    1.80    6.60
  14  -3 -17    7.30    7.20
 -14   3  17   11.00    6.90
  13  -3 -17   -8.20    4.40
 -13  -3  17   -1.60    5.80
 -13   3  17   -2.70    4.70
 -12  -3  17   32.50    9.60
 -12   3  17   21.50    7.80
 -11  -3  17   35.40   10.10
 -11   3  17   25.30    8.70
 -10  -3  17    2.20    5.50
 -10   3  17    0.90    5.40
  -9  -3  17   45.10    9.90
  -9   3  17   51.19   10.40
  -8  -3  17   56.99   10.70
  -8   3  17   67.19   11.70
  -7  -3  17   10.60    6.10
  -7   3  17    9.10    6.10
  -6  -3  17   19.90    7.90
  -6   3  17   16.20    6.80
  -5  -3  17   -0.20    4.60
  -5   3  17    1.00    4.50
  -5   3  17    4.70    4.00
  -4  -3  17    5.10    5.90
  -4   3  17    5.00    5.40
  -4   3  17   17.70    5.80
  -3  -3  17   31.20    9.00
  -3   3  17   28.60    8.70
  -2  -3  17    5.60    5.30
  -2   3  17    3.10    5.80
  -2   3  17    5.30    5.10
  -1  -3  17   -2.90    5.00
  -1  -3  17    1.90    4.00
  -1   3  17   -0.50    4.50
  -1   3  17   -0.90    4.30
   0  -3  17    4.20    5.90
   0  -3  17    0.70    4.30
   0   3  17    9.60    5.80
   0   3  17    5.90    4.80
   1  -3  17  131.59   15.70
   1  -3  17  138.09   16.00
   1   3  17  135.29   15.70
   1   3  17  131.69   14.70
   2  -3  17    8.90    6.10
   2  -3  17    7.90    6.10
   2   3  17    4.30    5.00
   2   3  17    4.70    5.50
   3  -3  17   11.20    6.80
   3   3  17   11.60    6.20
   4   3  17   26.70    8.60
  14  -4 -17    9.00    6.80
 -14  -4  17    6.80    7.00
 -14   4  17   -2.60    5.70
  13  -4 -17    3.50    6.20
 -13  -4  17    3.60    6.40
 -13   4  17   -0.60    5.90
 -12  -4  17   17.70    7.90
 -12   4  17   16.20    8.00
 -11  -4  17   14.80    7.20
 -11   4  17   10.10    6.70
 -10  -4  17    7.50    6.40
 -10   4  17    7.00    6.10
  -9  -4  17    0.90    4.90
  -9   4  17    6.90    6.30
  -8  -4  17   42.80    9.90
  -8   4  17   35.20    9.00
  -7  -4  17   -5.30    4.50
  -7   4  17    0.70    5.30
  -6  -4  17    2.20    5.60
  -6   4  17   -0.20    4.10
  -5  -4  17   13.60    7.30
  -5   4  17   13.10    6.20
  -4  -4  17   -0.80    4.80
  -4   4  17    5.60    6.30
  -4   4  17    2.90    4.20
  -3  -4  17   66.19   11.70
  -3   4  17   72.09   10.10
  -3   4  17   78.99   12.60
  -2  -4  17   22.80    8.00
  -2   4  17    3.80    3.50
  -2   4  17   39.60    9.10
  -1  -4  17   51.19    9.90
  -1  -4  17   47.20   10.30
  -1   4  17   61.59   11.50
  -1   4  17   46.20    8.70
   0  -4  17   -2.80    4.10
   0  -4  17    7.80    6.20
   0   4  17    3.30    4.80
   0   4  17    5.10    4.80
   1  -4  17    2.10    5.40
   1  -4  17    0.30    4.90
   1   4  17    1.60    4.60
   1   4  17    1.00    5.50
   2  -4  17   12.70    6.40
   2  -4  17   -2.20    5.50
   2   4  17    5.60    5.50
   2   4  17    2.20    4.80
   3  -4  17  114.19   15.70
   3   4  17  123.09   15.10
 -13  -5  17   -4.80    6.10
  13  -5 -17    0.80    5.00
 -13   5  17    0.70    6.60
 -12  -5  17   34.10   10.10
  12  -5 -17   26.40    8.50
 -12   5  17   39.80   10.20
 -11  -5  17   38.60   10.40
 -11   5  17   43.70   10.10
 -10  -5  17    8.70    6.80
 -10   5  17   10.50    6.80
  -9  -5  17   12.40    7.00
  -9   5  17   19.20    7.40
  -8  -5  17   15.80    7.10
  -8   5  17   17.80    7.40
  -7  -5  17   40.60    9.60
  -7   5  17   33.40    9.20
  -6  -5  17   51.89   10.80
  -6   5  17   51.29   10.60
  -5  -5  17    0.10    5.00
  -5   5  17    0.50    5.30
  -4  -5  17  108.19   14.80
  -4   5  17  100.19   14.10
  -3  -5  17   17.50    7.20
  -3   5  17   10.70    5.00
  -3   5  17   16.60    6.90
  -2  -5  17   28.90    8.10
  -2   5  17   27.60    8.20
  -2   5  17   30.80    7.50
  -1  -5  17   -0.70    4.70
  -1   5  17    8.60    5.20
  -1   5  17    0.50    5.20
   0  -5  17   32.50    8.70
   0  -5  17   46.80   10.20
   0   5  17   37.30    8.50
   0   5  17   64.29   10.70
   1  -5  17   26.60    9.30
   1  -5  17   32.60    9.00
   1   5  17   57.09    9.80
   1   5  17   43.20    9.40
   2  -5  17   24.00    8.00
   2  -5  17    6.70    6.40
   2   5  17   19.40    7.00
   2   5  17   29.50    8.30
   3  -5  17   17.70    7.90
   3   5  17   48.70   10.60
  13  -6 -17   16.50    7.90
 -13  -6  17    6.40    7.40
 -13   6  17    6.70    6.90
 -12  -6  17    5.80    6.50
  12  -6 -17    2.20    5.60
 -12   6  17   -2.80    4.70
 -11  -6  17    5.10    6.80
 -11   6  17    4.40    6.00
 -10  -6  17   12.80    7.80
 -10   6  17   20.70    8.30
  -9  -6  17    9.50    6.40
  -9   6  17   29.80    8.90
  -8  -6  17    1.90    5.70
  -8   6  17    3.80    5.40
  -7  -6  17   32.70    9.30
  -7   6  17   55.39   10.90
  -6  -6  17   -7.40    3.50
  -6   6  17   -4.80    4.40
  -5  -6  17   51.39   10.80
  -5   6  17   69.59   12.10
  -4  -6  17   15.90    7.40
  -4   6  17    3.10    5.00
  -3  -6  17   -8.00    4.00
  -3   6  17    4.20    5.50
  -2  -6  17    3.60    5.70
  -2   6  17   27.00    7.80
  -2   6  17   12.90    6.60
  -1  -6  17    7.50    6.10
  -1   6  17    0.00    3.90
  -1   6  17   17.00    7.40
   0  -6  17   35.70    8.70
   0   6  17   33.30    7.80
   0   6  17   19.00    7.20
   1  -6  17    4.00    5.70
   1  -6  17    1.30    6.20
   1   6  17    1.20    5.30
   1   6  17    7.30    6.20
   2  -6  17    5.90    6.30
   2  -6  17   -3.60    5.40
   2   6  17    7.30    6.20
   2   6  17   -4.80    5.10
 -12  -7  17    2.40    6.90
  12  -7 -17   -0.40    5.80
 -12   7  17    4.00    6.30
 -11  -7  17    5.80    6.50
 -11   7  17   14.60    8.30
 -10  -7  17    0.80    5.80
 -10   7  17   -0.60    5.50
  -9  -7  17   52.69   11.70
  -9   7  17   48.60   10.80
  -8  -7  17   -0.10    4.90
  -8   7  17    2.90    5.20
  -7  -7  17    4.80    5.90
  -7   7  17   22.30    8.10
  -6  -7  17    0.40    5.60
  -6   7  17    1.50    5.60
  -5  -7  17   -5.80    4.20
  -5   7  17    3.60    5.40
  -4  -7  17    8.00    5.90
  -4   7  17    6.50    6.90
  -3  -7  17   31.10    8.90
  -3   7  17   23.40    7.90
  -2  -7  17   18.10    8.00
  -2   7  17   16.60    8.00
  -1  -7  17   82.99   13.20
  -1   7  17   92.59   13.50
   0  -7  17    0.90    6.10
   0   7  17   15.30    7.20
   0   7  17    0.80    4.00
   1  -7  17   31.90    9.50
   1  -7  17   30.90    8.80
   1   7  17   20.00    7.60
   1   7  17   21.30    8.00
   2  -7  17   24.90    8.50
   2  -7  17   15.60    7.30
   2   7  17   25.00    8.30
   2   7  17   40.20    9.70
 -11  -8  17    7.60    7.20
 -11   8  17    4.50    6.50
 -10  -8  17   98.49   15.50
 -10   8  17  100.19   14.90
  -9  -8  17   -2.30    4.80
  -9   8  17   -2.80    4.50
  -8  -8  17    6.90    6.70
  -8   8  17    1.30    6.40
  -7  -8  17   10.40    6.50
  -7   8  17   -2.00    4.70
  -6  -8  17   -6.10    4.20
  -6   8  17   -1.90    4.90
  -5  -8  17   11.30    6.50
  -5   8  17    2.20    5.30
  -4  -8  17   44.80   11.10
  -4   8  17   33.80    9.40
  -3  -8  17    0.30    5.40
  -3   8  17    5.80    6.70
  -2  -8  17   87.09   14.00
  -2   8  17   64.39   11.70
  -1  -8  17    7.00    6.80
  -1   8  17   -0.20    6.10
   0  -8  17  147.99   17.30
   0   8  17  110.49   15.20
   1  -8  17    6.10    6.40
   1   8  17    2.60    5.20
   1   8  17   15.80    7.90
 -10  -9  17    4.70    7.00
 -10   9  17    5.60    6.60
  -9  -9  17   44.20   11.90
  -9   9  17   41.10   10.60
  -8  -9  17    7.30    6.70
  -8   9  17    8.00    6.50
  -7  -9  17   32.80    9.40
  -7   9  17   16.70    7.90
  -6  -9  17  123.79   16.70
  -6   9  17   92.99   14.50
  -5  -9  17    7.00    6.10
  -5   9  17    0.30    5.50
  -4  -9  17   30.50    9.40
  -4   9  17   44.80   11.10
  -3  -9  17   11.00    7.00
  -3   9  17    6.90    6.60
  -2  -9  17   11.30    6.60
  -2   9  17   12.10    7.50
  -1  -9  17    3.60    5.50
  -1   9  17    9.50    7.30
   0  -9  17   29.70    9.10
   0   9  17   33.00    9.80
  -9  10  17   11.90    7.70
  -8 -10  17   40.90   10.80
  -8  10  17   33.30    9.90
  -7 -10  17   30.20    9.50
  -7  10  17   36.10   10.00
  -6 -10  17   -0.70    6.00
  -6  10  17   -2.90    5.20
  -5 -10  17   -0.70    5.40
  -5  10  17    6.50    6.60
  -4 -10  17    5.00    6.60
  -4  10  17   -1.90    4.70
  -3 -10  17   -7.30    4.60
  -3  10  17   -0.50    5.20
  -2 -10  17   22.80    8.90
  -2  10  17   37.90   10.30
 -13   0  18   -0.50    6.30
 -12   0  18    7.90    6.70
 -11   0  18    0.10    5.30
 -10   0  18    5.20    5.70
  -9   0  18   -0.60    5.30
  -8   0  18    0.90    5.00
  -7   0  18   -4.90    4.00
  -6   0  18  174.08   18.80
  -5   0  18   -4.50    3.80
  -5   0  18   -5.10    4.20
  -4   0  18  144.29   15.10
  -4   0  18  127.39   16.00
  -3   0  18   -3.80    3.50
  -3   0  18   -1.70    4.20
  -2   0  18   25.10    7.50
  -2   0  18   35.50    9.30
  -1   0  18    0.20    4.20
  -1   0  18   -5.20    5.30
   0   0  18    7.60    5.60
   0   0  18    8.80    6.90
   1   0  18    0.10    4.70
   1   0  18   -2.60    5.60
   2   0  18   25.80    8.10
 -13  -1  18   21.10    9.00
 -13   1  18    6.00    6.80
 -12  -1  18    4.10    6.20
 -12   1  18    5.80    6.10
 -11  -1  18   62.69   12.50
 -11   1  18   49.20   10.90
 -10  -1  18   29.70    8.70
 -10   1  18   35.80    9.60
  -9  -1  18   11.70    6.70
  -9   1  18    5.30    6.10
  -8  -1  18   21.80    7.50
  -8   1  18   10.30    6.30
  -7  -1  18   19.30    7.50
  -7   1  18   11.30    6.20
  -6  -1  18    2.20    5.30
  -6   1  18    3.80    4.50
  -6   1  18    0.50    5.10
  -5  -1  18   -1.30    4.70
  -5   1  18    3.20    3.00
  -5   1  18    0.20    4.90
  -4  -1  18    7.30    5.30
  -4  -1  18    5.50    4.50
  -4   1  18    3.60    5.80
  -4   1  18    2.90    4.20
  -3  -1  18   -3.50    4.20
  -3  -1  18    2.10    4.90
  -3   1  18    1.00    4.00
  -3   1  18   -1.70    4.60
  -2  -1  18   31.00    7.90
  -2  -1  18   28.40    8.90
  -2   1  18   34.30    7.80
  -2   1  18   22.20    7.40
  -1  -1  18   -1.30    6.00
  -1  -1  18    3.50    5.00
  -1   1  18   -2.50    4.10
  -1   1  18    2.70    5.50
   0  -1  18  141.39   16.10
   0  -1  18  109.89   15.00
   0   1  18  127.79   15.50
   0   1  18  121.59   15.00
   1  -1  18   -1.90    5.10
   1  -1  18    3.80    5.20
   1   1  18   -2.20    5.10
   1   1  18    4.10    5.20
   2  -1  18   85.39   13.00
   2   1  18   77.29   12.20
 -13  -2  18   36.70   10.30
 -13   2  18   25.60    9.80
 -12  -2  18    0.50    5.70
 -12   2  18    2.70    6.80
 -11  -2  18    8.30    6.60
 -11   2  18   16.10    7.50
 -10  -2  18    6.70    6.20
 -10   2  18   -3.10    4.50
  -9  -2  18   -7.20    4.30
  -9   2  18    1.40    4.90
  -8  -2  18   36.60    9.40
  -8   2  18   39.00    9.80
  -7  -2  18    1.60    5.70
  -7   2  18   -2.40    4.50
  -6  -2  18   32.90    9.50
  -6   2  18   26.30    8.60
  -5  -2  18    4.10    6.00
  -5   2  18    6.00    5.20
  -5   2  18   12.60    5.60
  -4  -2  18    1.10    4.80
  -4   2  18    0.10    4.50
  -4   2  18    1.60    3.20
  -3  -2  18    9.80    6.10
  -3  -2  18   -1.50    4.30
  -3   2  18   -1.30    4.30
  -3   2  18    0.20    4.60
  -2  -2  18   24.20    8.10
  -2  -2  18   22.30    7.30
  -2   2  18   19.60    6.40
  -2   2  18   18.80    7.20
  -1  -2  18   -6.90    4.60
  -1  -2  18    0.30    4.20
  -1   2  18    4.30    5.90
  -1   2  18    2.60    5.20
   0  -2  18    9.00    6.20
   0  -2  18    0.40    5.20
   0   2  18   10.00    6.10
   0   2  18    6.70    6.20
   1  -2  18   13.20    6.40
   1  -2  18    4.30    5.50
   1   2  18   13.30    6.60
   1   2  18   -0.40    5.10
   2  -2  18    6.10    6.10
   2   2  18   12.50    6.70
 -13  -3  18   46.40   11.40
 -13   3  18   35.60    9.90
 -12  -3  18   27.80    9.30
 -12   3  18   41.00   10.60
 -11  -3  18    7.70    6.50
 -11   3  18   -1.20    4.90
 -10  -3  18   47.10   11.10
 -10   3  18   31.80    9.40
  -9  -3  18   -2.80    5.20
  -9   3  18   -3.40    4.60
  -8  -3  18   57.99   11.60
  -8   3  18   65.89   11.80
  -7  -3  18   61.89   12.00
  -7   3  18   53.89   11.40
  -6  -3  18    0.30    5.40
  -6   3  18   10.30    6.10
  -5  -3  18   81.39   12.70
  -5   3  18   80.79   12.70
  -4  -3  18   10.00    6.30
  -4   3  18   18.50    6.30
  -4   3  18    9.00    6.20
  -3  -3  18   10.60    7.10
  -3   3  18   -3.00    2.70
  -3   3  18   -1.90    4.30
  -2  -3  18   22.00    7.20
  -2  -3  18    1.10    5.20
  -2   3  18    9.20    5.10
  -2   3  18   -0.60    4.20
  -1  -3  18    3.20    5.40
  -1  -3  18   -1.00    4.70
  -1   3  18   -6.20    4.40
  -1   3  18    6.40    5.10
   0  -3  18   55.49   11.10
   0  -3  18   60.19   11.50
   0   3  18   62.09   11.50
   0   3  18   78.79   11.40
   1  -3  18   15.90    6.70
   1  -3  18    9.60    6.10
   1   3  18   22.50    7.60
   1   3  18   12.00    7.50
   2  -3  18   28.20    8.50
   2   3  18   24.40    8.20
 -12  -4  18   -6.10    5.60
 -12   4  18   -3.20    5.50
 -11  -4  18   -0.70    5.50
 -11   4  18    2.40    6.00
 -10  -4  18   35.80   10.20
 -10   4  18   25.00    8.60
  -9  -4  18   12.20    6.90
  -9   4  18    4.70    6.10
  -8  -4  18   58.79   11.90
  -8   4  18   54.49   11.80
  -7  -4  18    3.40    5.60
  -7   4  18   -0.60    5.00
  -6  -4  18   21.00    7.60
  -6   4  18   26.10    8.30
  -5  -4  18    6.40    6.10
  -5   4  18   -0.20    4.80
  -4  -4  18   95.59   14.00
  -4   4  18   86.59   13.90
  -3  -4  18   17.00    7.10
  -3   4  18   18.10    8.40
  -3   4  18   23.60    6.80
  -2  -4  18   22.20    8.20
  -2   4  18   22.70    6.90
  -2   4  18   30.60    8.80
  -1  -4  18   21.40    8.10
  -1  -4  18    2.70    5.30
  -1   4  18   -0.40    5.10
  -1   4  18    2.60    5.10
   0  -4  18    3.20    6.20
   0  -4  18   -2.20    5.20
   0   4  18    9.70    6.50
   0   4  18    0.90    5.30
   1  -4  18   62.69   12.20
   1  -4  18   57.49   11.70
   1   4  18   54.59   10.30
   1   4  18   61.79   11.20
 -12  -5  18   51.49   11.70
 -12   5  18   39.10   10.60
 -11  -5  18   66.89   12.70
 -11   5  18   46.00   11.20
 -10  -5  18    8.60    7.00
 -10   5  18   18.60    8.40
  -9  -5  18   62.19   12.60
  -9   5  18   46.80   10.80
  -8  -5  18    5.80    6.20
  -8   5  18   14.60    7.30
  -7  -5  18    3.10    5.90
  -7   5  18    9.70    7.10
  -6  -5  18    2.70    6.00
  -6   5  18    0.00    4.90
  -5  -5  18   -1.30    5.90
  -5   5  18    5.20    5.90
  -4  -5  18  114.79   16.10
  -4   5  18  140.09   17.10
  -3  -5  18   12.10    7.80
  -3   5  18   10.00    6.00
  -2  -5  18   15.50    8.00
  -2   5  18   18.90    6.20
  -2   5  18   19.30    7.40
  -1  -5  18   29.80    8.60
  -1  -5  18   30.90    8.40
  -1   5  18   29.00    7.40
  -1   5  18   34.60    9.70
   0  -5  18   45.70   10.40
   0  -5  18   29.40    8.70
   0   5  18   24.90    7.40
   0   5  18   49.00   10.30
   1  -5  18   16.30    7.40
   1  -5  18    3.90    5.80
   1   5  18    9.50    6.10
   1   5  18    1.50    6.40
 -11  -6  18   20.00    8.50
 -11   6  18   22.50    8.40
 -10  -6  18   -3.30    5.30
 -10   6  18   -3.50    4.60
  -9  -6  18   21.40    8.60
  -9   6  18   25.30    8.20
  -8  -6  18    2.70    6.30
  -8   6  18    3.80    5.80
  -7  -6  18   26.50    8.90
  -7   6  18   29.40    9.20
  -6  -6  18   23.30    8.20
  -6   6  18   23.90    8.40
  -5  -6  18   34.20    9.50
  -5   6  18   24.30    8.20
  -4  -6  18   22.50    8.40
  -4   6  18    4.90    6.20
  -3  -6  18   56.39   11.90
  -3   6  18   87.99   13.70
  -2  -6  18    2.30    5.20
  -2   6  18    4.50    5.70
  -1  -6  18   21.90    8.80
  -1   6  18    7.90    5.00
  -1   6  18   17.90    7.30
   0  -6  18   44.60   10.70
   0  -6  18   28.70    8.40
   0   6  18   27.00    8.60
   0   6  18   32.40    8.30
 -10  -7  18    8.60    7.60
 -10   7  18    9.20    6.70
  -9  -7  18   -4.70    4.90
  -9   7  18    1.50    5.70
  -8  -7  18   46.40   11.10
  -8   7  18   35.50   10.00
  -7  -7  18   -1.80    5.60
  -7   7  18   -0.80    5.40
  -6  -7  18   23.40    9.20
  -6   7  18   26.20    8.50
  -5  -7  18   31.70    9.50
  -5   7  18   27.60    8.50
  -4  -7  18   21.30    8.30
  -4   7  18    5.00    7.00
  -3  -7  18   39.90   10.20
  -3   7  18   33.70    9.60
  -2  -7  18   42.50   10.10
  -2   7  18   46.80   10.20
  -1  -7  18   12.50    7.30
  -1   7  18   18.80    7.60
  -9  -8  18   41.20   11.00
  -9   8  18   12.30    8.00
  -8  -8  18    9.70    8.10
  -8   8  18   11.70    7.40
  -7  -8  18   14.20    8.40
  -7   8  18    7.10    6.80
  -6  -8  18   57.19   12.30
  -6   8  18   71.19   13.00
  -5  -8  18   14.50    7.30
  -5   8  18   20.20    8.20
  -4  -8  18   46.90   11.20
  -4   8  18   82.59   14.00
  -3  -8  18   16.30    8.00
  -3   8  18   34.50    9.80
  -2  -8  18    7.10    6.60
  -2   8  18   -0.40    5.60
  -7  -9  18   -0.40    6.10
  -7   9  18    5.70    6.10
  -6  -9  18   -6.80    5.30
  -6   9  18    4.90    6.20
  -5  -9  18   17.00    7.90
  -5   9  18    4.50    6.80
  -4  -9  18   31.00    9.90
  -4   9  18   37.70   10.80
 -12   0  19   -0.60    5.40
 -11   0  19    0.80    6.10
 -10   0  19    7.80    6.60
  -9   0  19  105.59   15.20
  -8   0  19    5.90    5.80
  -7   0  19  158.18   18.20
  -6   0  19   -1.40    3.40
  -6   0  19    2.70    5.60
  -5   0  19   12.00    6.30
  -5   0  19   12.40    7.10
  -4   0  19   -0.40    5.40
  -4   0  19   -0.60    4.60
  -3   0  19   21.70    8.30
  -3   0  19   47.70    9.50
  -2   0  19    2.40    5.70
  -2   0  19   -2.50    4.10
  -1   0  19   18.40    7.60
  -1   0  19   11.00    9.10
   0   0  19   -0.80    5.10
   0   0  19   -3.10    5.30
 -12  -1  19    7.00    6.60
 -12   1  19   -7.90    5.30
 -11  -1  19    9.80    7.30
 -11   1  19    7.40    7.10
 -10  -1  19   -0.90    5.70
 -10   1  19    0.50    5.50
  -9  -1  19   10.70    6.80
  -9   1  19   19.00    7.80
  -8  -1  19   10.60    6.40
  -8   1  19    4.10    6.00
  -7  -1  19   23.00    8.50
  -7   1  19   33.10    9.50
  -6  -1  19   12.70    6.90
  -6   1  19   18.90    8.80
  -6   1  19   16.30    7.20
  -5  -1  19    1.40    5.20
  -5  -1  19    2.50    5.80
  -5   1  19   -2.80    5.00
  -5   1  19    1.00    3.50
  -4  -1  19   10.10    6.50
  -4  -1  19   -4.00    4.20
  -4   1  19    5.30    5.00
  -4   1  19    0.10    5.00
  -3  -1  19   12.50    5.80
  -3  -1  19    9.30    6.40
  -3   1  19    6.90    5.60
  -3   1  19   13.80    7.60
  -2  -1  19   13.80    6.60
  -2  -1  19    5.20    6.00
  -2   1  19   10.70    6.10
  -2   1  19   12.50    7.60
  -1  -1  19   62.09   11.30
  -1  -1  19   79.09   14.30
  -1   1  19  101.99   13.50
  -1   1  19   69.59   13.30
   0  -1  19   13.30    6.50
   0  -1  19    8.90    6.30
   0   1  19   18.40    7.60
   0   1  19   -1.70    5.20
 -11  -2  19   10.50    7.10
 -11   2  19   -7.20    4.40
 -10  -2  19   -0.80    5.40
 -10   2  19   -3.40    5.30
  -9  -2  19    8.40    6.60
  -9   2  19    4.30    5.60
  -8  -2  19    9.40    6.60
  -8   2  19    2.10    5.80
  -7  -2  19   40.70   10.30
  -7   2  19   27.50    8.70
  -6  -2  19   14.70    7.10
  -6   2  19   20.00    8.10
  -5  -2  19  118.49   15.70
  -5   2  19  110.69   15.90
  -4  -2  19   -1.60    4.60
  -4  -2  19   -5.80    4.00
  -4   2  19    3.00    3.90
  -4   2  19   -0.20    5.30
  -3  -2  19   69.99   12.50
  -3  -2  19   60.89   10.90
  -3   2  19   61.39   10.50
  -3   2  19   91.79   14.10
  -2  -2  19    3.80    6.30
  -2  -2  19   20.50    7.90
  -2   2  19    8.60    6.40
  -2   2  19    7.20    6.70
  -1  -2  19   30.20   10.00
  -1  -2  19   30.10    8.50
  -1   2  19   20.80    7.60
  -1   2  19   13.40    6.80
   0  -2  19    0.60    4.70
   0  -2  19   -2.30    5.00
   0   2  19   -3.10    5.00
   0   2  19   -5.60    4.30
 -11  -3  19   13.90    7.70
 -11   3  19   11.10    7.00
 -10  -3  19   10.10    7.30
 -10   3  19   16.00    7.50
  -9  -3  19   15.60    7.60
  -9   3  19    7.60    6.40
  -8  -3  19   18.70    8.20
  -8   3  19    9.50    7.10
  -7  -3  19    2.30    5.70
  -7   3  19   -5.40    4.50
  -6  -3  19   61.39   12.00
  -6   3  19   64.89   12.10
  -5  -3  19    5.10    5.80
  -5   3  19    3.00    6.00
  -4  -3  19    5.80    5.80
  -4   3  19   -1.70    5.00
  -3  -3  19   35.30    9.00
  -3  -3  19   32.30    9.40
  -3   3  19    7.60    4.80
  -3   3  19   50.79   11.00
  -2  -3  19   -2.10    5.20
  -2  -3  19    1.90    6.00
  -2   3  19   -3.90    5.90
  -2   3  19   -0.90    5.60
  -1  -3  19   70.39   12.70
  -1  -3  19   68.79   11.70
  -1   3  19   59.29   10.60
  -1   3  19   84.89   13.30
   0  -3  19   -0.90    6.00
   0   3  19    3.50    6.20
 -11  -4  19   -0.80    6.30
 -11   4  19   -1.30    5.50
 -10  -4  19    2.30    6.60
 -10   4  19   -1.90    5.40
  -9  -4  19   42.90   10.90
  -9   4  19   28.50    9.20
  -8  -4  19   32.40   10.00
  -8   4  19   33.00   10.30
  -7  -4  19   48.80   11.20
  -7   4  19   45.20   10.10
  -6  -4  19    3.80    5.60
  -6   4  19    4.40    5.30
  -5  -4  19   49.20   11.10
  -5   4  19   54.99   11.60
  -4  -4  19   11.40    6.80
  -4   4  19   -3.00    6.00
  -3  -4  19    7.00    7.10
  -3   4  19   11.30    7.10
  -2  -4  19   -0.50    5.50
  -2  -4  19   -6.90    4.40
  -2   4  19    3.60    6.60
  -2   4  19   -3.70    4.70
  -1  -4  19    3.60    6.40
  -1  -4  19   14.50    8.00
  -1   4  19    8.60    6.50
  -1   4  19   10.00    6.20
 -10  -5  19    7.00    6.60
 -10   5  19    5.90    6.40
  -9  -5  19    0.40    5.90
  -9   5  19   -0.60    6.10
  -8  -5  19   19.00    8.50
  -8   5  19   15.00    8.10
  -7  -5  19   -0.90    5.40
  -7   5  19    2.30    6.70
  -6  -5  19   34.70   10.10
  -6   5  19   23.80    8.70
  -5  -5  19    9.40    7.10
  -5   5  19    3.10    5.80
  -4  -5  19    0.10    5.50
  -4   5  19    2.80    5.60
  -3  -5  19   11.10    7.20
  -3   5  19   -2.00    4.40
  -2  -5  19    2.20    6.10
  -2   5  19    1.80    6.60
  -9  -6  19   -0.30    6.40
  -9   6  19   -5.40    4.80
  -8  -6  19    2.30    6.40
  -8   6  19    5.70    6.50
  -7  -6  19   10.60    7.20
  -7   6  19    6.50    6.60
  -6  -6  19   10.70    7.10
  -6   6  19   -1.80    4.90
  -5  -6  19   28.90    9.90
  -5   6  19   31.20    9.70
  -4  -6  19   51.59   11.50
  -4   6  19   45.50   11.10
  -3  -6  19   55.69   12.10
  -3   6  19   53.29   11.20
  -7  -7  19   -2.40    5.70
  -7   7  19   -2.70    5.00
  -6  -7  19   19.00    8.60
  -6   7  19   15.80    7.90
  -5  -7  19   -3.50    5.60
  -5   7  19   -1.20    5.40
  -9   0  20   -2.50    5.10
  -8   0  20   51.69   11.20
  -7   0  20    2.90    5.80
  -6   0  20   26.50    9.40
  -6   0  20    4.40    4.60
  -5   0  20    0.50    4.70
  -5   0  20    3.20    6.80
  -4   0  20    2.00    6.70
  -4   0  20    8.30    6.50
  -3   0  20    3.90    5.80
  -3   0  20   -3.20    5.30
  -9  -1  20   34.10    9.70
  -9   1  20   26.20    8.90
  -8  -1  20   10.50    7.60
  -8   1  20    1.60    5.60
  -7  -1  20   69.59   13.10
  -7   1  20   63.49   12.50
  -6  -1  20    1.50    6.10
  -6  -1  20   -2.00    5.00
  -6   1  20   -3.20    5.30
  -5  -1  20   -1.10    5.60
  -5  -1  20   -2.30    5.70
  -5   1  20    6.80    6.50
  -5   1  20    2.40    4.50
  -4  -1  20   39.50   10.20
  -4  -1  20   41.10    9.50
  -4   1  20   31.50    9.30
  -4   1  20   38.60    8.60
  -3  -1  20   10.00    6.70
  -3   1  20    1.40    6.50
  -9  -2  20    2.70    6.00
  -9   2  20   -1.70    5.40
  -8  -2  20   26.40    9.30
  -8   2  20    6.20    7.10
  -7  -2  20   -1.60    5.50
  -7   2  20    7.00    6.00
  -6  -2  20   34.00    9.90
  -6   2  20   36.80   10.50
  -5  -2  20   -0.30    4.90
  -5  -2  20    5.90    7.80
  -5   2  20   -0.50    5.60
  -4  -2  20    6.20    6.70
  -4  -2  20    8.40    6.70
  -4   2  20   11.80    7.40
  -8  -3  20   11.10    7.50
  -8   3  20   -2.30    5.80
  -7  -3  20    4.00    6.00
  -7   3  20    2.70    5.70
  -6  -3  20    1.20    6.00
  -6   3  20    2.30    5.70
  -5  -3  20    9.50    6.70
  -5   3  20   11.80    7.60
  -4  -3  20   28.00    9.40
  -4   3  20   32.80   10.00
   0   0   0    0.00    0.00

_computing_structure_solution     'SHELXT 2014/5 (Sheldrick, 2014)'
;
_shelx_hkl_checksum              31859
_olex2_submission_special_instructions 'No special instructions were received'
loop_
_space_group_symop_operation_xyz
'x, y, z'
'-x+1/2, y+1/2, -z+1/2'
'-x, -y, -z'
'x-1/2, -y-1/2, z-1/2'
loop_
_atom_site_label
_atom_site_type_symbol
_atom_site_fract_x
_atom_site_fract_y
_atom_site_fract_z
_atom_site_U_iso_or_equiv
_atom_site_adp_type
_atom_site_occupancy
_atom_site_site_symmetry_order
_atom_site_calc_flag
_atom_site_refinement_flags_posn
_atom_site_refinement_flags_adp
_atom_site_refinement_flags_occupancy
_atom_site_disorder_assembly
_atom_site_disorder_group
Cu1 Cu 0.45520(3) 0.26863(3) 0.48516(3) 0.03275(14) Uani 1 1 d . . . . .
S1 S 0.92543(6) 0.50488(6) 0.64917(6) 0.0398(2) Uani 1 1 d . . . . .
O1 O 0.54092(14) 0.33354(14) 0.57408(14) 0.0341(6) Uani 1 1 d . . . . .
O2 O 0.37231(16) 0.36143(14) 0.44491(15) 0.0414(6) Uani 1 1 d . . . . .
H2A H 0.348356 0.376405 0.481830 0.062 Uiso 1 1 d GR . . . .
H2B H 0.325121 0.346808 0.403149 0.062 Uiso 1 1 d GR . . . .
O3 O 1.20828(15) 0.16977(15) 0.68584(16) 0.0415(6) Uani 1 1 d . . . . .
O4 O 1.16922(16) 0.05101(16) 0.33657(16) 0.0442(6) Uani 1 1 d . . . . .
O5 O 0.90474(16) 0.29094(16) 0.87958(15) 0.0428(6) Uani 1 1 d . . . . .
O6 O 0.77460(16) 0.22459(16) 0.82219(16) 0.0461(7) Uani 1 1 d . . . . .
O7 O 1.17918(16) 0.21494(16) 0.48189(16) 0.0450(7) Uani 1 1 d . . . . .
O8 O 0.76250(16) 0.02170(16) 0.25557(16) 0.0457(7) Uani 1 1 d . . . . .
O9 O 0.80324(17) 0.13961(16) 0.61287(17) 0.0480(7) Uani 1 1 d . . . . .
O10 O 0.77145(16) 0.17331(16) 0.40642(17) 0.0501(7) Uani 1 1 d . . . . .
N1 N 0.53132(17) 0.17133(17) 0.53384(17) 0.0326(7) Uani 1 1 d . . . . .
O11 O 0.36210(17) 0.23320(17) 0.56410(19) 0.0553(8) Uani 1 1 d . . . . .
H11A H 0.375182 0.184485 0.585081 0.083 Uiso 1 1 d GR . . . .
H11B H 0.305266 0.228657 0.531964 0.083 Uiso 1 1 d GR . . . .
N2 N 1.03926(18) 0.22413(17) 0.37985(18) 0.0346(7) Uani 1 1 d . . . . .
O12 O 0.88508(19) 0.58303(16) 0.6275(2) 0.0604(8) Uani 1 1 d . . . . .
N3 N 0.87461(19) 0.10963(18) 0.24888(19) 0.0391(7) Uani 1 1 d . . . . .
N4 N 1.05544(19) 0.27477(18) 0.50348(19) 0.0382(7) Uani 1 1 d . . . . .
O13 O 1.11879(18) 0.62574(18) 0.80843(19) 0.0541(7) Uani 1 1 d . . . . .
H13A H 1.082946 0.587741 0.784508 0.081 Uiso 1 1 d G . . . .
H13B H 1.165428 0.618943 0.794141 0.081 Uiso 1 1 d G . . . .
O14 O 0.9503(2) 0.46571(18) 0.5849(2) 0.0651(9) Uani 1 1 d . . . . .
N5 N 1.10124(19) 0.15751(18) 0.75085(19) 0.0396(7) Uani 1 1 d . . . . .
N6 N 1.03719(19) 0.12284(18) 0.27647(18) 0.0381(7) Uani 1 1 d . . . . .
N7 N 0.89290(19) 0.25527(17) 0.4737(2) 0.0377(7) Uani 1 1 d . . . . .
N8 N 0.87512(19) 0.21651(19) 0.34576(19) 0.0405(7) Uani 1 1 d . . . . .
N9 N 0.87731(19) -0.01711(19) 0.20684(18) 0.0399(7) Uani 1 1 d . . . . .
O15 O 0.59825(18) 0.3725(2) 0.47833(16) 0.0693(10) Uani 1 1 d . . . . .
N10 N 0.9137(2) 0.23360(18) 0.6183(2) 0.0405(7) Uani 1 1 d . . . . .
N11 N 1.0773(2) 0.24541(18) 0.6475(2) 0.0407(8) Uani 1 1 d . . . . .
N12 N 0.74958(19) 0.01795(19) 0.4973(2) 0.0444(8) Uani 1 1 d . . . . .
H12A H 0.751576 0.070144 0.484931 0.053 Uiso 1 1 calc R . . . .
H12B H 0.779320 0.012372 0.551196 0.053 Uiso 1 1 calc R . . . .
N13 N 0.9376(2) 0.14740(19) 0.7226(2) 0.0421(8) Uani 1 1 d . . . . .
N14 N 1.0423(2) -0.00535(19) 0.24000(19) 0.0415(8) Uani 1 1 d . . . . .
O16 O 1.00191(18) 0.5063(2) 0.72606(19) 0.0675(9) Uani 1 1 d . . . . .
O17 O 0.2569(2) 0.4077(2) 0.5360(2) 0.0733(9) Uani 1 1 d . . . . .
H17A H 0.239192 0.444849 0.561455 0.110 Uiso 1 1 d G . . . .
H17B H 0.211824 0.399735 0.492217 0.110 Uiso 1 1 d G . . . .
C1 C 0.8049(2) 0.3362(2) 0.74979(19) 0.0278(7) Uani 1 1 d . . . . .
C2 C 0.8288(2) 0.2793(2) 0.8223(2) 0.0307(8) Uani 1 1 d . . . . .
C3 C 0.7195(2) 0.3300(2) 0.6890(2) 0.0305(8) Uani 1 1 d . . . . .
H3 H 0.678142 0.292459 0.695891 0.037 Uiso 1 1 calc R . . . .
C4 C 0.8429(2) 0.44019(19) 0.6684(2) 0.0288(7) Uani 1 1 d . . . . .
C5 C 0.6036(2) 0.3644(2) 0.5506(2) 0.0369(9) Uani 1 1 d . . . . .
C6 C 0.8669(2) 0.39246(19) 0.7391(2) 0.0285(7) Uani 1 1 d . . . . .
H6 H 0.924028 0.397918 0.779195 0.034 Uiso 1 1 calc R . . . .
C7 C 0.6130(2) 0.0502(2) 0.5286(2) 0.0341(8) Uani 1 1 d . . . . .
C8 C 1.1361(2) 0.1881(2) 0.6935(2) 0.0355(8) Uani 1 1 d . . . . .
C9 C 0.7575(2) 0.4332(2) 0.6085(2) 0.0318(8) Uani 1 1 d . . . . .
H9 H 0.742184 0.465442 0.561322 0.038 Uiso 1 1 calc R . . . .
C10 C 0.6945(2) 0.3779(2) 0.6189(2) 0.0292(7) Uani 1 1 d . . . . .
C11 C 1.0990(2) 0.2360(2) 0.4576(2) 0.0353(8) Uani 1 1 d . . . . .
C12 C 0.5616(2) 0.1165(2) 0.4915(2) 0.0354(8) Uani 1 1 d . . . . .
H12 H 0.547337 0.123449 0.434700 0.042 Uiso 1 1 calc R . . . .
C13 C 0.8314(2) 0.0360(2) 0.2395(2) 0.0386(9) Uani 1 1 d . . . . .
C14 C 1.0907(2) 0.0553(2) 0.2894(2) 0.0383(9) Uani 1 1 d . . . . .
C15 C 0.5536(2) 0.1609(2) 0.6157(2) 0.0386(9) Uani 1 1 d . . . . .
H15 H 0.533833 0.199063 0.645760 0.046 Uiso 1 1 calc R . . . .
C16 C 0.9549(2) 0.2674(2) 0.3676(2) 0.0397(9) Uani 1 1 d . . . . .
H16 H 0.947363 0.312184 0.328263 0.048 Uiso 1 1 calc R . . . .
C17 C 0.9646(2) 0.2986(2) 0.4548(2) 0.0375(9) Uani 1 1 d . . . . .
H17 H 0.956375 0.357432 0.455430 0.045 Uiso 1 1 calc R . . . .
C18 C 0.8396(2) 0.2112(2) 0.4082(2) 0.0377(9) Uani 1 1 d . . . . .
C19 C 0.9486(2) 0.1099(2) 0.2147(2) 0.0396(9) Uani 1 1 d . . . . .
H19 H 0.936896 0.147336 0.167989 0.047 Uiso 1 1 calc R . . . .
C20 C 0.8493(2) -0.1000(2) 0.1867(2) 0.0433(9) Uani 1 1 d . . . . .
H20A H 0.857479 -0.113997 0.134742 0.052 Uiso 1 1 calc R . . . .
H20B H 0.784953 -0.104542 0.178955 0.052 Uiso 1 1 calc R . . . .
C21 C 1.0176(2) 0.1977(2) 0.7483(2) 0.0398(9) Uani 1 1 d . . . . .
H21 H 1.024324 0.225477 0.800504 0.048 Uiso 1 1 calc R . . . .
C22 C 0.9521(2) 0.0210(2) 0.1883(2) 0.0405(9) Uani 1 1 d . . . . .
H22 H 0.944486 0.016852 0.129308 0.049 Uiso 1 1 calc R . . . .
C23 C 0.8320(2) 0.1822(2) 0.2645(2) 0.0440(9) Uani 1 1 d . . . . .
H23A H 0.769058 0.170207 0.257766 0.053 Uiso 1 1 calc R . . . .
H23B H 0.832175 0.222415 0.223293 0.053 Uiso 1 1 calc R . . . .
C24 C 1.0009(2) 0.2587(2) 0.6758(2) 0.0395(9) Uani 1 1 d . . . . .
H24 H 0.999039 0.314669 0.694276 0.047 Uiso 1 1 calc R . . . .
C25 C 1.0704(2) 0.2005(2) 0.3122(2) 0.0408(9) Uani 1 1 d . . . . .
H25A H 1.051362 0.241414 0.269155 0.049 Uiso 1 1 calc R . . . .
H25B H 1.136420 0.199336 0.332225 0.049 Uiso 1 1 calc R . . . .
C26 C 0.8773(2) 0.1698(2) 0.6479(3) 0.0410(9) Uani 1 1 d . . . . .
O18 O 1.1056(2) 0.3800(3) 0.8126(3) 0.0944(12) Uani 1 1 d . . . . .
H18A H 1.162745 0.372200 0.828666 0.142 Uiso 1 1 d G . . . .
H18B H 1.097215 0.421502 0.781705 0.142 Uiso 1 1 d G . . . .
C27 C 0.6333(2) 0.0403(2) 0.6130(3) 0.0449(10) Uani 1 1 d . . . . .
H27 H 0.666420 -0.004534 0.639650 0.054 Uiso 1 1 calc R . . . .
C28 C 0.7982(2) -0.0287(2) 0.4517(2) 0.0417(9) Uani 1 1 d D U . . .
H28C H 0.759969 -0.030024 0.394004 0.050 Uiso 0.5 1 calc R . P A 2
H28D H 0.803687 -0.084023 0.471889 0.050 Uiso 0.5 1 calc R . P A 2
H28A H 0.769227 -0.022012 0.392498 0.050 Uiso 0.5 1 calc R . P B -2
H28B H 0.799102 -0.085878 0.465040 0.050 Uiso 0.5 1 calc R . P B -2
C29 C 1.0991(2) 0.2974(2) 0.5891(2) 0.0413(9) Uani 1 1 d . . . . .
H29A H 1.164481 0.296897 0.601337 0.050 Uiso 1 1 calc R . . . .
H29B H 1.081560 0.352413 0.596776 0.050 Uiso 1 1 calc R . . . .
C30 C 0.6530(2) -0.0049(2) 0.4807(3) 0.0421(9) Uani 1 1 d . . . . .
H30A H 0.649381 -0.060676 0.497236 0.051 Uiso 1 1 calc R . . . .
H30B H 0.619352 -0.000267 0.422012 0.051 Uiso 1 1 calc R . . . .
C31 C 0.8650(2) 0.2758(2) 0.5438(3) 0.0433(10) Uani 1 1 d . . . . .
H31A H 0.873045 0.333560 0.553872 0.052 Uiso 1 1 calc R . . . .
H31B H 0.800630 0.264033 0.529713 0.052 Uiso 1 1 calc R . . . .
C32 C 1.0816(3) -0.0823(2) 0.2296(3) 0.0459(10) Uani 1 1 d . . . . .
H32A H 1.058686 -0.097096 0.171477 0.055 Uiso 1 1 calc R . . . .
H32B H 1.147036 -0.076022 0.245214 0.055 Uiso 1 1 calc R . . . .
C33 C 0.6043(2) 0.0967(2) 0.6572(2) 0.0451(10) Uani 1 1 d . . . . .
H33 H 0.618688 0.091578 0.714144 0.054 Uiso 1 1 calc R . . . .
O19 O 0.6453(3) -0.0195(3) 0.0920(3) 0.1109(14) Uani 1 1 d . . . . .
H19A H 0.624558 -0.034543 0.129597 0.166 Uiso 1 1 d G . . . .
H19B H 0.598289 -0.008627 0.050746 0.166 Uiso 1 1 d G . . . .
C34B C 0.8935(3) -0.0004(4) 0.4553(2) 0.036(2) Uani 0.25 1 d D U P C 2
H34A H 0.918454 0.024470 0.509420 0.044 Uiso 0.25 1 d R . P C -2
H34B H 0.883314 0.040850 0.412850 0.044 Uiso 0.25 1 d DR . P C -2
C34A C 0.8985(4) -0.0075(10) 0.4980(10) 0.0323(17) Uani 0.25 1 d D U P C -1
H34C H 0.916482 -0.025349 0.555125 0.039 Uiso 0.25 1 calc R . P C -1
H34D H 0.908101 0.050505 0.497161 0.039 Uiso 0.25 1 calc R . P C -1
C37 C 0.9538(8) -0.0524(14) 0.4518(14) 0.035(2) Uani 0.25 1 d D U P C -1
H37A H 0.942720 -0.027656 0.398010 0.042 Uiso 0.25 1 calc R . P C -1
H37B H 0.934317 -0.108448 0.443309 0.042 Uiso 0.25 1 calc R . P C -1
C1A C 1.0579(7) -0.0486(5) 0.5028(9) 0.038(2) Uani 0.25 1 d D U P C -1
H1AA H 1.090509 -0.083782 0.477076 0.045 Uiso 0.25 1 calc R . P C -1
H1AB H 1.067613 -0.068924 0.558211 0.045 Uiso 0.25 1 calc R . P C -1
C1B C 1.0981(3) 0.0391(5) 0.5090(8) 0.036(3) Uani 0.25 1 d D U P C -1
H1BA H 1.079(4) 0.0645(16) 0.4549(11) 0.054 Uiso 0.25 1 d DR . P D -1
H1BB H 1.062(2) 0.0765(8) 0.529(3) 0.054 Uiso 0.25 1 d DR . P E -1
C35 C 0.9512(9) 0.0015(8) 0.5422(9) 0.030(2) Uani 0.25 1 d D U P C -2
H35B H 0.926145 0.018146 0.584367 0.036 Uiso 0.25 1 d R . P C 1
H35A H 0.970005 -0.054784 0.550907 0.036 Uiso 0.25 1 d R . P C 1
C36 C 1.0420(11) 0.0378(14) 0.5541(15) 0.035(3) Uani 0.25 1 d D U P C -2
H36A H 1.025866 0.079773 0.512187 0.042 Uiso 0.25 1 d R . P C -2
H36B H 1.060376 0.062483 0.608597 0.042 Uiso 0.25 1 d R . P C -2
C38 C 0.8954(3) 0.0061(4) 0.4801(2) 0.035(3) Uani 0.25 1 d D U P C -2
H38A H 0.922226 -0.014838 0.440716 0.042 Uiso 0.25 1 calc R . P C -2
H38B H 0.887430 0.063743 0.469229 0.042 Uiso 0.25 1 calc R . P C -2
loop_
_atom_site_aniso_label
_atom_site_aniso_U_11
_atom_site_aniso_U_22
_atom_site_aniso_U_33
_atom_site_aniso_U_23
_atom_site_aniso_U_13
_atom_site_aniso_U_12
Cu1 0.0253(2) 0.0417(3) 0.0241(2) -0.00351(19) -0.00119(17) 0.00475(18)
S1 0.0350(5) 0.0375(5) 0.0470(6) -0.0049(4) 0.0138(4) -0.0074(4)
O1 0.0237(12) 0.0486(15) 0.0244(12) 0.0004(11) 0.0007(10) -0.0056(10)
O2 0.0343(13) 0.0465(15) 0.0340(14) -0.0034(12) -0.0007(11) 0.0059(11)
O3 0.0285(13) 0.0475(15) 0.0506(16) -0.0054(13) 0.0158(12) -0.0029(11)
O4 0.0296(14) 0.0573(17) 0.0435(16) 0.0016(13) 0.0095(12) 0.0018(12)
O5 0.0313(13) 0.0564(16) 0.0277(13) 0.0086(12) -0.0073(11) -0.0118(12)
O6 0.0294(14) 0.0614(17) 0.0380(15) 0.0151(13) -0.0015(12) -0.0105(12)
O7 0.0250(14) 0.0586(17) 0.0480(16) 0.0004(13) 0.0078(12) -0.0008(12)
O8 0.0341(14) 0.0597(17) 0.0444(16) -0.0023(13) 0.0147(13) -0.0029(12)
O9 0.0355(15) 0.0527(17) 0.0570(18) -0.0153(14) 0.0172(13) -0.0086(12)
O10 0.0318(14) 0.0577(17) 0.0595(18) -0.0142(14) 0.0133(13) -0.0095(13)
N1 0.0257(15) 0.0419(17) 0.0249(15) -0.0038(13) 0.0015(12) 0.0068(12)
O11 0.0287(14) 0.0636(19) 0.067(2) 0.0105(16) 0.0080(14) 0.0016(13)
N2 0.0281(15) 0.0365(16) 0.0363(17) 0.0030(14) 0.0070(14) -0.0006(13)
O12 0.0603(18) 0.0370(15) 0.085(2) 0.0089(15) 0.0258(17) -0.0036(13)
N3 0.0301(16) 0.0459(19) 0.0381(18) 0.0036(15) 0.0072(14) 0.0018(14)
N4 0.0295(16) 0.0406(18) 0.0416(18) -0.0017(15) 0.0081(14) -0.0012(13)
O13 0.0386(16) 0.065(2) 0.0565(19) 0.0021(15) 0.0125(15) -0.0106(14)
O14 0.072(2) 0.0642(19) 0.077(2) -0.0180(17) 0.0498(18) -0.0163(16)
N5 0.0352(17) 0.0467(19) 0.0402(18) -0.0071(15) 0.0170(15) -0.0012(14)
N6 0.0337(17) 0.0468(19) 0.0318(17) 0.0017(14) 0.0083(14) -0.0004(14)
N7 0.0296(16) 0.0357(17) 0.0472(19) -0.0076(14) 0.0121(14) -0.0019(13)
N8 0.0279(16) 0.0490(19) 0.0383(18) 0.0006(15) 0.0028(14) -0.0003(14)
N9 0.0338(17) 0.053(2) 0.0332(17) -0.0007(15) 0.0115(14) -0.0034(14)
O15 0.0426(17) 0.133(3) 0.0261(15) 0.0111(17) 0.0028(13) -0.0192(17)
N10 0.0342(17) 0.0417(18) 0.0442(19) -0.0113(15) 0.0112(15) -0.0049(14)
N11 0.0341(17) 0.0428(18) 0.048(2) -0.0033(15) 0.0178(15) 0.0020(14)
N12 0.0306(16) 0.0501(19) 0.053(2) -0.0157(16) 0.0143(15) -0.0039(14)
N13 0.0358(17) 0.0500(19) 0.044(2) -0.0102(16) 0.0173(16) -0.0072(14)
N14 0.0354(17) 0.052(2) 0.0385(18) -0.0060(16) 0.0136(15) -0.0024(15)
O16 0.0413(16) 0.084(2) 0.062(2) 0.0053(17) -0.0032(15) -0.0254(15)
O17 0.085(2) 0.070(2) 0.068(2) 0.0011(18) 0.0302(19) -0.0022(19)
C1 0.0235(17) 0.0359(19) 0.0228(17) -0.0035(15) 0.0060(14) 0.0004(14)
C2 0.0218(17) 0.044(2) 0.0231(17) -0.0019(15) 0.0038(14) 0.0011(15)
C3 0.0218(17) 0.043(2) 0.0261(18) -0.0034(16) 0.0074(14) -0.0014(14)
C4 0.0267(18) 0.0303(18) 0.0288(18) -0.0053(15) 0.0086(15) -0.0015(14)
C5 0.0260(18) 0.066(3) 0.0155(18) 0.0005(17) 0.0026(15) -0.0124(17)
C6 0.0241(17) 0.0355(19) 0.0233(17) -0.0058(15) 0.0044(14) 0.0005(14)
C7 0.0196(17) 0.0352(19) 0.045(2) -0.0036(17) 0.0082(16) -0.0025(14)
C8 0.0308(19) 0.037(2) 0.037(2) -0.0189(17) 0.0088(17) -0.0107(16)
C9 0.0287(18) 0.039(2) 0.0276(18) 0.0039(16) 0.0094(15) 0.0060(15)
C10 0.0230(17) 0.042(2) 0.0214(17) -0.0006(15) 0.0053(14) 0.0001(14)
C11 0.033(2) 0.0289(19) 0.043(2) 0.0037(16) 0.0100(17) -0.0066(15)
C12 0.0251(18) 0.048(2) 0.0288(19) -0.0068(17) 0.0028(15) 0.0020(16)
C13 0.031(2) 0.057(2) 0.0206(18) 0.0060(17) -0.0009(16) 0.0038(18)
C14 0.040(2) 0.053(2) 0.0282(19) 0.0054(18) 0.0189(18) -0.0021(18)
C15 0.0303(19) 0.054(2) 0.031(2) -0.0026(18) 0.0092(16) 0.0063(17)
C16 0.035(2) 0.0311(19) 0.050(2) 0.0141(18) 0.0095(18) 0.0058(16)
C17 0.0325(19) 0.0219(17) 0.053(2) 0.0001(17) 0.0078(18) 0.0007(14)
C18 0.030(2) 0.035(2) 0.043(2) 0.0000(17) 0.0056(17) 0.0084(16)
C19 0.036(2) 0.054(2) 0.0257(19) 0.0102(17) 0.0059(16) 0.0005(17)
C20 0.036(2) 0.062(3) 0.029(2) -0.0088(19) 0.0067(17) -0.0046(18)
C21 0.037(2) 0.048(2) 0.039(2) -0.0197(18) 0.0189(18) -0.0060(17)
C22 0.038(2) 0.061(3) 0.0233(18) 0.0006(17) 0.0104(16) -0.0036(18)
C23 0.032(2) 0.054(2) 0.036(2) 0.0085(19) -0.0020(17) 0.0083(18)
C24 0.034(2) 0.035(2) 0.051(2) -0.0194(18) 0.0170(18) -0.0036(16)
C25 0.037(2) 0.047(2) 0.039(2) 0.0119(18) 0.0134(18) -0.0047(17)
C26 0.036(2) 0.042(2) 0.051(2) -0.0192(19) 0.023(2) -0.0002(18)
O18 0.055(2) 0.126(4) 0.090(3) 0.010(3) 0.007(2) 0.007(2)
C27 0.036(2) 0.049(2) 0.053(3) 0.020(2) 0.0195(19) 0.0109(18)
C28 0.0305(16) 0.048(2) 0.049(2) -0.0036(19) 0.0169(15) 0.0055(15)
C29 0.033(2) 0.037(2) 0.050(2) -0.0092(18) 0.0100(18) -0.0087(16)
C30 0.0262(19) 0.043(2) 0.055(2) -0.0107(19) 0.0112(18) -0.0028(16)
C31 0.0287(19) 0.036(2) 0.065(3) -0.014(2) 0.0150(19) 0.0014(16)
C32 0.041(2) 0.059(3) 0.046(2) -0.010(2) 0.0263(19) -0.0016(19)
C33 0.035(2) 0.069(3) 0.034(2) 0.016(2) 0.0149(18) 0.0128(19)
O19 0.087(3) 0.110(3) 0.108(4) -0.005(3) -0.004(3) -0.015(3)
C34B 0.036(3) 0.037(3) 0.037(3) -0.0001(10) 0.0126(12) 0.0003(10)
C34A 0.0326(18) 0.033(2) 0.032(2) 0.0001(10) 0.0121(10) 0.0010(10)
C37 0.033(2) 0.036(4) 0.040(4) 0.000(4) 0.018(3) 0.001(3)
C1A 0.034(3) 0.036(3) 0.046(5) -0.002(4) 0.017(3) 0.001(3)
C1B 0.035(3) 0.036(3) 0.037(3) 0.0009(19) 0.0129(19) 0.0012(18)
C35 0.031(4) 0.032(4) 0.032(4) -0.001(4) 0.017(3) 0.002(3)
C36 0.035(3) 0.035(3) 0.035(3) -0.0006(19) 0.0130(19) 0.0003(19)
C38 0.035(3) 0.035(3) 0.035(3) -0.0002(10) 0.0124(12) 0.0003(10)
loop_
_atom_type_symbol
_atom_type_description
_atom_type_scat_dispersion_real
_atom_type_scat_dispersion_imag
_atom_type_scat_source
C C 0.0033 0.0016 'International Tables Vol C Tables 4.2.6.8 and 6.1.1.4'
H H 0.0000 0.0000 'International Tables Vol C Tables 4.2.6.8 and 6.1.1.4'
Cu Cu 0.3201 1.2651 'International Tables Vol C Tables 4.2.6.8 and 6.1.1.4'
N N 0.0061 0.0033 'International Tables Vol C Tables 4.2.6.8 and 6.1.1.4'
O O 0.0106 0.0060 'International Tables Vol C Tables 4.2.6.8 and 6.1.1.4'
S S 0.1246 0.1234 'International Tables Vol C Tables 4.2.6.8 and 6.1.1.4'
loop_
_geom_angle_atom_site_label_1
_geom_angle_atom_site_label_2
_geom_angle_atom_site_label_3
_geom_angle
_geom_angle_site_symmetry_1
_geom_angle_site_symmetry_3
_geom_angle_publ_flag
O1 Cu1 O2 92.52(10) . . ?
C34Bb C28 H28C 107.6 . . ?
C34Bb C28 H28D 107.6 . . ?
O1 Cu1 O5 159.44(10) . 4_565 ?
H28Cb C28 H28D 107.0 . . ?
O1 Cu1 N1 87.68(10) . . ?
H28Cb C28 H28A 12.1 . . ?
H28Db C28 H28A 115.8 . . ?
O1 Cu1 O11 94.53(10) . . ?
O2 Cu1 O5 93.00(10) . 4_565 ?
O2 Cu1 N1 173.77(11) . . ?
C34Bb C28 H28A 96.4 . . ?
H28Cb C28 H28B 100.0 . . ?
C34Bb C28 H28B 110.4 . . ?
O2 Cu1 O11 86.34(10) . . ?
O5 Cu1 N1 88.95(10) 4_565 . ?
O5 Cu1 O11 105.58(11) 4_565 . ?
N1 Cu1 O11 87.43(11) . . ?
H28Db C28 H28B 7.0 . . ?
C34Bb C28 C38 16.1(3) . . ?
C34Bb C35 H34A 35.8 . . ?
O12 S1 O14 114.6(2) . . ?
C34Bb C35 C36 112.5(13) . . ?
O12 S1 O16 112.2(2) . . ?
O12 S1 C4 107.78(16) . . ?
O14 S1 O16 110.6(2) . . ?
O14 S1 C4 105.61(16) . . ?
O16 S1 C4 105.42(17) . . ?
C5 O1 Cu1 111.4(2) . . ?
Cu1 O2 H2A 110.9 . . ?
Cu1 O2 H2B 110.3 . . ?
H2A O2 H2B 103.0 . . ?
C2 O5 Cu1 127.7(2) . 4_666 ?
C12 N1 Cu1 125.5(2) . . ?
C15 N1 Cu1 116.7(2) . . ?
C15 N1 C12 117.8(3) . . ?
Cu1 O11 H11A 111.0 . . ?
Cu1 O11 H11B 110.3 . . ?
H11A O11 H11B 103.1 . . ?
C11 N2 C16 111.2(3) . . ?
C11 N2 C25 121.2(3) . . ?
C16 N2 C25 123.1(3) . . ?
C13 N3 C19 112.2(3) . . ?
C13 N3 C23 121.4(3) . . ?
C23 N3 C19 123.3(3) . . ?
C11 N4 C17 112.3(3) . . ?
C11 N4 C29 123.5(3) . . ?
C17 N4 C29 123.8(3) . . ?
H13A O13 H13B 104.6 . . ?
C8 N5 C20 122.2(3) . 3_756 ?
C8 N5 C21 112.2(3) . . ?
C20 N5 C21 125.1(3) 3_756 . ?
C14 N6 C19 112.3(3) . . ?
C14 N6 C25 122.9(3) . . ?
C25 N6 C19 124.2(3) . . ?
C18 N7 C17 112.5(3) . . ?
C18 N7 C31 122.5(3) . . ?
C31 N7 C17 122.5(3) . . ?
C16 N8 C23 124.1(3) . . ?
C18 N8 C16 112.1(3) . . ?
C18 N8 C23 123.5(3) . . ?
C13 N9 C20 123.3(3) . . ?
C13 N9 C22 112.4(3) . . ?
C20 N9 C22 124.1(3) . . ?
C26 N10 C24 112.3(3) . . ?
C26 N10 C31 122.9(3) . . ?
C31 N10 C24 124.5(3) . . ?
C8 N11 C24 112.3(3) . . ?
C8 N11 C29 122.9(3) . . ?
C29 N11 C24 123.7(3) . . ?
H12A N12 H12B 107.4 . . ?
C28 N12 H12A 108.3 . . ?
C28 N12 H12B 108.3 . . ?
C28 N12 C30 115.7(3) . . ?
C30 N12 H12A 108.3 . . ?
C30 N12 H12B 108.3 . . ?
C21 N13 C32 125.4(3) . 3_756 ?
C26 N13 C21 112.7(3) . . ?
C26 N13 C32 121.8(3) . 3_756 ?
C14 N14 C22 112.3(3) . . ?
C14 N14 C32 123.5(3) . . ?
C32 N14 C22 123.4(3) . . ?
H17A O17 H17B 104.5 . . ?
C3 C1 C2 118.8(3) . . ?
C3 C1 C6 118.8(3) . . ?
C6 C1 C2 122.3(3) . . ?
O5 C2 C1 116.8(3) . . ?
O6 C2 O5 124.8(3) . . ?
O6 C2 C1 118.4(3) . . ?
C1 C3 H3 119.0 . . ?
C10 C3 C1 121.9(3) . . ?
C10 C3 H3 119.0 . . ?
C6 C4 S1 120.0(2) . . ?
C6 C4 C9 120.7(3) . . ?
C9 C4 S1 119.0(3) . . ?
O1 C5 C10 115.4(3) . . ?
O15 C5 O1 124.2(3) . . ?
O15 C5 C10 119.5(3) . . ?
C1 C6 H6 120.1 . . ?
C4 C6 C1 119.7(3) . . ?
C4 C6 H6 120.1 . . ?
C12 C7 C27 118.1(3) . . ?
C12 C7 C30 120.9(3) . . ?
C27 C7 C30 120.7(3) . . ?
O3 C8 N5 126.2(4) . . ?
O3 C8 N11 125.2(3) . . ?
N11 C8 N5 108.6(3) . . ?
C4 C9 H9 120.0 . . ?
C4 C9 C10 120.1(3) . . ?
C10 C9 H9 120.0 . . ?
C3 C10 C5 120.3(3) . . ?
C3 C10 C9 118.7(3) . . ?
C9 C10 C5 120.8(3) . . ?
O7 C11 N2 125.2(3) . . ?
O7 C11 N4 125.9(3) . . ?
N4 C11 N2 108.8(3) . . ?
N1 C12 C7 122.7(3) . . ?
N1 C12 H12 118.6 . . ?
C7 C12 H12 118.6 . . ?
O8 C13 N3 125.4(4) . . ?
O8 C13 N9 126.3(4) . . ?
N9 C13 N3 108.2(3) . . ?
O4 C14 N6 125.3(4) . . ?
O4 C14 N14 126.2(4) . . ?
N14 C14 N6 108.5(3) . . ?
N1 C15 H15 118.4 . . ?
N1 C15 C33 123.1(3) . . ?
C33 C15 H15 118.4 . . ?
N2 C16 H16 111.5 . . ?
N2 C16 C17 103.6(3) . . ?
N8 C16 N2 114.4(3) . . ?
N8 C16 H16 111.5 . . ?
N8 C16 C17 104.0(3) . . ?
C17 C16 H16 111.5 . . ?
N4 C17 N7 114.7(3) . . ?
N4 C17 C16 103.3(3) . . ?
N4 C17 H17 111.8 . . ?
N7 C17 C16 102.7(3) . . ?
N7 C17 H17 111.8 . . ?
C16 C17 H17 111.8 . . ?
O10 C18 N7 125.4(4) . . ?
O10 C18 N8 126.1(4) . . ?
N7 C18 N8 108.5(3) . . ?
N3 C19 H19 112.0 . . ?
N3 C19 C22 103.1(3) . . ?
N6 C19 N3 113.4(3) . . ?
N6 C19 H19 112.0 . . ?
N6 C19 C22 103.7(3) . . ?
C22 C19 H19 112.0 . . ?
N5 C20 H20A 108.8 3_756 . ?
N5 C20 H20B 108.8 3_756 . ?
N9 C20 N5 113.7(3) . 3_756 ?
N9 C20 H20A 108.8 . . ?
N9 C20 H20B 108.8 . . ?
H20A C20 H20B 107.7 . . ?
N5 C21 H21 111.5 . . ?
N5 C21 C24 103.3(3) . . ?
N13 C21 N5 115.1(3) . . ?
N13 C21 H21 111.5 . . ?
N13 C21 C24 103.5(3) . . ?
C24 C21 H21 111.5 . . ?
N9 C22 N14 114.8(3) . . ?
N9 C22 C19 103.7(3) . . ?
N9 C22 H22 111.5 . . ?
N14 C22 C19 103.2(3) . . ?
N14 C22 H22 111.5 . . ?
C19 C22 H22 111.5 . . ?
N3 C23 N8 114.3(3) . . ?
N3 C23 H23A 108.7 . . ?
N3 C23 H23B 108.7 . . ?
N8 C23 H23A 108.7 . . ?
N8 C23 H23B 108.7 . . ?
H23A C23 H23B 107.6 . . ?
N10 C24 C21 103.1(3) . . ?
N10 C24 H24 111.6 . . ?
N11 C24 N10 114.9(3) . . ?
N11 C24 C21 103.5(3) . . ?
N11 C24 H24 111.6 . . ?
C21 C24 H24 111.6 . . ?
N2 C25 H25A 108.7 . . ?
N2 C25 H25B 108.7 . . ?
N6 C25 N2 114.1(3) . . ?
N6 C25 H25A 108.7 . . ?
N6 C25 H25B 108.7 . . ?
H25A C25 H25B 107.6 . . ?
O9 C26 N10 125.0(4) . . ?
O9 C26 N13 126.6(4) . . ?
N13 C26 N10 108.4(3) . . ?
H18A O18 H18B 104.4 . . ?
C7 C27 H27 120.1 . . ?
C33 C27 C7 119.7(3) . . ?
C33 C27 H27 120.1 . . ?
N12 C28 H28C 107.6 . . ?
N12 C28 H28D 107.6 . . ?
N12 C28 H28A 110.7 . . ?
N12 C28 H28B 110.7 . . ?
N12 C28 C34B 118.8(4) . . ?
N12 C28 C34A 102.9(7) . . ?
N12 C28 C1B 118.6(6) . 3_756 ?
N12 C28 C38 105.3(4) . . ?
H28A C28 H28B 108.8 . . ?
C1B C28 C34A 20.3(6) 3_756 . ?
C38 C28 H28C 122.4 . . ?
C38 C28 H28D 106.1 . . ?
C38 C28 H28A 110.7 . . ?
C38 C28 H28B 110.7 . . ?
N4 C29 H29A 108.7 . . ?
N4 C29 H29B 108.7 . . ?
N11 C29 N4 114.3(3) . . ?
N11 C29 H29A 108.7 . . ?
N11 C29 H29B 108.7 . . ?
H29A C29 H29B 107.6 . . ?
N12 C30 C7 108.9(3) . . ?
N12 C30 H30A 109.9 . . ?
N12 C30 H30B 109.9 . . ?
C7 C30 H30A 109.9 . . ?
C7 C30 H30B 109.9 . . ?
H30A C30 H30B 108.3 . . ?
N7 C31 H31A 108.7 . . ?
N7 C31 H31B 108.7 . . ?
N10 C31 N7 114.2(3) . . ?
N10 C31 H31A 108.7 . . ?
N10 C31 H31B 108.7 . . ?
H31A C31 H31B 107.6 . . ?
N13 C32 N14 113.9(3) 3_756 . ?
N13 C32 H32A 108.8 3_756 . ?
N13 C32 H32B 108.8 3_756 . ?
N14 C32 H32A 108.8 . . ?
N14 C32 H32B 108.8 . . ?
H32A C32 H32B 107.7 . . ?
C15 C33 H33 120.7 . . ?
C27 C33 C15 118.6(4) . . ?
C27 C33 H33 120.7 . . ?
H19A O19 H19B 104.5 . . ?
C28 C34A H34C 110.6 . . ?
C28 C34A H34D 110.6 . . ?
C28 C34A C37 105.8(10) . . ?
H34C C34A H34D 108.7 . . ?
C37 C34A H34C 110.6 . . ?
C37 C34A H34D 110.6 . . ?
C34A C37 H37A 109.6 . . ?
C34A C37 H37B 109.6 . . ?
C34A C37 C1A 110.3(15) . . ?
H37A C37 H37B 108.1 . . ?
C1A C37 H37A 109.6 . . ?
C1A C37 H37B 109.6 . . ?
C37 C1A H1AA 109.0 . . ?
C37 C1A H1AB 109.0 . . ?
C37 C1A C1B 113.0(10) . . ?
H1AA C1A H1AB 107.8 . . ?
C1B C1A H1AA 109.0 . . ?
C1B C1A H1AB 109.0 . . ?
C1A C1B H1BA 110.26(14) . . ?
C1A C1B H1BB 110.27(14) . . ?
H1BA C1B H1BB 92(5) . . ?
C35 C34Bb C28 107.7(6) . . ?
C36 C35 H34A 106.6 . . ?
C38 C35 C34B 12.3(4) . . ?
C38 C35 H34A 27.9 . . ?
C38 C35 C36 120.0(14) . . ?
C35 C36 H36A 100.8 . . ?
C35 C36 H36B 105.3 . . ?
H36A C36 H36B 109.5 . . ?
C28 C38 H34A 135.4 . . ?
C28 C38 H34B 92.9 . . ?
C28 C38 H38A 104.8 . . ?
C28 C38 H38B 104.8 . . ?
H34A C38 H34B 114.1 . . ?
H34A C38 H38A 119.4 . . ?
H34A C38 H38B 70.3 . . ?
H34B C38 H38A 59.0 . . ?
H34B C38 H38B 53.1 . . ?
C35 C38 C28 129.8(7) . . ?
C35 C38 H34A 34.9 . . ?
C35 C38 H34B 137.2 . . ?
C35 C38 H38A 104.8 . . ?
C35 C38 H38B 104.8 . . ?
H38A C38 H38B 105.8 . . ?
loop_
_geom_bond_atom_site_label_1
_geom_bond_atom_site_label_2
_geom_bond_distance
_geom_bond_site_symmetry_2
_geom_bond_publ_flag
Cu1 O1 1.974(2) . ?
Cu1 O2 1.974(2) . ?
Cu1 O5 1.977(2) 4_565 ?
Cu1 N1 2.006(3) . ?
Cu1 O11 2.367(3) . ?
C34Bb C35 1.461(14) . ?
S1 O12 1.429(3) . ?
S1 O14 1.438(3) . ?
S1 O16 1.452(3) . ?
S1 C4 1.787(3) . ?
O1 C5 1.280(4) . ?
O2 H2A 0.8718 . ?
O2 H2B 0.8718 . ?
O3 C8 1.215(4) . ?
O4 C14 1.223(4) . ?
O5 Cu1 1.977(2) 4_666 ?
O5 C2 1.275(4) . ?
O6 C2 1.236(4) . ?
O7 C11 1.228(4) . ?
O8 C13 1.220(4) . ?
O9 C26 1.216(4) . ?
O10 C18 1.225(4) . ?
N1 C12 1.342(4) . ?
N1 C15 1.339(4) . ?
O11 H11A 0.8767 . ?
O11 H11B 0.8765 . ?
N2 C11 1.362(5) . ?
N2 C16 1.449(4) . ?
N2 C25 1.454(5) . ?
N3 C13 1.372(5) . ?
N3 C19 1.458(4) . ?
N3 C23 1.438(5) . ?
N4 C11 1.360(5) . ?
N4 C17 1.438(4) . ?
N4 C29 1.446(5) . ?
O13 H13A 0.8489 . ?
O13 H13B 0.8493 . ?
N5 C8 1.369(5) . ?
N5 C20 1.445(5) 3_756 ?
N5 C21 1.451(4) . ?
N6 C14 1.365(5) . ?
N6 C19 1.449(4) . ?
N6 C25 1.441(5) . ?
N7 C17 1.453(4) . ?
N7 C18 1.361(5) . ?
N7 C31 1.449(5) . ?
N8 C16 1.444(4) . ?
N8 C18 1.364(5) . ?
N8 C23 1.445(5) . ?
N9 C13 1.364(5) . ?
N9 C20 1.443(5) . ?
N9 C22 1.452(4) . ?
O15 C5 1.222(4) . ?
N10 C24 1.448(4) . ?
N10 C26 1.372(5) . ?
N10 C31 1.430(5) . ?
N11 C8 1.368(5) . ?
N11 C24 1.447(4) . ?
N11 C29 1.443(5) . ?
N12 H12A 0.8900 . ?
N12 H12B 0.8900 . ?
N12 C28 1.474(4) . ?
N12 C30 1.485(4) . ?
N13 C21 1.440(4) . ?
N13 C26 1.362(5) . ?
N13 C32 1.443(5) 3_756 ?
N14 C14 1.365(5) . ?
N14 C22 1.456(5) . ?
N14 C32 1.448(5) . ?
O17 H17A 0.8499 . ?
O17 H17B 0.8499 . ?
C1 C2 1.504(5) . ?
C1 C3 1.393(4) . ?
C1 C6 1.395(4) . ?
C3 H3 0.9300 . ?
C3 C10 1.382(5) . ?
C4 C6 1.388(5) . ?
C4 C9 1.388(5) . ?
C5 C10 1.523(4) . ?
C6 H6 0.9300 . ?
C7 C12 1.380(5) . ?
C7 C27 1.385(5) . ?
C7 C30 1.496(5) . ?
C9 H9 0.9300 . ?
C9 C10 1.396(5) . ?
C12 H12 0.9300 . ?
C15 H15 0.9300 . ?
C15 C33 1.370(5) . ?
C16 H16 0.9800 . ?
C16 C17 1.540(5) . ?
C17 H17 0.9800 . ?
C19 H19 0.9800 . ?
C19 C22 1.541(5) . ?
C20 N5 1.445(5) 3_756 ?
C20 H20A 0.9700 . ?
C20 H20B 0.9700 . ?
C21 H21 0.9800 . ?
C21 C24 1.553(5) . ?
C22 H22 0.9800 . ?
C23 H23A 0.9700 . ?
C23 H23B 0.9700 . ?
C24 H24 0.9800 . ?
C25 H25A 0.9700 . ?
C25 H25B 0.9700 . ?
O18 H18A 0.8505 . ?
O18 H18B 0.8491 . ?
C27 H27 0.9300 . ?
C27 C33 1.369(5) . ?
C28 H28C 0.9700 . ?
C28 H28D 0.9700 . ?
C28 H28A 0.9700 . ?
C28 H28B 0.9700 . ?
C28 C34B 1.539(5) . ?
C28 C34A 1.540(5) . ?
C28 C1B 1.539(5) 3_756 ?
C28 C38 1.540(5) . ?
C29 H29A 0.9700 . ?
C29 H29B 0.9700 . ?
C30 H30A 0.9700 . ?
C30 H30B 0.9700 . ?
C31 H31A 0.9700 . ?
C31 H31B 0.9700 . ?
C32 N13 1.443(5) 3_756 ?
C32 H32A 0.9700 . ?
C32 H32B 0.9700 . ?
C33 H33 0.9300 . ?
O19 H19A 0.8503 . ?
O19 H19B 0.8505 . ?
C34A H34C 0.9700 . ?
C34A H34D 0.9700 . ?
C34A C37 1.54(3) . ?
C37 H37A 0.9700 . ?
C37 H37B 0.9700 . ?
C37 C1A 1.5677(15) . ?
C1A H1AA 0.9700 . ?
C1A H1AB 0.9700 . ?
C1A C1B 1.5677(11) . ?
C1B H1BA 0.9700(11) . ?
C1B H1BB 0.9700(11) . ?
C35 H34A 0.7274 . ?
C35 C36 1.49(2) . ?
C35 C38 1.130(14) . ?
C36 H36A 0.9696 . ?
C36 H36B 0.9701 . ?
C38 H34A 0.5942 . ?
C38 H34B 1.2453 . ?
C38 H38A 0.9700 . ?
C38 H38B 0.9700 . ?
loop_
_geom_torsion_atom_site_label_1
_geom_torsion_atom_site_label_2
_geom_torsion_atom_site_label_3
_geom_torsion_atom_site_label_4
_geom_torsion
_geom_torsion_site_symmetry_1
_geom_torsion_site_symmetry_2
_geom_torsion_site_symmetry_3
_geom_torsion_site_symmetry_4
_geom_torsion_publ_flag
Cu1 O1 C5 O15 19.1(5) . . . . ?
Cu1 O1 C5 C10 -150.5(2) . . . . ?
Cu1 O5 C2 O6 -3.5(5) 4_666 . . . ?
Cu1 O5 C2 C1 177.1(2) 4_666 . . . ?
Cu1 N1 C12 C7 -179.3(2) . . . . ?
Cu1 N1 C15 C33 179.2(3) . . . . ?
C30 N12 C28 C34Bb 170.9(3) . . . . ?
S1 C4 C6 C1 -173.7(2) . . . . ?
S1 C4 C9 C10 174.5(2) . . . . ?
O1 C5 C10 C3 27.1(5) . . . . ?
O1 C5 C10 C9 -159.0(3) . . . . ?
N1 C15 C33 C27 -0.3(6) . . . . ?
N2 C16 C17 N4 4.5(3) . . . . ?
N2 C16 C17 N7 -115.1(3) . . . . ?
O12 S1 C4 C6 -132.1(3) . . . . ?
O12 S1 C4 C9 53.5(3) . . . . ?
N3 C19 C22 N9 2.7(3) . . . . ?
N3 C19 C22 N14 -117.3(3) . . . . ?
O14 S1 C4 C6 105.0(3) . . . . ?
O14 S1 C4 C9 -69.4(3) . . . . ?
N5 C21 C24 N10 119.6(3) . . . . ?
N5 C21 C24 N11 -0.4(3) . . . . ?
N6 C19 C22 N9 121.1(3) . . . . ?
N6 C19 C22 N14 1.1(3) . . . . ?
N8 C16 C17 N4 124.3(3) . . . . ?
N8 C16 C17 N7 4.7(3) . . . . ?
O15 C5 C10 C3 -143.1(4) . . . . ?
O15 C5 C10 C9 30.8(6) . . . . ?
N12 C28 C34A C37 -178.3(11) . . . . ?
N12 C28 C38 C35 69.3(12) . . . . ?
N13 C21 C24 N10 -0.7(3) . . . . ?
N13 C21 C24 N11 -120.7(3) . . . . ?
O16 S1 C4 C6 -12.1(3) . . . . ?
O16 S1 C4 C9 173.5(3) . . . . ?
C1 C3 C10 C5 174.9(3) . . . . ?
C1 C3 C10 C9 0.9(5) . . . . ?
C2 C1 C3 C10 -177.1(3) . . . . ?
C2 C1 C6 C4 176.2(3) . . . . ?
C3 C1 C2 O5 -174.8(3) . . . . ?
C3 C1 C2 O6 5.7(5) . . . . ?
C3 C1 C6 C4 -0.6(5) . . . . ?
C4 C9 C10 C3 -0.9(5) . . . . ?
C4 C9 C10 C5 -174.9(3) . . . . ?
C6 C1 C2 O5 8.4(5) . . . . ?
C6 C1 C2 O6 -171.0(3) . . . . ?
C6 C1 C3 C10 -0.2(5) . . . . ?
C6 C4 C9 C10 0.1(5) . . . . ?
C7 C27 C33 C15 1.6(6) . . . . ?
C8 N5 C21 N13 114.2(3) . . . . ?
C8 N5 C21 C24 2.3(4) . . . . ?
C8 N11 C24 N10 -113.2(4) . . . . ?
C8 N11 C24 C21 -1.5(4) . . . . ?
C8 N11 C29 N4 103.7(4) . . . . ?
C9 C4 C6 C1 0.6(5) . . . . ?
C11 N2 C16 N8 -120.9(3) . . . . ?
C11 N2 C16 C17 -8.4(4) . . . . ?
C11 N2 C25 N6 117.7(3) . . . . ?
C11 N4 C17 N7 111.6(3) . . . . ?
C11 N4 C17 C16 0.7(4) . . . . ?
C11 N4 C29 N11 -103.2(4) . . . . ?
C12 N1 C15 C33 -1.0(5) . . . . ?
C12 C7 C27 C33 -1.7(5) . . . . ?
C12 C7 C30 N12 98.2(4) . . . . ?
C13 N3 C19 N6 -116.4(3) . . . . ?
C13 N3 C19 C22 -5.0(4) . . . . ?
C13 N3 C23 N8 112.5(4) . . . . ?
C13 N9 C20 N5 -99.1(4) . . . 3_756 ?
C13 N9 C22 N14 112.0(3) . . . . ?
C13 N9 C22 C19 0.2(4) . . . . ?
C14 N6 C19 N3 111.1(3) . . . . ?
C14 N6 C19 C22 0.0(4) . . . . ?
C14 N6 C25 N2 -106.5(4) . . . . ?
C14 N14 C22 N9 -114.0(4) . . . . ?
C14 N14 C22 C19 -1.9(4) . . . . ?
C14 N14 C32 N13 101.1(4) . . . 3_756 ?
C15 N1 C12 C7 0.9(5) . . . . ?
C16 N2 C11 O7 -170.6(3) . . . . ?
C16 N2 C11 N4 9.3(4) . . . . ?
C16 N2 C25 N6 -88.0(4) . . . . ?
C16 N8 C18 O10 178.8(3) . . . . ?
C16 N8 C18 N7 -1.3(4) . . . . ?
C16 N8 C23 N3 81.7(4) . . . . ?
C17 N4 C11 O7 173.8(3) . . . . ?
C17 N4 C11 N2 -6.1(4) . . . . ?
C17 N4 C29 N11 84.0(4) . . . . ?
C17 N7 C18 O10 -175.4(3) . . . . ?
C17 N7 C18 N8 4.8(4) . . . . ?
C17 N7 C31 N10 -90.0(4) . . . . ?
C18 N7 C17 N4 -117.2(3) . . . . ?
C18 N7 C17 C16 -5.9(4) . . . . ?
C18 N7 C31 N10 109.1(4) . . . . ?
C18 N8 C16 N2 109.9(4) . . . . ?
C18 N8 C16 C17 -2.3(4) . . . . ?
C18 N8 C23 N3 -105.3(4) . . . . ?
C19 N3 C13 O8 -172.9(3) . . . . ?
C19 N3 C13 N9 5.3(4) . . . . ?
C19 N3 C23 N8 -88.9(4) . . . . ?
C19 N6 C14 O4 178.0(3) . . . . ?
C19 N6 C14 N14 -1.2(4) . . . . ?
C19 N6 C25 N2 82.5(4) . . . . ?
C20 N5 C8 O3 2.8(5) 3_756 . . . ?
C20 N5 C8 N11 -175.2(3) 3_756 . . . ?
C20 N5 C21 N13 -74.2(4) 3_756 . . . ?
C20 N5 C21 C24 173.9(3) 3_756 . . . ?
C20 N9 C13 O8 -0.2(6) . . . . ?
C20 N9 C13 N3 -178.4(3) . . . . ?
C20 N9 C22 N14 -73.0(4) . . . . ?
C20 N9 C22 C19 175.2(3) . . . . ?
C21 N5 C8 O3 174.6(3) . . . . ?
C21 N5 C8 N11 -3.3(4) . . . . ?
C21 N13 C26 O9 -177.5(3) . . . . ?
C21 N13 C26 N10 1.8(4) . . . . ?
C22 N9 C13 O8 174.8(3) . . . . ?
C22 N9 C13 N3 -3.3(4) . . . . ?
C22 N9 C20 N5 86.4(4) . . . 3_756 ?
C22 N14 C14 O4 -177.2(3) . . . . ?
C22 N14 C14 N6 2.0(4) . . . . ?
C22 N14 C32 N13 -90.3(4) . . . 3_756 ?
C23 N3 C13 O8 -12.1(5) . . . . ?
C23 N3 C13 N9 166.1(3) . . . . ?
C23 N3 C19 N6 83.3(4) . . . . ?
C23 N3 C19 C22 -165.3(3) . . . . ?
C23 N8 C16 N2 -76.4(4) . . . . ?
C23 N8 C16 C17 171.4(3) . . . . ?
C23 N8 C18 O10 5.1(6) . . . . ?
C23 N8 C18 N7 -175.1(3) . . . . ?
C24 N10 C26 O9 177.0(3) . . . . ?
C24 N10 C26 N13 -2.3(4) . . . . ?
C24 N10 C31 N7 84.2(4) . . . . ?
C24 N11 C8 O3 -175.0(3) . . . . ?
C24 N11 C8 N5 3.0(4) . . . . ?
C24 N11 C29 N4 -89.3(4) . . . . ?
C25 N2 C11 O7 -13.7(5) . . . . ?
C25 N2 C11 N4 166.3(3) . . . . ?
C25 N2 C16 N8 82.6(4) . . . . ?
C25 N2 C16 C17 -164.9(3) . . . . ?
C25 N6 C14 O4 6.0(5) . . . . ?
C25 N6 C14 N14 -173.2(3) . . . . ?
C25 N6 C19 N3 -77.0(4) . . . . ?
C25 N6 C19 C22 171.9(3) . . . . ?
C26 N10 C24 N11 113.7(3) . . . . ?
C26 N10 C24 C21 1.8(4) . . . . ?
C26 N10 C31 N7 -103.7(4) . . . . ?
C26 N13 C21 N5 -112.5(4) . . . . ?
C26 N13 C21 C24 -0.6(4) . . . . ?
C27 C7 C12 N1 0.4(5) . . . . ?
C27 C7 C30 N12 -76.0(4) . . . . ?
C28 N12 C30 C7 -177.6(3) . . . . ?
C28 C34A C37 C1A -169.4(12) . . . . ?
C29 N4 C11 O7 0.3(6) . . . . ?
C29 N4 C11 N2 -179.6(3) . . . . ?
C29 N4 C17 N7 -74.9(4) . . . . ?
C29 N4 C17 C16 174.2(3) . . . . ?
C29 N11 C8 O3 -6.6(5) . . . . ?
C29 N11 C8 N5 171.4(3) . . . . ?
C29 N11 C24 N10 78.6(4) . . . . ?
C29 N11 C24 C21 -169.8(3) . . . . ?
C30 N12 C28 C34A -165.6(8) . . . . ?
C30 N12 C28 C1B -151.8(5) . . . 3_756 ?
C30 N12 C28 C38 -179.6(3) . . . . ?
C30 C7 C12 N1 -173.9(3) . . . . ?
C30 C7 C27 C33 172.6(3) . . . . ?
C31 N7 C17 N4 80.1(4) . . . . ?
C31 N7 C17 C16 -168.6(3) . . . . ?
C31 N7 C18 O10 -12.7(6) . . . . ?
C31 N7 C18 N8 167.4(3) . . . . ?
C31 N10 C24 N11 -73.5(4) . . . . ?
C31 N10 C24 C21 174.7(3) . . . . ?
C31 N10 C26 O9 4.0(5) . . . . ?
C31 N10 C26 N13 -175.3(3) . . . . ?
C32 N13 C21 N5 70.4(4) 3_756 . . . ?
C32 N13 C21 C24 -177.7(3) 3_756 . . . ?
C32 N13 C26 O9 -0.3(6) 3_756 . . . ?
C32 N13 C26 N10 179.0(3) 3_756 . . . ?
C32 N14 C14 O4 -7.5(6) . . . . ?
C32 N14 C14 N6 171.6(3) . . . . ?
C32 N14 C22 N9 76.3(4) . . . . ?
C32 N14 C22 C19 -171.6(3) . . . . ?
N12 C28 C34Bb C35 57.6(8) . . . . ?
C34A C37 C1A C1B -67.2(17) . . . . ?
C28 C34Bb C35 C36 -172.8(12) . . . . ?
C28 C34Bb C35 C38 -42.6(14) . . . . ?
C34Bb C28 C38 C35 -142.3(19) . . . . ?
C34Bb C35 C38 C28 123(2) . . . . ?
C1B C28 C34A C37 39(2) 3_756 . . . ?
C36 C35 C38 C28 177.5(13) . . . . ?
C38 C28 C34Bb C35 22.4(10) . . . . ?
