#------------------------------------------------------------------------------
#$Date: 2022-07-23 03:03:19 +0300 (Sat, 23 Jul 2022) $
#$Revision: 276830 $
#$URL: file:///home/coder/svn-repositories/cod/cif/7/71/07/7710711.cif $
#------------------------------------------------------------------------------
#
# This file is available in the Crystallography Open Database (COD),
# http://www.crystallography.net/
#
# All data on this site have been placed in the public domain by the
# contributors.
#
data_7710711
loop_
_publ_author_name
'Wang, Huarui'
'Tian, Xu-Ke'
'Zhang, Ji-Rui'
'Wen, Meng-Yao'
'Yang, Xiao-Gang'
_publ_section_title
;
 Acridine based metal-organic framework host-guest featuring efficient
 photoelectrochemical-type photodetector and white LED
;
_journal_name_full               'Dalton Transactions'
_journal_paper_doi               10.1039/D2DT01649D
_journal_year                    2022
_chemical_formula_moiety         'C40 H32 Cd3 O20, H2 O, C13 H10 N, 2(C6 H5 N)'
_chemical_formula_sum            'C65 H54 Cd3 N3 O21'
_chemical_formula_weight         1550.31
_space_group_crystal_system      triclinic
_space_group_IT_number           2
_space_group_name_Hall           '-P 1'
_space_group_name_H-M_alt        'P -1'
_atom_sites_solution_hydrogens   mixed
_atom_sites_solution_primary     dual
_audit_creation_date             2020-12-19
_audit_creation_method
;
Olex2 1.2
(compiled 2018.05.29 svn.r3508 for OlexSys, GUI svn.r5506)
;
_audit_update_record
;
2022-05-25 deposited with the CCDC.	2022-07-19 downloaded from the CCDC.
;
_cell_angle_alpha                108.185(3)
_cell_angle_beta                 100.971(3)
_cell_angle_gamma                107.234(3)
_cell_formula_units_Z            2
_cell_length_a                   10.3911(4)
_cell_length_b                   17.2576(7)
_cell_length_c                   19.1393(7)
_cell_measurement_reflns_used    11490
_cell_measurement_temperature    293(2)
_cell_measurement_theta_max      28.1390
_cell_measurement_theta_min      3.4950
_cell_volume                     2959.3(2)
_computing_cell_refinement       'CrysAlisPro 1.171.40.53 (Rigaku OD, 2019)'
_computing_data_collection       'CrysAlisPro 1.171.40.53 (Rigaku OD, 2019)'
_computing_data_reduction        'CrysAlisPro 1.171.40.53 (Rigaku OD, 2019)'
_computing_molecular_graphics    'Olex2 (Dolomanov et al., 2009)'
_computing_publication_material  'Olex2 (Dolomanov et al., 2009)'
_computing_structure_refinement  'ShelXL (Sheldrick, 2015)'
_computing_structure_solution    'ShelXT (Sheldrick, 2015)'
_diffrn_ambient_temperature      293(2)
_diffrn_detector                 'CCD plate'
_diffrn_detector_area_resol_mean 8.0584
_diffrn_detector_type            EosS2
_diffrn_measured_fraction_theta_full 0.997
_diffrn_measured_fraction_theta_max 0.815
_diffrn_measurement_details
;
List of Runs (angles in degrees, time in seconds):

  # Type    Start    End  Width  t~exp~   \w     \q     \k     \f   Frames
#--------------------------------------------------------------------------
  1  \w    -12.00  16.00   1.00   13.00    --  -13.57 -99.00 -30.00   28
  2  \w     16.00  79.00   1.00   13.00    --   14.89  57.00  60.00   63
  3  \w     -2.00  82.00   1.00   13.00    --   14.89  57.00 -90.00   84
  4  \w      3.00  84.00   1.00   13.00    --   14.89  38.00   0.00   81
  5  \w    -20.00  48.00   1.00   13.00    --   14.89 -99.00-180.00   68
  6  \w     -1.00  33.00   1.00   13.00    --   14.89  57.00 150.00   34
;
_diffrn_measurement_device       'four-circle diffractometer'
_diffrn_measurement_device_type  'SuperNova, Single source at offset/far, EosS2'
_diffrn_measurement_method       '\w scans'
_diffrn_orient_matrix_type
'CrysAlisPro convention (1999,Acta A55,543-557)'
_diffrn_orient_matrix_UB_11      -0.0133656000
_diffrn_orient_matrix_UB_12      -0.0107420000
_diffrn_orient_matrix_UB_13      -0.0402925000
_diffrn_orient_matrix_UB_21      0.0112007000
_diffrn_orient_matrix_UB_22      -0.0396308000
_diffrn_orient_matrix_UB_23      -0.0044609000
_diffrn_orient_matrix_UB_31      -0.0731649000
_diffrn_orient_matrix_UB_32      -0.0224503000
_diffrn_orient_matrix_UB_33      -0.0064740000
_diffrn_radiation_monochromator  mirror
_diffrn_radiation_probe          x-ray
_diffrn_radiation_type           MoK\a
_diffrn_radiation_wavelength     0.71073
_diffrn_reflns_av_R_equivalents  0.0267
_diffrn_reflns_av_unetI/netI     0.0483
_diffrn_reflns_Laue_measured_fraction_full 0.997
_diffrn_reflns_Laue_measured_fraction_max 0.815
_diffrn_reflns_limit_h_max       13
_diffrn_reflns_limit_h_min       -11
_diffrn_reflns_limit_k_max       22
_diffrn_reflns_limit_k_min       -22
_diffrn_reflns_limit_l_max       25
_diffrn_reflns_limit_l_min       -24
_diffrn_reflns_number            22818
_diffrn_reflns_point_group_measured_fraction_full 0.997
_diffrn_reflns_point_group_measured_fraction_max 0.815
_diffrn_reflns_theta_full        25.242
_diffrn_reflns_theta_max         28.473
_diffrn_reflns_theta_min         3.333
_diffrn_source                   'micro-focus sealed X-ray tube'
_diffrn_source_type              'SuperNova (Mo) X-ray Source'
_exptl_absorpt_coefficient_mu    1.153
_exptl_absorpt_correction_T_max  1.00000
_exptl_absorpt_correction_T_min  0.63313
_exptl_absorpt_correction_type   multi-scan
_exptl_absorpt_process_details
;
CrysAlisPro 1.171.40.53 (Rigaku Oxford Diffraction, 2019)
Empirical absorption correction using spherical harmonics,
 implemented in SCALE3 ABSPACK scaling algorithm.
;
_exptl_crystal_colour            'clear light yellow'
_exptl_crystal_colour_lustre     clear
_exptl_crystal_colour_modifier   light
_exptl_crystal_colour_primary    yellow
_exptl_crystal_density_diffrn    1.740
_exptl_crystal_description       block
_exptl_crystal_F_000             1554
_exptl_crystal_size_max          0.28
_exptl_crystal_size_mid          0.25
_exptl_crystal_size_min          0.23
_refine_diff_density_max         1.557
_refine_diff_density_min         -0.823
_refine_diff_density_rms         0.114
_refine_ls_extinction_method     none
_refine_ls_goodness_of_fit_ref   1.195
_refine_ls_hydrogen_treatment    constr
_refine_ls_matrix_type           full
_refine_ls_number_parameters     839
_refine_ls_number_reflns         12205
_refine_ls_number_restraints     0
_refine_ls_restrained_S_all      1.195
_refine_ls_R_factor_all          0.0568
_refine_ls_R_factor_gt           0.0467
_refine_ls_shift/su_max          0.001
_refine_ls_shift/su_mean         0.000
_refine_ls_structure_factor_coef Fsqd
_refine_ls_weighting_details
'w=1/[\s^2^(Fo^2^)+(0.0260P)^2^+9.5438P] where P=(Fo^2^+2Fc^2^)/3'
_refine_ls_weighting_scheme      calc
_refine_ls_wR_factor_gt          0.1096
_refine_ls_wR_factor_ref         0.1142
_reflns_Friedel_coverage         0.000
_reflns_number_gt                10435
_reflns_number_total             12205
_reflns_threshold_expression     'I > 2\s(I)'
_cod_data_source_file            d2dt01649d3.cif
_cod_data_source_block           q219
_cod_database_code               7710711
_shelx_shelxl_version_number     2014/7
_chemical_oxdiff_formula         C1H1O1N1Cd1
_shelx_space_group_comment
;
The symmetry employed for this shelxl refinement is uniquely defined
by the following loop, which should always be used as a source of
symmetry information in preference to the above space-group names.
They are only intended as comments.
;
_shelx_estimated_absorpt_t_max   0.777
_shelx_estimated_absorpt_t_min   0.738
_reflns_odcompleteness_completeness 99.64
_reflns_odcompleteness_iscentric 1
_reflns_odcompleteness_theta     25.30
_olex2_refinement_description
;
1. Fixed Uiso
 At 1.2 times of:
  All C(H) groups, All C(H,H) groups, All N(H) groups
 At 1.5 times of:
  All C(H,H,H) groups, All O(H,H) groups
2.a Free rotating group:
 O21(H21A,H21B)
2.b Secondary CH2 refined with riding coordinates:
 C9(H9A,H9B), C19(H19A,H19B), C29(H29A,H29B), C39(H39A,H39B)
2.c Aromatic/amide H refined with riding coordinates:
 C2(H2), C4(H4), C6(H6), C12(H12), C14(H14), C16(H16), C22(H22), C24(H24),
 C26(H26), C32(H32), C34(H34), C36(H36), N1(H1), C42(H42), C43(H43), C44(H44),
 C45(H45), C47(H47), C49(H49), C50(H50), C51(H51), C52(H52), N2(H2A), C56(H56),
 C57(H57), C58(H58), C59(H59), N3(H3), C62(H62), C63(H63), C64(H64), C65(H65)
2.d Idealised Me refined as rotating group:
 C10(H10A,H10B,H10C), C20(H20A,H20B,H20C), C30(H30A,H30B,H30C), C40(H40A,H40B,
 H40C)
;
_shelx_res_file
;
    q219.res created by SHELXL-2014/7

TITL q219_a.res in P-1
REM Old TITL Q219 in P-1
REM SHELXT solution in P-1
REM R1 0.092, Rweak 0.008, Alpha 0.071, Orientation as input
REM Formula found by SHELXT: C63 N8 O18 Cd3
CELL 0.71073 10.3911 17.2576 19.1393 108.185 100.971 107.234
ZERR 2 0.0004 0.0007 0.0007 0.003 0.003 0.003
LATT 1
SFAC C H Cd N O
UNIT 130 108 6 6 42

L.S. 5
PLAN  2
SIZE 0.28 0.25 0.23
TEMP 20(2)
BOND $H
list 4
fmap 2 53
acta
REM <olex2.extras>
REM <HklSrc "%.\\Q219.hkl">
REM </olex2.extras>

WGHT    0.026000    9.543800
FVAR       0.19093
CD1   3    0.667563    0.358336    0.536187    11.00000    0.02138    0.01948 =
         0.02521    0.00690    0.00578    0.00814
CD2   3    0.500000    0.500000    0.500000    10.50000    0.02169    0.01687 =
         0.02039    0.00728    0.00570    0.00774
CD3   3    0.000000    0.000000    0.000000    10.50000    0.02055    0.02449 =
         0.02485    0.01428    0.00434    0.00907
CD4   3    0.811171    0.110124   -0.060655    11.00000    0.02076    0.02245 =
         0.02677    0.01054    0.00499    0.01029
O1    5    0.790941    0.476191    0.673981    11.00000    0.06318    0.02195 =
         0.03587    0.00920    0.01078    0.01935
O2    5    0.708479    0.503424    0.574127    11.00000    0.03018    0.02290 =
         0.02821    0.00226   -0.00075    0.01085
O3    5    1.020669    0.731212    0.937277    11.00000    0.06179    0.04095 =
         0.03194    0.00746   -0.00312    0.03029
O4    5    1.038295    0.864506    0.945932    11.00000    0.03815    0.02421 =
         0.02471   -0.00036    0.00221    0.00614
O5    5    0.853710    0.824948    0.664813    11.00000    0.07061    0.02972 =
         0.03424    0.01642    0.01048    0.02057
O6    5    0.469628    0.288833    0.555520    11.00000    0.02388    0.05071 =
         0.05996    0.03358    0.01753    0.01560
O7    5    0.381970    0.378333    0.519037    11.00000    0.03547    0.03160 =
         0.04481    0.02251    0.01441    0.00468
O8    5   -0.100943    0.363763    0.530988    11.00000    0.03164    0.04212 =
         0.05859    0.03167    0.01794    0.02207
O9    5   -0.225245    0.265747    0.567178    11.00000    0.02514    0.03900 =
         0.06942    0.02875    0.02333    0.01691
O10   5    0.086860    0.116253    0.639790    11.00000    0.05145    0.05036 =
         0.08214    0.04947    0.03946    0.03155
O11   5    0.576682    0.296625    0.407190    11.00000    0.04092    0.04459 =
         0.02408    0.00254    0.00273    0.01536
O12   5    0.559019    0.422019    0.404121    11.00000    0.05111    0.02782 =
         0.02950   -0.00077    0.01781    0.00902
O13   5    0.322330    0.024068    0.162603    11.00000    0.04690    0.03236 =
         0.02735    0.00850   -0.00174    0.01826
O14   5    0.231293    0.037646    0.055037    11.00000    0.02115    0.02752 =
         0.02265    0.00143   -0.00112    0.00581
O15   5    0.395432    0.370388    0.129288    11.00000    0.06341    0.02551 =
         0.03026    0.01051    0.01072    0.01317
O16   5    0.055546    0.043894   -0.091410    11.00000    0.04057    0.03464 =
         0.03766    0.02301    0.02026    0.01555
O17   5   -0.018886    0.144506   -0.115018    11.00000    0.02709    0.04199 =
         0.05455    0.02727    0.02012    0.02029
O18   5    0.576966    0.103834   -0.043742    11.00000    0.05184    0.08420 =
         0.08115    0.06481    0.03548    0.04814
O19   5    0.686218    0.182078   -0.100773    11.00000    0.02625    0.04204 =
         0.04985    0.02489    0.01462    0.01993
O20   5    0.356202    0.314445   -0.197978    11.00000    0.03565    0.05274 =
         0.06370    0.04476    0.02570    0.02408
C1    1    0.827349    0.626434    0.696205    11.00000    0.01886    0.02010 =
         0.02228    0.00632    0.00502    0.00748
C2    1    0.884693    0.657547    0.776569    11.00000    0.02110    0.02037 =
         0.03087    0.01015    0.00486    0.00751
AFIX  43
H2    2    0.890515    0.618539    0.800190    11.00000   -1.20000
AFIX   0
C3    1    0.932739    0.747147    0.820608    11.00000    0.01932    0.02252 =
         0.02245    0.00518    0.00335    0.00670
C4    1    0.924147    0.806352    0.786014    11.00000    0.02447    0.01640 =
         0.02785    0.00119    0.00481    0.00502
AFIX  43
H4    2    0.955832    0.866331    0.816052    11.00000   -1.20000
AFIX   0
C5    1    0.867823    0.774654    0.706359    11.00000    0.03083    0.02368 =
         0.02809    0.01357    0.00994    0.01038
C6    1    0.820456    0.685122    0.661148    11.00000    0.02503    0.02471 =
         0.02022    0.00586    0.00393    0.00809
AFIX  43
H6    2    0.784263    0.664561    0.607601    11.00000   -1.20000
AFIX   0
C7    1    0.773548    0.529814    0.646876    11.00000    0.02158    0.02273 =
         0.02622    0.00435    0.00816    0.00623
C8    1    0.999619    0.781362    0.906974    11.00000    0.02150    0.03108 =
         0.02372    0.00331    0.00332    0.01195
C9    1    0.882443    0.915581    0.705680    11.00000    0.05750    0.02788 =
         0.05913    0.02047    0.02348    0.02078
AFIX  23
H9A   2    0.982822    0.947755    0.733540    11.00000   -1.20000
H9B   2    0.829867    0.922388    0.742471    11.00000   -1.20000
AFIX   0
C10   1    0.836356    0.949204    0.645481    11.00000    0.06857    0.06277 =
         0.10569    0.06072    0.03790    0.03919
AFIX 137
H10A  2    0.896404    0.948148    0.613066    11.00000   -1.50000
H10B  2    0.843342    1.008594    0.670539    11.00000   -1.50000
H10C  2    0.739926    0.912315    0.614443    11.00000   -1.50000
AFIX   0
C11   1    0.236186    0.275939    0.557104    11.00000    0.02018    0.02516 =
         0.03313    0.01297    0.00850    0.00888
C12   1    0.126699    0.304969    0.545559    11.00000    0.02917    0.02693 =
         0.03401    0.01536    0.01157    0.01286
AFIX  43
H12   2    0.133589    0.347654    0.524922    11.00000   -1.20000
AFIX   0
C13   1    0.006139    0.270332    0.564812    11.00000    0.02193    0.02702 =
         0.03270    0.01203    0.01073    0.01009
C14   1   -0.002986    0.207223    0.596422    11.00000    0.02572    0.03402 =
         0.04698    0.02160    0.01856    0.01302
AFIX  43
H14   2   -0.082856    0.184742    0.610185    11.00000   -1.20000
AFIX   0
C15   1    0.106893    0.177676    0.607494    11.00000    0.03131    0.02972 =
         0.04411    0.02411    0.01818    0.01281
C16   1    0.226390    0.211251    0.587293    11.00000    0.02452    0.02838 =
         0.04602    0.01639    0.00946    0.01197
AFIX  43
H16   2    0.299390    0.190834    0.593808    11.00000   -1.20000
AFIX   0
C17   1    0.372914    0.317478    0.542160    11.00000    0.02227    0.02676 =
         0.02986    0.00839    0.00966    0.00465
C18   1   -0.114464    0.301637    0.553807    11.00000    0.02580    0.02349 =
         0.02941    0.00214    0.00170    0.01007
C19   1    0.188552    0.076411    0.647071    11.00000    0.04311    0.04453 =
         0.06345    0.03557    0.01554    0.02162
AFIX  23
H19A  2    0.178664    0.050168    0.684771    11.00000   -1.20000
H19B  2    0.283282    0.121559    0.665988    11.00000   -1.20000
AFIX   0
C20   1    0.170691    0.007378    0.572098    11.00000    0.06131    0.06231 =
         0.08398    0.03469    0.02501    0.03657
AFIX 137
H20A  2    0.195275    0.034574    0.537188    11.00000   -1.50000
H20B  2    0.073806   -0.033574    0.550092    11.00000   -1.50000
H20C  2    0.231465   -0.023412    0.580635    11.00000   -1.50000
AFIX   0
C21   1    0.480085    0.299229    0.285088    11.00000    0.01706    0.02809 =
         0.02496    0.00296    0.00670    0.00518
C22   1    0.432886    0.208422    0.246160    11.00000    0.02180    0.02582 =
         0.02365    0.00660    0.00471    0.00839
AFIX  43
H22   2    0.444667    0.173411    0.273282    11.00000   -1.20000
AFIX   0
C23   1    0.368368    0.170302    0.166995    11.00000    0.01785    0.02451 =
         0.02583    0.00659    0.00744    0.00705
C24   1    0.355653    0.222197    0.125011    11.00000    0.02668    0.02773 =
         0.02073    0.00710    0.00788    0.00758
AFIX  43
H24   2    0.315614    0.196187    0.071462    11.00000   -1.20000
AFIX   0
C25   1    0.403129    0.312759    0.163711    11.00000    0.03058    0.02521 =
         0.03056    0.00996    0.01107    0.00943
C26   1    0.464988    0.351310    0.244126    11.00000    0.02859    0.01998 =
         0.02654    0.00267    0.00774    0.00601
AFIX  43
H26   2    0.496116    0.412092    0.270235    11.00000   -1.20000
AFIX   0
C27   1    0.542189    0.342635    0.372584    11.00000    0.02175    0.03495 =
         0.02339    0.00461    0.00916    0.00651
C28   1    0.305534    0.072281    0.126749    11.00000    0.01828    0.02453 =
         0.02538    0.00251    0.00526    0.00911
C29   1    0.338332    0.335820    0.046953    11.00000    0.04770    0.03708 =
         0.03044    0.01493    0.00893    0.01353
AFIX  23
H29A  2    0.238957    0.297769    0.030143    11.00000   -1.20000
H29B  2    0.389210    0.301950    0.022898    11.00000   -1.20000
AFIX   0
C30   1    0.355659    0.414562    0.025324    11.00000    0.07048    0.05232 =
         0.05161    0.03075    0.00847    0.02237
AFIX 137
H30A  2    0.309981    0.394609   -0.029151    11.00000   -1.50000
H30B  2    0.454723    0.448368    0.037623    11.00000   -1.50000
H30C  2    0.313277    0.450716    0.053763    11.00000   -1.50000
AFIX   0
C31   1    0.207748    0.150518   -0.123238    11.00000    0.02503    0.02673 =
         0.02286    0.01114    0.01111    0.01249
C32   1    0.322826    0.129449   -0.098598    11.00000    0.03275    0.02904 =
         0.02760    0.01497    0.01284    0.01958
AFIX  43
H32   2    0.313501    0.087978   -0.076462    11.00000   -1.20000
AFIX   0
C33   1    0.452285    0.171094   -0.107403    11.00000    0.02610    0.02805 =
         0.02826    0.01212    0.01156    0.01351
C34   1    0.465713    0.232347   -0.141034    11.00000    0.02594    0.03609 =
         0.03795    0.02078    0.01351    0.01437
AFIX  43
H34   2    0.552212    0.259464   -0.147110    11.00000   -1.20000
AFIX   0
C35   1    0.351478    0.253440   -0.165618    11.00000    0.02806    0.03196 =
         0.03298    0.01961    0.01401    0.01305
C36   1    0.222341    0.212254   -0.156659    11.00000    0.02256    0.03350 =
         0.03200    0.01678    0.00951    0.01584
AFIX  43
H36   2    0.145124    0.226106   -0.173149    11.00000   -1.20000
AFIX   0
C37   1    0.071140    0.109894   -0.109108    11.00000    0.02630    0.02851 =
         0.01993    0.00964    0.00798    0.01068
C38   1    0.579967    0.150773   -0.081223    11.00000    0.03186    0.03671 =
         0.03301    0.01389    0.01259    0.02096
C39   1    0.484441    0.349899   -0.215674    11.00000    0.03943    0.03795 =
         0.05523    0.02504    0.01899    0.01147
AFIX  23
H39A  2    0.499341    0.302713   -0.252447    11.00000   -1.20000
H39B  2    0.565167    0.378110   -0.168959    11.00000   -1.20000
AFIX   0
C40   1    0.471010    0.415316   -0.249040    11.00000    0.06134    0.04015 =
         0.04927    0.02641    0.02296    0.01492
AFIX 137
H40A  2    0.384071    0.389176   -0.291042    11.00000   -1.50000
H40B  2    0.549647    0.433000   -0.267781    11.00000   -1.50000
H40C  2    0.470641    0.466005   -0.209837    11.00000   -1.50000
AFIX   6

O21   5    0.121495    0.520915    0.568226    11.00000    0.11982    0.05804 =
         0.10957    0.01744    0.04523    0.00512
H21A  2    0.083399    0.466971    0.561003    11.00000   -1.50000
H21B  2    0.057220    0.540875    0.559516    11.00000   -1.50000
AFIX   0

N1    4    0.176548    0.639940    0.713453    11.00000    0.03741    0.05623 =
         0.05800    0.00143    0.02302    0.00974
AFIX  43
H1    2    0.141714    0.603218    0.665902    11.00000   -1.20000
AFIX   0
C41   1    0.203109    0.727230    0.728747    11.00000    0.02556    0.04944 =
         0.05064    0.00153    0.01931    0.00541
C42   1    0.174043    0.755218    0.668991    11.00000    0.04711    0.07981 =
         0.06718    0.02026    0.03333    0.01506
AFIX  43
H42   2    0.135510    0.715065    0.617726    11.00000   -1.20000
AFIX   0
C43   1    0.203100    0.842303    0.687096    11.00000    0.06329    0.08866 =
         0.10565    0.05202    0.04935    0.02304
AFIX  43
H43   2    0.181935    0.861454    0.647595    11.00000   -1.20000
AFIX   0
C44   1    0.264434    0.904503    0.764063    11.00000    0.07214    0.05906 =
         0.13826    0.02732    0.06563    0.01719
AFIX  43
H44   2    0.285042    0.963980    0.774485    11.00000   -1.20000
AFIX   0
C45   1    0.293539    0.878900    0.822646    11.00000    0.05108    0.05091 =
         0.09221   -0.00772    0.03502    0.00466
AFIX  43
H45   2    0.333356    0.920444    0.873382    11.00000   -1.20000
AFIX   0
C46   1    0.263562    0.788802    0.807041    11.00000    0.02797    0.06240 =
         0.05551   -0.00028    0.02267    0.00913
C47   1    0.287613    0.757003    0.862725    11.00000    0.02878    0.07432 =
         0.05120   -0.00018    0.01198    0.01271
AFIX  43
H47   2    0.325830    0.796606    0.914182    11.00000   -1.20000
AFIX   0
C48   1    0.258293    0.669516    0.846706    11.00000    0.03373    0.10867 =
         0.06144    0.03529    0.02432    0.03624
C49   1    0.283332    0.637120    0.904274    11.00000    0.05712    0.13299 =
         0.10164    0.05546    0.02641    0.04637
AFIX  43
H49   2    0.316460    0.675475    0.956070    11.00000   -1.20000
AFIX   0
C50   1    0.260237    0.551634    0.885794    11.00000    0.05426    0.17144 =
         0.12510    0.09231    0.03637    0.05868
AFIX  43
H50   2    0.279356    0.531703    0.924975    11.00000   -1.20000
AFIX   0
C51   1    0.207272    0.491126    0.807725    11.00000    0.06388    0.10737 =
         0.18906    0.08578    0.06657    0.05119
AFIX  43
H51   2    0.193244    0.432196    0.796372    11.00000   -1.20000
AFIX   0
C52   1    0.176306    0.517857    0.748584    11.00000    0.05189    0.07247 =
         0.12093    0.03621    0.04335    0.02476
AFIX  43
H52   2    0.139870    0.478036    0.697206    11.00000   -1.20000
AFIX   0
C53   1    0.201792    0.608108    0.768579    11.00000    0.02990    0.07087 =
         0.06990    0.02564    0.02440    0.02129

N2    4    0.978765    0.561766    0.973154    11.00000    0.05580    0.06657 =
         0.08839    0.05747    0.03205    0.03432
AFIX  43
H2A   2    0.966326    0.600595    0.956330    11.00000   -1.20000
AFIX   0
C54   1    0.946707    0.477285    0.919911    11.00000    0.04287    0.05081 =
         0.06615    0.03640    0.02017    0.02060
C55   1    1.029608    0.585687    1.051703    11.00000    0.03731    0.05426 =
         0.06445    0.04043    0.02265    0.02018
C56   1    1.053047    0.669774    1.104023    11.00000    0.04891    0.05720 =
         0.07297    0.03483    0.01621    0.01652
AFIX  43
H56   2    1.035561    0.710784    1.085645    11.00000   -1.20000
AFIX   0
C57   1    1.100875    0.691731    1.180995    11.00000    0.04784    0.06256 =
         0.08374    0.02476    0.01870    0.01202
AFIX  43
H57   2    1.114752    0.747512    1.215230    11.00000   -1.20000
AFIX   0
C58   1    1.130122    0.630720    1.210131    11.00000    0.05189    0.08948 =
         0.06932    0.04378    0.00842    0.01415
AFIX  43
H58   2    1.164705    0.646990    1.263261    11.00000   -1.20000
AFIX   0
C59   1    1.107942    0.548790    1.160955    11.00000    0.05483    0.07819 =
         0.07980    0.05641    0.02175    0.02187
AFIX  43
H59   2    1.128788    0.509361    1.180484    11.00000   -1.20000
AFIX   0

N3    4   -0.444560    0.087989    0.514783    11.00000    0.06697    0.04467 =
         0.04964    0.02297    0.01980    0.01731
AFIX  43
H3    2   -0.409076    0.143301    0.524034    11.00000   -1.20000
AFIX   0
C60   1   -0.493254    0.027838    0.439509    11.00000    0.03654    0.05087 =
         0.03729    0.02625    0.01351    0.01664
C61   1   -0.450695    0.062657    0.575821    11.00000    0.04405    0.05164 =
         0.03071    0.01776    0.01486    0.01680
C62   1   -0.401311    0.125296    0.652214    11.00000    0.06660    0.06693 =
         0.03750    0.00692    0.01648    0.01793
AFIX  43
H62   2   -0.364250    0.185213    0.662435    11.00000   -1.20000
AFIX   0
C63   1   -0.407974    0.097914    0.710980    11.00000    0.06116    0.12458 =
         0.03182    0.01784    0.01310    0.03248
AFIX  43
H63   2   -0.374541    0.139247    0.761718    11.00000   -1.20000
AFIX   0
C64   1   -0.464851    0.007812    0.695854    11.00000    0.04723    0.13687 =
         0.04923    0.06008    0.02325    0.04130
AFIX  43
H64   2   -0.468458   -0.009424    0.737118    11.00000   -1.20000
AFIX   0
C65   1   -0.514924   -0.055235    0.622888    11.00000    0.05925    0.09683 =
         0.05783    0.05904    0.02779    0.03966
AFIX  43
H65   2   -0.553536   -0.114743    0.613944    11.00000   -1.20000
AFIX   0
HKLF 4

REM  q219_a.res in P-1
REM R1 =  0.0467 for   10435 Fo > 4sig(Fo)  and  0.0568 for all   12205 data
REM    839 parameters refined using      0 restraints

END

WGHT      0.0259      9.5567

REM Highest difference peak  1.557,  deepest hole -0.823,  1-sigma level  0.114
Q1    1   1.1007  0.7989  0.9839  11.00000  0.05    1.56
Q2    1   0.9071  0.9016  0.9159  11.00000  0.05    1.51
;
_shelx_res_checksum              8170
_shelx_hkl_file
;
   0   0  -3  495.76    9.18
   0   0   3  485.05    9.06
   0   0  -3  479.45    9.10
   0   0   4    1.25    0.43
   0   0  -4    2.99    0.63
   0   0   4    2.09    0.65
   0   0  -4    3.17    0.63
   0   0   5  279.58    7.25
   0   0   5  303.06    8.04
   0   0  -5  297.39    7.40
   0   0   6   33.12    2.39
   0   0   6   29.95    2.56
   0   0  -6   26.47    2.11
   0   0   7   35.29    2.61
   0   0  -7   27.50    2.33
   0   0   7   29.75    2.74
   0   0  -8  273.79    8.53
   0   0   8  290.17    9.75
   0   0  -9    1.51    1.09
   0   0   9    2.03    0.98
   0   0  10   93.54    5.90
   0   0  11   25.62    3.07
   0   0  11   62.11    5.41
   0   0  12   54.91    4.97
   0   0  12   61.21    5.48
   0   0  13   41.86    4.20
   0   0  13   43.68    4.65
   0   0  14   15.24    2.64
   0   0  15   71.54    5.94
   0   0  16   31.96    4.07
   0   0  17  151.59    9.50
   0   0  18   95.48    7.68
   0   0  18   92.56    6.08
   0   0  19   16.02    3.35
   0   0  19   17.99    2.84
   0   0  20   42.39    5.46
   0   0  21   -0.36    1.39
   0   0  22    5.74    2.64
   0  -1  23   15.46    3.86
   0  -1  22   40.07    5.76
   0  -1  21   21.12    4.03
   0  -1  20   23.99    4.26
   0  -1  20   23.77    3.45
   0  -1  19   74.22    6.92
   0  -1  19   77.67    5.82
   0  -1  18   20.18    3.48
   0  -1  18   25.08    3.26
   0  -1  17  151.40    9.27
   0  -1  16   48.41    4.96
   0  -1  15   83.62    6.32
   0  -1  15   84.18    7.11
   0  -1  14  100.18    6.67
   0  -1  14   79.84    6.72
   0  -1  13   90.48    7.02
   0  -1  12   45.05    5.19
   0  -1  11    8.14    1.79
   0  -1  10  107.22    6.14
   0   1  -9   71.26    4.28
   0   1  -9   72.59    4.08
   0  -1   9   78.26    4.88
   0   1  -8  283.00    8.73
   0  -1   8  279.03    9.19
   0   1  -8  296.90    8.50
   0   1  -7  188.06    6.42
   0  -1   7  186.81    6.82
   0   1  -7  197.04    6.28
   0   1  -6   97.87    4.13
   0   1  -6  105.67    4.13
   0  -1   6   94.02    4.25
   0   1  -5  670.20   12.85
   0   1  -5  660.78   12.68
   0  -1   5  678.98   13.19
   0   1  -4    1.66    0.41
   0  -1   4    0.98    0.38
   0   1   3 6455.18   90.74
   0   1   3 6504.49   90.95
   0  -1  -3 6362.19   90.42
   0   1   4 2308.22   36.27
   0   1   4 2302.48   36.43
   0  -1  -4 2339.16   35.74
   0   1   5  911.87   17.74
   0   1   5  977.23   18.31
   0  -1  -5  952.12   17.70
   0   1   5  999.64   18.73
   0   1   6  610.25   13.47
   0   1   6  619.84   13.97
   0  -1  -6  618.60   13.49
   0   1   6  633.99   14.51
   0   1   7  182.62    6.65
   0   1   7  173.89    6.89
   0  -1  -7  178.60    6.50
   0   1   7  183.73    7.34
   0   1   8  686.84   15.80
   0   1   8  692.45   16.61
   0   1   8  736.99   17.65
   0  -1  -8  712.49   15.91
   0   1   9    5.69    1.32
   0   1   9    7.38    1.37
   0   1   9    6.37    1.54
   0  -1  -9    5.44    1.15
   0   1  10  120.01    5.96
   0   1  10  126.61    6.68
   0   1  11   28.99    2.99
   0   1  11   32.36    3.66
   0   1  12    3.18    2.07
   0   1  13    0.82    0.66
   0   1  14   58.36    5.30
   0   1  15    1.35    0.93
   0   1  16   98.48    7.45
   0   1  17   28.23    4.13
   0  -1 -17   31.69    4.11
   0   1  17   32.74    3.41
   0   1  18   73.16    6.86
   0   1  18   81.19    5.60
   0   1  19   26.00    4.33
   0   1  20   64.08    6.92
   0   1  21   19.56    3.96
   0   1  22    0.46    1.40
   0  -2  23   21.19    4.34
   0  -2  22   15.57    3.64
   0  -2  21   54.27    6.13
   0  -2  21   63.03    5.78
   0  -2  20   24.91    4.09
   0  -2  20   25.63    3.59
   0  -2  19   22.49    3.71
   0  -2  19   28.51    3.65
   0  -2  18   25.05    3.84
   0  -2  17   12.63    2.76
   0  -2  17   10.68    2.74
   0  -2  16  324.98   13.34
   0  -2  16  333.43   14.99
   0  -2  15   31.13    4.32
   0  -2  14  358.51   14.36
   0  -2  13   13.55    2.48
   0   2 -12  247.94    9.73
   0  -2  12  253.03   10.71
   0   2 -11   16.16    2.26
   0  -2  11   18.33    2.53
   0   2 -10    6.89    1.39
   0  -2  10    2.65    1.18
   0   2 -10    4.89    1.02
   0   2  -9   64.38    4.04
   0  -2   9   64.59    4.28
   0   2  -9   63.16    3.69
   0   2  -8   40.73    2.99
   0   2  -8   44.70    2.88
   0  -2   8   44.06    3.25
   0   2  -7  457.13   10.24
   0  -2   7  423.23   10.72
   0  -2   6  110.57    4.37
   0   2  -6  107.02    4.01
   0  -2   5   71.45    3.08
   0   2  -5   74.08    3.01
   0   2  -4  936.05   15.33
   0  -2   4  942.24   15.60
   0   2  -3    6.47    0.65
   0  -2   3    6.80    0.67
   0   2   1  258.15    5.42
   0  -2  -2 1613.29   25.25
   0   2   2 1578.76   25.05
   0  -2  -2 1583.84   24.09
   0   2   2 1544.64   24.05
   0  -2  -3 2055.05   32.03
   0   2   3 2003.13   31.77
   0  -2  -3 1984.35   30.44
   0  -2  -3 1981.72   31.32
   0   2   4 3983.61   59.09
   0  -2  -4 3870.14   57.44
   0  -2  -4 4004.46   58.67
   0   2   5   69.61    3.85
   0  -2  -5   63.03    3.26
   0  -2  -5   71.26    3.74
   0   2   6  989.73   20.35
   0  -2  -6 1025.38   19.25
   0  -2  -6 1040.40   19.95
   0   2   7  977.85   20.60
   0  -2  -7  969.21   19.37
   0  -2  -7 1000.35   19.89
   0   2   8  808.57   18.66
   0   2   8  800.37   18.20
   0  -2  -8  802.91   17.49
   0  -2  -8  817.44   17.87
   0   2   9  248.20    9.69
   0   2   9  267.06    9.41
   0  -2  -9  281.00    9.49
   0   2  10  223.42    8.83
   0   2  10  242.60    9.76
   0  -2 -10  238.15    8.89
   0   2  11  187.58    8.20
   0   2  11  192.22    9.02
   0  -2 -11  185.37    8.10
   0   2  12   80.24    5.90
   0   2  12   92.70    5.77
   0  -2 -12   83.34    5.57
   0   2  13   78.02    6.07
   0   2  13   85.15    5.59
   0  -2 -13   73.37    5.46
   0   2  14   23.82    3.44
   0  -2 -14   24.19    3.24
   0   2  15    1.16    1.21
   0  -2 -15    0.59    1.07
   0   2  15    1.31    0.88
   0   2  16    5.18    1.85
   0  -2 -16    6.16    1.84
   0   2  16    6.16    1.44
   0   2  17   11.09    2.76
   0   2  17   11.64    2.06
   0   2  18   11.77    2.86
   0   2  19   61.05    6.67
   0   2  20    9.49    3.08
   0   2  21   52.90    6.56
   0  -3  23   16.06    3.65
   0  -3  23   17.77    3.35
   0  -3  22    9.81    2.71
   0  -3  22   14.91    2.99
   0  -3  21   13.23    3.05
   0  -3  21   15.47    2.96
   0  -3  20   44.23    5.34
   0  -3  20   45.80    4.80
   0  -3  19   15.71    3.07
   0  -3  18   91.82    7.13
   0  -3  18   86.43    8.08
   0  -3  17   66.81    6.68
   0  -3  16   37.76    4.92
   0   3 -15  133.14    7.80
   0  -3  15  143.83    8.99
   0   3 -14   17.87    2.77
   0  -3  14   31.16    4.22
   0   3 -13  563.46   16.19
   0  -3  13  547.74   17.19
   0   3 -12   10.09    1.88
   0  -3  12   13.60    2.44
   0   3 -11  660.41   16.48
   0  -3  11  619.14   16.78
   0   3 -10   89.37    5.05
   0   3 -10   86.51    4.48
   0  -3  10   82.15    5.03
   0   3  -9  327.17    9.05
   0  -3   9  318.46    9.90
   0  -3   8  192.62    6.83
   0   3  -8  191.61    6.22
   0   3  -7  164.72    5.32
   0  -3   7  158.54    5.66
   0   3  -6   12.97    1.29
   0  -3   6   12.56    1.34
   0   3  -5   14.15    1.22
   0  -3   5   14.18    1.27
   0   3  -4    1.89    0.45
   0  -3   4    1.55    0.56
   0  -3   3  330.40    8.11
   0  -3   3  349.10    6.71
   0   3  -3  347.92    6.66
   0  -3   2   14.13    1.11
   0  -3   2   14.24    1.26
   0   3  -2   14.52    1.26
   0  -3   2   13.90    0.87
   0   3  -1  904.02   14.88
   0   3  -1  890.55   14.81
   0  -3   1  885.97   14.84
   0  -3   0  126.32    3.47
   0   3   0  123.95    3.65
   0  -3   0  126.39    2.71
   0  -3   0  123.39    3.89
   0   3   0  121.72    3.82
   0   3   1  131.72    4.35
   0  -3  -1  130.84    4.45
   0   3   1  133.68    4.01
   0  -3  -1  133.54    3.75
   0  -3  -2  545.47   11.77
   0   3   2  558.42   11.65
   0  -3  -2  562.98   10.52
   0   3   2  563.71   10.90
   0  -3  -3    7.92    1.34
   0   3   3    7.41    1.32
   0  -3  -3   11.89    1.39
   0   3   3   11.05    1.34
   0  -3  -3    6.87    1.13
   0   3   4 2202.95   36.92
   0  -3  -4 2263.51   37.56
   0  -3  -4 2300.29   35.42
   0  -3  -4 2276.63   36.51
   0   3   5  781.09   17.08
   0  -3  -5  799.74   15.66
   0  -3  -5  798.11   16.63
   0   3   6   84.30    4.80
   0  -3  -6   87.17    4.23
   0  -3  -6   96.43    4.82
   0   3   7  912.83   20.18
   0  -3  -7  901.79   18.45
   0  -3  -7  899.61   19.30
   0  -3  -8  272.00    9.48
   0  -3  -8  316.20   10.05
   0   3   9  290.64   10.57
   0   3   9  298.73   11.09
   0  -3  -9  298.57   10.10
   0   3  10  369.18   12.73
   0   3  10  360.31   12.04
   0  -3 -10  338.01   11.02
   0   3  11  262.81   10.99
   0   3  11  278.38   10.71
   0  -3 -11  270.31   10.00
   0   3  12  377.76   12.94
   0   3  12  362.54   13.72
   0  -3 -12  377.51   12.50
   0   3  13  218.24   10.64
   0   3  13  212.91    9.55
   0  -3 -13  197.87    9.12
   0   3  14  200.96   10.64
   0   3  14  202.04    9.43
   0  -3 -14  197.51    9.35
   0   3  14  216.37    7.58
   0   3  15   48.00    5.26
   0  -3 -15   43.12    4.41
   0   3  15   57.64    3.89
   0   3  16   52.35    5.75
   0   3  16   61.86    4.29
   0   3  17   32.05    4.69
   0   3  18    2.29    1.58
   0   3  19   30.86    4.97
   0   3  20    8.34    2.73
   0  -4  24    7.69    2.67
   0  -4  23   23.16    3.95
   0  -4  22    9.92    2.64
   0  -4  22   13.77    2.95
   0  -4  21   -1.24    1.56
   0  -4  21    5.42    1.98
   0  -4  20    3.90    1.73
   0  -4  20   12.02    2.80
   0  -4  19   18.51    4.29
   0  -4  18    3.49    1.90
   0  -4  17  187.31   11.21
   0   4 -16   43.07    4.65
   0  -4  16   53.26    5.60
   0   4 -15  118.97    7.56
   0  -4  15  143.89    8.84
   0   4 -14  270.74   11.17
   0  -4  14  279.58   12.03
   0   4 -13   26.31    3.26
   0  -4  13   25.41    3.32
   0   4 -12  638.12   17.09
   0  -4  12  620.36   17.25
   0  -4  11    1.08    0.82
   0   4 -10  443.55   11.34
   0  -4  10  445.19   12.56
   0  -4   9   28.76    2.65
   0   4  -9   29.55    2.39
   0  -4   8  654.97   14.37
   0   4  -8  680.24   13.79
   0  -4   7   73.01    3.59
   0   4  -7   70.07    3.26
   0  -4   6  472.54   10.00
   0   4  -6  462.02    9.70
   0  -4   5    0.31    0.48
   0  -4   5    0.20    0.24
   0   4  -5    0.07    0.23
   0  -4   4   76.42    3.86
   0  -4   4   87.34    2.97
   0   4  -4   87.64    3.01
   0  -4   3   94.04    3.50
   0   4  -3   89.36    3.84
   0  -4   3   94.55    3.97
   0  -4   3   90.12    2.79
   0   4  -2    1.07    0.39
   0   4  -2    0.50    0.25
   0  -4   2    0.58    0.25
   0   4  -1  125.35    4.15
   0  -4   1  131.30    4.31
   0   4  -1  134.88    4.32
   0   4   0  253.21    6.42
   0  -4   0  262.08    6.13
   0  -4   0  256.79    5.00
   0   4   0  261.79    6.74
   0  -4   0  251.02    6.79
   0   4   1  141.32    4.96
   0  -4  -1  148.32    5.20
   0   4   1  140.75    4.67
   0  -4  -1  144.00    4.29
   0  -4  -2   97.66    4.43
   0   4   2   96.24    4.26
   0  -4  -2   93.96    3.59
   0   4   2   99.90    3.99
   0   4   3   60.15    3.57
   0  -4  -3   58.36    3.64
   0   4   3   65.34    3.25
   0  -4  -3   59.55    2.94
   0   4   4   89.23    4.65
   0  -4  -4   94.89    5.05
   0   4   4   89.38    4.05
   0  -4  -4   95.16    4.00
   0  -4  -4   85.61    4.39
   0   4   5 1319.43   25.59
   0  -4  -5 1365.42   23.68
   0  -4  -5 1313.58   24.93
   0   4   6   86.79    5.15
   0  -4  -6   83.42    4.33
   0  -4  -6   89.53    4.88
   0   4   7 1243.10   25.68
   0  -4  -7 1230.61   23.38
   0  -4  -7 1261.32   24.93
   0   4   8   73.62    5.02
   0  -4  -8   70.35    4.88
   0   4   9   16.46    2.50
   0  -4  -9   17.67    2.20
   0   4  10  178.01    8.83
   0   4  10  188.81    8.85
   0  -4 -10  177.95    7.63
   0   4  11    1.32    1.25
   0   4  11    1.59    1.43
   0  -4 -11    1.20    1.09
   0   4  12  432.50   15.64
   0   4  12  434.15   14.88
   0  -4 -12  443.52   13.73
   0   4  12  482.56   11.06
   0   4  13  103.35    6.81
   0   4  13  112.92    7.75
   0  -4 -13  100.00    6.19
   0   4  13  112.60    4.96
   0  -4 -14  117.79    6.96
   0   4  14  111.36    8.11
   0   4  14  120.91    7.53
   0   4  14  127.10    5.52
   0   4  15  115.12    8.42
   0   4  15  123.63    7.68
   0   4  16   65.94    6.56
   0   4  17   99.67    8.38
   0   4  18   34.03    5.13
   0   4  19   48.33    6.11
   0  -5  24   40.78    5.36
   0  -5  23   37.03    4.92
   0  -5  22   31.22    4.69
   0  -5  22   30.71    4.30
   0  -5  21    4.24    1.71
   0  -5  21    4.41    2.24
   0  -5  20   48.43    4.97
   0  -5  20   27.72    4.91
   0  -5  19    1.68    1.39
   0  -5  18   -0.35    1.38
   0  -5  17    9.50    2.84
   0   5 -16   50.19    5.06
   0  -5  16   54.82    5.73
   0   5 -15   -0.65    0.88
   0  -5  15    0.12    1.14
   0   5 -14  285.90   11.64
   0  -5  14  278.18   11.81
   0  -5  13  197.00    9.24
   0  -5  12    0.87    0.96
   0  -5  11  581.80   15.39
   0   5 -10    3.96    1.16
   0  -5  10    3.57    1.15
   0  -5   9 1237.95   23.47
   0   5  -9 1246.72   22.47
   0  -5   8    3.63    0.87
   0   5  -8    4.24    0.85
   0   5  -7 1011.43   18.03
   0  -5   7 1010.65   18.37
   0  -5   6    0.13    0.34
   0   5  -6    1.05    0.57
   0  -5   6    2.05    0.82
   0  -5   5 1265.19   24.48
   0   5  -5 1351.35   21.67
   0  -5   5 1346.10   21.56
   0  -5   4    0.87    0.37
   0  -5   4    1.52    0.57
   0   5  -4    1.06    0.57
   0  -5   4    1.38    0.37
   0  -5   3  812.96   15.26
   0  -5   3  827.46   16.46
   0   5  -3  793.04   16.13
   0  -5   3  809.32   13.58
   0   5  -2   80.17    3.61
   0   5  -2   77.95    3.91
   0  -5   2   79.10    3.53
   0   5  -2   77.72    3.49
   0   5  -1  290.01    7.59
   0  -5   1  300.89    6.16
   0  -5   1  283.85    7.71
   0   5  -1  300.80    7.77
   0   5   0  438.79   10.06
   0  -5   0  463.13    9.55
   0  -5   0  435.68    7.99
   0   5   0  446.35   10.37
   0  -5   0  444.14   10.61
   0  -5  -1    1.86    0.57
   0   5   1    3.47    0.82
   0  -5  -1    2.27    0.45
   0  -5  -1    1.46    0.66
   0   5   1    1.55    0.69
   0  -5  -2  182.96    6.82
   0   5   2  191.61    6.70
   0  -5  -2  180.98    5.57
   0   5   2  183.46    6.14
   0  -5  -3  284.32    9.25
   0   5   3  299.76    9.08
   0  -5  -3  271.72    7.40
   0   5   3  286.06    8.25
   0  -5  -4   26.98    2.77
   0   5   4   26.18    2.64
   0  -5  -4   25.92    2.06
   0   5   4   23.42    2.17
   0  -5  -4   23.17    2.33
   0  -5  -5    4.03    1.25
   0   5   5    2.84    1.13
   0   5   5    3.04    0.98
   0  -5  -5    2.56    0.74
   0  -5  -5    2.59    0.61
   0   5   6  305.92   10.68
   0  -5  -6  300.73    9.14
   0  -5  -6  322.08   10.25
   0   5   7  173.17    8.55
   0  -5  -7  191.97    7.98
   0  -5  -8  744.63   16.82
   0   5   8  763.25   19.49
   0  -5  -9   47.46    3.59
   0   5   9   43.43    4.28
   0  -5 -10  304.52   10.33
   0   5  10  316.12   12.56
   0   5  10  334.53    7.59
   0   5  11    1.40    1.17
   0   5  11    0.40    1.03
   0  -5 -11    0.41    0.64
   0   5  11    0.85    0.58
   0   5  12    5.64    1.71
   0   5  12    5.37    1.77
   0  -5 -12    4.66    1.37
   0   5  12    6.32    1.06
   0  -5 -13   95.86    5.86
   0   5  13   93.64    7.27
   0   5  13   85.48    6.59
   0   5  13   98.65    4.46
   0   5  14    7.54    2.07
   0   5  14    9.92    2.52
   0   5  15   33.07    4.71
   0   5  16   72.15    7.03
   0   5  17   17.03    4.18
   0   5  18  154.40   11.04
   0  -6  24   47.80    5.80
   0  -6  23   16.58    3.37
   0  -6  22   19.78    3.72
   0  -6  22   27.37    4.30
   0  -6  22   21.76    4.55
   0  -6  21   58.19    7.34
   0  -6  21   59.76    5.72
   0  -6  20   10.31    3.14
   0  -6  19  109.17    9.08
   0  -6  18   22.62    4.44
   0  -6  17   22.00    3.91
   0  -6  16   21.06    3.47
   0  -6  15   63.99    5.63
   0  -6  14    3.98    1.65
   0  -6  13  104.73    6.41
   0  -6  12   86.01    5.43
   0  -6  11   10.97    1.82
   0   6 -10  453.78   11.26
   0  -6  10  439.31   11.94
   0   6  -9   99.29    4.41
   0  -6   9   94.73    4.67
   0  -6   8  136.92    6.82
   0  -6   8  125.48    5.01
   0   6  -8  126.55    4.85
   0  -6   7    6.10    1.59
   0  -6   7   10.43    1.60
   0   6  -7    9.53    1.38
   0  -6   6 1032.63   22.02
   0  -6   6 1056.23   18.51
   0   6  -6 1100.75   18.80
   0  -6   5   26.20    2.16
   0   6  -5   26.23    2.57
   0  -6   5   25.31    2.52
   0  -6   5   27.85    1.80
   0   6  -5   28.34    1.93
   0  -6   4 1126.69   20.73
   0  -6   4 1166.91   22.42
   0   6  -4 1104.66   21.85
   0  -6   4 1164.26   18.71
   0   6  -3  113.57    4.80
   0  -6   3  123.69    4.85
   0   6  -3  101.79    4.90
   0   6  -2  907.10   17.57
   0  -6   2  897.56   17.57
   0   6  -2  930.68   17.54
   0   6  -2  864.39   18.53
   0  -6   2  910.64   15.54
   0  -6   1   -0.16    0.36
   0   6  -1    0.49    0.36
   0   6  -1    0.59    0.51
   0  -6   1    1.22    0.38
   0  -6   0  592.82   12.00
   0   6   0  569.99   12.83
   0  -6   0  559.14   10.31
   0   6   0  578.23   13.11
   0  -6   0  578.88   13.42
   0  -6  -1  913.83   16.72
   0   6   1  834.83   17.65
   0  -6  -1  929.51   14.73
   0   6   1  907.89   18.54
   0  -6  -1  913.13   19.02
   0   6   2   36.78    3.04
   0  -6  -2   41.29    3.35
   0  -6  -2   38.01    2.49
   0   6   2   39.27    2.90
   0   6   3  234.99    8.37
   0  -6  -3  230.44    8.65
   0   6   3  232.74    7.78
   0  -6  -3  228.91    6.85
   0  -6  -4   52.58    4.16
   0   6   4   52.26    3.97
   0  -6  -4   55.39    3.16
   0   6   4   49.46    3.50
   0  -6  -4   54.93    3.77
   0  -6  -5  111.71    5.03
   0   6   5   66.52    5.30
   0  -6  -5  120.58    5.97
   0   6   6   38.79    3.78
   0  -6  -6   36.22    2.83
   0  -6  -6   32.38    3.35
   0  -6  -7   14.31    1.80
   0   6   7   16.31    0.87
   0   6   7   14.97    2.48
   0  -6  -8   61.42    3.87
   0   6   8   60.15    2.08
   0   6   8   57.18    4.95
   0  -6  -9  286.00    9.41
   0   6   9  288.30   11.90
   0   6   9  291.96    6.22
   0   6  10   16.22    2.92
   0  -6 -10   14.72    2.09
   0   6  10   12.13    1.12
   0  -6 -11  180.66    7.72
   0   6  11  197.18    5.52
   0   6  11  202.57   10.47
   0   6  12   28.46    3.97
   0   6  12   28.67    4.09
   0  -6 -12   27.96    3.00
   0   6  13  130.54    8.57
   0   6  13  153.74    9.72
   0   6  14    0.04    1.15
   0   6  15   21.75    4.09
   0   6  16    6.17    2.53
   0   6  17   30.80    4.88
   0  -7  24   16.82    3.63
   0  -7  23   33.47    5.07
   0  -7  22    7.85    2.72
   0  -7  22    7.42    3.04
   0  -7  21   88.12    7.03
   0  -7  21   77.70    8.21
   0  -7  20   56.36    6.87
   0  -7  19  100.65    8.77
   0  -7  18   73.20    6.94
   0  -7  17    4.07    1.86
   0  -7  16    3.45    1.47
   0  -7  15    0.20    1.05
   0  -7  14   14.10    2.41
   0  -7  13  156.43    7.75
   0  -7  12    0.08    0.59
   0  -7  11   99.61    5.38
   0  -7  10   49.08    3.47
   0   7 -10   53.46    3.38
   0  -7   9  245.23   10.03
   0   7  -9  256.25    7.62
   0  -7   9  245.82    7.76
   0  -7   8   33.69    3.01
   0   7  -8   30.76    2.59
   0  -7   7 1167.09   25.14
   0  -7   7 1173.70   20.92
   0  -7   6  100.36    4.71
   0   7  -6  104.59    5.58
   0  -7   6  110.70    5.83
   0  -7   6  108.56    4.05
   0  -7   5 1054.01   20.52
   0  -7   5 1092.71   22.60
   0   7  -5 1051.94   21.96
   0  -7   5 1084.79   18.37
   0   7  -4    5.18    1.13
   0  -7   4    4.44    0.96
   0   7  -4    4.92    1.06
   0  -7   4    5.30    0.78
   0   7  -3 1903.56   32.89
   0   7  -3 1947.06   32.72
   0  -7   3 1998.05   32.95
   0   7  -3 1878.69   33.99
   0   7  -2    0.86    0.63
   0   7  -2    0.23    0.51
   0  -7   2    0.28    0.48
   0   7  -2   -0.17    0.57
   0  -7   2    1.35    0.55
   0   7  -1 1427.60   26.06
   0  -7   1 1428.92   23.08
   0   7  -1 1458.90   26.25
   0  -7   1 1443.97   26.64
   0   7   0  260.65    8.33
   0  -7   0  260.64    6.24
   0  -7   0  249.70    8.69
   0   7   0  265.07    8.58
   0  -7  -1  477.12   10.88
   0   7   1  455.66   12.09
   0  -7  -1  460.11    9.01
   0   7   1  471.92   12.53
   0  -7  -1  491.46   13.17
   0  -7  -2    0.67    0.47
   0   7   2    1.65    0.79
   0  -7  -2    1.71    0.65
   0   7   2    1.17    0.63
   0   7   3  156.40    7.04
   0   7   3  141.70    6.38
   0  -7  -3  156.01    5.61
   0   7   4  277.13   10.07
   0   7   4  272.43    9.22
   0  -7  -4  267.08    7.84
   0  -7  -4  270.43    9.29
   0   7   5   51.39    4.34
   0   7   5   49.28    3.74
   0  -7  -5   49.99    3.20
   0  -7  -5   55.98    4.20
   0   7   6  222.13    9.63
   0   7   6  227.47    8.45
   0  -7  -6  227.68    7.46
   0   7   7    3.44    1.22
   0  -7  -7    5.06    1.24
   0   7   8   35.80    4.05
   0  -7  -8   35.10    2.93
   0   7   9    1.88    1.20
   0  -7  -9    2.49    0.90
   0   7  10   33.75    4.27
   0  -7 -10   29.90    2.86
   0   7  11  158.81    9.57
   0  -7 -11  154.05    6.78
   0   7  12  135.31    9.02
   0   7  13   27.69    4.27
   0   7  13   20.65    3.54
   0   7  14   62.18    6.54
   0   7  15    2.47    1.43
   0   7  16   50.15    6.17
   0  -8  23    2.10    1.99
   0  -8  22  121.41   10.70
   0  -8  22  118.26    8.56
   0  -8  21    2.78    1.75
   0  -8  21   -0.44    1.36
   0  -8  20  186.89   12.26
   0  -8  19   35.51    5.07
   0  -8  18  125.40    9.00
   0  -8  17   18.08    3.34
   0  -8  16  232.41   11.14
   0  -8  15   56.63    5.07
   0  -8  14    2.09    1.18
   0  -8  13   40.53    3.80
   0  -8  12  182.94    7.78
   0  -8  11   15.49    2.06
   0  -8  10  292.40    8.98
   0   8 -10  280.74    8.50
   0   8  -9    4.10    1.18
   0  -8   9    7.98    1.56
   0  -8   8    0.73    0.91
   0  -8   8    0.13    0.43
   0   8  -8    0.89    0.47
   0  -8   7  340.43   10.03
   0  -8   7  359.28   12.04
   0  -8   7  346.03    8.68
   0  -8   6  344.71   10.10
   0  -8   6  353.87   11.75
   0   8  -6  342.22   11.34
   0  -8   6  361.08    8.48
   0   8  -5   30.51    2.86
   0  -8   5   26.05    2.50
   0  -8   5   29.18    3.03
   0   8  -5   30.93    3.02
   0  -8   5   32.33    2.07
   0   8  -4  548.73   14.03
   0  -8   4  595.71   14.11
   0   8  -4  586.43   15.08
   0  -8   4  562.97   11.39
   0   8  -3   32.90    2.87
   0   8  -3   32.75    2.81
   0  -8   3   38.90    3.12
   0   8  -3   30.72    3.04
   0  -8   3   32.60    2.28
   0   8  -2  523.11   13.49
   0  -8   2  529.45   11.23
   0  -8   2  532.59   13.64
   0   8  -2  543.92   13.45
   0   8  -1   10.18    1.64
   0  -8   1   11.15    1.23
   0   8  -1   12.01    1.80
   0  -8   1   15.48    2.06
   0   8   0  835.03   18.62
   0  -8   0  838.12   15.18
   0   8   0  856.21   18.92
   0  -8   0  880.34   19.68
   0  -8  -1    2.00    0.70
   0   8   1    1.31    0.74
   0  -8  -1    1.86    0.52
   0  -8  -1    1.93    0.85
   0   8   1    2.06    0.95
   0   8   2  553.63   14.96
   0  -8  -2  559.10   12.65
   0   8   2  537.19   14.36
   0   8   3  273.46   10.21
   0  -8  -3  282.52    8.23
   0   8   3  285.16    9.88
   0   8   4  169.88    8.14
   0  -8  -4  171.07    6.20
   0   8   4  176.55    7.65
   0  -8  -4  174.22    7.67
   0   8   5  351.04   12.45
   0   8   5  352.52   11.35
   0  -8  -5  350.95    9.59
   0  -8  -5  330.76   11.31
   0   8   6   17.02    2.77
   0   8   6   15.65    2.32
   0  -8  -6   21.04    2.16
   0   8   7  354.89   13.34
   0  -8  -7  333.09    9.75
   0   8   8    1.98    1.59
   0  -8  -8    0.66    0.77
   0   8   9   31.79    4.17
   0  -8  -9   32.77    2.86
   0   8  10   57.07    5.60
   0  -8 -10   57.78    3.86
   0   8  11    2.68    1.66
   0   8  12  100.99    8.02
   0   8  13   12.77    3.06
   0   8  14  109.66    8.94
   0   8  15   31.13    4.96
   0  -9  23   31.63    4.71
   0  -9  23   32.48    5.74
   0  -9  22   16.56    3.92
   0  -9  22   14.30    3.13
   0  -9  21  107.21    9.39
   0  -9  21  120.15    8.40
   0  -9  20    5.41    2.98
   0  -9  20    8.17    2.53
   0  -9  19  178.65   11.23
   0  -9  18    4.30    2.03
   0  -9  17  398.45   15.59
   0  -9  16   16.93    3.00
   0  -9  15   70.16    5.59
   0  -9  14    1.06    1.04
   0  -9  13   24.56    2.99
   0  -9  12    1.60    0.90
   0  -9  11   51.99    3.68
   0  -9  10   36.20    2.95
   0   9 -10   31.36    2.68
   0   9  -9  121.09    5.34
   0  -9   9  117.88    5.13
   0  -9   8   76.04    4.61
   0  -9   8   79.43    3.91
   0  -9   7   54.58    3.82
   0   9  -7   54.98    4.47
   0  -9   7   55.66    3.05
   0   9  -6  156.71    7.11
   0  -9   6  149.52    6.56
   0   9  -6  160.65    7.63
   0  -9   6  152.50    5.16
   0   9  -5   35.73    3.26
   0  -9   5   39.81    3.32
   0   9  -5   44.25    3.86
   0  -9   5   45.33    3.07
   0  -9   5   46.10    2.60
   0   9  -4   91.47    5.28
   0  -9   4   91.28    5.13
   0   9  -4   99.70    5.88
   0  -9   4   94.54    3.83
   0  -9   4   95.43    4.38
   0   9  -3  116.57    6.02
   0   9  -3  126.09    6.73
   0  -9   3  118.31    4.82
   0  -9   3  120.06    6.02
   0   9  -3  120.12    5.95
   0   9  -2   74.16    4.75
   0  -9   2   68.36    3.51
   0  -9   2   74.02    4.79
   0   9  -2   68.57    4.48
   0   9  -1  654.12   16.30
   0  -9   1  638.53   13.14
   0  -9   1  638.15   16.64
   0   9  -1  637.82   16.14
   0   9   0   87.12    5.24
   0  -9   0   88.72    3.72
   0   9   0   91.65    5.41
   0   9   1  650.81   16.68
   0  -9  -1  649.51   12.35
   0   9   1  661.41   17.08
   0   9   2    5.17    1.72
   0   9   2   10.27    2.23
   0  -9  -2   11.88    1.78
   0   9   3  237.20    9.89
   0  -9  -3  245.91    7.90
   0   9   3  245.35    9.60
   0   9   4   29.72    3.53
   0   9   4   25.69    3.01
   0  -9  -4   30.96    2.60
   0  -9  -4   25.55    2.98
   0   9   5  131.04    7.61
   0  -9  -5  123.38    5.40
   0   9   5  120.28    6.63
   0   9   6  128.40    7.85
   0  -9  -6  135.11    5.74
   0   9   6  125.05    6.83
   0   9   7   12.40    2.49
   0  -9  -7   12.13    1.72
   0   9   8  173.86    9.71
   0  -9  -8  168.13    6.64
   0   9   9   16.64    3.10
   0  -9  -9   17.22    2.08
   0   9  10   58.62    5.99
   0   9  11   93.22    7.76
   0   9  12   28.78    4.53
   0   9  13  118.99    9.33
   0   9  14   -0.54    1.35
   0 -10  23   27.93    5.28
   0 -10  22    1.31    1.81
   0 -10  22   -1.51    2.52
   0 -10  21   18.83    3.67
   0 -10  21   18.05    3.90
   0 -10  20   75.52    6.56
   0 -10  20   72.99    7.32
   0 -10  19    6.62    2.22
   0 -10  18   94.01    7.51
   0 -10  17    8.10    2.15
   0 -10  16  329.65   13.15
   0 -10  15    3.11    1.64
   0 -10  14  548.30   15.99
   0 -10  13    3.92    1.43
   0 -10  12  313.37   10.39
   0 -10  11    9.22    1.50
   0 -10  10  101.79    5.79
   0 -10  10  114.86    5.35
   0  10 -10  119.83    5.58
   0 -10   9   41.62    3.56
   0 -10   9   45.39    3.07
   0 -10   8   22.90    2.67
   0 -10   8   25.74    2.21
   0 -10   7   19.07    2.40
   0  10  -7   18.47    2.74
   0 -10   7   18.08    1.75
   0 -10   6   67.91    4.61
   0  10  -6   70.13    5.19
   0 -10   6   65.95    3.33
   0 -10   6   71.43    4.18
   0 -10   5  143.56    6.82
   0  10  -5  141.06    7.46
   0 -10   5  134.01    4.84
   0 -10   5  139.63    5.84
   0 -10   4   16.36    2.30
   0  10  -4   19.30    2.77
   0 -10   4   14.09    1.76
   0  10  -3  198.45    8.58
   0 -10   3  212.72    8.80
   0  10  -3  208.13    8.51
   0 -10   3  221.17    7.22
   0  10  -3  214.37    9.52
   0  10  -2    0.56    1.07
   0  10  -2    2.45    1.17
   0  10  -2    0.64    0.81
   0 -10   2    1.37    0.73
   0  10  -1   26.09    3.02
   0 -10   1   29.21    2.34
   0  10  -1   29.18    3.16
   0  10   0  115.43    6.58
   0 -10   0  110.52    4.48
   0  10   0  108.26    6.35
   0  10   1   69.17    5.05
   0 -10  -1   74.57    3.18
   0  10   1   71.59    5.18
   0  10   2  196.72    9.19
   0  10   2  214.29    9.31
   0  10   3   33.98    3.84
   0  10   3   32.34    3.49
   0  10   4  311.23   12.32
   0  10   4  288.12   11.27
   0 -10  -4  305.47    9.30
   0  10   5    3.98    1.60
   0 -10  -5    5.58    1.23
   0  10   5    3.44    1.38
   0  10   6   43.25    4.75
   0 -10  -6   39.55    3.13
   0  10   6   36.35    3.79
   0  10   7   44.25    4.99
   0 -10  -7   51.42    3.52
   0  10   8   25.25    3.76
   0 -10  -8   22.08    2.33
   0  10   9   92.80    7.57
   0  10  10   64.21    6.45
   0  10  11   96.56    8.18
   0  10  12   81.19    7.72
   0  10  13   83.45    7.99
   0 -11  23    2.18    2.45
   0 -11  22   17.21    3.57
   0 -11  22   13.76    3.62
   0 -11  21   -2.30    2.31
   0 -11  21    2.27    1.08
   0 -11  20   22.46    3.66
   0 -11  20   19.62    3.88
   0 -11  19   12.17    2.66
   0 -11  19    8.49    2.33
   0 -11  18    1.05    1.29
   0 -11  17  110.82    7.60
   0 -11  16    8.17    2.18
   0 -11  15  331.28   12.40
   0 -11  14    4.17    1.72
   0 -11  13  544.82   15.07
   0 -11  12    0.88    0.94
   0 -11  11  387.43   12.49
   0 -11  11  412.28   11.54
   0 -11  10    3.76    1.15
   0 -11  10    3.32    0.93
   0 -11   9  259.54    9.82
   0 -11   9  272.67    8.21
   0 -11   8   38.82    3.59
   0  11  -8   42.26    4.39
   0 -11   8   42.08    2.84
   0 -11   8   38.40    3.41
   0 -11   7   11.48    2.05
   0  11  -7    8.45    1.93
   0 -11   7    7.62    1.18
   0 -11   7    9.28    1.78
   0 -11   6  130.21    6.82
   0  11  -6  126.57    7.47
   0 -11   6  129.30    6.01
   0 -11   6  127.45    4.87
   0  11  -5    3.13    1.20
   0 -11   5    6.42    1.38
   0 -11   5    3.14    0.78
   0 -11   4   20.87    2.32
   0  11  -4   21.65    3.10
   0  11  -3   26.25    3.44
   0 -11   3   28.35    2.57
   0  11  -3   29.24    3.23
   0  11  -2   25.94    3.46
   0 -11   2   24.25    2.34
   0  11  -2   24.20    2.99
   0 -11   1   36.62    2.74
   0  11  -1   31.65    3.46
   0  11   0   92.72    6.39
   0 -11   0  100.80    4.37
   0  11   0   92.73    6.17
   0 -11  -1    3.14    2.24
   0  11   1    5.62    1.66
   0  11   2   99.02    6.69
   0  11   2   96.89    6.49
   0  11   3   91.52    6.60
   0  11   3   89.24    6.20
   0  11   4  320.27   13.07
   0  11   4  301.93   12.09
   0  11   5   36.41    4.36
   0  11   5   31.54    3.82
   0  11   6   72.28    6.34
   0  11   7   44.59    5.08
   0 -11  -7   57.23    3.80
   0  11   8    1.37    1.35
   0  11   9   21.66    3.79
   0  11  10   31.30    4.77
   0  11  11   17.38    3.72
   0  11  12   91.80    8.45
   0 -12  23    6.49    2.94
   0 -12  22    4.92    2.04
   0 -12  22    3.34    1.99
   0 -12  21    0.74    1.49
   0 -12  21   -0.51    1.97
   0 -12  20   20.22    3.63
   0 -12  20   21.09    3.69
   0 -12  19    1.31    1.28
   0 -12  19    0.72    1.53
   0 -12  18    2.77    1.86
   0 -12  18    0.34    1.05
   0 -12  17   -1.01    1.20
   0 -12  17    1.01    1.40
   0 -12  16   84.68    6.21
   0 -12  15    1.03    0.88
   0 -12  14  116.63    6.57
   0 -12  13    6.49    1.62
   0 -12  12  493.13   13.41
   0 -12  11    4.08    1.05
   0 -12  10  579.18   15.94
   0 -12  10  559.75   13.60
   0 -12   9   23.48    2.93
   0 -12   9   19.40    2.11
   0  12  -8  353.67   14.02
   0 -12   8  398.97   12.20
   0 -12   8  376.92    9.87
   0  12  -7   40.72    4.39
   0 -12   7   42.81    3.67
   0 -12   7   40.85    2.79
   0 -12   6  256.34    9.17
   0  12  -6  238.56   11.07
   0 -12   6  241.03    7.26
   0  12  -5  121.48    7.63
   0 -12   5  120.28    6.00
   0 -12   5  111.38    4.70
   0  12  -4   38.38    3.99
   0  12  -4   49.96    4.92
   0 -12   4   48.37    3.70
   0  12  -3  159.72    8.26
   0  12  -3  172.84    9.34
   0 -12   3  166.42    6.86
   0  12  -2   19.60    2.87
   0 -12   2   19.51    2.25
   0  12  -2   16.41    2.81
   0  12  -1   29.72    4.04
   0 -12   1   38.36    3.20
   0  12   0    2.07    1.02
   0 -12   0    1.52    1.34
   0  12   1    6.03    1.87
   0  12   2   -0.83    0.82
   0  12   3  172.16    9.57
   0  12   4   30.46    4.13
   0  12   5  206.29   11.08
   0  12   6   32.47    4.39
   0  12   7   84.10    7.37
   0  12   8   22.82    3.96
   0  12   9   13.63    3.35
   0  12  10    2.81    1.85
   0  12  11    4.56    2.36
   0 -13  23   16.63    4.06
   0 -13  22    0.71    1.43
   0 -13  21    0.60    1.38
   0 -13  21    0.40    1.26
   0 -13  20    2.11    1.17
   0 -13  20    0.64    1.21
   0 -13  19   21.74    3.63
   0 -13  19   19.53    3.45
   0 -13  18    8.53    2.40
   0 -13  18    5.40    2.77
   0 -13  17   24.69    3.64
   0 -13  17   24.51    3.52
   0 -13  16    0.48    0.87
   0 -13  16    2.22    1.37
   0 -13  15   25.61    3.16
   0 -13  15   29.48    3.85
   0 -13  14   24.78    3.46
   0 -13  14   19.42    2.65
   0 -13  13   68.22    4.74
   0 -13  13   74.11    5.70
   0 -13  12   19.31    2.85
   0 -13  12   15.29    2.15
   0 -13  11   81.93    5.70
   0 -13  11   69.20    4.31
   0 -13  10   71.98    5.30
   0 -13  10   69.33    4.11
   0  13  -9  429.03   16.37
   0 -13   9  454.39   11.57
   0 -13   9  472.50   14.28
   0  13  -8    1.67    1.23
   0 -13   8    2.42    0.78
   0 -13   7  813.66   19.39
   0  13  -7  774.96   22.40
   0 -13   7  748.37   15.80
   0  13  -6   -0.17    0.95
   0 -13   6    0.29    0.58
   0 -13   5   71.71    4.85
   0  13  -5   72.14    6.17
   0 -13   5   59.10    3.47
   0  13  -4  376.84   13.82
   0 -13   4  394.00   12.06
   0  13  -4  421.31   15.61
   0  13  -3   72.21    5.71
   0  13  -3   68.14    6.07
   0 -13   3   63.83    4.38
   0  13  -2  361.19   13.59
   0  13  -2  356.17   14.70
   0 -13   2  370.39   10.98
   0  13  -1   25.16    3.50
   0 -13   1   24.06    2.41
   0  13   0  167.04    9.18
   0 -13   0  158.25    5.78
   0  13   1   17.44    2.91
   0  13   2    8.21    1.94
   0  13   3   13.86    2.97
   0  13   4   51.27    5.53
   0  13   5   15.30    3.20
   0  13   6  130.09    9.30
   0  13   7   30.09    4.57
   0  13   8   84.62    7.85
   0  13   9   13.59    3.12
   0 -14  23    3.08    2.33
   0 -14  22   42.50    5.92
   0 -14  21    4.75    2.29
   0 -14  21    2.39    1.40
   0 -14  20    4.29    2.07
   0 -14  20    3.42    1.92
   0 -14  19    6.08    2.58
   0 -14  19    3.46    1.95
   0 -14  18   22.32    3.48
   0 -14  18   26.45    4.10
   0 -14  17    0.46    0.92
   0 -14  17   -0.41    1.33
   0 -14  16    8.28    2.17
   0 -14  16    8.91    2.00
   0 -14  15    4.88    1.86
   0 -14  15    2.51    1.08
   0 -14  14    4.06    1.68
   0 -14  14    0.45    0.86
   0 -14  13   19.75    3.06
   0 -14  13   22.06    2.60
   0 -14  12    0.21    0.71
   0 -14  12   -0.19    0.90
   0 -14  11    1.95    0.93
   0 -14  11    6.80    1.41
   0 -14  10  173.15    8.62
   0 -14  10  172.31    6.74
   0  14  -9   26.85    3.96
   0 -14   9   25.35    3.32
   0 -14   9   23.72    2.34
   0 -14   8  363.14   12.69
   0  14  -8  339.47   14.68
   0 -14   8  338.28    9.51
   0  14  -7  105.78    7.91
   0 -14   7  114.32    6.73
   0 -14   7   98.21    4.63
   0  14  -6   34.33    4.43
   0 -14   6   38.87    3.98
   0 -14   6   30.42    2.51
   0  14  -5   10.38    2.40
   0 -14   5    8.90    1.34
   0 -14   5    8.36    1.88
   0 -14   4  410.23   13.01
   0  14  -4  412.00   16.32
   0  14  -3   68.28    5.87
   0  14  -3   76.61    6.81
   0 -14   3   69.99    4.82
   0  14  -2  121.53    7.99
   0 -14   2  116.73    6.01
   0  14  -2  118.61    8.61
   0  14  -1  181.64    9.87
   0 -14   1  162.24    6.63
   0  14   0   77.68    6.55
   0  14   1  259.33   12.39
   0  14   2   64.15    6.20
   0  14   3   76.60    6.89
   0  14   4   36.92    4.89
   0  14   5    3.45    1.81
   0  14   6   52.14    6.06
   0  14   7   43.67    5.70
   0  14   8   47.04    6.13
   0 -15  23  125.27   10.35
   0 -15  22   10.26    3.42
   0 -15  21  140.91   10.19
   0 -15  20    3.65    2.01
   0 -15  20   -0.29    1.23
   0 -15  19   63.83    6.14
   0 -15  19   77.99    7.22
   0 -15  18    4.14    1.96
   0 -15  18    0.92    1.35
   0 -15  17   12.43    2.53
   0 -15  17   11.70    2.97
   0 -15  16    2.94    1.59
   0 -15  16    5.99    1.80
   0 -15  15    6.82    1.75
   0 -15  15    3.47    1.48
   0 -15  14    9.29    2.37
   0 -15  14    4.56    1.28
   0 -15  13   14.95    2.83
   0 -15  13   18.54    2.41
   0 -15  12   20.98    3.28
   0 -15  12   17.13    2.20
   0 -15  11   -0.07    0.91
   0 -15  11    0.74    0.65
   0  15 -10    5.64    2.12
   0 -15  10    4.44    1.45
   0 -15  10    6.79    1.39
   0  15  -9   12.90    2.92
   0 -15   9   19.65    3.04
   0 -15   9   14.34    1.82
   0  15  -8  108.09    8.34
   0 -15   8  123.08    7.41
   0 -15   8  106.63    4.97
   0  15  -7    2.27    1.12
   0 -15   7    2.36    0.77
   0  15  -6   57.02    5.97
   0 -15   6   51.74    4.62
   0 -15   6   46.71    3.19
   0  15  -5  242.77   12.60
   0 -15   5  255.34   10.44
   0 -15   5  231.84    7.81
   0  15  -4   31.10    4.56
   0 -15   4   30.69    3.65
   0  15  -3  183.31   10.13
   0  15  -3  168.59   10.54
   0 -15   3  164.43    7.75
   0  15  -2    2.67    1.46
   0  15  -2    2.45    1.53
   0 -15   2    1.79    1.06
   0  15  -1  103.65    7.72
   0  15  -1   94.05    8.04
   0  15   0  106.38    8.00
   0  15   1   34.41    4.62
   0  15   2  135.92    9.41
   0  15   3   44.15    5.46
   0  15   4   93.29    8.12
   0  15   5   43.76    5.69
   0  15   6   42.80    5.77
   0 -16  23   -0.60    2.42
   0 -16  22  100.04    8.85
   0 -16  21    5.69    2.66
   0 -16  20  156.89   10.05
   0 -16  19    2.81    1.76
   0 -16  19    7.53    2.76
   0 -16  18   84.27    7.42
   0 -16  18   85.33    6.67
   0 -16  17   13.91    3.44
   0 -16  17   12.70    2.61
   0 -16  16   79.27    7.01
   0 -16  16   72.80    5.59
   0 -16  15   37.06    4.61
   0 -16  15   38.98    3.90
   0 -16  14   10.95    2.70
   0 -16  14    5.98    1.41
   0 -16  13   57.41    5.51
   0 -16  13   56.05    4.20
   0 -16  12   10.49    1.77
   0 -16  12   11.64    2.54
   0 -16  11    2.42    1.30
   0 -16  11    0.27    0.68
   0  16 -10   -0.27    1.22
   0 -16  10    2.07    0.86
   0 -16  10    4.22    1.66
   0  16  -9   21.64    3.81
   0 -16   9   18.66    2.11
   0 -16   9   19.79    3.21
   0  16  -8    5.20    1.70
   0 -16   8    6.29    1.14
   0 -16   8    6.57    1.78
   0  16  -7   83.54    7.49
   0 -16   7   84.50    6.33
   0 -16   7   82.33    4.37
   0 -16   6   96.05    6.67
   0  16  -6   95.97    8.16
   0 -16   6   82.09    4.44
   0  16  -5  187.30   11.49
   0 -16   5  201.22    9.49
   0 -16   5  184.95    6.93
   0  16  -4   68.18    7.05
   0 -16   4   68.36    5.37
   0 -16   4   64.81    4.18
   0  16  -3   43.15    5.07
   0  16  -3   43.30    5.45
   0  16  -2  112.61    8.34
   0  16  -2  101.14    8.52
   0  16  -1    3.70    1.73
   0  16  -1    6.61    2.37
   0  16   0   22.70    3.94
   0  16   1   11.06    2.74
   0  16   2    3.73    2.06
   0  16   3   56.49    6.39
   0  16   4    2.13    1.45
   0  16   5   81.01    8.03
   0 -17  18    1.50    1.92
   0 -17  17  170.35   10.84
   0 -17  16    9.90    2.82
   0 -17  15  135.08    9.18
   0 -17  14   33.43    4.57
   0 -17  13   52.30    5.60
   0 -17  12   62.61    6.09
   0 -17  11   13.06    2.79
   0  17 -10   22.85    4.14
   0 -17  10   31.79    4.20
   0  17  -9    2.14    1.85
   0 -17   9    1.53    1.20
   0  17  -8   10.53    2.85
   0 -17   8    9.65    2.12
   0 -17   7    0.70    1.29
   0  17  -7    1.02    1.32
   0  17  -6   11.71    3.15
   0 -17   6    8.68    2.44
   0  17  -5    9.10    3.06
   0  17  -4   58.99    6.66
   0  17  -3   74.95    7.01
   0  17  -3   86.00    8.06
   0  17  -2   93.52    7.95
   0  17  -2   76.52    7.83
   0  17  -1   22.62    4.02
   0  17  -1   21.49    4.23
   0  17   0   55.37    6.25
   0  17   0   41.71    5.81
   0  17   1    5.68    2.26
   0  17   2    1.68    1.55
   0  17   3    9.23    2.87
   0 -18  18   98.77    8.59
   0 -18  17    4.22    2.12
   0 -18  16  170.40   11.08
   0 -18  15    8.50    2.66
   0 -18  14  134.76    9.47
   0 -18  13   19.75    3.62
   0 -18  12   70.72    6.73
   0 -18  11   45.33    5.32
   0 -18  10   41.98    4.97
   0  18 -10   30.84    5.08
   0 -18   9   76.76    6.73
   0  18  -9   70.17    7.59
   0  18  -8   11.81    3.19
   0 -18   8   13.89    2.77
   0  18  -7   28.72    4.99
   0  18  -6    5.11    1.90
   0  18  -5    1.74    2.18
   0  18  -4    3.82    1.97
   0  18  -3   29.23    4.92
   0  18  -2   39.77    5.80
   0  18  -2   37.49    5.22
   0  18  -1   81.98    7.93
   0  18  -1   74.70    7.94
   0  18   0    3.95    2.16
   0  18   0    6.37    2.60
   0  18   1   58.83    6.94
   0  18   1   60.27    7.51
   0 -19  17   44.19    5.89
   0 -19  16   43.09    5.89
   0 -19  15  108.83    9.08
   0 -19  14    6.04    2.36
   0 -19  13  125.13    9.41
   0 -19  12    3.01    2.23
   0 -19  11  105.99    8.42
   0  19 -10   39.11    5.85
   0 -19  10   35.69    4.82
   0  19  -9   47.77    6.38
   0  19  -8   94.88    9.13
   0  19  -7   33.93    5.31
   0  19  -6  104.38    9.43
   0  19  -5   10.96    3.27
   0  19  -4   27.12    4.73
   0  19  -3   34.27    5.59
   0  19  -2   -0.51    1.84
   0  19  -1   34.80    5.39
   0 -20  16   14.26    3.51
   0 -20  15   37.14    5.37
   0 -20  14   52.71    6.47
   0 -20  13   73.85    7.50
   0 -20  12   87.49    8.27
   0  20 -10   39.39    6.26
   0  20  -9    7.40    2.94
   0  20  -8   27.74    5.06
   0  20  -7   75.71    8.40
   0 -21  15    2.10    1.64
   0 -21  14   55.72    6.86
   1 -21  13    3.75    2.08
   1 -21  14    0.51    1.29
   1 -21  15    9.02    2.76
  -1  20  -3   -0.01    1.75
  -1  20  -4   37.12    5.67
  -1  20  -5    5.03    2.05
  -1  20  -6    2.04    1.81
  -1  20  -7   66.85    7.67
  -1  20  -8   35.44    5.43
  -1  20  -9   43.13    6.40
  -1  20 -10   64.50    7.56
   1 -20  11   42.48    5.17
   1 -20  12   73.75    6.79
   1 -20  13    5.15    2.13
   1 -20  14    4.83    2.02
   1 -20  15    3.65    2.26
   1 -20  16    0.50    1.06
  -1  19   0   67.63    7.60
  -1  19   0   77.21    8.13
  -1  19  -1   57.36    6.97
  -1  19  -2   66.80    7.44
  -1  19  -3   87.81    8.49
  -1  19  -4    1.87    1.23
  -1  19  -5   77.55    7.91
  -1  19  -6   11.57    2.92
  -1  19  -7   30.72    5.03
  -1  19  -8   79.40    8.12
  -1  19  -9   -1.32    1.16
   1 -19   9    3.22    1.74
  -1  19 -10  115.14    9.97
   1 -19  10  130.83    8.57
   1 -19  11   47.54    5.26
   1 -19  12   74.42    6.65
   1 -19  13   53.51    5.62
   1 -19  14   36.19    4.67
   1 -19  15   23.76    3.86
   1 -19  16    0.23    1.19
   1 -19  17    0.91    1.51
  -1  18   2   22.65    4.43
  -1  18   1   21.91    4.24
  -1  18   1   17.11    3.78
  -1  18   0    5.82    2.08
  -1  18   0    0.59    1.37
  -1  18  -1   50.52    6.32
  -1  18  -2    7.05    2.73
  -1  18  -3   37.40    5.29
  -1  18  -4   92.00    8.20
  -1  18  -5   20.06    3.94
  -1  18  -6  179.07   11.68
  -1  18  -7   28.77    4.52
   1 -18   7   27.55    3.61
  -1  18  -8   78.25    7.69
   1 -18   8   69.06    5.74
  -1  18  -9   99.68    8.89
   1 -18   9  119.84    7.65
  -1  18 -10   -0.58    1.40
   1 -18  10    2.25    1.13
   1 -18  11  172.00    9.53
   1 -18  11  164.19    7.51
   1 -18  12   14.26    2.23
   1 -18  12   19.44    3.32
   1 -18  13  170.61    9.70
   1 -18  13  162.32    7.77
   1 -18  14   37.56    3.70
   1 -18  14   39.13    4.67
   1 -18  15   59.44    4.92
   1 -18  15   63.47    6.03
   1 -18  16   21.19    3.13
   1 -18  16   19.80    3.53
   1 -18  17    3.44    1.72
   1 -18  17    4.19    1.55
   1 -18  18    2.35    1.23
  -1  17   4    7.02    2.66
  -1  17   3   35.59    5.22
  -1  17   2   11.73    3.32
  -1  17   1   67.73    7.15
  -1  17   0   13.62    3.14
  -1  17   0   10.31    2.68
  -1  17  -1   41.40    5.31
  -1  17  -1   40.77    5.47
  -1  17  -2   23.77    4.12
  -1  17  -3   -0.67    1.25
  -1  17  -4    7.34    2.36
   1 -17   5   19.49    2.57
  -1  17  -5   13.73    3.38
   1 -17   5   22.67    3.25
  -1  17  -6   45.91    5.60
   1 -17   6   54.07    4.72
   1 -17   6   45.54    3.63
  -1  17  -7  161.47   10.68
   1 -17   7  156.82    8.28
   1 -17   7  155.50    6.87
  -1  17  -8   39.81    5.38
   1 -17   8   44.44    4.46
   1 -17   8   38.45    3.31
  -1  17  -9  125.04    9.55
   1 -17   9  156.78    8.41
   1 -17   9  137.44    6.49
   1 -17  10   50.15    4.78
   1 -17  10   47.95    3.85
   1 -17  11   27.11    3.66
   1 -17  11   26.18    2.88
   1 -17  12  211.54    8.69
   1 -17  12  223.37   10.61
   1 -17  13    3.78    2.05
   1 -17  13    1.31    0.90
   1 -17  14  277.22   10.69
   1 -17  14  287.41   12.59
   1 -17  15    1.07    1.10
   1 -17  15    3.40    1.71
   1 -17  16  127.31    7.63
   1 -17  16  128.04    8.91
   1 -17  17   11.50    2.50
   1 -17  17   12.40    3.06
   1 -17  18   28.08    3.86
   1 -17  18   32.17    4.46
   1 -17  19    2.36    1.62
   1 -17  20    7.63    2.35
   1 -17  21    0.00    1.65
   1 -17  22   -0.51    2.45
  -1  16   6   38.21    5.63
  -1  16   5    1.81    0.97
  -1  16   4    1.20    1.46
  -1  16   3    6.03    2.08
  -1  16   2   21.70    3.93
  -1  16   1    9.99    2.72
  -1  16   0  143.82    9.75
  -1  16   0  132.00    9.65
  -1  16  -1   29.10    4.33
  -1  16  -1   30.49    4.57
  -1  16  -2  132.44    9.44
  -1  16  -3   46.38    5.54
   1 -16   3   38.10    3.60
  -1  16  -4  143.46    9.69
   1 -16   4  142.99    7.07
   1 -16   5   34.22    3.49
  -1  16  -5   32.51    4.47
   1 -16   5   30.36    2.96
   1 -16   6   28.34    3.31
  -1  16  -6   29.90    4.27
   1 -16   6   24.25    2.63
  -1  16  -7    2.09    1.13
   1 -16   7    3.34    1.45
   1 -16   7    1.82    0.82
   1 -16   8   44.01    4.11
  -1  16  -8   42.32    5.29
   1 -16   8   37.82    3.24
  -1  16  -9    0.17    1.29
   1 -16   9    0.85    0.79
   1 -16   9    1.64    1.31
   1 -16  10  228.37    8.67
   1 -16  10  269.78   10.90
   1 -16  11   54.95    4.15
   1 -16  11   60.36    5.10
   1 -16  12  106.14    5.95
   1 -16  12  109.63    7.12
   1 -16  13  135.93    6.96
   1 -16  13  133.23    8.01
   1 -16  14   21.27    2.84
   1 -16  15  258.79   10.70
   1 -16  16    1.53    1.43
   1 -16  17  189.50   10.55
   1 -16  17  178.37    9.46
   1 -16  18    3.28    2.01
   1 -16  18    7.18    2.32
   1 -16  19  113.00    8.49
   1 -16  19  101.02    7.67
   1 -16  20    2.05    1.53
   1 -16  21   15.38    3.41
   1 -16  22   -0.49    1.78
  -1  15   7   74.97    7.93
  -1  15   6   22.84    4.10
  -1  15   5   97.93    8.42
  -1  15   4    8.34    2.43
  -1  15   3   76.37    7.09
  -1  15   2   23.86    3.83
  -1  15   1   12.93    3.12
  -1  15   0  103.57    7.84
  -1  15  -1  114.82    8.21
  -1  15  -1  111.03    8.36
  -1  15  -2  119.71    8.46
   1 -15   2  123.77    5.83
  -1  15  -2  137.44    9.21
  -1  15  -3   75.50    6.73
   1 -15   3   72.48    4.60
   1 -15   4   31.42    3.22
  -1  15  -4   24.61    3.91
   1 -15   5  176.05    7.70
  -1  15  -5  166.47   10.01
   1 -15   5  167.59    7.04
  -1  15  -6   10.98    2.32
   1 -15   6    8.57    1.55
   1 -15   6   13.49    2.18
  -1  15  -7  132.95    8.91
   1 -15   7  145.14    7.12
  -1  15  -8    0.73    1.35
   1 -15   8   -0.24    0.58
   1 -15   8    0.10    0.66
  -1  15  -9    4.13    1.46
   1 -15   9    5.22    1.56
   1 -15   9    3.63    1.16
   1 -15  10   58.92    4.10
   1 -15  11   76.59    4.86
   1 -15  12    1.89    1.02
   1 -15  13   81.47    5.31
   1 -15  14  182.83    8.43
   1 -15  15    6.51    1.68
   1 -15  16  126.36    7.61
   1 -15  17    3.89    1.78
   1 -15  18  249.44   11.81
   1 -15  19    4.59    2.29
   1 -15  20  165.29   10.40
   1 -15  20  172.48   10.70
   1 -15  21    1.05    1.40
   1 -15  22   85.46    8.15
  -1  14   9   44.59    5.95
  -1  14   8   33.16    5.10
  -1  14   7   84.39    7.83
  -1  14   6   51.78    5.99
  -1  14   5   28.41    4.47
  -1  14   4  281.85   13.72
  -1  14   3   13.07    2.89
  -1  14   2   96.16    7.52
  -1  14   1   81.41    6.78
  -1  14   0   25.54    3.71
   1 -14   0   18.71    1.75
  -1  14  -1  197.04   10.35
   1 -14   1  192.69    6.73
  -1  14  -1  192.52   10.74
  -1  14  -2    2.78    1.66
   1 -14   2    2.88    1.13
  -1  14  -2    4.21    1.56
  -1  14  -3  238.82   11.75
   1 -14   3  229.48    8.28
   1 -14   4  236.06    8.49
  -1  14  -4  246.52   11.79
   1 -14   5   43.92    3.64
  -1  14  -5   46.16    4.93
   1 -14   5   36.78    3.10
  -1  14  -6  319.95   13.45
   1 -14   6  330.29   10.59
   1 -14   6  292.26    9.40
  -1  14  -7  155.80    9.20
   1 -14   7  147.01    6.32
  -1  14  -8   31.79    4.13
   1 -14   8   27.36    2.61
   1 -14   9   21.86    2.43
   1 -14  10    3.49    1.19
   1 -14  11   30.22    2.97
   1 -14  12    3.32    1.22
   1 -14  13    3.68    1.25
   1 -14  14    5.79    1.76
   1 -14  15    7.40    1.74
   1 -14  16    4.83    1.74
   1 -14  17   86.51    6.79
   1 -14  18    2.34    1.56
   1 -14  19  115.48    8.33
   1 -14  20    1.09    1.46
   1 -14  21  176.60   11.41
   1 -14  22    0.52    1.87
  -1  13  10   10.67    3.00
  -1  13   9    8.87    2.67
  -1  13   8   49.78    5.89
   1 -13  -7    4.30    1.38
  -1  13   7    0.63    1.32
   1 -13  -6   75.46    5.12
  -1  13   6   69.34    6.63
   1 -13  -5   21.64    2.78
  -1  13   5   21.28    3.51
   1 -13  -4  118.38    6.48
  -1  13   4  107.48    7.93
   1 -13  -3  139.30    7.08
  -1  13   3  127.17    8.50
  -1  13   2   30.63    3.99
  -1  13   1  318.86   13.22
   1 -13   0   73.71    3.52
  -1  13   0   72.50    5.96
   1 -13   1  160.10    5.90
  -1  13  -1  147.03    8.57
  -1  13  -2  173.20    9.19
  -1  13  -2  161.87    9.30
   1 -13   2  180.65    6.58
  -1  13  -3    2.68    0.90
   1 -13   3    4.96    1.25
  -1  13  -4  261.26   11.70
   1 -13   4  267.56    8.64
  -1  13  -5  151.27    8.68
   1 -13   5  130.55    5.88
   1 -13   5  156.30    6.49
  -1  13  -6  430.17   15.30
   1 -13   6  412.40   11.18
  -1  13  -7   69.54    5.87
   1 -13   7   74.33    4.20
  -1  13  -8   58.33    5.39
   1 -13   8   61.76    3.92
   1 -13   9   76.48    4.47
   1 -13  10   29.10    2.83
   1 -13  11   68.48    4.43
   1 -13  12   19.13    2.47
   1 -13  13    2.36    1.15
   1 -13  14  148.29    7.52
   1 -13  15    4.45    1.59
   1 -13  16   40.54    4.32
   1 -13  17    3.73    1.67
   1 -13  18   18.96    3.29
   1 -13  19    1.01    1.24
   1 -13  20   65.46    6.65
   1 -13  21    6.51    2.68
   1 -13  22  100.18    9.08
  -1  12  12   51.83    6.43
  -1  12  11    1.71    1.65
  -1  12  10   48.71    6.02
  -1  12   9   13.02    3.09
   1 -12  -8   87.00    5.49
  -1  12   8   89.00    7.60
   1 -12  -7   30.82    3.17
  -1  12   7   35.06    4.71
   1 -12  -6   56.27    4.30
  -1  12   6   64.51    6.10
   1 -12  -5   91.43    5.52
  -1  12   5   97.06    7.39
   1 -12  -4    6.66    1.53
  -1  12   4    2.06    0.94
   1 -12  -3   71.83    4.86
  -1  12   3   66.47    5.72
   1 -12  -2  177.77    7.83
  -1  12   2  177.86    9.36
   1 -12  -1   17.47    2.35
   1 -12  -1   16.33    1.24
  -1  12   1   19.67    3.01
   1 -12   0  380.83    8.99
  -1  12   0  392.10   13.89
   1 -12   1   47.36    2.89
  -1  12  -1   43.82    4.36
  -1  12  -2  169.17    8.69
   1 -12   2  179.80    6.19
  -1  12  -2  181.44    9.33
  -1  12  -3  160.37    8.73
   1 -12   3  173.92    6.25
  -1  12  -4    6.24    1.61
  -1  12  -5  420.90   14.37
   1 -12   5  402.18   10.94
  -1  12  -6    6.44    1.76
   1 -12   6    7.02    1.57
  -1  12  -7  698.30   19.79
   1 -12   7  690.67   15.37
  -1  12  -8    2.09    1.01
   1 -12   8    4.01    0.98
   1 -12   9  532.64   13.29
   1 -12  10   12.59    1.85
   1 -12  11   88.24    5.10
   1 -12  12   12.39    2.05
   1 -12  13    1.21    0.93
   1 -12  14   -0.41    0.97
   1 -12  15   24.83    3.26
   1 -12  16   14.71    2.85
   1 -12  17   43.50    4.68
   1 -12  18   39.53    4.77
   1 -12  19    4.74    1.99
   1 -12  20    6.18    2.40
   1 -12  21    8.44    2.75
   1 -12  22    6.89    2.81
  -1  11  13    2.56    1.54
  -1  11  12    2.93    1.93
  -1  11  11    2.55    1.89
  -1  11  10    4.72    1.89
   1 -11  -9   27.36    3.09
  -1  11   9   30.79    4.45
   1 -11  -8   16.14    2.37
  -1  11   8   17.21    3.21
   1 -11  -7  261.17    9.78
  -1  11   7  256.53   12.36
   1 -11  -6   16.56    2.36
  -1  11   6   15.35    2.93
   1 -11  -5  169.31    7.57
  -1  11   5  172.75    9.48
   1 -11  -4    5.10    1.36
  -1  11   4    6.82    2.04
   1 -11  -3   51.88    3.98
  -1  11   3   55.66    4.98
   1 -11  -2   48.41    3.86
  -1  11   2   49.74    4.74
   1 -11  -1   18.98    2.46
   1 -11  -1   17.11    1.45
  -1  11   1    8.94    2.24
   1 -11   0    5.10    1.26
  -1  11   0    5.71    1.52
   1 -11   0    5.41    0.88
  -1  11  -1  513.71   15.51
   1 -11   1  525.78   11.25
  -1  11  -2   -0.53    0.83
  -1  11  -2    0.63    0.82
   1 -11   2    1.09    0.67
  -1  11  -3  210.33    9.50
  -1  11  -4  198.09    9.05
   1 -11   5    6.83    1.20
  -1  11  -5    8.19    1.81
  -1  11  -6  531.30   16.00
   1 -11   6  518.11   12.38
  -1  11  -7    1.80    1.06
   1 -11   7    1.37    0.73
   1 -11   8  676.14   15.15
   1 -11   9    1.48    0.68
   1 -11  10  634.73   15.27
   1 -11  11   12.59    1.94
   1 -11  12  418.83   12.45
   1 -11  13    0.05    0.92
   1 -11  14  125.60    7.02
   1 -11  15    7.21    1.95
   1 -11  16    4.99    1.59
   1 -11  17    9.15    2.28
   1 -11  18   44.83    5.09
   1 -11  19    4.67    1.87
   1 -11  20   10.16    2.61
   1 -11  21    6.10    2.82
   1 -11  22    4.50    2.41
  -1  10  14   82.19    7.96
  -1  10  13   35.08    5.08
  -1  10  12   51.85    5.93
  -1  10  11   26.08    4.06
   1 -10 -10   15.80    2.36
  -1  10  10   16.75    3.30
   1 -10  -9   37.09    3.56
  -1  10   9   44.64    5.14
   1 -10  -8   20.99    2.63
  -1  10   8   19.43    3.24
  -1  10   7   54.05    5.15
   1 -10  -7   45.55    3.88
  -1  10   7   47.03    4.92
   1 -10  -6   29.94    3.11
  -1  10   6   32.90    3.95
  -1  10   6   27.00    3.69
   1 -10  -5   72.20    4.78
  -1  10   5   65.70    5.54
  -1  10   5   68.31    5.61
  -1  10   4  341.38   12.89
   1 -10  -4  330.51   10.72
  -1  10   4  337.29   12.75
   1 -10  -3  104.41    5.69
  -1  10   3   87.32    6.84
   1 -10  -2  162.63    7.07
  -1  10   2  165.43    8.54
  -1  10   2  166.92    8.24
   1 -10  -1   15.94    2.16
  -1  10   1   17.86    2.72
   1 -10  -1   16.77    1.28
  -1  10   1   17.82    2.75
   1 -10   0   41.86    3.38
  -1  10   0   45.06    4.19
  -1  10   0   45.51    3.98
   1 -10   0   43.95    2.29
  -1  10  -1   12.95    2.09
   1 -10   1   14.02    1.99
  -1  10  -1   13.24    2.21
   1 -10   1   14.05    1.40
  -1  10  -2   19.52    2.73
  -1  10  -2   17.96    2.53
  -1  10  -2   17.68    2.39
  -1  10  -3   57.39    4.69
   1 -10   3   63.20    4.56
  -1  10  -3   60.00    4.62
   1 -10   4  254.33    9.66
  -1  10  -4  273.41   10.24
   1 -10   5   69.22    4.75
  -1  10  -5   77.91    5.24
   1 -10   5   76.13    3.91
   1 -10   6   68.22    4.70
  -1  10  -6   65.82    4.95
   1 -10   6   70.13    3.74
   1 -10   7  178.23    7.88
   1 -10   7  168.27    6.22
   1 -10   8   57.24    3.60
   1 -10   9  895.42   18.61
   1 -10  10    8.49    1.58
   1 -10  11  719.13   16.91
   1 -10  12    1.80    1.00
   1 -10  13  554.51   15.59
   1 -10  14    1.41    1.46
   1 -10  15  198.74    9.47
   1 -10  16    1.21    0.97
   1 -10  17   14.16    2.81
   1 -10  18    1.20    1.14
   1 -10  19    1.10    1.47
   1 -10  20   19.06    3.84
   1 -10  21    4.96    2.42
   1 -10  22   -0.04    1.35
  -1   9  15   54.69    6.44
  -1   9  14   50.46    6.10
  -1   9  13  128.23    9.39
  -1   9  12   65.92    6.51
   1  -9 -11   72.75    5.20
  -1   9  11   91.37    7.44
   1  -9 -10  125.75    6.83
  -1   9  10  120.22    8.38
   1  -9  -9   40.95    3.77
  -1   9   9   46.46    4.97
   1  -9  -8   29.49    3.19
  -1   9   8   38.64    4.50
   1  -9  -7   20.26    2.62
  -1   9   7   16.70    2.82
  -1   9   7   21.16    3.14
   1  -9  -6   61.65    4.42
  -1   9   6   57.34    4.90
  -1   9   6   57.35    5.05
  -1   9   5   60.35    4.99
   1  -9  -5   59.01    4.22
  -1   9   5   60.48    5.01
  -1   9   4  270.92   11.05
   1  -9  -4  255.92    9.01
  -1   9   3   14.76    2.40
   1  -9  -3   17.14    2.29
  -1   9   3   10.47    2.07
   1  -9  -2  326.64   10.16
  -1   9   2  319.76   11.63
  -1   9   2  329.66   11.41
   1  -9  -1  265.88    8.88
  -1   9   1  273.79   10.35
  -1   9   1  254.18    9.63
   1  -9  -1  262.76    5.62
  -1   9   0    1.82    1.29
   1  -9   0    0.77    0.78
  -1   9   0    1.25    1.34
   1  -9   0    0.86    0.58
  -1   9  -1  347.40   11.74
   1  -9   1  356.41   10.49
  -1   9  -1  375.57   11.62
   1  -9   1  380.80   11.76
  -1   9  -2    0.38    0.62
  -1   9  -2    0.00    0.63
   1  -9   2   -0.10    0.54
  -1   9  -2    0.03    0.72
  -1   9  -3   10.63    1.96
  -1   9  -3   10.08    1.73
   1  -9   3   12.09    1.93
  -1   9  -4  310.49   10.80
   1  -9   4  315.88   10.35
  -1   9  -4  319.25   10.59
  -1   9  -5   51.91    4.20
   1  -9   5   53.17    3.96
  -1   9  -5   57.35    4.24
   1  -9   5   53.60    4.21
   1  -9   5   52.07    3.09
  -1   9  -6    0.89    0.78
   1  -9   6    0.69    0.65
   1  -9   6    0.04    0.52
  -1   9  -6    0.85    0.74
   1  -9   6    1.82    0.76
   1  -9   7    1.57    1.04
   1  -9   7    3.49    1.16
   1  -9   8  394.69   10.39
   1  -9   9  147.37    6.09
  -1   9  -9  153.65    6.49
   1  -9  10  407.42   11.36
   1  -9  11    4.80    1.23
   1  -9  12  546.83   14.82
   1  -9  13    1.60    1.38
   1  -9  14  439.08   14.31
   1  -9  15   25.38    3.37
   1  -9  16  220.83   10.68
   1  -9  17    5.31    2.01
   1  -9  18  154.01    9.77
   1  -9  19   20.84    3.83
   1  -9  20   36.81    5.27
   1  -9  21   45.09    6.19
   1  -9  22    6.81    2.45
  -1   8  16   35.14    5.28
  -1   8  15   85.88    7.90
  -1   8  14    3.61    1.74
  -1   8  13   32.05    4.54
   1  -8 -12   56.71    4.76
  -1   8  12   48.34    5.42
   1  -8 -11  119.52    6.83
  -1   8  11  120.34    8.28
   1  -8 -10  152.41    7.72
  -1   8  10  153.56    9.06
   1  -8  -9    0.34    0.81
  -1   8   9    0.27    0.89
   1  -8  -8  240.66    9.44
  -1   8   8  245.70   10.95
   1  -8  -7  169.39    7.68
  -1   8   7  176.66    8.86
   1  -8  -6  182.55    7.72
  -1   8   6  182.67    8.64
  -1   8   6  180.17    8.73
   1  -8  -5  444.33   12.52
  -1   8   5  431.35   13.86
  -1   8   5  421.55   13.61
  -1   8   4  106.15    6.80
   1  -8  -4  123.22    6.10
  -1   8   4  100.58    6.18
  -1   8   3  456.08   13.94
   1  -8  -3  470.31   12.54
  -1   8   3  466.97   13.62
   1  -8  -2   16.39    2.03
  -1   8   2   16.95    2.38
  -1   8   2   15.48    2.18
   1  -8  -1  397.81   11.03
  -1   8   1  393.90   12.38
   1  -8  -1  410.32    7.37
  -1   8   1  398.01   12.00
   1  -8  -1  421.09   12.35
  -1   8   0  512.79   13.97
   1  -8   0  478.00   12.27
   1  -8   0  501.65   13.46
  -1   8   0  505.34   13.43
  -1   8  -1  396.96   11.96
   1  -8   1  381.00   10.52
  -1   8  -1  408.93   11.63
   1  -8   1  395.47   11.44
   1  -8   2  535.52   13.01
  -1   8  -2  542.45   14.40
  -1   8  -2  551.59   13.84
  -1   8  -2  553.68   14.13
   1  -8   2  530.75   13.75
  -1   8  -3    5.98    1.34
   1  -8   3    3.08    1.07
  -1   8  -3    3.77    1.04
  -1   8  -4  419.97   12.14
   1  -8   4  400.49   11.46
  -1   8  -4  415.96   11.69
   1  -8   4  402.61    9.74
   1  -8   5  179.65    7.24
  -1   8  -5  189.21    7.66
   1  -8   5  196.20    7.91
  -1   8  -5  171.43    7.27
   1  -8   5  184.79    5.99
  -1   8  -6   11.94    1.95
   1  -8   6   12.62    2.06
   1  -8   6   14.91    1.71
  -1   8  -7  186.24    7.95
   1  -8   7  191.29    8.39
   1  -8   7  203.30    6.60
  -1   8  -8  195.64    8.15
   1  -8   8  223.86    9.25
   1  -8   8  203.71    6.91
  -1   8  -8  205.79    7.31
   1  -8   9    1.96    0.87
  -1   8  -9    1.38    0.69
   1  -8  10   13.37    1.81
   1  -8  11   15.79    2.45
   1  -8  12   21.95    2.68
   1  -8  13  333.24   11.73
   1  -8  14    0.46    0.96
   1  -8  15  232.79   10.62
   1  -8  16   12.13    2.62
   1  -8  17  300.72   13.56
   1  -8  18   14.68    4.68
   1  -8  19  244.31   13.28
   1  -8  20   28.17    4.76
   1  -8  21   59.46    7.13
   1  -8  22   38.17    6.03
  -1   7  17   72.00    7.43
  -1   7  16   65.82    6.82
  -1   7  15  121.47    9.07
  -1   7  14  100.18    7.98
   1  -7 -13   20.15    2.99
  -1   7  13   21.46    3.25
  -1   7  13   18.04    3.38
   1  -7 -12    4.32    1.50
  -1   7  12    8.02    2.21
   1  -7 -11   71.82    5.37
  -1   7  11   90.98    6.92
   1  -7 -10  170.38    8.34
  -1   7  10  185.19    9.65
   1  -7  -9  135.95    7.24
  -1   7   9  154.95    8.43
   1  -7  -8  154.20    7.43
  -1   7   8  148.60    8.02
   1  -7  -7  285.37   10.11
  -1   7   7  280.88   10.92
   1  -7  -6  284.69    9.89
  -1   7   6  267.65   10.20
  -1   7   6  285.43   10.56
  -1   7   5  199.93    8.52
   1  -7  -5  216.81    8.12
  -1   7   5  206.79    8.60
  -1   7   4  453.34   13.25
   1  -7  -4  433.95   12.04
  -1   7   4  441.20   12.91
  -1   7   3  156.37    7.25
   1  -7  -3  161.94    6.50
  -1   7   3  152.17    6.85
   1  -7  -3  156.76    7.09
  -1   7   2 1523.16   29.43
   1  -7  -2 1517.88   27.63
   1  -7  -2 1547.68   29.01
  -1   7   2 1562.94   28.83
  -1   7   1   72.51    4.59
   1  -7  -1   65.97    3.86
   1  -7  -1   76.41    4.46
  -1   7   1   79.98    4.54
   1  -7   0 1661.92   28.92
  -1   7   0 1632.58   30.37
   1  -7   0 1691.67   29.99
  -1   7   0 1671.61   29.90
   1  -7   1  164.28    6.07
  -1   7  -1  162.43    6.74
  -1   7  -1  173.29    6.65
   1  -7   1  171.41    6.61
  -1   7  -2  573.78   13.99
   1  -7   2  554.75   12.77
  -1   7  -2  545.90   13.34
   1  -7   2  539.07   13.20
  -1   7  -3   71.44    4.26
   1  -7   3   69.84    4.04
  -1   7  -3   68.15    3.97
   1  -7   4  204.00    7.29
  -1   7  -4  209.39    7.60
  -1   7  -4  201.11    7.33
   1  -7   4  199.06    7.45
   1  -7   4  199.50    6.04
  -1   7  -5  280.70    9.14
   1  -7   5  297.57    9.51
  -1   7  -5  270.29    9.13
   1  -7   5  290.62    7.62
  -1   7  -6   12.12    1.91
   1  -7   6    7.83    1.54
   1  -7   6   14.30    1.59
   1  -7   7  289.66   10.07
  -1   7  -7  275.48    8.23
   1  -7   7  273.19    7.85
   1  -7   8  447.17   13.55
   1  -7   8  436.41   11.06
  -1   7  -8  452.61   11.29
  -1   7  -9   -0.05    0.41
   1  -7   9    1.34    0.82
   1  -7  10   89.08    4.84
   1  -7  11    2.98    0.80
   1  -7  12    7.21    1.64
   1  -7  13   30.65    3.38
   1  -7  14   11.84    2.34
   1  -7  15   58.94    5.33
   1  -7  16  347.58   14.21
   1  -7  17   71.26    6.63
   1  -7  18  330.37   15.24
   1  -7  19    4.56    2.15
   1  -7  20  119.33    9.84
   1  -7  21    2.83    2.16
   1  -7  22   27.94    5.28
  -1   6  18    5.41    2.24
  -1   6  17    5.50    2.30
  -1   6  16   61.39    6.45
  -1   6  15   44.78    5.33
   1  -6 -14   99.30    6.87
  -1   6  14  103.88    7.90
   1  -6 -13   63.11    5.31
  -1   6  13   63.58    5.88
  -1   6  13   60.93    5.06
   1  -6 -12  102.49    6.70
  -1   6  12  100.65    4.40
  -1   6  12   99.18    6.49
  -1   6  12  104.78    7.45
   1  -6 -11  110.92    6.83
  -1   6  11  115.42    4.43
  -1   6  11   98.33    6.98
   1  -6 -10   10.06    2.00
  -1   6  10   11.91    1.27
  -1   6  10   11.95    2.48
   1  -6  -9   10.66    1.98
  -1   6   9   14.48    1.24
  -1   6   9   13.73    2.43
   1  -6  -8   39.16    3.68
  -1   6   8   43.39    1.95
  -1   6   8   41.24    4.01
   1  -6  -7   79.77    5.20
  -1   6   7   84.32    5.53
  -1   6   6   50.64    4.00
   1  -6  -6   54.88    4.02
  -1   6   6   55.70    4.21
  -1   6   5   47.29    3.79
   1  -6  -5   40.62    3.39
  -1   6   5   46.81    3.68
   1  -6  -5   46.20    3.85
  -1   6   4  284.41    9.77
   1  -6  -4  289.44    9.23
   1  -6  -4  297.39    9.86
  -1   6   4  276.01    9.33
   1  -6  -3  439.79   11.53
  -1   6   3  437.81   12.38
   1  -6  -3  451.48   12.18
  -1   6   3  420.43   11.66
  -1   6   2  105.70    5.38
   1  -6  -2  103.55    4.82
  -1   6   2  100.24    4.96
   1  -6  -2  103.76    5.10
  -1   6   1 1007.17   20.68
   1  -6  -1 1013.98   19.60
  -1   6   1 1043.59   20.26
   1  -6  -1 1034.91   20.28
  -1   6   0   61.40    3.80
   1  -6   0   63.18    3.50
   1  -6   0   63.53    3.65
  -1   6   0   64.11    3.70
   1  -6   1  842.93   16.67
  -1   6  -1  847.19   17.75
  -1   6  -1  891.53   17.57
   1  -6   1  860.09   17.30
  -1   6  -2    0.47    0.44
   1  -6   2    0.53    0.39
  -1   6  -2    0.81    0.37
   1  -6   2    0.59    0.38
   1  -6   3  957.18   19.25
  -1   6  -3 1049.78   20.04
  -1   6  -3 1023.74   19.28
   1  -6   3 1019.73   19.56
  -1   6  -4   16.88    1.91
   1  -6   4   18.70    2.01
  -1   6  -4   15.19    1.79
   1  -6   4   20.43    1.71
  -1   6  -5  600.09   14.10
   1  -6   5  616.52   14.67
   1  -6   5  646.82   12.80
   1  -6   6   49.80    3.77
  -1   6  -6   50.09    3.10
   1  -6   7  221.75    6.99
  -1   6  -7  230.88    7.11
  -1   6  -8   84.08    4.20
   1  -6   8   80.98    4.19
   1  -6   9  243.12    8.05
  -1   6  -9  236.22    7.75
   1  -6  10   20.24    2.33
   1  -6  11  109.63    5.81
   1  -6  12   32.92    3.37
   1  -6  13   60.57    4.85
   1  -6  14   30.75    3.67
   1  -6  15   47.89    4.88
   1  -6  16   54.97    5.64
   1  -6  17  103.25    8.21
   1  -6  18   89.98    7.84
   1  -6  19   78.90    7.70
   1  -6  20   12.34    3.51
   1  -6  21   54.88    7.06
   1  -6  22   -0.53    1.74
   1  -6  23   61.93    6.97
  -1   5  19   32.05    5.00
  -1   5  18    7.63    2.83
  -1   5  17    7.81    2.61
  -1   5  16    9.03    2.47
   1  -5 -15   16.12    2.85
  -1   5  15   16.99    3.26
   1  -5 -14  107.79    7.34
  -1   5  14  108.50    6.41
  -1   5  14  116.11    8.08
   1  -5 -13  146.23    8.37
  -1   5  13  148.26    6.00
  -1   5  13  137.26    7.28
  -1   5  13  146.96    8.82
   1  -5 -12   29.79    3.62
  -1   5  12   29.40    2.45
  -1   5  12   36.91    3.65
  -1   5  12   31.55    3.94
   1  -5 -11  309.21   11.92
  -1   5  11  327.52    8.54
  -1   5  11  307.72   11.11
  -1   5  11  311.31   12.42
   1  -5 -10   45.88    4.20
  -1   5  10   45.48    2.65
  -1   5  10   45.96    4.34
   1  -5  -9    7.04    1.66
  -1   5   9    8.51    1.08
  -1   5   9    3.78    1.31
  -1   5   8   92.59    5.69
  -1   5   8   85.02    3.43
   1  -5  -7   32.91    5.17
  -1   5   7   25.69    1.91
   1  -5  -6    2.22    0.85
  -1   5   6    4.04    0.54
   1  -5  -6    2.68    0.95
  -1   5   6    3.94    1.04
   1  -5  -5    0.17    0.43
  -1   5   5   -0.05    0.45
  -1   5   5    0.27    0.44
   1  -5  -5    0.10    0.47
  -1   5   4   28.73    2.69
   1  -5  -4   23.24    2.42
   1  -5  -4   24.81    2.48
  -1   5   4   26.18    2.49
  -1   5   3  137.96    6.04
   1  -5  -3  139.71    5.85
  -1   5   3  134.54    5.62
   1  -5  -3  143.14    5.86
  -1   5   2  290.27    9.08
   1  -5  -2  307.96    8.62
   1  -5  -2  304.46    8.68
  -1   5   2  288.87    8.43
  -1   5   1  141.94    5.74
   1  -5  -1  146.42    5.41
   1  -5  -1  151.12    5.52
  -1   5   1  146.83    5.45
  -1   5   0  606.06   13.56
   1  -5   0  622.64   12.98
  -1   5   0  623.69   13.20
   1  -5   0  621.01   13.12
   1  -5   1  105.80    4.24
  -1   5  -1  111.52    4.67
  -1   5  -1  104.07    4.23
   1  -5   1  101.10    4.27
  -1   5  -2 1277.64   22.45
   1  -5   2 1294.53   21.60
  -1   5  -2 1242.89   21.49
  -1   5  -3   35.08    2.54
   1  -5   3   42.57    2.71
  -1   5  -3   35.91    2.48
   1  -5   3   41.48    2.32
   1  -5   4 2315.97   37.10
   1  -5   4 2396.89   35.23
  -1   5  -5   32.14    2.50
   1  -5   5   29.86    2.55
  -1   5  -5   32.38    2.21
   1  -5   5   31.58    2.16
   1  -5   6 1170.65   20.66
  -1   5  -6 1187.38   20.86
  -1   5  -7   29.68    2.30
   1  -5   7   28.80    2.29
   1  -5   8  544.70   12.80
  -1   5  -8  571.86   12.83
  -1   5  -9  136.74    5.64
   1  -5   9  126.16    5.68
   1  -5  10   90.91    5.03
   1  -5  11   34.20    3.29
  -1   5 -12   33.73    3.85
   1  -5  12   32.85    3.46
  -1   5 -13    1.89    1.25
   1  -5  13    2.02    0.94
   1  -5  14   14.28    2.56
   1  -5  15   21.48    5.65
   1  -5  16   96.57    7.58
   1  -5  17  102.41    8.07
   1  -5  18   10.06    2.58
   1  -5  19   92.71    8.53
   1  -5  20   37.36    5.56
   1  -5  21   40.46    6.23
   1  -5  22   62.01    7.01
   1  -5  23    5.22    2.35
   1  -5  23    7.95    2.30
   1  -5  24   29.83    4.64
  -1   4  20   62.63    6.95
  -1   4  19   13.06    2.92
  -1   4  18  103.93    8.43
  -1   4  17   11.74    2.97
   1  -4 -16   56.74    5.56
  -1   4  16   64.84    6.29
   1  -4 -15   50.76    5.12
  -1   4  15   56.81    5.68
  -1   4  15   48.45    3.78
  -1   4  14    1.69    1.32
  -1   4  14    2.94    1.16
   1  -4 -14    2.10    1.43
  -1   4  14    3.73    1.00
   1  -4 -13  128.65    7.93
  -1   4  13  123.98    5.57
  -1   4  13  128.69    6.53
  -1   4  13  106.19    7.35
   1  -4 -12  211.09    9.92
  -1   4  12  237.55    7.61
  -1   4  12  217.61    8.67
  -1   4  12  234.32   10.53
   1  -4 -11  187.27    8.96
  -1   4  11  196.94    6.43
  -1   4  11  201.65    9.34
  -1   4  11  179.40    7.65
   1  -4 -10  172.80    8.35
  -1   4  10  188.70    5.93
  -1   4  10  176.68    7.38
  -1   4  10  182.01    8.51
   1  -4  -9  195.11    9.08
  -1   4   9  166.80    5.62
  -1   4   9  171.72    7.97
   1  -4  -8   25.89    2.99
  -1   4   8   29.49    3.06
  -1   4   8   24.19    1.75
   1  -4  -7   79.44    4.90
   1  -4  -7   87.67    5.24
  -1   4   7   83.15    4.88
  -1   4   7   87.40    3.14
   1  -4  -7   83.61    5.10
   1  -4  -6   39.22    3.30
  -1   4   6   33.43    2.90
   1  -4  -6   36.67    3.19
  -1   4   6   36.12    1.83
   1  -4  -6   31.46    2.97
   1  -4  -5  165.39    6.68
  -1   4   5  164.58    4.03
   1  -4  -5  162.70    6.56
  -1   4   5  163.18    6.44
  -1   4   4   58.02    3.65
   1  -4  -4   57.33    3.73
   1  -4  -4   67.08    3.79
  -1   4   4   59.13    3.50
  -1   4   3    4.85    1.08
   1  -4  -3    7.31    1.25
  -1   4   3    5.45    1.00
   1  -4  -3    5.73    1.02
   1  -4  -2    0.32    0.29
  -1   4   2    0.83    0.47
   1  -4  -2    0.86    0.50
  -1   4   2    0.83    0.48
  -1   4   1   40.93    2.77
   1  -4  -1   43.75    2.67
   1  -4  -1   43.58    2.55
  -1   4   1   45.95    2.62
  -1   4   0   59.73    3.17
   1  -4   0   56.17    2.92
   1  -4   0   58.17    2.92
  -1   4   0   59.62    2.97
  -1   4  -1  122.23    4.50
   1  -4   1  120.85    4.22
  -1   4  -1  113.48    3.92
   1  -4   1  117.79    4.29
   1  -4   2    6.88    0.95
  -1   4  -2    5.20    0.90
   1  -4   2    6.35    0.91
  -1   4  -2    6.35    0.88
  -1   4  -3  572.63   12.67
   1  -4   3  622.04   12.70
  -1   4  -4  117.95    4.46
  -1   4  -4  116.64    4.09
   1  -4   4  116.93    3.99
   1  -4   5 1719.75   27.55
  -1   4  -5 1728.24   27.72
   1  -4   6    2.14    0.63
  -1   4  -6    1.42    0.51
  -1   4  -7 1010.77   18.61
   1  -4   7  971.91   18.66
  -1   4  -8    0.83    0.60
   1  -4   8    0.85    0.61
  -1   4  -9  913.75   18.20
   1  -4   9  842.87   18.53
  -1   4 -10   58.35    4.61
   1  -4  10   52.86    3.91
  -1   4 -11  367.26   12.87
   1  -4  11  357.56   11.69
  -1   4 -12  162.21    8.56
   1  -4  12  167.44    8.11
  -1   4 -13    3.19    1.42
   1  -4  13    3.56    1.41
  -1   4 -14  181.43    9.78
   1  -4  14  176.05    9.33
   1  -4  15    1.54    1.57
   1  -4  16    2.13    1.89
   1  -4  17    1.18    1.23
   1  -4  18   22.85    4.26
   1  -4  19    0.50    1.27
   1  -4  20   48.38    6.41
   1  -4  21   24.07    4.23
   1  -4  21   28.16    5.41
   1  -4  22   55.56    6.68
   1  -4  23   16.30    3.58
   1  -4  23   22.62    3.73
  -1   3  21    3.90    1.83
  -1   3  20   45.23    5.84
  -1   3  19   49.52    5.94
  -1   3  18   23.10    3.98
   1  -3 -17  138.20    9.02
  -1   3  17  140.42    9.31
   1  -3 -16   47.02    5.17
  -1   3  16   52.70    4.21
  -1   3  16   56.98    5.73
   1  -3 -15  191.47   10.26
  -1   3  15  206.04    8.27
  -1   3  15  200.54   10.52
   1  -3 -14   98.69    7.09
  -1   3  14  118.93    5.82
  -1   3  14  102.90    7.20
   1  -3 -13   83.72    6.37
  -1   3  13   94.18    4.88
  -1   3  13   87.07    6.33
   1  -3 -12  177.93    9.01
  -1   3  12  204.60    7.02
  -1   3  12  185.63    7.34
  -1   3  12  180.91    8.91
   1  -3 -11   39.33    4.12
  -1   3  11   45.02    2.97
  -1   3  11   46.13    3.45
  -1   3  11   45.08    4.43
   1  -3 -10  352.94   12.29
  -1   3  10  357.38    9.10
  -1   3  10  346.03   10.23
  -1   3  10  355.67   11.96
   1  -3  -9  243.31    9.53
  -1   3   9  242.39    9.20
  -1   3   9  241.77    7.99
  -1   3   9  251.22    6.88
   1  -3  -8  420.22   12.76
  -1   3   8  451.26   12.53
  -1   3   8  453.48    9.55
   1  -3  -8  431.00   12.70
   1  -3  -7   91.05    5.17
  -1   3   7   96.64    5.02
  -1   3   7   97.95    3.47
   1  -3  -7  103.82    5.46
   1  -3  -6  234.67    8.37
  -1   3   6  221.60    7.61
   1  -3  -6  238.34    8.23
  -1   3   6  251.18    5.74
   1  -3  -6  237.56    8.27
   1  -3  -5   90.16    4.70
  -1   3   5   91.40    2.93
  -1   3   5   92.63    4.37
   1  -3  -5   94.92    4.52
   1  -3  -4   16.64    1.85
  -1   3   4   16.03    1.78
  -1   3   4   17.53    1.12
  -1   3   4   17.43    1.72
   1  -3  -4   17.07    1.74
   1  -3  -3  366.53    9.57
  -1   3   3  360.36    9.39
   1  -3  -3  380.94    6.15
  -1   3   3  362.54    6.85
   1  -3  -3  386.11    8.93
  -1   3   3  375.83    8.81
  -1   3   2  284.24    7.86
   1  -3  -2  290.69    7.91
   1  -3  -2  296.69    7.15
  -1   3   2  287.89    7.10
   1  -3  -1  199.12    5.90
  -1   3   1  205.57    6.18
   1  -3  -1  214.03    5.65
  -1   3   1  215.75    5.64
  -1   3   0  930.27   16.64
   1  -3   0  917.24   16.18
  -1   3   0  929.92   16.01
   1  -3   0  930.60   15.91
  -1   3  -1   10.23    1.11
   1  -3   1   10.41    1.08
  -1   3  -1   10.04    0.89
   1  -3   1   11.77    0.96
   1  -3   2  394.06    7.86
   1  -3   2  354.98    7.68
   1  -3   2  385.66    7.51
  -1   3  -3    8.21    1.00
  -1   3  -3    7.57    0.90
   1  -3   3    7.06    0.84
  -1   3  -4  210.80    5.60
   1  -3   4  202.94    5.42
   1  -3   5   66.36    3.04
  -1   3  -5   64.94    3.00
   1  -3   6  540.48   11.77
  -1   3  -6  580.22   11.86
  -1   3  -7    2.08    0.84
   1  -3   7    2.22    0.67
  -1   3  -7    2.85    0.76
  -1   3  -8 1444.72   28.10
   1  -3   8 1403.30   25.85
  -1   3  -8 1443.88   25.39
  -1   3  -9   12.36    2.04
  -1   3  -9   10.63    1.53
   1  -3   9   11.36    1.76
  -1   3 -10  954.41   22.29
   1  -3  10  919.56   20.56
  -1   3 -11    6.10    1.52
   1  -3  11    9.45    1.90
  -1   3 -12  467.51   15.45
   1  -3  12  453.80   14.53
  -1   3 -13  126.40    7.86
   1  -3  13  137.40    7.97
  -1   3 -14   96.28    6.99
   1  -3  14   86.94    6.62
   1  -3  15   48.21    5.17
   1  -3  16   10.01    2.45
   1  -3  17   37.97    5.42
   1  -3  18    2.20    1.86
   1  -3  19    5.67    2.17
   1  -3  19    2.43    1.40
   1  -3  20    0.89    1.08
   1  -3  20    2.81    1.88
   1  -3  21   10.93    2.90
   1  -3  22   22.70    4.21
   1  -3  22   21.16    3.50
   1  -3  23   31.58    5.19
  -1   2  22   14.40    3.44
  -1   2  21   16.76    3.71
  -1   2  20   11.98    3.14
  -1   2  19   47.85    5.62
  -1   2  18   20.83    3.59
   1  -2 -18   23.15    3.90
  -1   2  18   17.79    2.83
   1  -2 -17   33.01    4.52
  -1   2  17   35.50    3.69
  -1   2  17   28.73    4.12
   1  -2 -16   88.95    7.17
  -1   2  16  106.52    6.25
  -1   2  16  100.44    7.41
   1  -2 -15   24.23    3.59
  -1   2  15   28.91    3.00
  -1   2  15   27.21    3.77
   1  -2 -14  162.31    9.13
  -1   2  14  188.21    7.51
  -1   2  14  191.37    9.49
   1  -2 -13   99.71    6.82
  -1   2  13  101.76    5.13
  -1   2  13  104.31    6.69
   1  -2 -12  116.90    7.18
  -1   2  12  123.85    7.04
  -1   2  12  137.56    5.69
  -1   2  11  346.43   11.82
  -1   2  11  353.91    9.54
  -1   2  10   65.97    4.66
  -1   2  10   82.90    4.47
  -1   2  10   71.47    3.80
  -1   2   9  830.89   16.60
  -1   2   9  811.30   18.73
  -1   2   9  869.00   15.99
  -1   2   8  242.57    8.40
  -1   2   8  241.72    7.02
  -1   2   8  252.18    6.62
   1  -2  -8  237.97    8.66
   1  -2  -7 1304.23   25.60
  -1   2   7 1279.86   22.09
  -1   2   7 1287.90   24.15
  -1   2   7 1320.87   21.38
   1  -2  -7 1314.22   25.10
   1  -2  -6   57.14    3.78
  -1   2   6   56.68    3.35
  -1   2   6   64.45    2.64
   1  -2  -6   57.66    3.68
   1  -2  -5   39.35    2.96
  -1   2   5   37.87    1.86
  -1   2   5   37.01    2.44
   1  -2  -5   41.51    2.69
   1  -2  -4  134.92    5.29
   1  -2  -4  148.71    4.86
  -1   2   4  143.83    4.71
  -1   2   4  134.59    3.67
   1  -2  -3    1.25    0.59
  -1   2   3    0.03    0.26
  -1   2   3    0.94    0.36
   1  -2  -3    0.67    0.31
  -1   2   3    0.92    0.30
   1  -2  -3    1.00    0.28
  -1   2   2    6.97    1.00
   1  -2  -2    6.43    0.98
  -1   2   2    6.30    0.64
   1  -2  -2    6.04    0.61
  -1   2   2    6.57    0.78
   1  -2  -2    7.01    0.80
  -1   2  -2    5.63    0.70
  -1   2  -3  210.67    5.03
   1  -2   3  201.80    4.96
  -1   2  -3  195.37    4.98
   1  -2   4   12.98    1.19
  -1   2  -4   11.74    1.14
  -1   2  -5   79.13    4.18
  -1   2  -5   82.34    3.41
   1  -2   5   79.39    3.40
  -1   2  -6   28.47    2.64
   1  -2   6   30.92    2.26
  -1   2  -6   28.38    2.10
  -1   2  -7  314.78   10.09
   1  -2   7  314.71    8.86
  -1   2  -7  321.17    8.54
  -1   2  -8  229.11    8.84
   1  -2   8  237.99    7.99
  -1   2  -8  241.03    7.55
  -1   2  -9  489.00   14.30
   1  -2   9  501.80   13.35
  -1   2  -9  503.53   12.45
  -1   2 -10   23.71    2.93
   1  -2  10   25.57    2.96
  -1   2 -11  810.62   20.72
   1  -2  11  794.80   20.06
   1  -2  12   19.74    3.20
   1  -2  13  427.27   15.06
   1  -2  14   72.96    6.15
   1  -2  15  147.92    9.37
   1  -2  16  219.86   12.08
   1  -2  17   31.55    4.81
   1  -2  18   79.25    7.14
   1  -2  18   91.50    8.35
   1  -2  19   17.43    3.49
   1  -2  20   56.89    6.49
   1  -2  21    9.37    2.79
   1  -2  22    2.39    1.92
   1  -2  23    3.68    2.15
  -1   1  22    8.06    2.62
  -1   1  21   32.18    4.78
  -1   1  20   29.72    4.46
   1  -1 -19   28.25    4.30
  -1   1  19   32.01    3.87
  -1   1  19   29.54    4.30
   1  -1 -18   32.14    4.46
  -1   1  18   41.32    4.96
  -1   1  18   48.21    4.51
  -1   1  17    6.75    1.87
  -1   1  17   10.51    2.05
  -1   1  16    4.73    1.81
  -1   1  16    3.78    1.25
  -1   1  15   52.40    4.92
  -1   1  15   52.67    4.15
  -1   1  14    0.66    0.88
  -1   1  14    0.27    0.62
  -1   1  13  166.28    8.31
  -1   1  13  166.41    6.84
  -1   1  12   20.87    2.75
  -1   1  12   26.80    2.53
  -1   1  11  257.22    9.63
  -1   1  11  257.66    7.94
  -1   1  10  154.60    6.91
  -1   1  10  149.61    5.67
  -1   1   9   20.30    2.29
   1  -1  -9   20.36    2.37
  -1   1   9   19.25    1.81
  -1   1   8 2303.51   38.86
   1  -1  -8 2323.16   39.71
  -1   1   8 2416.04   36.65
  -1   1   7  330.82    9.00
  -1   1   7  329.29    7.73
   1  -1  -7  320.17    9.50
  -1   1   6 1322.90   23.14
  -1   1   6 1344.36   20.77
  -1   1   6 1360.77   21.63
   1  -1  -6 1326.55   24.20
  -1   1   5   52.91    2.66
  -1   1   5   49.73    2.26
   1  -1  -5   48.38    2.97
  -1   1   4  212.98    5.46
   1  -1  -4  216.15    5.62
  -1   1   4  228.57    5.18
   1  -1  -3  206.12    4.92
  -1   1   3  207.83    4.93
   1  -1  -3  209.58    4.51
  -1   1   3  213.80    4.85
   1  -1   3   50.82    2.91
  -1   1  -3   59.69    3.18
  -1   1  -3   52.67    2.25
   1  -1   3   55.37    2.26
  -1   1  -4  107.43    4.74
   1  -1   4  107.73    4.63
   1  -1   4  113.22    3.83
  -1   1  -4  111.96    3.76
  -1   1  -5   67.80    4.01
   1  -1   5   70.49    3.92
  -1   1  -5   71.18    3.19
   1  -1   5   71.15    3.29
  -1   1  -6    1.27    0.81
   1  -1   6    1.25    0.71
   1  -1   6    0.84    0.54
  -1   1  -6    1.09    0.48
   1  -1   7  473.34   12.64
  -1   1  -7  461.66   13.01
   1  -1   7  461.25   11.72
  -1   1  -7  485.32   11.23
  -1   1  -8    5.08    1.07
   1  -1   8    3.76    1.11
  -1   1  -9   95.42    4.85
   1  -1   9   97.68    5.46
   1  -1  10  289.61   10.58
   1  -1  11   43.40    4.13
   1  -1  12  302.51   12.11
   1  -1  13   14.45    2.92
   1  -1  14  164.77    9.63
   1  -1  15    2.41    2.02
   1  -1  16  104.68    7.83
   1  -1  16  111.35    8.57
   1  -1  17   28.43    4.27
   1  -1  17   19.57    3.71
   1  -1  18   26.94    4.17
   1  -1  19   78.18    7.39
   1  -1  20   26.92    4.57
   1  -1  21   75.58    7.77
   1  -1  22   18.80    4.09
  -1   0  22   18.38    3.87
  -1   0  21   22.54    3.96
  -1   0  20   58.80    6.14
  -1   0  20   65.59    5.94
  -1   0  19   49.54    5.42
  -1   0  19   50.21    4.87
  -1   0  18  145.74    9.22
  -1   0  18  168.60    8.70
  -1   0  17   14.83    2.76
  -1   0  17   17.86    2.69
  -1   0  16   11.54    2.76
  -1   0  16   12.64    2.21
  -1   0  15    3.07    1.27
  -1   0  15    4.67    1.42
  -1   0  14    3.92    1.72
  -1   0  14    3.29    1.31
  -1   0  13   10.28    1.98
  -1   0  13   12.75    1.89
  -1   0  12   97.34    5.76
  -1   0  12  108.95    5.21
  -1   0  11    3.04    1.01
  -1   0  11    3.35    0.92
  -1   0  10   54.42    3.80
  -1   0  10   57.00    3.38
  -1   0   9  332.15    9.75
  -1   0   9  339.94    8.83
   1   0  -9  342.86   10.20
  -1   0   8  578.47   13.09
  -1   0   8  578.69   12.10
   1   0  -8  578.09   13.65
  -1   0   7  690.74   14.06
  -1   0   7  707.58   13.40
   1   0  -7  675.53   14.81
   1   0  -6   23.86    1.39
  -1   0   6   22.44    1.77
  -1   0   6   23.90    1.69
   1   0  -6   22.47    2.02
  -1   0   5 1192.78   19.39
  -1   0   5 1191.53   19.39
   1   0  -5 1195.78   20.86
  -1   0   4  172.37    4.18
  -1   0   4  166.69    4.50
   1   0  -4  170.27    5.11
   1   0  -3 3606.54   49.49
  -1   0   3 3553.31   49.41
   1   0  -3 3482.12   50.28
  -1   0   3 3556.04   50.72
   1   0   2    2.99    0.70
   1   0   2    3.16    0.46
  -1   0  -2    3.50    0.50
   1   0   3  159.44    5.74
   1   0   3  158.73    4.37
  -1   0  -3  161.17    4.34
   1   0   4  745.03   16.04
  -1   0  -4  773.92   13.83
   1   0   4  754.82   13.95
   1   0   5  126.08    5.68
  -1   0  -5  130.12    4.59
   1   0   5  128.69    4.77
   1   0   6   48.18    3.60
  -1   0  -6   54.22    3.07
   1   0   6   52.52    3.26
   1   0   7  765.95   18.09
   1   0   7  789.44   17.06
  -1   0  -7  807.10   16.24
   1   0   8   24.44    2.77
  -1   0  -8   25.66    2.38
   1   0   8   25.71    2.69
   1   0   9    7.11    1.55
   1   0   9    7.84    1.63
   1   0  10  127.66    7.02
   1   0  10  118.94    7.56
   1   0  11  191.70    9.31
   1   0  12  172.31    9.05
   1   0  13  125.90    8.20
   1   0  14  114.31    7.78
   1   0  14  111.69    8.11
   1   0  15  114.10    8.00
   1   0  15  116.46    8.61
   1   0  16   23.44    3.83
   1   0  17   48.63    5.50
   1   0  18    2.01    1.80
   1   0  19   14.98    3.41
   1   0  20   34.49    5.06
   1   0  21   16.44    3.86
  -1  -1  22   52.38    6.01
  -1  -1  21   17.62    3.40
  -1  -1  21   15.49    3.00
  -1  -1  20   39.46    4.98
  -1  -1  20   45.48    4.91
  -1  -1  19   67.45    6.22
  -1  -1  19   76.55    6.00
  -1  -1  18   27.83    3.94
  -1  -1  18   29.66    3.65
  -1  -1  17   72.18    5.89
  -1  -1  17   71.71    5.34
  -1  -1  16   30.55    3.69
  -1  -1  16   30.59    3.36
  -1  -1  15  250.69   10.49
  -1  -1  15  250.73    9.54
  -1  -1  14   22.76    3.14
  -1  -1  14   23.09    2.93
  -1  -1  13    0.83    0.88
  -1  -1  13    2.32    1.03
  -1  -1  12   31.49    3.06
  -1  -1  12   32.20    2.90
  -1  -1  11    3.32    1.01
   1   1 -11    4.75    1.07
  -1  -1  11    3.78    1.16
   1   1 -10   33.27    2.54
  -1  -1  10   39.34    3.67
   1   1 -10   35.90    3.00
   1   1  -9  111.86    4.47
  -1  -1   9  117.99    6.14
   1   1  -9  115.79    5.29
   1   1  -8    7.47    1.00
  -1  -1   8    7.54    1.37
   1   1  -8    6.19    1.15
  -1  -1   7    2.82    0.93
   1   1  -7    3.10    0.74
  -1  -1   7    2.70    0.69
   1   1  -6   17.33    1.63
  -1  -1   6   19.95    1.62
  -1  -1   6   22.81    2.10
   1   1  -5   19.53    1.60
  -1  -1   5   18.57    1.47
  -1  -1   5   16.72    1.65
  -1  -1   4 2329.58   34.60
  -1  -1   4 2257.55   34.93
   1   1  -4 2338.81   34.57
   1   1  -3  151.49    4.00
  -1  -1   3  155.62    4.29
   1   1  -3  154.27    3.93
  -1  -1  -1   57.68    1.81
   1   1   1   58.35    1.83
   1   1   2  333.46    6.73
  -1  -1  -2  329.14    6.68
  -1  -1  -3   43.62    2.19
   1   1   3   43.82    2.32
  -1  -1  -4    4.24    0.68
   1   1   4    3.84    0.77
   1   1   5  512.18   11.78
  -1  -1  -5  507.12   11.10
   1   1   6   93.25    5.26
  -1  -1  -6   91.63    4.19
   1   1   6   96.06    4.74
   1   1   7  474.64   13.75
  -1  -1  -7  476.14   11.79
   1   1   7  498.26   13.01
   1   1   8   29.09    3.11
   1   1   8   27.57    2.88
  -1  -1  -8   29.19    2.60
   1   1   9   46.25    4.72
   1   1   9   42.29    4.21
   1   1  10   79.71    5.85
   1   1  10  115.11    6.78
   1   1  11   64.34    5.22
   1   1  11   60.87    5.12
   1   1  11   57.92    5.04
   1   1  12   50.35    4.68
   1   1  12   44.75    4.56
   1   1  12   50.78    5.03
   1   1  13  168.65    9.33
   1   1  13  166.43    9.59
   1   1  14   45.11    4.85
   1   1  15  139.49    9.07
  -1  -1 -15  127.66    7.19
   1   1  16   46.09    5.30
   1   1  17   62.66    6.49
   1   1  18   15.54    3.41
   1   1  19    2.61    1.62
   1   1  20   18.15    4.31
  -1  -2  22   11.35    2.85
  -1  -2  22    5.80    2.09
  -1  -2  21   42.89    5.18
  -1  -2  21   36.93    4.65
  -1  -2  20    2.82    1.65
  -1  -2  20    0.67    0.87
  -1  -2  19   56.98    5.57
  -1  -2  19   53.09    5.08
  -1  -2  18    2.53    1.63
  -1  -2  18    1.42    1.33
  -1  -2  17   74.12    5.79
  -1  -2  17   82.81    5.76
  -1  -2  16   88.99    6.27
  -1  -2  16   84.62    5.64
  -1  -2  15  171.03    8.37
  -1  -2  15  153.90    7.44
   1   2 -14   55.62    4.11
  -1  -2  14   55.12    4.47
  -1  -2  14   61.26    4.36
  -1  -2  14   60.56    5.63
   1   2 -13   17.44    2.21
  -1  -2  13   20.16    2.44
  -1  -2  13   18.06    2.90
   1   2 -12   11.20    1.68
  -1  -2  12   11.77    2.25
   1   2 -11   41.17    3.09
  -1  -2  11   34.65    3.58
   1   2 -10    6.24    1.18
   1   2 -10    5.64    1.11
  -1  -2  10    5.58    1.40
  -1  -2   9   82.42    4.95
   1   2  -9   90.14    4.40
   1   2  -8  104.43    4.49
  -1  -2   8  104.11    5.16
  -1  -2   7    9.41    1.25
  -1  -2   7   12.08    1.59
   1   2  -7   10.34    1.25
  -1  -2   6    3.74    0.83
   1   2  -6    2.43    0.57
  -1  -2   6    3.30    0.71
   1   2  -5    5.17    0.71
  -1  -2   5    5.25    0.83
  -1  -2   5    4.41    0.79
  -1  -2   4  529.00   10.55
   1   2  -4  520.72    9.38
  -1  -2   4  539.59    9.97
  -1  -2   3 1517.77   25.05
  -1  -2   3 1629.14   25.71
   1   2  -3 1600.06   25.73
   1   2  -3 1645.92   24.70
   1   2  -3 1671.75   23.38
  -1  -2   3 1552.47   23.84
  -1  -2   2   39.07    1.42
   1   2  -2   39.04    1.37
   1   2  -2   38.50    2.02
  -1  -2   2   36.90    2.02
   1   2  -2   39.47    1.90
  -1  -2   2   35.13    1.96
   1   2  -1 3788.00   52.36
  -1  -2   1 3702.24   53.57
   1   2  -1 3782.78   53.12
   1   2   0   23.09    1.52
  -1  -2   0   19.39    1.47
   1   2   0   20.53    1.44
   1   2   1 1886.26   29.37
   1   2   1 1878.27   28.59
   1   2   1 1851.29   27.45
  -1  -2  -1 1837.50   27.11
   1   2   2    1.35    0.58
  -1  -2  -2    1.20    0.39
   1   2   2    0.97    0.47
   1   2   3  458.99   11.09
   1   2   3  456.24   10.05
  -1  -2  -3  459.06    9.44
   1   2   4   53.92    3.50
  -1  -2  -4   52.94    2.83
   1   2   4   56.97    3.30
   1   2   5  478.97   12.87
  -1  -2  -5  505.09    9.43
  -1  -2  -5  514.95   11.49
   1   2   5  507.80   12.25
   1   2   6  145.73    6.57
  -1  -2  -6  146.71    4.53
   1   2   6  149.16    6.35
  -1  -2  -6  144.07    5.63
   1   2   7    1.94    0.94
  -1  -2  -7    1.43    0.43
   1   2   7    2.26    0.99
  -1  -2  -7    1.19    0.52
   1   2   8  455.05   13.87
   1   2   8  472.51   14.49
  -1  -2  -8  470.47   10.95
   1   2   8  486.65   13.94
  -1  -2  -8  487.64   12.66
   1   2   9   33.05    3.55
   1   2   9   24.26    3.52
  -1  -2  -9   25.00    2.39
   1   2   9   32.26    3.55
   1   2  10   73.37    5.54
   1   2  10   82.31    5.91
  -1  -2 -10   78.22    4.29
   1   2  10   75.03    5.60
  -1  -2 -11   22.33    2.38
   1   2  11   22.79    3.17
   1   2  11   22.38    3.19
  -1  -2 -12    5.81    1.28
   1   2  12    5.05    1.54
   1   2  12    7.50    2.04
  -1  -2 -13   19.40    2.49
   1   2  13   14.56    2.75
   1   2  13   25.46    3.52
  -1  -2 -14   84.05    5.39
   1   2  14   90.15    6.71
   1   2  14   80.25    6.71
   1   2  15   13.70    2.94
   1   2  16   82.46    7.31
   1   2  17   24.08    4.15
   1   2  18   46.85    5.88
   1   2  19   14.97    3.68
   1   2  20   19.98    4.15
  -1  -3  23   55.36    6.26
  -1  -3  22   15.93    3.37
  -1  -3  21   40.39    4.91
  -1  -3  21   44.06    5.16
  -1  -3  20   53.61    5.56
  -1  -3  20   45.51    5.02
  -1  -3  19   45.89    4.92
  -1  -3  19   50.22    4.96
  -1  -3  18  167.31    9.17
  -1  -3  18  176.69    9.01
  -1  -3  17    5.24    1.92
  -1  -3  17    3.36    1.61
  -1  -3  16   94.76    6.26
   1   3 -16   88.84    5.86
  -1  -3  16  101.53    6.24
  -1  -3  16   85.35    7.31
   1   3 -15    5.21    1.44
  -1  -3  15    6.90    1.67
   1   3 -14  181.53    7.95
  -1  -3  14  182.15    9.85
  -1  -3  14  192.50    8.11
   1   3 -13  121.42    6.16
  -1  -3  13  130.40    7.77
   1   3 -12  180.25    7.29
  -1  -3  12  186.38    8.90
  -1  -3  11  226.68    9.31
  -1  -3  10   46.43    3.81
   1   3 -10   47.13    3.21
   1   3  -9  112.41    4.76
  -1  -3   9  110.28    5.55
   1   3  -8    0.17    0.44
  -1  -3   8    0.65    0.45
   1   3  -7    9.60    1.16
  -1  -3   7    8.75    1.25
  -1  -3   7    9.52    1.33
   1   3  -6  194.88    5.34
  -1  -3   6  210.17    6.02
  -1  -3   6  201.00    6.12
  -1  -3   5   40.72    2.87
  -1  -3   5   39.46    2.48
  -1  -3   5   39.17    2.11
   1   3  -5   36.45    1.81
  -1  -3   4    1.98    0.37
  -1  -3   4    1.75    0.63
   1   3  -4    4.72    0.98
  -1  -3   4    1.49    0.51
  -1  -3   4    1.77    0.40
   1   3  -4    1.59    0.33
  -1  -3   3  366.63    6.99
   1   3  -3  380.95    6.99
  -1  -3   3  374.45    8.37
   1   3  -3  379.27    8.88
  -1  -3   3  360.47    8.83
   1   3  -3  391.01    7.87
   1   3  -3  376.00    6.26
  -1  -3   3  389.31    6.45
  -1  -3   2    7.56    0.78
   1   3  -2    7.07    0.75
   1   3  -2    6.50    0.98
  -1  -3   2    7.17    0.93
   1   3  -2    7.44    0.82
   1   3  -1  148.90    4.29
  -1  -3   1  148.69    4.40
   1   3  -1  151.40    4.18
  -1  -3   1  148.34    4.61
  -1  -3   0   90.93    3.70
   1   3   0   91.16    3.55
   1   3   0   88.53    3.17
  -1  -3   0   85.82    3.43
  -1  -3   0   92.92    2.53
   1   3   1  190.03    4.22
   1   3   1  190.11    5.91
   1   3   1  180.77    4.99
  -1  -3  -1  186.96    4.59
   1   3   2 1171.77   18.08
   1   3   2 1172.82   21.51
   1   3   2 1162.87   19.55
  -1  -3  -2 1185.78   19.35
   1   3   3   31.62    2.62
  -1  -3  -3   32.99    1.29
   1   3   3   30.26    1.53
  -1  -3  -3   28.64    2.02
   1   3   4 1881.27   32.79
  -1  -3  -4 1886.85   27.40
  -1  -3  -4 1851.43   30.59
   1   3   5  162.01    6.96
  -1  -3  -5  167.21    4.38
  -1  -3  -5  169.24    5.98
   1   3   6  456.03   13.24
  -1  -3  -6  456.98    9.51
  -1  -3  -6  486.08   11.77
   1   3   7  316.08   11.02
  -1  -3  -7  323.96    7.99
  -1  -3  -7  329.89    9.87
   1   3   8   33.15    3.54
  -1  -3  -8   32.49    2.44
   1   3   9  296.14   11.86
   1   3   9  279.59   11.15
  -1  -3  -9  294.80    8.35
   1   3  10   40.04    4.15
   1   3  10   39.74    4.24
  -1  -3 -10   43.89    3.10
   1   3  11  115.89    7.55
   1   3  11  112.81    7.44
  -1  -3 -11  119.31    5.53
   1   3  12  105.30    7.40
   1   3  12  100.33    7.17
  -1  -3 -12  100.24    5.25
   1   3  13    6.45    1.91
   1   3  13    7.73    2.05
  -1  -3 -13    6.72    1.51
   1   3  14   27.56    3.83
   1   3  14   22.76    3.74
   1   3  15    1.92    1.70
   1   3  15    2.99    1.57
   1   3  16   39.74    5.05
   1   3  17   33.73    4.98
   1   3  18   27.50    4.67
   1   3  19   46.47    6.16
  -1  -4  24    0.22    1.62
  -1  -4  23    7.85    2.53
  -1  -4  22   32.51    4.70
  -1  -4  21   17.17    3.15
  -1  -4  21   23.85    3.92
  -1  -4  20   82.77    6.68
  -1  -4  20   87.44    6.80
  -1  -4  19   35.50    4.20
  -1  -4  19   37.44    4.36
  -1  -4  18   89.97    6.49
  -1  -4  18   81.07    6.21
  -1  -4  17  143.67    7.86
  -1  -4  17  127.42    9.20
  -1  -4  16  131.46    8.95
  -1  -4  16  127.38    7.39
   1   4 -15  329.30   11.83
  -1  -4  15  355.45   12.04
  -1  -4  15  331.44   13.96
   1   4 -14    8.19    1.66
  -1  -4  14    8.17    2.16
  -1  -4  14   11.63    2.08
  -1  -4  13  559.76   17.07
  -1  -4  12   58.44    4.77
   1   4 -11  481.57   12.13
  -1  -4  11  482.32   14.09
   1   4 -10   75.62    3.97
  -1  -4  10   75.05    4.71
  -1  -4   9   17.00    2.07
   1   4  -9   14.80    1.60
  -1  -4   8   93.30    4.43
   1   4  -8   96.34    3.89
  -1  -4   7    9.63    1.35
  -1  -4   7   10.46    1.32
   1   4  -7    8.07    1.01
  -1  -4   6    1.99    0.85
   1   4  -6    1.50    0.46
  -1  -4   6    1.27    0.45
  -1  -4   6    0.91    0.48
  -1  -4   5   40.66    2.00
  -1  -4   5   42.41    3.06
  -1  -4   5   37.39    2.54
   1   4  -5   46.12    1.98
  -1  -4   5   42.00    2.06
  -1  -4   4   38.33    1.90
  -1  -4   4   34.92    2.62
   1   4  -4   38.96    2.72
  -1  -4   4   34.78    2.30
   1   4  -4   37.67    1.54
  -1  -4   4   37.50    1.60
   1   4  -3  267.95    6.11
  -1  -4   3  265.56    6.15
   1   4  -3  261.31    7.59
  -1  -4   3  265.58    6.94
  -1  -4   3  251.25    7.62
   1   4  -3  273.54    6.29
  -1  -4   3  265.53    4.76
   1   4  -2    4.14    0.74
  -1  -4   2    3.06    0.64
   1   4  -2    3.46    0.92
  -1  -4   2    3.51    0.86
   1   4  -2    2.72    0.58
  -1  -4   1  101.64    3.88
   1   4  -1  106.33    3.42
   1   4  -1  105.94    3.93
  -1  -4   1  104.54    4.03
   1   4   0  180.92    4.71
  -1  -4   0  177.10    5.89
   1   4   0  167.67    5.57
  -1  -4   0  177.88    5.42
   1   4   0  182.96    4.79
   1   4   1   96.09    3.21
  -1  -4  -1   94.66    4.50
   1   4   1   91.99    4.25
   1   4   1   89.86    3.23
  -1  -4  -1   96.60    3.39
   1   4   2  523.54   10.18
   1   4   2  543.75   12.80
   1   4   2  539.96   10.51
  -1  -4  -2  535.96   10.92
  -1  -4  -3  493.58    8.60
   1   4   3  474.28    9.57
   1   4   3  471.20   12.40
   1   4   3  459.67    9.97
  -1  -4  -3  494.42   10.78
   1   4   4  251.87    8.75
   1   4   4  224.31    5.77
  -1  -4  -4  231.01    5.13
  -1  -4  -4  238.62    7.25
   1   4   5  807.33   18.86
  -1  -4  -5  805.69   13.68
  -1  -4  -5  819.59   16.79
  -1  -4  -6  315.83    6.99
  -1  -4  -6  325.79    9.45
   1   4   7  428.32   13.85
  -1  -4  -7  460.89    9.81
  -1  -4  -7  468.02   12.46
   1   4   8   51.05    4.49
  -1  -4  -8   42.80    2.54
   1   4   9  155.91    8.38
  -1  -4  -9  157.47    5.51
   1   4  10  122.75    7.95
   1   4  10  111.67    7.28
  -1  -4 -10  122.14    5.06
   1   4  11  101.86    7.41
   1   4  11  115.43    7.68
  -1  -4 -11  110.77    5.03
   1   4  12   77.04    6.48
   1   4  12   61.06    5.69
  -1  -4 -12   63.89    3.90
   1   4  13   28.14    4.00
   1   4  13   30.19    4.21
   1   4  14   41.19    4.88
   1   4  14   41.67    5.13
   1   4  15   32.86    4.76
   1   4  15   36.99    4.62
   1   4  16    6.22    2.55
   1   4  17   20.31    4.17
   1   4  18   -0.32    1.31
  -1  -5  24   15.68    3.52
  -1  -5  23    0.67    1.41
  -1  -5  22    4.93    1.96
  -1  -5  21   -0.56    1.12
  -1  -5  21    2.71    1.94
  -1  -5  20    4.76    1.54
  -1  -5  20    3.51    1.51
  -1  -5  19   53.93    5.13
  -1  -5  19   57.95    5.41
  -1  -5  19   48.08    6.12
  -1  -5  18   42.32    5.45
  -1  -5  18   50.40    4.91
  -1  -5  17   94.83    7.75
  -1  -5  17  104.73    6.75
   1   5 -16   33.87    3.78
  -1  -5  16   32.88    3.77
  -1  -5  16   29.54    4.15
  -1  -5  15   80.39    5.57
  -1  -5  15   77.36    6.38
  -1  -5  14  350.15   13.67
  -1  -5  14  387.29   12.45
  -1  -5  13   60.92    5.11
  -1  -5  12  858.87   20.94
   1   5 -11   20.07    2.10
  -1  -5  11   17.38    2.40
   1   5 -10 1123.46   20.62
  -1  -5  10 1090.87   22.46
  -1  -5   9  173.39    6.62
   1   5  -9  186.44    5.92
  -1  -5   8  536.49   14.63
   1   5  -8  533.29   11.02
  -1  -5   8  509.33   12.50
  -1  -5   8  527.54   12.08
  -1  -5   7    1.29    1.07
   1   5  -7    2.26    0.70
  -1  -5   7    3.26    1.02
  -1  -5   7    4.60    1.28
  -1  -5   6   59.09    2.78
  -1  -5   6   67.75    4.29
   1   5  -6   68.37    2.67
  -1  -5   6   68.42    2.94
  -1  -5   6   57.82    3.34
  -1  -5   5    0.22    0.24
  -1  -5   5    0.42    0.48
   1   5  -5    0.10    0.46
  -1  -5   5    0.36    0.22
  -1  -5   5    0.30    0.47
   1   5  -5    0.58    0.27
  -1  -5   4    0.37    0.26
   1   5  -4    0.75    0.38
   1   5  -4    0.13    0.51
  -1  -5   4    0.41    0.20
  -1  -5   4    0.12    0.28
  -1  -5   3   64.10    3.08
   1   5  -3   62.84    2.97
  -1  -5   3   64.95    3.27
   1   5  -3   66.90    3.87
  -1  -5   3   67.53    1.95
  -1  -5   2    1.51    0.55
   1   5  -2    1.86    0.61
  -1  -5   2    1.49    0.50
   1   5  -2    1.91    0.48
   1   5  -1   25.14    1.83
  -1  -5   1   25.43    1.99
   1   5  -1   25.90    1.59
  -1  -5   1   25.37    2.16
   1   5  -1   27.49    2.13
   1   5   0  128.96    4.36
   1   5   0  130.05    5.17
  -1  -5   0  139.49    5.57
   1   5   0  126.79    3.84
  -1  -5   0  133.33    4.75
   1   5   1   17.72    1.53
  -1  -5  -1   16.51    1.97
   1   5   1   18.30    2.01
  -1  -5  -1   15.43    1.52
   1   5   1   15.57    1.24
  -1  -5  -1   18.43    1.57
   1   5   2   47.94    2.62
  -1  -5  -2   47.45    3.63
   1   5   2   51.78    3.53
   1   5   2   45.14    2.24
  -1  -5  -2   50.13    2.83
   1   5   3  467.20   10.26
   1   5   3  492.01   12.99
   1   5   3  469.32    9.51
  -1  -5  -3  469.54   11.07
  -1  -5  -4  247.40    5.67
   1   5   4  228.06    6.51
   1   5   4  246.35    9.07
   1   5   4  230.46    6.21
  -1  -5  -4  238.15    7.61
  -1  -5  -5  517.84   10.02
   1   5   5  551.95   14.99
   1   5   5  525.56   11.27
  -1  -5  -5  539.99   13.04
   1   5   6  318.51   11.37
  -1  -5  -6  324.00    7.18
  -1  -5  -6  320.91    9.85
   1   5   7  112.19    6.81
  -1  -5  -7  125.63    4.12
   1   5   8  166.49    8.57
  -1  -5  -8  150.66    4.82
   1   5   9    4.44    1.54
  -1  -5  -9    4.06    0.77
   1   5  10  315.65   13.06
  -1  -5 -10  316.37    8.26
   1   5  11  136.11    8.93
   1   5  11  136.66    8.66
  -1  -5 -11  130.58    5.05
   1   5  12   40.38    4.98
   1   5  12   39.54    4.82
   1   5  13  112.81    8.26
   1   5  13  107.92    8.14
   1   5  14   18.64    3.46
   1   5  14   17.68    3.53
   1   5  15   36.97    5.06
   1   5  16    9.63    2.73
   1   5  17   80.32    7.87
  -1  -6  24   32.80    5.09
  -1  -6  23   12.82    3.47
  -1  -6  22   36.20    4.88
  -1  -6  21    1.21    1.14
  -1  -6  20   14.09    2.82
  -1  -6  20   13.90    3.48
  -1  -6  19    8.74    2.24
  -1  -6  19    2.61    1.28
  -1  -6  18   17.10    3.57
  -1  -6  18   17.66    3.04
  -1  -6  17   64.71    5.36
  -1  -6  17   58.41    6.00
  -1  -6  16  106.86    7.88
  -1  -6  16  125.31    7.30
  -1  -6  15  157.17    7.96
  -1  -6  15  142.82    8.59
  -1  -6  14   56.35    4.57
  -1  -6  14   52.57    4.84
  -1  -6  13  293.11   10.47
  -1  -6  13  272.59   10.90
  -1  -6  12   48.45    4.09
   1   6 -11  515.91   12.48
  -1  -6  11  564.01   14.49
  -1  -6  11  525.70   14.25
  -1  -6  10   16.54    2.05
  -1  -6  10   18.69    2.32
   1   6 -10   14.99    1.70
  -1  -6   9 1594.81   31.69
  -1  -6   9 1526.13   27.48
  -1  -6   9 1567.87   28.57
   1   6  -9 1565.71   26.02
  -1  -6   8    0.99    0.90
   1   6  -8    3.51    0.89
  -1  -6   8    3.65    1.33
  -1  -6   8    3.17    1.05
  -1  -6   7  960.92   18.11
  -1  -6   7 1053.29   22.50
   1   6  -7 1098.99   17.72
  -1  -6   7 1023.88   18.26
  -1  -6   7  916.63   19.99
  -1  -6   6   38.46    2.41
  -1  -6   6   38.93    3.38
   1   6  -6   38.00    3.28
  -1  -6   6   41.52    2.95
  -1  -6   6   40.35    2.13
   1   6  -6   39.54    2.07
  -1  -6   5  140.74    4.92
  -1  -6   5  143.75    5.56
  -1  -6   5  137.27    6.35
   1   6  -5  139.48    6.25
  -1  -6   5  150.92    3.98
  -1  -6   4   24.62    1.97
   1   6  -4   23.12    1.91
   1   6  -4   25.26    2.55
  -1  -6   4   23.69    2.11
  -1  -6   4   23.45    1.27
   1   6  -3    4.02    0.83
  -1  -6   3    3.65    0.84
   1   6  -3    2.84    0.94
  -1  -6   3    3.30    0.46
  -1  -6   3    2.73    0.67
  -1  -6   2  100.03    4.54
   1   6  -2   95.86    4.25
  -1  -6   2   90.52    4.10
   1   6  -1    7.19    1.10
  -1  -6   1    7.49    1.30
   1   6  -1    7.61    1.26
  -1  -6   1    7.54    1.18
   1   6  -1    7.87    0.93
   1   6   0  337.15    8.58
   1   6   0  334.07    9.57
  -1  -6   0  338.48   10.07
  -1  -6   0  329.97    8.59
   1   6   0  348.02    7.15
   1   6   1  336.48    8.55
   1   6   1  336.12   10.04
  -1  -6  -1  345.84   10.63
  -1  -6  -1  332.34    8.45
   1   6   1  341.65    7.01
  -1  -6  -1  321.54    8.33
   1   6   2   37.05    2.56
  -1  -6  -2   35.17    3.36
   1   6   2   38.12    3.21
   1   6   2   35.88    1.81
  -1  -6  -2   35.97    2.57
   1   6   3    0.87    0.48
   1   6   3    1.09    0.49
   1   6   3    0.75    0.27
  -1  -6  -3   -0.06    0.67
   1   6   4  210.06    6.90
   1   6   4  197.56    8.53
   1   6   4  218.27    5.49
  -1  -6  -4  227.54    7.67
  -1  -6  -5  176.03    4.93
   1   6   5  137.04    5.53
   1   6   5  172.51    8.11
   1   6   5  139.00    4.44
  -1  -6  -5  172.14    7.12
  -1  -6  -6  270.70    6.59
   1   6   6  279.98   10.95
   1   6   6  277.60    7.06
  -1  -6  -6  269.42    9.25
  -1  -6  -7   47.37    2.43
   1   6   7   44.81    2.73
   1   6   7   45.81    4.44
   1   6   8  392.76   14.26
  -1  -6  -8  392.66    8.75
   1   6   9  271.24   12.08
  -1  -6  -9  282.45    7.08
   1   6  10   59.90    5.60
  -1  -6 -10   58.62    2.90
   1   6  11   93.14    7.37
   1   6  12    4.03    1.88
   1   6  12    7.10    2.28
   1   6  13    3.97    1.81
   1   6  13    1.01    1.41
   1   6  14   44.88    5.59
   1   6  14   45.99    5.58
   1   6  15   17.08    3.69
   1   6  16   86.17    8.16
  -1  -7  24   22.00    4.48
  -1  -7  23   20.06    3.87
  -1  -7  22   35.60    4.80
  -1  -7  21   67.60    6.37
  -1  -7  21   61.27    7.26
  -1  -7  20   22.05    3.78
  -1  -7  20   15.73    4.18
  -1  -7  19   30.03    5.82
  -1  -7  19   38.49    4.66
  -1  -7  18    7.67    2.27
  -1  -7  18   14.97    2.78
  -1  -7  17    1.14    1.33
  -1  -7  17   -0.39    1.93
  -1  -7  16   39.54    4.59
  -1  -7  16   47.48    4.53
  -1  -7  15    2.78    1.37
  -1  -7  15    4.26    1.73
  -1  -7  14   10.25    2.16
  -1  -7  14   16.17    2.58
  -1  -7  13   33.93    3.60
  -1  -7  13   30.49    3.29
  -1  -7  12   54.47    4.24
  -1  -7  12   63.19    4.63
   1   7 -11   33.28    2.60
  -1  -7  11   34.20    3.23
  -1  -7  11   31.59    2.97
  -1  -7  10  425.04   11.48
  -1  -7  10  452.62   12.67
   1   7 -10  442.68   10.54
   1   7  -9   19.34    1.76
  -1  -7   9   16.02    1.79
  -1  -7   9   20.44    2.40
  -1  -7   8 1179.56   21.88
  -1  -7   8 1241.08   26.82
  -1  -7   8 1211.93   21.66
  -1  -7   7   24.01    2.08
   1   7  -7   22.01    2.68
  -1  -7   7   26.06    2.55
  -1  -7   7   27.17    2.98
  -1  -7   7   25.46    1.90
   1   7  -7   25.87    1.85
  -1  -7   6 2067.29   33.70
  -1  -7   6 2043.48   35.00
  -1  -7   6 2041.07   37.56
   1   7  -6 2014.64   37.17
  -1  -7   6 2119.45   31.53
  -1  -7   5  235.36    7.27
  -1  -7   5  235.92    7.74
   1   7  -5  234.73    8.76
  -1  -7   5  240.49    5.54
  -1  -7   4  548.55   12.61
   1   7  -4  544.59   12.48
   1   7  -4  525.77   14.25
  -1  -7   4  543.38   12.82
  -1  -7   4  554.39    9.71
   1   7  -3  412.22   12.32
  -1  -7   3  414.87   10.52
  -1  -7   3  419.69   10.96
   1   7  -3  407.91   10.50
   1   7  -2  597.02   13.49
  -1  -7   2  616.67   13.47
  -1  -7   2  620.07   14.47
   1   7  -2  606.62   13.91
   1   7  -1  356.37    9.55
  -1  -7   1  351.35    9.35
   1   7  -1  356.10   10.13
  -1  -7   1  355.58   10.68
   1   7   0    1.65    0.60
   1   7   0    1.12    0.68
  -1  -7   0    0.95    0.61
  -1  -7   0    1.23    0.61
   1   7   1    0.04    0.42
  -1  -7  -1    0.21    0.68
   1   7   1    0.77    0.61
  -1  -7  -1    0.21    0.43
  -1  -7  -1    0.60    0.36
   1   7   1    0.31    0.31
   1   7   2   49.23    3.27
   1   7   2   51.46    4.07
   1   7   2   53.52    2.08
  -1  -7  -2   54.68    3.42
   1   7   3   42.14    3.40
   1   7   3   41.67    3.94
   1   7   3   47.41    1.96
  -1  -7  -3   53.04    3.52
   1   7   4    2.83    1.42
  -1  -7  -4    3.88    2.29
   1   7   5    8.87    1.42
   1   7   5   10.18    2.21
   1   7   5    6.55    0.72
  -1  -7  -5    7.10    1.42
  -1  -7  -6   -0.17    0.32
   1   7   6    0.25    0.28
   1   7   6    0.76    0.78
  -1  -7  -7  169.21    5.04
   1   7   7  167.40    4.51
   1   7   7  164.13    8.88
  -1  -7  -8  159.10    4.82
   1   7   8  150.46    4.59
   1   7   8  145.15    8.64
  -1  -7  -9  206.24    5.61
   1   7   9  170.58    9.79
   1   7  10   12.23    2.75
   1   7  11   77.34    6.89
   1   7  12    0.99    1.49
   1   7  12    0.14    0.89
   1   7  13    6.06    2.48
   1   7  13    9.39    2.75
   1   7  14   10.10    3.18
   1   7  15   14.28    3.20
  -1  -8  23   45.67    5.75
  -1  -8  22   30.02    4.55
  -1  -8  22   22.14    4.74
  -1  -8  21   79.31    7.04
  -1  -8  21   67.07    7.83
  -1  -8  20   80.58    6.85
  -1  -8  20   83.84    8.13
  -1  -8  19   14.60    3.17
  -1  -8  19   25.25    3.73
  -1  -8  18   38.03    4.91
  -1  -8  18   45.43    4.85
  -1  -8  17  106.62    7.10
  -1  -8  17   92.87    7.40
  -1  -8  16   58.53    5.15
  -1  -8  16   54.24    5.27
  -1  -8  15   97.87    6.39
  -1  -8  15   87.41    6.38
  -1  -8  14    4.51    1.65
  -1  -8  14    2.12    1.03
  -1  -8  13  102.71    6.25
  -1  -8  13   93.52    5.85
  -1  -8  12   30.77    3.26
  -1  -8  12   31.50    3.12
  -1  -8  11    8.73    1.54
   1   8 -11   10.16    1.45
  -1  -8  11   13.30    2.14
  -1  -8  10   20.87    2.36
   1   8 -10   24.23    2.24
  -1  -8  10   17.29    2.71
  -1  -8   9   74.79    4.12
   1   8  -9   85.83    3.94
  -1  -8   9   73.75    4.00
  -1  -8   9   75.36    4.92
  -1  -8   8    1.59    0.73
   1   8  -8    1.23    0.43
  -1  -8   8    2.41    0.71
  -1  -8   8    3.61    1.30
  -1  -8   7  400.71   10.59
   1   8  -7  387.80   12.80
  -1  -8   7  397.32   11.42
  -1  -8   7  424.76    9.14
  -1  -8   6    3.62    0.95
  -1  -8   6    3.42    1.18
   1   8  -6    3.10    1.13
  -1  -8   6    2.79    0.57
  -1  -8   6    3.37    1.02
  -1  -8   5 1153.30   22.59
  -1  -8   5 1181.19   23.24
   1   8  -5 1180.54   25.24
  -1  -8   5 1220.94   19.19
  -1  -8   4    0.60    0.64
   1   8  -4    0.91    0.47
   1   8  -4    0.38    0.78
  -1  -8   4   -0.18    0.33
  -1  -8   4    0.08    0.57
   1   8  -3 1033.89   20.85
   1   8  -3 1048.37   23.54
  -1  -8   3 1041.88   20.66
  -1  -8   3 1053.92   21.53
   1   8  -3 1066.26   20.99
   1   8  -2  146.17    6.04
  -1  -8   2  147.39    5.92
   1   8  -2  142.36    6.17
  -1  -8   2  152.40    6.74
   1   8  -1  191.49    7.09
  -1  -8   1  186.48    6.65
   1   8  -1  195.50    7.59
  -1  -8   1  195.85    8.06
   1   8   0  161.85    6.47
   1   8   0  162.22    7.08
  -1  -8   0  158.93    7.52
  -1  -8   0  156.02    5.93
   1   8   1  198.49    8.17
   1   8   1  188.70    7.09
  -1  -8  -1  195.69    6.80
   1   8   2  265.42    9.92
   1   8   2  248.96    8.49
  -1  -8  -2  257.06    8.21
   1   8   3   59.86    4.69
   1   8   3   66.45    4.22
  -1  -8  -3   65.24    4.08
   1   8   4  161.67    8.16
   1   8   4  165.48    6.86
  -1  -8  -4  160.47    6.85
   1   8   5   20.64    3.00
   1   8   5   22.80    2.40
  -1  -8  -5   18.93    2.36
   1   8   6  143.76    8.29
   1   8   7   60.97    5.51
   1   8   8   34.69    4.33
   1   8   9   12.89    2.84
   1   8  10  115.54    8.41
   1   8  11   34.14    4.68
   1   8  12  102.94    8.32
   1   8  13    7.85    2.57
   1   8  14   56.80    6.56
  -1  -9  23    3.07    1.90
  -1  -9  22   55.57    6.16
  -1  -9  22   49.64    6.86
  -1  -9  21    2.12    1.67
  -1  -9  21    5.74    2.49
  -1  -9  20  119.05    8.43
  -1  -9  20  116.61    9.46
  -1  -9  19   17.25    3.34
  -1  -9  19   11.44    3.03
  -1  -9  18  227.61   12.19
  -1  -9  18  228.59   11.14
  -1  -9  17    0.07    1.03
  -1  -9  17    5.08    1.99
  -1  -9  16    4.15    1.67
  -1  -9  16    2.08    1.40
  -1  -9  15    2.48    1.19
  -1  -9  15    5.33    1.85
  -1  -9  14    5.63    1.94
  -1  -9  14    5.88    1.63
  -1  -9  13    0.10    0.71
  -1  -9  13    0.13    0.60
  -1  -9  12  152.58    7.60
  -1  -9  12  154.61    7.01
  -1  -9  11   20.05    2.24
  -1  -9  11   22.54    2.41
  -1  -9  11   19.61    2.61
   1   9 -11   19.29    2.01
  -1  -9  10   93.77    4.90
  -1  -9  10  104.46    5.94
   1   9 -10  106.26    4.72
  -1  -9  10  108.29    5.02
  -1  -9   9   69.56    4.14
  -1  -9   9   73.01    4.82
   1   9  -9   66.59    3.61
  -1  -9   9   71.12    3.79
  -1  -9   8   77.90    4.42
   1   9  -8   80.95    5.79
  -1  -9   8   81.81    5.00
  -1  -9   8   85.86    3.77
  -1  -9   7  182.16    7.03
  -1  -9   7  179.08    7.52
   1   9  -7  178.60    8.62
  -1  -9   7  189.26    5.51
  -1  -9   6  333.03   10.11
  -1  -9   6  332.86   10.60
   1   9  -6  328.64   11.87
  -1  -9   6  337.55    7.58
   1   9  -5  183.33    7.26
  -1  -9   5  185.07    7.54
  -1  -9   5  198.85    7.66
   1   9  -5  188.72    8.67
  -1  -9   5  192.39    5.05
   1   9  -4  576.03   14.79
   1   9  -4  603.18   14.72
  -1  -9   4  608.95   15.36
   1   9  -4  616.28   17.14
  -1  -9   4  625.72   14.87
  -1  -9   4  588.92   11.01
   1   9  -3   33.68    3.05
  -1  -9   3   37.19    3.05
   1   9  -3   32.30    3.55
   1   9  -3   35.32    3.13
  -1  -9   3   33.34    3.20
   1   9  -2  524.99   13.71
  -1  -9   2  507.93   12.92
  -1  -9   2  518.91   14.63
   1   9  -2  523.12   13.98
   1   9  -1   34.72    3.07
  -1  -9   1   29.50    2.61
   1   9  -1   29.25    3.02
   1   9   0  541.53   14.07
   1   9   0  537.81   14.94
  -1  -9   0  538.99   12.94
   1   9   1  142.12    7.25
   1   9   1  159.40    6.96
  -1  -9  -1  161.21    6.31
   1   9   2  288.41   10.93
   1   9   2  280.65    9.68
  -1  -9  -2  291.54    9.31
   1   9   3  157.16    8.12
   1   9   3  160.60    7.10
  -1  -9  -3  152.90    6.70
   1   9   4   46.88    4.54
   1   9   4   45.13    3.68
  -1  -9  -4   48.84    3.83
   1   9   5  364.86   13.82
   1   9   5  362.75   11.22
   1   9   6   24.89    3.51
   1   9   6   19.31    2.37
   1   9   7   59.19    5.59
   1   9   8    5.27    1.88
   1   9   9   -0.03    1.13
   1   9  10  119.10    8.85
   1   9  11   18.04    3.59
   1   9  12   75.13    7.31
   1   9  13   52.81    6.35
  -1 -10  23   32.71    5.18
  -1 -10  23   43.15    6.38
  -1 -10  22   15.25    3.50
  -1 -10  22   20.24    4.56
  -1 -10  21   73.69    7.06
  -1 -10  21   77.37    7.85
  -1 -10  20   19.47    3.49
  -1 -10  20   20.58    4.09
  -1 -10  19  179.03   10.24
  -1 -10  19  177.56   11.04
  -1 -10  18    1.07    1.81
  -1 -10  18    3.95    1.69
  -1 -10  17  294.26   12.67
  -1 -10  17  285.14   12.87
  -1 -10  16   73.06    5.94
  -1 -10  16   59.91    5.42
  -1 -10  15  219.53   10.37
  -1 -10  15  212.52    9.87
  -1 -10  14   24.05    3.02
  -1 -10  14   25.16    3.33
  -1 -10  13   25.39    2.64
  -1 -10  13   32.36    3.37
  -1 -10  13   36.52    3.94
  -1 -10  12   19.95    2.37
  -1 -10  12   18.33    2.74
   1  10 -12   20.86    2.23
  -1 -10  12   20.84    2.49
  -1 -10  11    2.19    0.98
  -1 -10  11    4.74    1.26
   1  10 -11    4.32    1.04
  -1 -10  11    5.26    1.43
  -1 -10  10    1.65    0.68
   1  10 -10    1.74    0.78
  -1 -10  10    2.78    1.15
  -1 -10  10    2.21    0.75
  -1 -10   9   44.85    3.49
  -1 -10   9   46.64    4.01
  -1 -10   9   48.08    2.97
  -1 -10   8   43.90    3.50
  -1 -10   8   47.17    3.96
   1  10  -8   39.70    4.17
  -1 -10   8   45.36    2.68
  -1 -10   7   47.81    3.71
   1  10  -7   49.08    4.52
  -1 -10   7   49.53    4.04
  -1 -10   7   55.43    2.78
  -1 -10   6   77.61    4.84
   1  10  -6   85.46    5.99
  -1 -10   6   77.78    4.94
  -1 -10   6   73.36    3.10
   1  10  -5   14.30    2.05
  -1 -10   5   19.25    2.50
   1  10  -5   15.72    2.59
  -1 -10   5   16.19    1.41
  -1 -10   5   16.62    2.27
  -1 -10   4  168.96    7.83
   1  10  -4  179.28    7.64
  -1 -10   4  178.37    7.45
   1  10  -4  166.12    8.64
  -1 -10   4  175.06    4.96
   1  10  -3   79.89    5.14
   1  10  -3   82.17    6.10
  -1 -10   3   80.45    4.84
   1  10  -3   87.15    5.31
   1  10  -2  184.52    7.99
  -1 -10   2  186.84    7.39
   1  10  -2  203.63    8.42
   1  10  -1  132.68    6.71
  -1 -10   1  140.97    6.26
   1  10  -1  127.81    6.91
   1  10   0    4.53    1.25
   1  10   0    2.80    1.27
  -1 -10   0    3.81    1.15
   1  10   1  258.55   10.50
   1  10   1  239.47    9.47
  -1 -10  -1  264.63    8.78
   1  10   2   29.35    3.50
   1  10   2   22.43    2.78
  -1 -10  -2   26.45    2.70
   1  10   3  205.12    9.81
   1  10   3  199.14    8.59
  -1 -10  -3  200.11    8.24
   1  10   4  290.60   12.26
   1  10   4  293.47   10.66
   1  10   5  165.96    9.30
   1  10   6   94.86    7.17
   1  10   7   31.87    4.27
   1  10   8   98.58    7.78
   1  10   9   62.41    6.40
   1  10  10   44.03    5.52
   1  10  11   71.23    7.19
   1  10  12    8.08    2.85
  -1 -11  23   12.76    3.45
  -1 -11  22   12.99    3.08
  -1 -11  22   15.80    3.66
  -1 -11  21   18.52    3.71
  -1 -11  21   13.54    3.22
  -1 -11  20   46.39    5.39
  -1 -11  20   38.39    5.34
  -1 -11  19   49.63    5.45
  -1 -11  19   42.59    5.31
  -1 -11  18  181.52   10.22
  -1 -11  18  165.70   10.07
  -1 -11  17    7.11    2.41
  -1 -11  17    8.86    2.61
  -1 -11  16  420.67   14.92
  -1 -11  16  419.38   15.53
  -1 -11  15    3.58    1.93
  -1 -11  15    2.92    1.66
  -1 -11  14  273.29    9.71
  -1 -11  14  291.39   11.92
  -1 -11  14  275.45   10.56
  -1 -11  13    1.14    0.76
  -1 -11  13    3.28    1.36
  -1 -11  12  115.64    6.00
  -1 -11  12  126.45    7.41
   1  11 -12  130.15    5.94
  -1 -11  12  117.66    5.87
  -1 -11  11    2.91    1.00
  -1 -11  11    5.48    1.26
  -1 -11  11    3.33    1.53
  -1 -11  10    2.48    1.00
  -1 -11  10    2.26    0.81
  -1 -11  10    4.76    1.69
  -1 -11   9   24.79    2.76
   1  11  -9   23.29    3.42
  -1 -11   9   23.43    2.97
  -1 -11   9   27.65    2.26
  -1 -11   8   60.29    4.40
   1  11  -8   60.93    5.45
  -1 -11   8   67.28    5.01
  -1 -11   8   64.82    3.25
  -1 -11   7    1.06    0.68
   1  11  -7   -0.03    0.85
  -1 -11   7    0.32    0.34
  -1 -11   7    0.74    0.74
  -1 -11   6   19.21    2.57
   1  11  -6   22.06    3.14
  -1 -11   6   21.41    2.72
  -1 -11   6   21.42    1.67
   1  11  -5   92.10    5.63
  -1 -11   5   88.19    5.48
   1  11  -5   99.34    6.80
  -1 -11   5   87.88    3.45
   1  11  -4    2.04    0.81
   1  11  -4    1.02    1.16
  -1 -11   4    0.63    0.72
  -1 -11   4    1.23    0.47
  -1 -11   3  160.67    7.28
   1  11  -3  163.34    9.04
   1  11  -3  156.64    7.59
  -1 -11   2   19.07    2.89
   1  11  -2   12.48    2.59
   1  11  -1  124.93    6.87
  -1 -11   1  117.51    5.75
   1  11  -1  126.68    7.15
   1  11   0  101.52    6.25
   1  11   0  104.62    6.69
  -1 -11   0  104.19    5.66
   1  11   1  136.91    7.83
   1  11   1  122.43    6.85
  -1 -11  -1  133.47    6.26
   1  11   2   38.34    4.19
   1  11   2   37.14    3.75
  -1 -11  -2   35.24    3.21
   1  11   3   44.57    4.69
   1  11   3   38.60    3.90
  -1 -11  -3   36.09    3.48
   1  11   4  100.65    7.25
   1  11   5    3.87    1.33
   1  11   6   36.87    4.63
   1  11   7   60.12    6.13
   1  11   8   36.28    4.92
   1  11   9  117.94    9.10
   1  11  10   32.74    4.93
   1  11  11  126.71    9.94
  -1 -12  23   -0.47    1.66
  -1 -12  22    4.22    2.35
  -1 -12  22    8.35    2.25
  -1 -12  21   -0.88    1.15
  -1 -12  21   -2.47    2.39
  -1 -12  20    9.03    2.52
  -1 -12  20    7.44    2.47
  -1 -12  19   25.25    3.99
  -1 -12  19   21.32    3.66
  -1 -12  18    5.41    1.70
  -1 -12  18    5.25    1.90
  -1 -12  17  153.54    9.35
  -1 -12  17  156.30    9.04
  -1 -12  16    1.37    1.17
  -1 -12  16    1.74    1.66
  -1 -12  15  478.31   16.49
  -1 -12  15  454.87   14.78
  -1 -12  14    4.06    1.44
  -1 -12  14   11.13    2.58
  -1 -12  13  363.85   11.82
  -1 -12  13  355.07   11.58
  -1 -12  12   24.65    2.88
  -1 -12  12   25.81    2.76
  -1 -12  12   24.57    3.51
  -1 -12  11  492.59   14.38
  -1 -12  11  492.54   16.03
  -1 -12  11  504.54   12.68
  -1 -12  10   25.87    2.96
  -1 -12  10   27.96    3.65
  -1 -12  10   26.11    2.33
  -1 -12   9   71.13    5.10
   1  12  -9   65.54    5.96
  -1 -12   9   77.84    5.72
  -1 -12   9   79.72    3.86
   1  12  -8   62.69    5.78
  -1 -12   8   75.60    5.58
  -1 -12   8   66.03    3.32
  -1 -12   7   30.85    3.46
   1  12  -7   31.04    4.03
  -1 -12   7   32.60    2.18
  -1 -12   6   46.77    4.19
   1  12  -6   53.14    5.21
  -1 -12   6   51.00    2.69
   1  12  -5   -0.36    0.85
   1  12  -5    1.39    1.02
  -1 -12   5    0.83    0.83
  -1 -12   5    1.11    0.51
  -1 -12   4    1.10    0.55
   1  12  -4    1.19    0.67
   1  12  -4   -0.60    0.94
  -1 -12   4    1.37    0.71
   1  12  -3   -0.10    0.64
  -1 -12   3    1.19    0.86
   1  12  -3   -1.26    1.42
   1  12  -2   84.27    6.00
  -1 -12   2   87.28    5.32
   1  12  -1    4.27    2.44
  -1 -12   1    5.39    1.96
   1  12   0  131.44    7.87
  -1 -12   0  115.41    5.52
  -1 -12   0  130.17    6.24
   1  12   1   25.24    3.47
  -1 -12  -1   30.08    3.07
   1  12   2  101.87    7.21
   1  12   2  103.83    6.80
   1  12   3   44.49    4.88
   1  12   4   97.30    7.50
   1  12   5    5.95    2.07
   1  12   6   12.62    2.79
   1  12   7   16.53    3.37
   1  12   8    2.87    1.84
   1  12   9   21.13    4.14
   1  12  10   70.01    7.52
  -1 -13  23    2.52    2.36
  -1 -13  22    5.08    2.37
  -1 -13  21   -1.20    1.87
  -1 -13  21   -2.15    1.89
  -1 -13  20    3.81    2.11
  -1 -13  20    2.50    1.23
  -1 -13  19    3.03    1.40
  -1 -13  19    4.03    1.66
  -1 -13  18    9.05    2.31
  -1 -13  18   10.92    2.73
  -1 -13  17   -0.33    0.81
  -1 -13  17    2.33    1.59
  -1 -13  16  101.99    7.67
  -1 -13  16  101.20    6.72
  -1 -13  15    2.78    1.48
  -1 -13  15    3.27    2.12
  -1 -13  14  183.75    9.99
  -1 -13  14  162.81    7.72
  -1 -13  13   30.98    4.11
  -1 -13  13   25.49    2.89
  -1 -13  12  395.38   14.75
  -1 -13  12  370.86   11.06
  -1 -13  11    0.97    0.79
  -1 -13  11    4.74    2.18
   1  13 -10  252.41   12.68
  -1 -13  10  284.17   11.99
  -1 -13  10  279.67    8.26
   1  13  -9    1.15    1.46
  -1 -13   9    1.96    1.71
  -1 -13   9    1.06    0.64
   1  13  -8  257.43   12.50
  -1 -13   8  256.01   11.13
  -1 -13   8  276.29    7.48
  -1 -13   7  114.96    7.21
   1  13  -7  124.41    8.44
  -1 -13   7  121.28    4.50
  -1 -13   6    0.00    0.80
  -1 -13   6    0.75    0.43
   1  13  -5  381.42   13.53
   1  13  -5  381.22   15.25
  -1 -13   5  393.43   13.41
  -1 -13   5  369.09    8.72
  -1 -13   4   11.96    1.33
   1  13  -4   16.86    2.78
  -1 -13   4   16.01    2.59
   1  13  -4   13.40    2.82
   1  13  -3   78.06    6.03
  -1 -13   3   86.03    5.64
   1  13  -3   91.66    7.43
   1  13  -2   -0.10    0.97
   1  13  -2   -0.12    1.28
  -1 -13   2    0.57    0.82
   1  13  -1    0.19    0.74
  -1 -13   1    0.22    0.73
   1  13   0   10.37    2.28
   1  13   1   10.03    2.18
   1  13   2   26.92    3.93
   1  13   3  219.44   11.55
   1  13   4   33.03    4.48
   1  13   5  138.71    9.59
   1  13   6   23.98    4.07
   1  13   7   80.28    7.63
   1  13   8   11.83    3.14
  -1 -14  24   -2.66    2.64
  -1 -14  23    2.23    1.54
  -1 -14  22    5.13    1.82
  -1 -14  21    2.33    1.36
  -1 -14  20    0.92    1.94
  -1 -14  20    6.35    2.31
  -1 -14  19    4.70    1.74
  -1 -14  19   12.94    3.16
  -1 -14  18   -0.95    1.19
  -1 -14  18    0.89    1.45
  -1 -14  17    5.28    1.93
  -1 -14  17    7.90    1.89
  -1 -14  16   -0.24    0.87
  -1 -14  16   -0.72    1.06
  -1 -14  15   -0.29    1.17
  -1 -14  15   -0.07    0.90
  -1 -14  14   29.78    3.23
  -1 -14  14   27.32    4.02
  -1 -14  13  108.42    7.86
  -1 -14  13  100.81    5.65
  -1 -14  12    8.83    1.65
  -1 -14  12    4.58    1.89
  -1 -14  11  482.84   16.99
  -1 -14  11  464.98   12.01
   1  14 -10    4.48    1.67
  -1 -14  10    3.70    1.71
  -1 -14  10    5.51    1.07
   1  14  -9  259.08   13.20
  -1 -14   9  275.01   12.21
  -1 -14   9  274.80    7.83
  -1 -14   8   12.88    2.57
   1  14  -8   17.52    3.39
  -1 -14   8   13.09    1.46
   1  14  -7  119.96    8.65
  -1 -14   7  126.51    7.82
  -1 -14   7  113.94    4.42
   1  14  -6  115.17    8.46
  -1 -14   6  100.38    6.86
  -1 -14   6  103.35    4.13
   1  14  -5  180.19    9.38
  -1 -14   5  188.80    9.32
   1  14  -5  186.42   10.89
  -1 -14   5  182.32    5.71
   1  14  -4   75.58    6.07
  -1 -14   4   84.67    5.95
   1  14  -4   74.76    6.91
  -1 -14   4   77.46    3.65
   1  14  -3   43.50    4.61
   1  14  -3   42.60    5.21
  -1 -14   3   43.47    4.05
   1  14  -2  118.37    7.77
  -1 -14   2  108.32    6.20
   1  14  -2  115.00    8.74
   1  14  -1   30.05    4.00
   1  14   0   87.06    7.15
   1  14   1   87.80    7.13
   1  14   2   11.23    2.61
   1  14   3   37.86    4.96
   1  14   4   40.39    5.16
   1  14   5   29.60    4.59
   1  14   6   92.58    8.31
   1  14   7   19.07    3.85
  -1 -15  21   -2.89    2.45
  -1 -15  20    0.85    1.66
  -1 -15  20    9.21    3.08
  -1 -15  19   -1.64    1.53
  -1 -15  19   -0.76    1.10
  -1 -15  18    2.55    1.35
  -1 -15  18    3.12    1.49
  -1 -15  17   -2.31    1.26
  -1 -15  17   -2.16    1.59
  -1 -15  16    4.24    1.45
  -1 -15  16    2.58    1.71
  -1 -15  15   22.40    2.95
  -1 -15  15   16.42    3.33
  -1 -15  14    5.69    1.48
  -1 -15  14    3.12    1.77
  -1 -15  13    7.62    1.61
  -1 -15  13    7.22    2.26
  -1 -15  12   25.19    2.74
  -1 -15  12   20.04    3.50
  -1 -15  11   72.00    6.47
  -1 -15  11   61.18    3.80
   1  15 -10   73.71    7.16
  -1 -15  10   80.47    6.80
  -1 -15  10   84.29    4.22
   1  15  -9   31.65    4.67
  -1 -15   9   32.36    4.17
  -1 -15   9   31.65    2.43
  -1 -15   8   75.30    6.35
   1  15  -8   76.12    7.17
  -1 -15   8   72.54    3.57
  -1 -15   7    3.92    1.67
   1  15  -7    3.43    1.70
  -1 -15   7    2.72    0.73
  -1 -15   6  161.98    9.18
   1  15  -6  179.17   11.13
   1  15  -5   19.72    4.18
  -1 -15   5   27.94    3.99
   1  15  -4  112.87    7.81
   1  15  -4  105.27    8.60
  -1 -15   4  108.55    6.96
   1  15  -3  141.50    8.87
  -1 -15   3  136.18    7.50
   1  15  -3  141.18    9.99
   1  15  -2   64.10    5.99
   1  15  -2   46.55    5.85
   1  15  -1  186.84   10.68
   1  15  -1  207.48   12.46
   1  15   0   83.76    7.10
   1  15   1   76.52    6.98
   1  15   2   43.81    5.33
   1  15   3   13.27    3.29
   1  15   4   39.07    5.39
   1  15   5    2.98    2.31
  -1 -16  19   21.82    4.32
  -1 -16  18   -0.46    1.07
  -1 -16  17    0.03    1.62
  -1 -16  16   -0.89    1.71
  -1 -16  15    3.16    1.65
  -1 -16  14   -0.43    1.19
  -1 -16  13    5.20    2.05
  -1 -16  12    4.57    1.75
   1  16 -11    2.56    1.36
  -1 -16  11    7.78    2.19
   1  16 -10   16.02    3.56
  -1 -16  10   24.74    3.87
   1  16  -9   16.61    3.72
  -1 -16   9   15.76    3.03
  -1 -16   8  124.46    8.54
   1  16  -8  108.95    9.05
   1  16  -7   32.86    5.02
  -1 -16   7   39.37    4.92
   1  16  -6   60.89    6.65
  -1 -16   6   69.97    6.18
   1  16  -5  147.18   10.40
  -1 -16   5  146.02    8.65
   1  16  -4    4.21    1.41
   1  16  -4    9.00    2.94
   1  16  -3   95.33    7.58
   1  16  -3  105.79    8.93
   1  16  -2   36.56    4.75
   1  16  -2   30.21    4.98
   1  16  -1   40.95    5.08
   1  16  -1   44.92    6.02
   1  16   0   95.10    7.99
   1  16   1   19.45    3.62
   1  16   2  109.52    8.90
   1  16   3   42.15    5.79
   1  16   4   23.29    4.35
  -1 -17  18   84.77    8.38
  -1 -17  17    9.21    2.75
  -1 -17  16   17.34    3.84
  -1 -17  15   15.06    3.34
  -1 -17  14    2.07    1.69
  -1 -17  13    0.36    1.15
  -1 -17  12   -0.03    2.05
   1  17 -11   -0.04    1.24
  -1 -17  11   -1.45    1.92
  -1 -17  10    1.01    1.20
   1  17 -10    2.22    1.48
  -1 -17   9   33.28    4.57
   1  17  -9   38.00    5.57
   1  17  -8   -0.43    1.19
  -1 -17   8    1.16    1.64
   1  17  -7   78.58    7.92
  -1 -17   7   66.90    6.44
   1  17  -6   50.91    6.38
   1  17  -5   53.88    6.50
   1  17  -4   53.42    5.85
   1  17  -4   49.22    6.30
   1  17  -3   33.50    4.71
   1  17  -3   23.29    4.32
   1  17  -2   50.84    5.84
   1  17  -2   43.47    6.06
   1  17  -1    0.80    0.98
   1  17  -1    1.47    1.58
   1  17   0    8.06    2.49
   1  17   0    4.79    2.24
   1  17   1   51.06    6.19
   1  17   2   16.59    3.78
  -1 -18  17   76.07    7.95
  -1 -18  16   24.10    4.46
  -1 -18  15   41.68    5.73
  -1 -18  14   42.63    5.85
  -1 -18  13   13.81    3.11
  -1 -18  12   18.02    3.63
  -1 -18  11   -1.39    2.34
   1  18 -11    2.21    1.45
   1  18 -10   -1.01    1.47
  -1 -18  10   -0.41    1.92
   1  18  -9    1.44    1.17
  -1 -18   9   -0.01    1.27
   1  18  -8    2.54    2.14
   1  18  -7   -0.19    1.47
   1  18  -6   32.83    5.37
   1  18  -5   13.74    3.63
   1  18  -4   62.69    7.37
   1  18  -3   17.96    3.71
   1  18  -3   19.42    4.35
   1  18  -2   71.29    7.26
   1  18  -2   80.48    8.43
   1  18  -1   12.21    3.33
   1  18   0   17.29    3.77
  -1 -19  16  112.56   10.05
  -1 -19  15    8.38    2.99
  -1 -19  14  108.72    9.81
  -1 -19  13   22.68    4.49
  -1 -19  12   66.13    7.25
  -1 -19  11   48.72    6.20
   1  19 -11   30.76    5.38
   1  19 -10   18.15    4.43
   1  19  -9   24.62    4.85
   1  19  -8    3.29    1.93
   1  19  -7   13.50    3.57
   1  19  -6    3.69    1.92
   1  19  -3   40.24    5.60
   1  19  -2   21.42    4.28
  -1 -20  15   86.10    9.02
  -1 -20  14    0.51    1.75
  -1 -20  13   60.59    7.41
   2 -22  14   23.39    4.16
  -2  21  -4   58.46    7.16
  -2  21  -5   37.24    5.72
  -2  21  -6   68.22    7.77
  -2  21  -7   23.71    4.84
  -2  21  -8   38.27    5.90
  -2  21  -9    6.02    2.36
   2 -21  12   20.13    3.46
   2 -21  13    1.50    1.38
   2 -21  14   36.82    4.75
   2 -21  15   12.11    2.90
  -2  20   0    8.31    2.68
  -2  20  -1   23.98    4.49
  -2  20  -2    3.80    2.06
  -2  20  -3    5.98    2.49
  -2  20  -4   32.86    5.26
  -2  20  -5   61.83    7.16
  -2  20  -6   18.39    4.10
  -2  20  -7   68.81    7.67
  -2  20  -8   11.49    3.16
  -2  20  -9   40.06    5.80
   2 -20  10    3.13    1.76
   2 -20  11   15.16    2.83
   2 -20  12   -1.01    0.95
   2 -20  13   -1.77    1.63
   2 -20  14    0.34    1.19
   2 -20  15   11.28    2.72
   2 -20  16    1.18    1.46
  -2  19   2   71.98    7.86
  -2  19   1   47.03    6.20
  -2  19   0  110.04    9.50
  -2  19  -1   24.23    4.33
  -2  19  -2   49.82    6.24
  -2  19  -3   47.56    5.95
  -2  19  -4    8.87    2.75
  -2  19  -5   89.06    8.16
  -2  19  -6    1.57    1.46
   2 -19   6    0.02    0.94
  -2  19  -7   51.27    6.35
   2 -19   7   50.43    4.33
   2 -19   8   61.45    5.18
  -2  19  -8   57.11    6.64
   2 -19   8   50.43    4.25
  -2  19  -9   42.72    5.94
   2 -19   9   51.50    4.46
   2 -19  10   92.48    5.87
   2 -19  10   98.33    6.78
   2 -19  11   38.58    4.30
   2 -19  11   30.65    3.38
   2 -19  12   52.13    5.11
   2 -19  12   48.77    4.32
   2 -19  13    1.55    1.32
   2 -19  13    0.00    0.83
   2 -19  14    4.47    1.52
   2 -19  14    7.06    2.06
   2 -19  15    9.30    2.44
   2 -19  15    7.72    2.16
   2 -19  16    2.07    1.46
   2 -19  16   -1.61    1.36
   2 -19  17    1.63    1.09
   2 -19  17    4.19    1.93
   2 -19  18    9.50    2.52
  -2  18   3   -5.15    2.29
  -2  18   2   63.89    7.24
  -2  18   1   51.59    6.30
  -2  18   0   35.05    5.14
  -2  18  -1   94.73    8.35
  -2  18  -2   19.41    3.70
  -2  18  -3   90.86    7.99
  -2  18  -4   29.52    4.65
  -2  18  -5   52.29    6.00
   2 -18   5   38.54    3.75
   2 -18   6  158.29    7.76
  -2  18  -6  148.74   10.27
   2 -18   6  145.20    7.33
  -2  18  -7   31.71    4.81
   2 -18   7   38.39    3.83
   2 -18   7   31.64    3.36
  -2  18  -8  151.20   10.64
   2 -18   8  140.74    7.21
  -2  18  -9    2.84    1.72
   2 -18   9    5.38    1.47
   2 -18   9    7.78    1.93
   2 -18  10   93.39    5.81
   2 -18  11   66.83    4.96
   2 -18  12   71.40    5.25
   2 -18  13   42.49    4.08
   2 -18  14    5.70    1.65
   2 -18  15   10.19    2.30
   2 -18  16   13.44    2.59
   2 -18  17   -0.41    1.18
   2 -18  18   18.36    3.30
   2 -18  19    1.35    1.13
   2 -18  20    7.56    2.36
  -2  17   5   32.97    5.23
  -2  17   4   54.35    6.55
  -2  17   3   36.80    5.31
  -2  17   2    8.43    2.56
  -2  17   1   18.85    3.79
  -2  17   1   15.53    3.36
  -2  17   0   -1.23    1.71
  -2  17  -1   11.91    2.94
  -2  17  -2   53.30    5.96
  -2  17  -3   23.57    3.85
   2 -17   4  110.87    5.96
  -2  17  -4  112.35    8.58
   2 -17   5  105.68    5.83
  -2  17  -5   89.97    7.69
   2 -17   5   91.59    5.78
  -2  17  -6  138.79    9.53
   2 -17   6  120.50    6.53
   2 -17   6  140.15    6.93
  -2  17  -7  157.52   10.27
   2 -17   7  192.43    8.40
   2 -17   7  167.72    7.74
  -2  17  -8   41.36    5.16
   2 -17   8   45.67    3.92
   2 -17   9  140.85    7.02
   2 -17  10    4.81    1.45
   2 -17  11  289.19   10.68
   2 -17  12   27.58    3.12
   2 -17  13  162.34    8.10
   2 -17  14   29.35    3.46
   2 -17  15   51.86    4.77
   2 -17  16    8.26    2.14
   2 -17  17    2.53    1.38
   2 -17  18    0.18    1.04
   2 -17  19    3.83    1.64
   2 -17  20    4.09    2.13
   2 -17  21    1.44    1.43
  -2  16   7    4.90    2.36
  -2  16   6   12.97    3.23
  -2  16   5   44.21    5.86
  -2  16   4   10.16    2.83
  -2  16   3   67.08    6.86
  -2  16   2   21.43    3.92
  -2  16   1   98.88    8.22
  -2  16   0   14.87    3.10
  -2  16  -1   43.05    5.23
  -2  16  -2    0.57    1.07
   2 -16   2    2.03    0.86
  -2  16  -3    9.85    2.89
   2 -16   3   13.71    2.68
  -2  16  -4   34.41    4.52
   2 -16   4   39.32    3.26
   2 -16   5   20.87    2.63
  -2  16  -5   20.81    3.58
   2 -16   5   21.39    2.53
  -2  16  -6   55.64    5.72
   2 -16   6   56.12    4.30
  -2  16  -7   90.64    7.39
   2 -16   7   92.58    5.48
  -2  16  -8   37.61    4.74
   2 -16   8   35.73    3.34
   2 -16   9   83.02    5.23
   2 -16  10  150.29    7.27
   2 -16  11   62.70    4.73
   2 -16  12  258.75   10.12
   2 -16  13   16.49    2.59
   2 -16  14  368.69   12.93
   2 -16  15   13.81    2.59
   2 -16  16  139.87    8.19
   2 -16  17    5.54    1.85
   2 -16  18   22.28    3.60
   2 -16  19    0.49    1.50
   2 -16  20    7.23    2.45
   2 -16  21    2.84    1.52
  -2  15   8   76.13    7.75
  -2  15   7    4.16    1.99
   2 -15  -6   16.29    2.71
  -2  15   6   14.88    3.28
   2 -15  -5   14.35    2.56
  -2  15   5   13.94    3.05
   2 -15  -4    8.63    2.00
  -2  15   4    6.80    2.15
   2 -15  -3    7.09    1.90
  -2  15   3    8.00    2.39
   2 -15  -2  189.66    9.33
  -2  15   2  210.31   11.68
  -2  15   1   51.08    5.62
  -2  15   0  116.15    8.38
  -2  15   0  107.36    8.01
  -2  15  -1   50.72    5.63
   2 -15   1   45.59    3.33
  -2  15  -2   36.17    4.43
   2 -15   2   39.64    2.99
  -2  15  -3    0.22    1.01
   2 -15   3    1.32    0.73
  -2  15  -4   84.32    6.75
   2 -15   5    1.00    0.69
  -2  15  -5    2.87    1.64
  -2  15  -6    8.45    2.34
   2 -15   6    7.57    1.56
  -2  15  -7    0.15    0.96
   2 -15   7    0.92    0.85
  -2  15  -8  117.17    8.12
   2 -15   8  110.56    5.93
   2 -15   9    3.89    1.20
   2 -15  10   13.12    2.13
   2 -15  11   35.30    3.45
   2 -15  12   37.90    3.69
   2 -15  13  331.73   11.83
   2 -15  14    4.72    1.76
   2 -15  15  335.69   12.58
   2 -15  16    7.94    2.30
   2 -15  17  326.33   13.38
   2 -15  18    5.21    2.22
   2 -15  19   86.02    7.14
   2 -15  20    2.00    1.56
   2 -15  21   21.07    3.78
  -2  14  10   27.02    4.96
  -2  14   9  109.62    9.25
  -2  14   8   27.88    4.75
   2 -14  -7  161.71    8.43
  -2  14   7  148.95   10.39
   2 -14  -6   10.78    2.26
  -2  14   6   12.65    2.95
   2 -14  -5  103.23    6.66
  -2  14   5  107.55    8.44
   2 -14  -4   87.54    6.10
  -2  14   4   89.36    7.44
   2 -14  -3   18.03    2.82
  -2  14   3   12.20    2.63
   2 -14  -2   96.28    6.33
  -2  14   2   89.49    7.24
   2 -14  -1   31.96    3.60
  -2  14   1   30.83    4.26
  -2  14   0  163.90    9.62
   2 -14   0  158.37    8.23
   2 -14   0  153.34    5.21
   2 -14   1  159.25    5.58
  -2  14  -1  152.27    9.06
  -2  14  -2  108.14    7.50
   2 -14   2  124.32    5.10
  -2  14  -3  415.51   15.21
  -2  14  -4   78.09    6.18
  -2  14  -5   43.20    4.66
   2 -14   5   40.69    3.59
  -2  14  -6   21.01    3.23
   2 -14   6   19.60    2.39
  -2  14  -7    5.10    1.57
   2 -14   7    5.00    1.31
   2 -14   8   42.87    3.64
   2 -14   9   10.83    1.85
   2 -14  10    1.01    1.15
   2 -14  11  108.18    6.02
   2 -14  12   83.18    5.43
   2 -14  13    9.66    1.90
   2 -14  14   20.63    2.95
   2 -14  15    7.39    2.13
   2 -14  16  289.05   12.15
   2 -14  17   15.80    3.12
   2 -14  18  290.24   13.04
   2 -14  19    3.22    2.21
   2 -14  20  174.58   10.87
   2 -14  21    2.47    1.99
  -2  13  11   65.76    7.23
  -2  13  10    1.45    1.16
  -2  13   9   61.24    6.71
   2 -13  -8   42.36    4.36
  -2  13   8   39.67    5.19
   2 -13  -7   62.20    5.18
  -2  13   7   66.27    6.71
   2 -13  -6  178.63    8.90
  -2  13   6  189.52   11.02
   2 -13  -5   35.65    3.81
  -2  13   5   30.25    4.23
   2 -13  -4   88.29    6.00
  -2  13   4   89.73    7.18
   2 -13  -3   60.16    4.89
  -2  13   3   59.18    5.66
   2 -13  -2   40.84    3.99
  -2  13   2   44.04    4.84
   2 -13  -1  240.29    9.98
   2 -13  -1  238.61    5.85
  -2  13   1  243.56   11.53
   2 -13   0   23.45    3.23
   2 -13   0   21.65    2.03
  -2  13   0   16.30    3.11
   2 -13   1  159.92    7.88
  -2  13  -1  155.39    8.77
  -2  13  -2   88.70    6.42
  -2  13  -3  120.25    7.45
  -2  13  -4   68.24    5.49
   2 -13   5    9.00    1.58
  -2  13  -5   14.18    2.56
  -2  13  -6   60.70    5.27
   2 -13   6   57.03    3.99
  -2  13  -7   14.89    2.73
   2 -13   7   18.78    2.30
   2 -13   8    9.67    1.74
   2 -13   9   58.82    4.19
   2 -13  10   16.52    2.22
   2 -13  11   60.18    4.43
   2 -13  12   10.78    2.16
   2 -13  13   28.30    3.18
   2 -13  14   -0.87    0.98
   2 -13  15   30.34    3.85
   2 -13  16    7.54    1.98
   2 -13  17  129.29    8.20
   2 -13  18   22.62    3.63
   2 -13  19  232.22   12.24
   2 -13  20    6.58    2.33
   2 -13  21  142.69   10.34
  -2  12  13   60.57    7.07
  -2  12  12   15.30    3.58
  -2  12  11   43.90    5.72
  -2  12  10   51.08    5.93
   2 -12  -9   15.14    2.64
  -2  12   9   17.83    3.44
   2 -12  -8   50.30    4.70
  -2  12   8   59.13    6.07
   2 -12  -7   30.71    3.67
  -2  12   7   41.75    5.00
   2 -12  -6   42.03    4.24
  -2  12   6   41.07    4.98
   2 -12  -5  140.79    7.74
  -2  12   5  146.33    9.04
   2 -12  -4   81.53    5.76
  -2  12   4   74.94    6.28
   2 -12  -3  380.03   12.92
  -2  12   3  391.44   14.62
   2 -12  -2   92.11    5.91
  -2  12   2  100.59    6.95
   2 -12  -1  116.26    6.82
   2 -12  -1  131.25    3.93
  -2  12   1  131.75    7.99
  -2  12   0  313.30   12.49
   2 -12   0  331.27   11.51
   2 -12   1   42.98    3.92
  -2  12  -1   39.66    4.13
   2 -12   2  305.79   10.95
  -2  12  -2  300.92   11.76
  -2  12  -3   27.19    3.27
  -2  12  -4  397.49   13.47
  -2  12  -5  173.70    8.50
   2 -12   5  171.46    7.03
  -2  12  -6  318.41   12.04
   2 -12   6  309.37    9.77
   2 -12   7   27.45    2.68
   2 -12   8   56.09    3.90
   2 -12   9   25.71    2.72
   2 -12  10   16.20    2.21
   2 -12  11    0.12    0.63
   2 -12  12   52.96    4.23
   2 -12  13    1.99    0.94
   2 -12  14   65.64    5.02
   2 -12  15    3.81    1.31
   2 -12  16    0.49    1.13
   2 -12  17   29.80    3.91
   2 -12  18   39.98    4.79
   2 -12  19   30.83    4.40
   2 -12  20   88.32    7.93
   2 -12  21   22.71    4.35
  -2  11  14   20.76    4.15
  -2  11  13    0.88    1.99
  -2  11  12   48.05    5.90
  -2  11  11    3.16    1.73
   2 -11 -10   82.46    6.16
  -2  11  10   95.64    7.94
   2 -11  -9   36.05    4.00
  -2  11   9   41.31    4.99
   2 -11  -8   61.30    5.18
  -2  11   8   61.77    6.02
   2 -11  -7   56.27    4.93
  -2  11   7   62.08    5.85
   2 -11  -6  111.80    6.78
  -2  11   6  109.62    7.58
   2 -11  -5   45.30    4.31
  -2  11   5   42.54    4.75
   2 -11  -4   30.39    3.41
  -2  11   4   34.14    4.02
   2 -11  -3   13.47    2.23
  -2  11   3   12.74    2.36
   2 -11  -2  194.61    8.63
   2 -11  -2  193.17    4.17
  -2  11   2  199.94    9.46
   2 -11  -1   55.17    4.34
  -2  11   1   56.88    4.90
   2 -11   0  386.77   12.33
  -2  11   0  401.52   13.73
   2 -11   1  252.20    9.55
  -2  11  -1  240.28   10.07
   2 -11   2   96.21    5.62
  -2  11  -2   81.55    5.58
   2 -11   3  520.95   14.43
  -2  11  -3  491.74   14.70
  -2  11  -4    3.12    1.03
  -2  11  -5  852.42   20.51
   2 -11   5  802.93   17.76
  -2  11  -6    2.59    1.08
   2 -11   6    3.25    0.89
   2 -11   7  403.98   11.20
   2 -11   8    8.88    1.53
   2 -11   9  133.83    6.22
   2 -11  10   25.70    2.69
   2 -11  11   21.31    2.57
   2 -11  12    4.20    1.20
   2 -11  13   23.61    2.94
   2 -11  14   16.93    2.69
   2 -11  15   40.12    4.19
   2 -11  16    2.67    1.31
   2 -11  17    3.49    1.59
   2 -11  18    8.16    2.29
   2 -11  19    4.52    1.64
   2 -11  20   20.68    3.91
   2 -11  21   27.62    4.82
  -2  10  15   31.95    5.07
  -2  10  14    4.34    2.12
  -2  10  13    7.50    2.42
   2 -10 -12   -0.10    0.99
  -2  10  12    0.87    1.08
   2 -10 -11   11.98    2.43
  -2  10  11   18.40    3.52
   2 -10 -10   36.04    4.10
  -2  10  10   32.62    4.45
   2 -10  -9   73.18    5.74
  -2  10   9   76.15    6.52
   2 -10  -8   52.26    4.74
  -2  10   8   50.31    5.12
   2 -10  -7  329.26   12.38
  -2  10   7  343.17   13.71
   2 -10  -6   47.30    4.40
  -2  10   6   46.22    4.66
   2 -10  -5   40.59    3.97
  -2  10   5   39.88    4.21
   2 -10  -4   74.74    5.36
  -2  10   4   59.86    5.29
   2 -10  -3   26.26    3.16
  -2  10   3   21.72    3.38
   2 -10  -2    9.68    1.86
  -2  10   2    8.10    1.79
   2 -10  -1  180.10    7.94
  -2  10   1  166.38    8.85
  -2  10   1  176.47    8.36
   2 -10   0    1.01    0.86
  -2  10   0    1.39    0.79
   2 -10   1  340.77   10.97
  -2  10  -1  323.27   11.22
   2 -10   2   30.54    3.04
  -2  10  -2   24.59    2.77
   2 -10   3   97.35    5.47
  -2  10  -3   97.00    5.56
  -2  10  -4  204.56    8.37
   2 -10   5  119.76    6.56
  -2  10  -5  115.38    6.27
   2 -10   5  112.47    5.27
   2 -10   6  624.86   16.95
   2 -10   6  615.16   14.32
   2 -10   7    0.89    0.59
   2 -10   8 1219.38   23.68
   2 -10   9    8.42    1.63
   2 -10  10  464.67   12.87
   2 -10  11    0.48    0.80
   2 -10  12  200.68    8.46
   2 -10  13    0.97    1.07
   2 -10  14   92.94    6.17
   2 -10  15    1.33    0.81
   2 -10  16   31.65    3.92
   2 -10  17    0.61    1.06
   2 -10  18   14.71    3.09
   2 -10  19    8.96    3.60
   2 -10  20    0.53    1.62
   2 -10  21    9.61    3.00
  -2   9  16   41.85    5.75
  -2   9  15   54.68    6.40
  -2   9  14   52.84    6.11
   2  -9 -13   20.30    3.38
  -2   9  13   16.45    3.38
   2  -9 -12   55.23    5.26
  -2   9  12   58.52    6.03
   2  -9 -11   78.49    6.28
  -2   9  11   85.67    7.02
   2  -9 -10   11.77    2.42
  -2   9  10   15.42    2.97
   2  -9  -9   47.31    4.61
  -2   9   9   55.49    5.30
   2  -9  -8  148.73    8.13
  -2   9   8  137.94    8.37
   2  -9  -7   24.99    3.21
  -2   9   7   29.83    3.63
   2  -9  -6  186.27    8.82
  -2   9   6  207.05   10.17
  -2   9   6  200.37    9.44
   2  -9  -5  102.13    6.35
  -2   9   5  107.29    7.39
  -2   9   5   89.72    6.16
  -2   9   4  312.58   12.35
   2  -9  -4  280.09   10.50
  -2   9   4  277.37   10.77
  -2   9   3   32.61    3.82
   2  -9  -3   32.39    3.36
  -2   9   3   30.16    3.34
   2  -9  -2  158.73    7.34
  -2   9   2  159.31    8.36
  -2   9   2  158.59    7.58
   2  -9  -1   29.11    3.04
  -2   9   1   25.16    3.20
  -2   9   1   28.43    3.17
   2  -9   0   16.32    2.17
  -2   9   0   15.67    2.54
  -2   9   0   16.72    2.39
   2  -9   1   49.87    3.79
  -2   9  -1   51.47    4.43
  -2   9  -1   46.09    3.67
   2  -9   1   45.17    3.75
   2  -9   2  290.64    9.65
  -2   9  -2  297.23   11.08
  -2   9  -2  295.89    9.72
   2  -9   2  280.58   10.01
   2  -9   3   13.21    1.92
  -2   9  -3   12.61    2.12
  -2   9  -3   14.92    1.99
   2  -9   3   14.75    2.17
  -2   9  -4   10.77    2.00
   2  -9   4    7.79    1.63
  -2   9  -4    8.84    1.51
  -2   9  -5  329.10   11.51
  -2   9  -5  294.36   10.06
   2  -9   5  302.09   10.34
   2  -9   5  301.84    8.94
   2  -9   6    5.50    1.45
   2  -9   6    7.60    1.49
   2  -9   7  824.30   20.46
   2  -9   7  907.97   18.36
   2  -9   8    4.55    1.32
   2  -9   8    6.13    1.36
   2  -9   9 1453.67   27.27
   2  -9  10    8.25    1.74
   2  -9  11  705.51   17.31
   2  -9  12   14.95    2.28
   2  -9  13  321.50   11.50
   2  -9  14   80.38    5.81
   2  -9  15   -1.76    1.48
   2  -9  16   15.78    2.83
   2  -9  17   11.02    2.65
   2  -9  18   69.59    6.57
   2  -9  19    0.45    1.98
   2  -9  20   13.55    3.42
   2  -9  21   -0.20    1.18
  -2   8  17    0.43    1.06
  -2   8  16   78.47    7.63
  -2   8  15   25.50    4.27
   2  -8 -14   91.32    7.18
  -2   8  14  107.12    8.34
   2  -8 -13   60.12    5.68
  -2   8  13   58.13    5.94
   2  -8 -12   25.29    3.61
  -2   8  12   27.50    3.99
   2  -8 -11  205.77   10.41
  -2   8  11  210.31   10.86
   2  -8 -10    6.43    1.81
  -2   8  10    5.97    1.86
   2  -8  -9   16.71    2.71
  -2   8   9   14.62    2.62
   2  -8  -8  177.19    8.95
  -2   8   8  186.67    9.20
   2  -8  -7    6.77    1.85
  -2   8   7    4.46    1.53
  -2   8   7    5.18    1.51
   2  -8  -6  202.92    9.19
  -2   8   6  224.52   10.23
  -2   8   6  211.43    9.31
  -2   8   5   52.06    4.87
   2  -8  -5   53.33    4.45
  -2   8   5   49.51    4.25
  -2   8   4  162.15    8.33
   2  -8  -4  161.83    7.75
  -2   8   4  160.68    7.63
   2  -8  -3  144.24    7.01
  -2   8   3  140.08    7.59
   2  -8  -3  141.11    3.56
  -2   8   3  144.27    7.02
  -2   8   2  445.50   14.17
   2  -8  -2  441.68   12.88
  -2   8   2  437.60   12.91
   2  -8  -2  440.60   12.82
   2  -8  -1  231.89    8.69
  -2   8   1  248.05    9.99
   2  -8  -1  238.25    8.81
  -2   8   1  255.39    9.23
   2  -8   0   41.61    3.42
  -2   8   0   46.62    4.05
  -2   8   0   45.31    3.65
   2  -8   0   39.84    3.38
   2  -8   1  333.35   10.33
  -2   8  -1  340.67   11.55
  -2   8  -1  328.84    9.93
   2  -8   1  332.61   10.49
  -2   8  -2  119.67    6.37
   2  -8   2  115.28    5.53
  -2   8  -2  109.79    5.22
   2  -8   2  112.04    5.73
  -2   8  -3   19.17    2.46
   2  -8   3   17.09    2.15
   2  -8   3   16.28    1.99
  -2   8  -3   16.58    1.94
  -2   8  -4  413.50   12.59
   2  -8   4  410.66   11.23
   2  -8   4  409.81   11.44
  -2   8  -4  386.86   11.04
   2  -8   4  378.84   10.07
  -2   8  -5  121.56    6.43
   2  -8   5  129.32    6.10
   2  -8   5  119.80    5.08
  -2   8  -6   16.99    2.39
   2  -8   6   22.63    2.57
   2  -8   6   21.38    2.15
  -2   8  -7  124.15    6.60
   2  -8   7  145.02    7.04
   2  -8   7  129.75    5.54
   2  -8   8  247.74    9.75
   2  -8   8  238.75    8.06
  -2   8  -8  231.60    8.42
   2  -8   9   20.52    2.34
   2  -8  10  560.23   14.38
   2  -8  11   -0.24    0.67
   2  -8  12  733.78   18.32
   2  -8  13   57.48    4.68
   2  -8  14  162.73    8.41
   2  -8  15   23.58    3.29
   2  -8  16  296.79   12.90
   2  -8  17   30.49    4.91
   2  -8  18   70.06    6.70
   2  -8  19   64.28    6.67
   2  -8  20    6.59    2.33
   2  -8  21   17.42    4.15
  -2   7  18   49.01    6.15
  -2   7  17   53.09    6.17
  -2   7  16    2.21    1.33
   2  -7 -15   72.63    6.51
  -2   7  15   74.22    6.87
   2  -7 -14   32.27    4.30
  -2   7  14   32.08    4.40
   2  -7 -13   34.47    4.27
  -2   7  13   32.96    4.29
   2  -7 -12   93.86    7.05
  -2   7  12   88.00    6.84
   2  -7 -11    1.14    0.82
  -2   7  11    2.28    0.66
  -2   7  11    1.50    1.12
   2  -7 -10  208.05   10.14
  -2   7  10  191.24    5.49
  -2   7  10  221.33   10.24
   2  -7  -9   81.69    6.09
  -2   7   9   76.62    5.73
   2  -7  -8  144.05    7.91
  -2   7   8  138.45    7.52
   2  -7  -7  127.57    7.28
  -2   7   7  127.72    6.93
   2  -7  -6   84.56    5.84
  -2   7   6   94.20    6.29
  -2   7   6   88.06    5.58
  -2   7   5  467.51   14.50
   2  -7  -5  453.70   13.91
  -2   7   5  433.63   13.06
  -2   7   4    0.49    0.52
   2  -7  -4    0.43    0.83
   2  -7  -4    2.53    1.14
  -2   7   4    1.27    0.95
   2  -7  -3 2095.50   38.42
  -2   7   3 2160.25   40.06
   2  -7  -3 2159.49   31.98
   2  -7  -3 2177.37   37.89
  -2   7   3 2139.39   37.85
  -2   7   2  539.78   15.43
   2  -7  -2  547.96   14.49
  -2   7   2  563.29   14.32
   2  -7  -2  577.95   14.30
  -2   7   1  351.42   11.56
   2  -7  -1  336.14   10.49
  -2   7   1  334.60   10.36
   2  -7  -1  354.57   10.44
   2  -7   0  506.66   13.13
  -2   7   0  518.76   14.35
   2  -7   0  496.94   12.92
  -2   7  -1   84.87    5.11
   2  -7   1   86.06    4.67
  -2   7  -1   87.46    4.28
   2  -7   1   77.55    4.50
  -2   7  -2   62.73    4.27
   2  -7   2   63.21    3.88
  -2   7  -2   59.65    3.42
   2  -7   2   62.17    4.00
  -2   7  -3  116.95    5.86
   2  -7   3  105.68    4.97
   2  -7   3  109.10    4.89
  -2   7  -3  100.43    4.68
   2  -7   4    8.67    1.28
  -2   7  -4    7.18    1.48
   2  -7   4    9.73    1.50
   2  -7   4    8.47    1.39
  -2   7  -5  207.92    8.41
   2  -7   5  215.98    7.87
   2  -7   5  237.87    7.22
  -2   7  -6   38.04    3.41
   2  -7   6   35.79    3.18
   2  -7   6   37.00    2.84
  -2   7  -7   33.42    3.14
   2  -7   7   39.72    3.49
   2  -7   7   35.27    2.74
  -2   7  -7   35.39    2.98
  -2   7  -8    8.75    1.70
  -2   7  -8   10.77    1.69
   2  -7   8    8.92    1.50
  -2   7  -9   86.20    5.25
   2  -7   9   95.23    5.00
   2  -7  10    0.11    0.56
   2  -7  11  200.42    8.16
   2  -7  12   10.63    1.88
   2  -7  13  204.29    9.15
   2  -7  14   85.20    6.12
   2  -7  15  614.65   18.92
   2  -7  16    9.13    2.72
   2  -7  17  271.77   13.07
   2  -7  18   22.52    3.89
   2  -7  19   85.98    7.90
   2  -7  20   58.90    7.08
   2  -7  21   17.93    4.52
  -2   6  19   90.91    8.42
  -2   6  18   29.34    4.70
  -2   6  17   26.24    4.24
   2  -6 -16   52.66    5.65
  -2   6  16   66.03    6.45
   2  -6 -15   12.54    2.78
  -2   6  15   11.51    2.64
   2  -6 -14    4.82    1.70
  -2   6  14    3.49    1.28
   2  -6 -13    0.07    1.10
  -2   6  13    1.25    0.57
  -2   6  13    0.80    0.81
  -2   6  13    2.68    0.96
   2  -6 -12   -0.13    0.80
  -2   6  12    0.43    0.66
  -2   6  12    1.54    0.99
  -2   6  12    0.33    0.51
   2  -6 -11    0.36    0.95
  -2   6  11    1.45    0.84
  -2   6  11    0.49    1.00
   2  -6 -10   94.83    6.71
  -2   6  10   93.42    4.23
  -2   6  10   94.58    6.27
   2  -6  -9  154.38    8.43
  -2   6   9  158.48    5.38
  -2   6   9  162.59    8.06
  -2   6   8    5.27    1.25
  -2   6   8    7.42    1.94
   2  -6  -7  188.19    8.79
  -2   6   7  178.21    5.16
  -2   6   7  192.88    8.18
  -2   6   6  283.03   10.76
   2  -6  -6  275.86   10.59
   2  -6  -6  276.86    9.93
  -2   6   6  273.58    9.69
  -2   6   5  135.26    7.07
   2  -6  -5  137.00    6.93
   2  -6  -5  140.93    6.51
  -2   6   5  127.28    6.17
  -2   6   4 1306.00   27.40
   2  -6  -4 1348.25   26.90
   2  -6  -4 1280.36   19.78
   2  -6  -4 1392.07   25.78
  -2   6   4 1309.29   25.38
  -2   6   3   13.09    2.08
   2  -6  -3   15.60    2.21
   2  -6  -3   14.73    1.25
  -2   6   3   13.42    1.88
   2  -6  -3   16.56    1.98
  -2   6   2  811.10   19.10
   2  -6  -2  786.61   18.14
  -2   6   2  805.44   17.48
   2  -6  -2  853.13   17.54
  -2   6   1   43.14    3.62
   2  -6  -1   42.77    3.29
  -2   6   1   47.33    3.33
   2  -6  -1   48.94    3.28
   2  -6   0  691.00   15.78
  -2   6   0  728.42   17.02
   2  -6   0  696.54   15.44
  -2   6  -1  169.95    7.04
   2  -6   1  170.82    6.51
  -2   6  -1  176.93    5.70
   2  -6   1  172.13    6.52
  -2   6  -2  151.90    6.51
   2  -6   2  163.16    6.12
  -2   6  -2  157.92    5.39
   2  -6   3   38.86    2.78
  -2   6  -3   33.55    2.91
  -2   6  -3   32.42    2.44
   2  -6   3   34.76    2.50
  -2   6  -4   62.60    4.14
   2  -6   4   73.04    3.90
   2  -6   4   79.97    4.07
   2  -6   4   74.42    3.63
  -2   6  -5    1.04    0.77
   2  -6   5    0.44    0.34
   2  -6   5    0.44    0.48
  -2   6  -6  463.93   12.27
  -2   6  -6  463.89   11.65
   2  -6   6  461.83   11.13
  -2   6  -7   73.12    4.43
  -2   6  -7   77.73    4.27
   2  -6   7   80.52    4.15
  -2   6  -8   68.80    4.36
   2  -6   8   72.74    4.13
  -2   6  -8   67.92    4.12
  -2   6  -9   73.32    4.57
   2  -6   9   73.77    4.37
  -2   6 -10   28.18    2.86
   2  -6  10   25.98    2.69
   2  -6  11   41.05    3.58
   2  -6  12   30.96    3.37
   2  -6  13  192.34    9.04
   2  -6  14  303.97   12.14
   2  -6  15    9.21    2.34
   2  -6  16  167.27    9.83
   2  -6  17    4.79    2.31
   2  -6  18  164.52   10.73
   2  -6  19    2.39    2.61
   2  -6  20   96.56    9.22
   2  -6  21   33.41    5.81
  -2   5  20    7.21    2.58
  -2   5  19    3.76    1.83
  -2   5  18    3.63    1.57
   2  -5 -17   31.71    4.66
  -2   5  17   35.97    4.78
   2  -5 -16   38.33    5.01
  -2   5  16   54.47    5.67
   2  -5 -15   38.66    4.96
  -2   5  15   44.24    4.96
   2  -5 -14   32.63    4.31
  -2   5  14   35.54    3.31
  -2   5  14   37.45    4.37
   2  -5 -13    1.45    1.34
  -2   5  13    1.23    0.65
  -2   5  13    1.83    0.96
  -2   5  13    0.87    0.66
   2  -5 -12   26.91    3.78
  -2   5  12   30.73    2.78
  -2   5  12   26.24    2.50
  -2   5  12   29.84    3.66
   2  -5 -11    2.75    1.29
  -2   5  11    7.06    1.36
  -2   5  11    4.30    0.97
  -2   5  11    5.87    1.59
   2  -5 -10   -0.37    0.71
  -2   5  10    1.62    0.81
  -2   5  10   -0.09    0.55
   2  -5  -9  104.00    6.75
  -2   5   9   88.68    4.22
  -2   5   9   78.52    5.25
   2  -5  -8   74.63    5.52
  -2   5   8   76.44    3.64
  -2   5   8   76.51    4.97
   2  -5  -7    8.47    1.68
  -2   5   7   10.51    1.28
   2  -5  -7   11.25    1.92
  -2   5   7    9.85    1.67
   2  -5  -6  298.64   10.92
  -2   5   6  307.12    7.56
   2  -5  -6  307.21    9.88
  -2   5   6  309.99    9.81
  -2   5   5  279.97   10.16
   2  -5  -5  292.82   10.34
   2  -5  -5  289.06    5.83
   2  -5  -5  305.15    9.41
  -2   5   5  293.66    9.23
  -2   5   4   10.02    1.78
   2  -5  -4   10.41    1.77
   2  -5  -4   11.90    0.99
   2  -5  -4   13.06    1.72
  -2   5   4    9.11    1.42
  -2   5   3  476.26   13.31
   2  -5  -3  473.05   13.06
   2  -5  -3  486.28    9.87
  -2   5   3  493.04   12.00
   2  -5  -3  496.35   11.85
  -2   5   2  141.36    6.50
   2  -5  -2  140.08    6.18
   2  -5  -2  136.81    5.45
  -2   5   2  138.89    5.57
   2  -5  -1  914.09   19.11
  -2   5   1  953.74   20.05
  -2   5   1  913.49   18.41
   2  -5  -1  961.26   18.24
  -2   5   0   10.73    1.69
   2  -5   0   10.92    1.53
   2  -5   0   12.97    1.54
  -2   5  -1 1643.74   29.13
   2  -5   1 1647.16   28.05
  -2   5  -1 1588.48   25.76
  -2   5  -2   -0.02    0.42
   2  -5   2    0.73    0.68
  -2   5  -2   -0.26    0.36
   2  -5   2    0.31    0.35
   2  -5   3 1396.04   23.86
  -2   5  -3 1346.24   24.83
   2  -5   3 1294.71   23.05
   2  -5   3 1395.96   23.34
  -2   5  -4    0.41    0.56
   2  -5   4    0.97    0.62
   2  -5   4    0.84    0.69
  -2   5  -5  152.08    6.01
  -2   5  -5  147.76    5.63
   2  -5   5  147.17    5.34
  -2   5  -6   40.60    2.99
   2  -5   6   37.82    2.67
  -2   5  -6   39.27    2.83
  -2   5  -7   13.88    1.81
   2  -5   7   12.64    1.62
  -2   5  -7   13.28    1.69
  -2   5  -8    3.85    0.96
   2  -5   8    2.40    0.77
  -2   5  -8    3.93    1.02
  -2   5  -9  180.12    8.95
  -2   5  -9  172.87    6.88
   2  -5   9  180.18    7.11
  -2   5 -10    4.72    1.42
   2  -5  10    6.26    1.39
  -2   5 -11   34.96    4.11
   2  -5  11   31.03    3.17
   2  -5  12   14.73    2.37
   2  -5  13    7.42    1.96
   2  -5  14  141.01    8.19
   2  -5  15   36.68    4.84
   2  -5  16  157.28    9.60
   2  -5  17   55.36    5.99
   2  -5  18   32.57    5.15
   2  -5  19   91.27    8.45
   2  -5  20   19.21    4.17
   2  -5  21   71.04    8.30
   2  -5  23   33.88    5.52
  -2   4  21   37.40    5.44
  -2   4  20    8.33    2.82
  -2   4  19   21.17    3.88
  -2   4  18   12.25    2.90
   2  -4 -17    0.71    1.07
  -2   4  17   -1.22    1.33
   2  -4 -16   34.32    4.64
  -2   4  16   37.94    3.79
  -2   4  16   34.66    4.33
   2  -4 -15   38.58    4.80
  -2   4  15   45.84    3.95
  -2   4  15   40.68    4.56
   2  -4 -14   47.07    5.30
  -2   4  14   44.04    3.77
  -2   4  14   42.74    4.51
   2  -4 -13  233.25   11.47
  -2   4  13  224.51    8.57
  -2   4  13  223.16   10.21
   2  -4 -12   59.65    5.50
  -2   4  12   69.47    4.32
  -2   4  12   77.01    5.62
  -2   4  12   66.52    3.48
   2  -4 -11  150.42    8.57
  -2   4  11  158.35    6.40
  -2   4  11  156.44    7.78
  -2   4  11  158.93    5.57
  -2   4  10  107.54    6.10
  -2   4  10   97.66    4.62
   2  -4  -9  100.02    7.00
  -2   4   9   97.59    4.72
  -2   4   9  102.23    5.75
   2  -4  -8    6.98    1.63
  -2   4   8    6.35    1.14
   2  -4  -8    4.26    1.13
  -2   4   8    4.93    1.18
   2  -4  -7    0.80    0.64
  -2   4   7    0.93    0.55
  -2   4   7    1.61    0.80
   2  -4  -7    0.53    0.42
   2  -4  -6   23.08    2.80
  -2   4   6   23.53    1.90
   2  -4  -6   25.14    2.41
  -2   4   6   23.91    2.35
   2  -4  -5  437.64   12.81
  -2   4   5  443.13   12.73
  -2   4   5  436.71    9.73
   2  -4  -5  422.18    8.37
   2  -4  -5  446.91   11.15
  -2   4   5  440.53   11.09
  -2   4   4  177.13    7.35
   2  -4  -4  173.50    7.31
   2  -4  -4  168.42    4.67
  -2   4   4  169.80    5.26
   2  -4  -4  183.13    6.22
  -2   4   4  177.98    6.18
   2  -4  -3    1.63    0.73
  -2   4   3   -0.42    0.46
   2  -4  -3    0.59    0.35
  -2   4   3    1.20    0.60
   2  -4  -3    0.92    0.42
   2  -4  -2  787.49   17.30
  -2   4   2  832.75   17.81
   2  -4  -2  791.30   15.09
  -2   4   2  809.44   15.92
   2  -4  -2  815.60   15.67
  -2   4   1   22.53    2.28
   2  -4  -1   23.45    2.25
   2  -4  -1   21.96    1.88
  -2   4   0  621.77   13.94
   2  -4   0  603.82   13.30
  -2   4   0  585.75   10.60
  -2   4  -1   37.07    3.01
   2  -4   1   41.42    2.86
  -2   4  -1   26.33    1.61
   2  -4   1   32.61    1.86
   2  -4   2 1128.85   20.51
  -2   4  -2 1158.90   21.11
   2  -4   2 1124.71   18.82
   2  -4   3    6.48    0.98
  -2   4  -3    7.57    1.20
   2  -4   3    6.11    0.94
  -2   4  -4 1212.15   21.87
  -2   4  -4 1151.98   21.29
   2  -4   4 1187.36   20.93
  -2   4  -5   32.99    2.51
   2  -4   5   30.44    2.25
  -2   4  -5   31.19    2.38
  -2   4  -6  481.24   11.52
  -2   4  -6  490.16   11.54
   2  -4   6  485.84   11.33
  -2   4  -7   93.57    5.78
  -2   4  -7   98.80    4.51
  -2   4  -7   97.65    4.64
   2  -4   7   97.18    4.59
  -2   4  -8   82.41    5.66
  -2   4  -8   78.74    4.16
   2  -4   8   80.01    4.39
  -2   4  -8   88.37    4.57
  -2   4  -9  153.18    8.10
   2  -4   9  140.18    6.26
  -2   4 -10   -0.42    0.56
   2  -4  10    0.84    0.70
  -2   4 -11   17.61    3.00
   2  -4  11   15.45    2.26
   2  -4  12    9.42    1.85
   2  -4  13   47.22    5.52
   2  -4  14    5.93    2.33
   2  -4  15    7.25    2.06
   2  -4  16    7.61    2.16
   2  -4  17  132.30    9.51
   2  -4  18    7.99    2.47
   2  -4  19   48.15    6.22
   2  -4  20   47.95    6.59
   2  -4  22   43.43    6.22
  -2   3  22   49.96    6.34
  -2   3  21   30.99    4.85
  -2   3  20   58.78    6.37
  -2   3  19   20.83    3.77
   2  -3 -18   50.06    6.00
  -2   3  18   58.31    5.91
   2  -3 -17   57.15    6.16
  -2   3  17   55.35    4.81
  -2   3  17   58.47    5.74
   2  -3 -16   34.13    4.71
  -2   3  16   39.45    3.98
  -2   3  16   36.49    4.33
   2  -3 -15   58.44    5.87
  -2   3  15   65.10    4.80
  -2   3  15   65.68    5.59
   2  -3 -14   25.48    3.80
  -2   3  14   29.31    3.16
  -2   3  14   33.35    3.77
   2  -3 -13  134.94    8.61
  -2   3  13  147.93    6.81
  -2   3  13  143.36    7.75
   2  -3 -12  180.36    9.67
  -2   3  12  185.54    7.38
  -2   3  12  172.80    8.25
   2  -3 -11  313.84   12.48
  -2   3  11  286.88    9.16
  -2   3  11  266.43   10.10
   2  -3 -10  160.90    8.65
  -2   3  10  171.74    6.53
  -2   3  10  166.96    7.47
  -2   3  10  174.27    4.90
   2  -3  -9   61.70    5.04
  -2   3   9   69.97    4.52
  -2   3   9   63.66    2.67
  -2   3   9   73.69    3.94
   2  -3  -8    9.62    1.97
   2  -3  -8   12.95    1.85
  -2   3   8   10.24    1.58
  -2   3   8   10.80    1.48
   2  -3  -8    9.58    1.81
   2  -3  -7    3.39    1.17
   2  -3  -7    5.59    1.09
  -2   3   7    6.06    1.13
  -2   3   7    5.17    0.99
   2  -3  -6   81.00    5.08
   2  -3  -6   79.12    4.04
  -2   3   6   72.79    3.82
  -2   3   6   73.69    3.59
   2  -3  -6   75.14    2.91
   2  -3  -5   39.39    3.41
  -2   3   5   37.22    2.43
   2  -3  -5   38.75    2.01
  -2   3   5   36.99    2.61
   2  -3  -5   38.43    2.60
   2  -3  -4  243.79    8.47
  -2   3   4  233.73    8.27
   2  -3  -4  227.63    5.88
  -2   3   4  240.05    6.67
   2  -3  -4  205.71    6.31
  -2   3   4  240.78    6.81
   2  -3  -3   32.51    2.77
  -2   3   3   32.53    2.80
   2  -3  -3   36.32    2.25
  -2   3   3   33.90    2.23
  -2   3   3   33.58    2.24
   2  -3  -3   33.58    2.16
  -2   3   2  185.15    5.62
  -2   3   2  181.66    6.69
   2  -3  -2  178.41    6.56
   2  -3  -2  182.02    5.66
   2  -3  -2  184.71    5.41
  -2   3   1   85.33    4.28
   2  -3  -1   82.02    4.09
   2  -3   0  160.66    5.61
  -2   3   0  158.84    5.80
  -2   3   0  155.10    3.35
  -2   3  -1  281.54    8.06
   2  -3   1  295.33    7.73
   2  -3   1  289.25    5.82
   2  -3   2  235.21    6.38
  -2   3  -2  233.82    6.77
   2  -3   2  238.93    6.18
  -2   3  -3 1122.23   19.88
   2  -3   3 1150.39   19.19
  -2   3  -3 1108.67   19.63
   2  -3   3 1141.96   19.32
  -2   3  -4    1.16    0.63
  -2   3  -4    0.63    0.43
   2  -3   4    0.46    0.29
  -2   3  -4   -0.14    0.29
  -2   3  -5  756.08   17.66
  -2   3  -5  780.66   14.66
   2  -3   5  736.49   14.68
  -2   3  -5  720.43   14.82
  -2   3  -6   47.34    3.89
  -2   3  -6   41.05    2.65
  -2   3  -6   53.23    3.24
   2  -3   6   61.18    3.41
  -2   3  -7 1304.58   27.44
  -2   3  -7 1288.09   22.67
  -2   3  -7 1292.91   23.69
   2  -3   7 1311.96   23.77
  -2   3  -8    1.20    0.63
  -2   3  -8    1.79    0.69
   2  -3   8    2.37    0.89
  -2   3  -9  752.33   20.29
   2  -3   9  766.37   17.59
  -2   3 -10   34.00    3.98
   2  -3  10   31.76    3.10
  -2   3 -11  127.42    8.03
   2  -3  11  132.42    6.92
   2  -3  12   86.93    5.88
   2  -3  13    2.31    1.49
   2  -3  14   23.42    3.61
   2  -3  15    6.91    2.03
   2  -3  16   34.40    4.70
   2  -3  17    0.17    1.51
   2  -3  18   14.92    3.36
   2  -3  19   13.72    3.48
   2  -3  20   34.56    5.26
   2  -3  20   30.26    5.21
   2  -3  21   11.44    3.29
   2  -3  22   37.40    5.70
  -2   2  22   16.53    3.65
  -2   2  21   15.68    3.42
  -2   2  20   24.27    4.05
   2  -2 -19   86.54    8.04
  -2   2  19   92.36    7.54
   2  -2 -18   27.26    4.45
  -2   2  18   34.94    4.03
  -2   2  18   29.32    4.10
  -2   2  17  150.25    8.15
  -2   2  17  140.53    8.60
   2  -2 -16   47.48    5.47
  -2   2  16   56.06    4.81
  -2   2  16   51.96    5.02
   2  -2 -15  100.46    7.82
  -2   2  15  124.73    6.84
  -2   2  15  131.44    7.72
   2  -2 -14  114.04    8.06
  -2   2  14  134.59    7.51
  -2   2  14  138.86    6.89
  -2   2  13    5.89    2.52
   2  -2 -13    4.90    2.00
  -2   2  13    4.06    1.44
  -2   2  12  149.86    7.32
  -2   2  12  162.61    6.91
  -2   2  11  154.91    7.07
  -2   2  11  151.09    6.47
  -2   2  10  355.51   10.76
  -2   2  10  349.06   10.05
  -2   2   9  299.60    9.28
  -2   2   9  309.72    8.97
  -2   2   8  332.73    9.41
  -2   2   8  347.23    9.28
   2  -2  -8  327.75   10.71
   2  -2  -7   95.65    5.69
  -2   2   7   96.26    4.37
   2  -2  -7   97.07    4.48
  -2   2   7   99.52    4.38
   2  -2  -6  195.36    8.05
  -2   2   6  195.12    6.16
   2  -2  -6  207.22    6.32
  -2   2   6  205.57    6.45
   2  -2  -6  192.06    5.30
   2  -2  -5   31.20    2.92
  -2   2   5   32.27    2.32
   2  -2  -5   31.69    1.92
   2  -2  -5   32.61    2.12
  -2   2   5   29.84    2.06
   2  -2  -4  112.57    5.41
  -2   2   4  116.47    4.48
   2  -2  -4  113.89    4.08
   2  -2  -4  118.33    4.02
  -2   2   4  127.06    4.22
  -2   2   3    1.88    0.74
   2  -2  -3    1.87    0.72
   2  -2  -3    2.59    0.62
  -2   2   3    3.49    0.78
  -2   2   3    3.62    0.66
   2  -2  -3    2.86    0.55
  -2   2   2  200.39    6.64
   2  -2  -2  186.42    6.54
  -2   2   2  198.54    5.98
   2  -2  -2  195.80    6.02
  -2   2   2  193.64    5.12
   2  -2  -2  193.77    5.13
  -2   2   1  193.04    5.57
   2  -2  -1  196.29    6.27
  -2   2   1  187.22    6.19
  -2   2   0  487.04   10.60
  -2   2   0  448.39   10.52
   2  -2   0  466.09   10.45
  -2   2  -1    8.53    1.28
   2  -2   1    6.60    0.95
  -2   2  -1    8.19    1.12
   2  -2   2  155.93    5.94
  -2   2  -2  165.40    6.25
   2  -2   2  164.10    4.68
  -2   2  -2  162.40    5.11
   2  -2   2  167.97    4.74
  -2   2  -2  160.76    4.83
  -2   2  -3   18.55    2.10
   2  -2   3   19.25    2.16
   2  -2   3   17.35    1.28
  -2   2  -3   17.54    1.48
  -2   2  -3   14.91    1.40
   2  -2   3   17.12    1.45
  -2   2  -4  346.85   10.64
   2  -2   4  347.63   10.43
  -2   2  -4  355.44    7.87
   2  -2   4  342.16    8.16
  -2   2  -4  331.17    8.30
   2  -2   5   79.56    4.79
  -2   2  -5   71.46    4.70
  -2   2  -5   75.04    3.14
  -2   2  -5   70.98    3.53
   2  -2   5   74.88    3.51
  -2   2  -6 1401.08   28.04
  -2   2  -6 1321.94   22.57
  -2   2  -6 1381.43   24.05
   2  -2   6 1367.69   23.93
  -2   2  -7   73.99    5.27
  -2   2  -7   79.27    3.49
  -2   2  -7   76.09    4.03
   2  -2   7   77.77    4.17
  -2   2  -8  809.50   20.70
   2  -2   8  769.15   17.23
  -2   2  -8  789.37   16.94
  -2   2  -9   43.82    4.39
   2  -2   9   45.19    3.54
   2  -2  10  666.41   16.99
   2  -2  11   99.18    6.21
   2  -2  12  165.75    8.50
   2  -2  13  262.05   11.46
   2  -2  14   74.62    6.29
   2  -2  15   73.36    6.59
   2  -2  16   -2.44    1.65
   2  -2  17   50.26    6.06
   2  -2  18   -1.19    1.60
   2  -2  19    0.11    1.27
   2  -2  19   -0.15    1.44
   2  -2  20   11.61    3.24
   2  -2  21   46.60    6.25
  -2   1  21   21.85    3.77
   2  -1 -20    6.46    2.44
  -2   1  20    1.08    1.26
   2  -1 -19   10.79    2.92
  -2   1  19   13.48    2.79
  -2   1  19   16.04    3.04
  -2   1  18   67.49    5.98
  -2   1  18   67.94    5.67
  -2   1  17   18.82    3.07
  -2   1  17   16.63    2.78
  -2   1  16  150.96    8.42
  -2   1  16  163.51    8.30
  -2   1  15   18.52    2.82
  -2   1  15   15.53    2.43
  -2   1  14  114.30    6.65
  -2   1  14  117.14    6.41
  -2   1  13   91.75    5.68
  -2   1  13  105.14    5.80
  -2   1  12   30.50    3.40
  -2   1  12   30.02    3.17
  -2   1  11  574.79   14.60
  -2   1  11  608.25   14.75
  -2   1  10  228.51    7.89
  -2   1  10  226.02    7.97
  -2   1   9 1427.90   25.75
  -2   1   9 1431.37   26.12
   2  -1  -9 1471.85   28.25
  -2   1   8   40.01    2.70
  -2   1   8   42.50    2.97
   2  -1  -8   45.03    3.56
  -2   1   7  427.73    9.91
  -2   1   7  436.17   10.69
   2  -1  -7  432.45   11.73
   2  -1  -6    0.89    0.44
  -2   1   6    0.97    0.41
  -2   1   6    1.27    0.49
   2  -1  -6    1.02    0.43
  -2   1   5   71.64    3.62
   2  -1  -5   71.64    3.13
  -2   1   5   76.00    2.97
   2  -1  -5   83.28    3.03
   2  -1  -4    0.87    0.60
  -2   1   4    0.43    0.59
  -2   1   4    1.23    0.47
   2  -1  -4    0.95    0.38
  -2   1   3   91.44    4.00
   2  -1  -3   86.48    3.76
   2  -1  -3   91.04    2.93
   2  -1  -3   91.05    2.81
   2  -1  -2   22.02    2.01
   2  -1  -2   24.53    1.98
  -2   1   2   24.24    2.01
   2  -1  -2   24.46    1.67
  -2   1   1 1191.17   20.93
   2  -1  -1 1263.56   20.98
   2  -1  -1 1097.91   20.85
  -2   1   1 1154.70   20.45
   2  -1  -1 1221.14   20.63
   2  -1   0    0.91    0.45
  -2   1   0    0.68    0.45
   2  -1   0    0.60    0.33
  -2   1   0    0.64    0.34
  -2   1  -1  860.17   17.37
   2  -1   1  883.09   17.36
  -2   1  -1  829.45   15.12
   2  -1   1  844.72   14.86
   2  -1   1  867.75   14.32
   2  -1   2    6.71    1.33
  -2   1  -2    5.49    1.17
  -2   1  -2    5.93    0.81
   2  -1   2    5.85    0.70
  -2   1  -2    6.24    0.82
   2  -1   2    5.10    0.71
  -2   1  -3  659.05   15.51
   2  -1   3  643.74   15.26
   2  -1   3  670.60   10.78
  -2   1  -3  627.29   11.40
   2  -1   3  626.10   11.87
  -2   1  -3  577.86   11.95
  -2   1  -4   35.14    3.20
   2  -1   4   34.10    3.10
  -2   1  -4   32.87    1.76
  -2   1  -4   35.46    2.26
   2  -1   4   33.23    2.12
   2  -1   5   66.99    4.62
  -2   1  -5   69.50    2.69
  -2   1  -5   70.72    3.46
   2  -1   5   68.12    3.41
   2  -1   6  238.75    9.43
  -2   1  -6  249.48    5.95
   2  -1   6  246.76    7.44
  -2   1  -6  237.57    7.35
   2  -1   7  360.17   12.36
   2  -1   7  374.53   10.26
  -2   1  -7  371.51    9.99
   2  -1   8   69.04    5.19
   2  -1   8   65.89    4.20
  -2   1  -8   69.29    4.07
   2  -1   9  713.57   19.35
   2  -1   9  701.59   17.11
   2  -1  10   25.06    3.37
   2  -1  10   26.72    3.08
   2  -1  11  382.22   13.12
   2  -1  12   37.27    4.09
   2  -1  13  220.37   10.73
   2  -1  14   47.66    5.16
   2  -1  15   44.64    5.30
   2  -1  16  215.86   12.27
   2  -1  17   10.22    2.66
   2  -1  17   15.72    3.35
   2  -1  18   62.46    6.83
   2  -1  18   69.51    7.70
   2  -1  19   11.03    3.09
   2  -1  20   -0.51    1.44
   2  -1  21   26.48    4.89
   2   0 -21   39.51    5.73
  -2   0  21   47.36    5.36
  -2   0  21   41.95    5.09
  -2   0  20   26.71    3.95
  -2   0  20   21.55    3.58
  -2   0  19    2.91    1.55
  -2   0  19    3.49    1.82
  -2   0  18    3.04    1.49
  -2   0  18    4.03    1.30
  -2   0  17   13.82    2.53
  -2   0  17   14.99    2.73
  -2   0  16   25.96    3.28
  -2   0  16   23.92    3.09
  -2   0  15   98.46    6.27
  -2   0  15   93.32    6.09
  -2   0  14   13.88    2.24
  -2   0  14   13.66    2.22
  -2   0  13   75.24    4.83
  -2   0  13   75.51    4.96
  -2   0  12   33.19    3.01
  -2   0  12   37.16    3.34
  -2   0  11   18.14    2.11
  -2   0  11   20.30    2.36
  -2   0  10  592.09   13.78
  -2   0  10  618.49   14.74
   2   0 -10  612.94   15.46
  -2   0   9  359.25    9.23
  -2   0   9  353.16   10.15
   2   0  -9  367.88   10.95
  -2   0   8  830.13   15.66
  -2   0   8  842.73   17.34
   2   0  -8  849.20   18.17
  -2   0   7   11.19    1.17
  -2   0   7   11.71    1.53
   2   0  -7    9.17    1.39
  -2   0   6  675.97   11.80
  -2   0   6  673.33   14.26
   2   0  -6  654.86   12.82
   2   0  -5    4.41    0.57
  -2   0   5    4.77    0.59
  -2   0   5    5.59    1.12
   2   0  -5    3.89    0.74
   2   0  -4  662.74   10.29
   2   0  -4  621.87   12.73
  -2   0   4  630.59   13.50
   2   0  -3   15.81    1.58
  -2   0   3   14.61    1.59
  -2   0   2  761.25   15.56
   2   0  -2  817.20   15.72
   2   0  -2  801.59   12.99
  -2   0   2  787.88   12.83
  -2   0   1    0.08    0.32
   2   0  -1    0.10    0.38
   2   0   0    4.55    0.75
   2   0   0    5.40    1.01
   2   0   0    5.14    0.61
  -2   0  -1    8.19    0.86
   2   0   1    8.41    0.85
   2   0   1    8.36    0.82
  -2   0  -1    8.33    0.84
   2   0   2   31.76    1.40
  -2   0  -2   30.69    1.53
  -2   0  -2   38.21    1.99
   2   0   2   29.56    1.66
   2   0   3   80.41    4.82
  -2   0  -3   83.22    2.53
  -2   0  -3   78.01    3.19
   2   0   3   81.06    3.12
   2   0   4   24.63    2.80
  -2   0  -4   26.16    1.30
   2   0   4   28.96    1.99
  -2   0  -4   29.13    2.02
   2   0   5   99.84    5.90
  -2   0  -5   97.66    2.81
   2   0   5   97.16    4.16
  -2   0  -5   97.90    4.14
   2   0   6  290.10   10.93
  -2   0  -6  304.04    6.19
   2   0   6  297.42    8.66
  -2   0  -6  312.81    8.54
   2   0   7    9.97    2.15
  -2   0  -7    9.80    1.50
   2   0   7   10.32    1.63
   2   0   8  430.34   14.49
  -2   0  -8  449.41   11.77
   2   0   8  431.86   12.31
   2   0   9  252.62   11.04
   2   0   9  269.49    9.85
   2   0  10  419.36   15.01
   2   0  10  459.34   14.20
   2   0  11   44.40    4.71
   2   0  11   38.08    3.92
   2   0  12  243.40   11.50
   2   0  12  231.78   10.83
   2   0  13    2.82    2.28
   2   0  14  108.40    8.01
   2   0  15   50.66    5.59
   2   0  15   50.52    5.70
   2   0  16   37.69    4.91
   2   0  16   35.69    4.96
   2   0  17   57.68    6.36
   2   0  18   18.37    3.86
   2   0  19   51.56    6.36
   2   0  20   28.82    5.13
  -2  -1  22   62.98    6.59
  -2  -1  21   24.71    3.89
  -2  -1  21   23.44    3.91
  -2  -1  20   60.95    5.76
  -2  -1  20   60.44    5.91
  -2  -1  19   42.28    4.66
  -2  -1  19   45.39    4.91
  -2  -1  18   72.86    5.77
  -2  -1  18   63.59    5.60
  -2  -1  17    1.56    1.10
  -2  -1  17   -0.60    0.78
  -2  -1  16   37.90    3.91
  -2  -1  16   43.56    4.29
  -2  -1  15   38.14    3.73
  -2  -1  15   43.90    4.16
  -2  -1  14   12.40    2.01
  -2  -1  14   12.05    2.35
  -2  -1  13   26.41    2.73
  -2  -1  13   25.91    2.93
   2   1 -12   94.28    3.93
  -2  -1  12   94.79    4.93
  -2  -1  12   94.61    5.50
  -2  -1  11   21.16    2.14
   2   1 -11   20.53    1.67
  -2  -1  11   16.29    2.23
  -2  -1  10  157.44    5.66
   2   1 -10  156.72    4.73
  -2  -1  10  166.37    6.88
   2   1 -10  164.74    6.81
  -2  -1   9  387.07    8.86
  -2  -1   9  357.13   10.45
   2   1  -9  350.81   10.32
  -2  -1   8    4.66    0.75
   2   1  -8    5.24    1.10
  -2  -1   8    4.43    1.05
  -2  -1   7 1169.26   18.17
  -2  -1   7 1110.56   21.41
   2   1  -7 1115.00   21.12
  -2  -1   6   39.52    1.54
  -2  -1   6   36.63    2.73
   2   1  -6   38.09    2.39
   2   1  -6   43.01    2.71
  -2  -1   5 1808.94   30.24
   2   1  -5 1770.33   28.79
   2   1  -4   17.54    1.63
  -2  -1   4   18.70    1.92
  -2  -1   4   18.11    1.59
   2   1  -3  385.24    8.49
   2   1  -3  397.85    9.47
  -2  -1   3  396.38    8.39
  -2  -1   3  393.44   10.13
   2   1  -2   35.58    1.90
   2   1  -2   34.96    2.42
  -2  -1   2   33.37    2.50
   2   1  -1   98.29    4.27
  -2  -1   1   94.62    4.30
   2   1   0    6.59    1.15
   2   1   0    6.48    0.60
  -2  -1   0    6.79    0.64
   2   1   1  989.85   15.26
  -2  -1  -1  952.30   15.35
   2   1   1  929.65   15.18
   2   1   2   10.78    1.00
  -2  -1  -2   10.14    1.00
   2   1   3   42.12    2.28
  -2  -1  -3   41.04    2.26
  -2  -1  -4    1.66    0.61
   2   1   4    1.08    0.50
   2   1   5  421.33   13.62
   2   1   5  434.25   10.54
  -2  -1  -5  442.36   10.35
   2   1   6    4.78    1.39
  -2  -1  -6    6.79    0.57
  -2  -1  -6    5.81    1.11
   2   1   6    6.61    1.28
   2   1   7   27.56    3.41
  -2  -1  -7   32.91    2.71
   2   1   7   33.70    2.96
   2   1   8   48.44    4.84
   2   1   8   59.93    4.35
   2   1   9   90.29    6.66
   2   1   9  126.21    6.96
   2   1  10  147.25    8.62
   2   1  10  137.33    7.52
   2   1  11  147.98    8.92
   2   1  11  164.31    8.67
   2   1  12  114.17    7.94
   2   1  12  124.18    7.92
   2   1  13  101.16    7.60
   2   1  13   92.45    7.24
  -2  -1 -13  102.36    5.16
   2   1  13  106.66    7.68
   2   1  14   20.31    3.51
   2   1  14   22.54    3.74
  -2  -1 -14   19.39    2.36
   2   1  14   20.30    3.54
   2   1  15   52.65    5.86
   2   1  16    1.33    1.27
   2   1  17   13.32    3.16
   2   1  18   24.44    4.43
   2   1  19   29.90    5.02
  -2  -2  23    0.33    1.49
  -2  -2  22   37.66    5.09
  -2  -2  21   12.32    2.78
  -2  -2  21    9.65    2.72
  -2  -2  20   62.72    5.67
  -2  -2  20   72.64    6.65
  -2  -2  19   68.35    5.66
  -2  -2  19   78.21    6.60
  -2  -2  18   34.94    3.89
  -2  -2  18   26.87    3.71
  -2  -2  17   28.06    3.44
  -2  -2  17   30.02    3.74
  -2  -2  16   40.02    3.94
  -2  -2  16   55.46    4.96
  -2  -2  15   24.31    2.97
  -2  -2  15   36.28    3.95
   2   2 -14    8.13    1.35
  -2  -2  14   11.50    1.86
  -2  -2  14   15.00    2.48
  -2  -2  13   16.86    2.09
   2   2 -13   16.16    1.82
  -2  -2  13   16.19    2.36
   2   2 -12   37.73    2.69
  -2  -2  12   41.24    3.07
  -2  -2  12   39.46    3.54
  -2  -2  11   87.42    4.21
  -2  -2  11   92.34    5.28
  -2  -2  10    8.55    1.18
  -2  -2  10    9.11    1.58
   2   2 -10    9.14    1.49
  -2  -2   9    6.84    0.89
   2   2  -9    6.63    1.21
  -2  -2   9    5.69    1.23
  -2  -2   8   33.46    1.73
  -2  -2   8   32.20    2.75
   2   2  -8   30.19    2.40
  -2  -2   7    1.78    0.32
   2   2  -7    2.72    0.69
  -2  -2   7    0.86    0.67
  -2  -2   6  560.78   13.03
   2   2  -6  556.95   11.72
   2   2  -6  555.10   11.52
  -2  -2   5    2.94    0.91
  -2  -2   5    2.43    0.82
   2   2  -5    3.23    0.82
   2   2  -5    3.02    0.67
   2   2  -4 3479.28   49.29
  -2  -2   4 2958.66   50.30
   2   2  -4 3264.92   48.95
  -2  -2   4 3328.46   48.91
   2   2  -4 3153.65   46.51
   2   2  -3    0.27    0.19
  -2  -2   3    0.07    0.24
   2   2  -3    0.88    0.53
   2   2  -3    0.46    0.26
  -2  -2   3    0.89    0.55
  -2  -2   2 2826.41   45.15
   2   2  -2 2905.03   44.50
   2   2  -2 2905.07   43.41
   2   2  -1  141.67    5.26
  -2  -2   1  136.95    5.45
   2   2   0    2.45    0.72
   2   2   0    2.33    0.34
  -2  -2   0    2.68    0.40
   2   2   1    4.51    1.10
   2   2   1    2.78    0.51
  -2  -2  -1    1.44    0.36
   2   2   2  319.37    7.11
  -2  -2  -2  317.24    6.96
  -2  -2  -3   73.02    3.18
   2   2   3   66.07    3.18
  -2  -2  -4   62.85    3.16
   2   2   4   60.36    3.28
   2   2   5  128.59    5.41
  -2  -2  -5  137.29    5.21
   2   2   6   10.48    1.61
  -2  -2  -6    8.63    1.37
   2   2   7   10.78    2.87
  -2  -2  -7   12.45    1.96
   2   2   7   10.64    2.12
   2   2   8   14.86    3.07
  -2  -2  -8    7.29    1.35
   2   2   9    2.00    1.27
   2   2   9    0.32    0.96
  -2  -2  -9    0.39    0.38
   2   2   9    0.58    0.91
   2   2  10   43.93    4.56
   2   2  10   38.93    4.54
  -2  -2 -10   43.73    2.45
   2   2  10   47.16    4.45
   2   2  11  128.35    8.53
   2   2  11  115.71    7.71
  -2  -2 -11  118.36    4.53
   2   2  11  117.37    7.48
   2   2  12   73.30    6.48
   2   2  12   72.58    6.25
  -2  -2 -12   72.25    3.67
   2   2  12   78.68    6.37
   2   2  13  209.61   11.42
   2   2  13  207.51   11.18
   2   2  14   21.47    3.67
   2   2  14   19.68    3.50
   2   2  15   98.18    7.93
   2   2  15   87.93    7.57
   2   2  16   17.82    3.55
   2   2  17    9.02    2.68
   2   2  18   11.14    3.24
  -2  -3  24   27.46    4.71
  -2  -3  23   29.12    4.65
  -2  -3  22   20.55    3.93
  -2  -3  21   81.76    7.39
  -2  -3  20    8.80    2.20
  -2  -3  20    9.97    2.76
  -2  -3  19  113.04    7.11
  -2  -3  19  104.39    7.72
  -2  -3  18   24.27    3.42
  -2  -3  18   26.73    3.92
  -2  -3  17  128.50    7.10
  -2  -3  17  154.35    8.64
   2   3 -16  215.09    8.34
  -2  -3  16  222.31    8.97
  -2  -3  16  238.32   10.51
  -2  -3  15   41.78    3.53
   2   3 -15   44.42    3.54
  -2  -3  15   49.16    4.41
   2   3 -14   32.74    2.93
  -2  -3  14   33.37    2.95
  -2  -3  14   32.51    3.56
  -2  -3  13    1.98    0.80
  -2  -3  13    2.14    1.20
  -2  -3  12   67.91    3.82
  -2  -3  12   67.67    4.70
   2   3 -11    9.47    1.43
  -2  -3  11   11.14    1.79
  -2  -3  10   31.33    2.96
   2   3 -10   23.58    2.23
  -2  -3   9    0.31    0.52
   2   3  -9    0.26    0.35
  -2  -3   8   44.89    3.30
   2   3  -8   42.45    2.63
  -2  -3   7   17.79    2.11
  -2  -3   7   24.05    2.36
   2   3  -7   18.77    1.61
  -2  -3   6   52.85    3.59
  -2  -3   6   42.76    3.28
   2   3  -6   35.53    2.06
   2   3  -6   40.71    2.65
   2   3  -5  162.60    5.54
  -2  -3   5  177.86    6.37
  -2  -3   5  154.24    6.15
   2   3  -5  182.99    4.44
   2   3  -4   22.53    1.13
  -2  -3   4   24.38    2.29
   2   3  -4   20.70    1.82
   2   3  -4   21.92    2.00
  -2  -3   4   20.39    1.91
   2   3  -4   23.74    1.17
   2   3  -3  458.81    8.54
   2   3  -3  449.93   10.48
   2   3  -3  482.43   10.81
  -2  -3   3  446.85   11.34
   2   3  -2  240.75    5.92
   2   3  -2  229.80    6.95
  -2  -3   2  235.22    7.62
   2   3  -1  950.89   16.84
  -2  -3   1  913.64   18.65
   2   3  -1  914.66   17.71
   2   3   0    5.31    0.95
   2   3   0    3.67    0.88
  -2  -3   0    4.62    1.13
   2   3   0    4.53    0.57
  -2  -3   0    2.95    0.40
   2   3   1 1126.76   20.90
   2   3   1 1111.82   20.70
   2   3   1 1104.39   17.88
  -2  -3  -1 1074.08   17.39
   2   3   2   10.51    1.53
   2   3   2   10.94    1.47
  -2  -3  -2    9.87    1.10
   2   3   2   11.79    1.27
   2   3   3  303.36    9.83
  -2  -3  -3  315.74    7.76
   2   3   3  314.84    8.23
   2   3   4   24.48    2.74
  -2  -3  -4   27.06    2.11
   2   3   4   26.45    2.34
   2   3   5  282.17   10.08
   2   3   5  288.60    9.00
  -2  -3  -5  291.02    8.25
   2   3   6  311.51   11.23
  -2  -3  -6  342.16    9.49
   2   3   6  324.50   10.30
   2   3   7   71.23    5.46
  -2  -3  -7   78.08    4.54
   2   3   7   77.84    4.98
   2   3   8  107.23    6.77
   2   3   8  111.75    6.39
   2   3   9   19.11    3.06
   2   3   9   21.29    3.47
   2   3   9   16.89    2.55
   2   3  10   12.44    2.74
   2   3  10   10.81    2.32
  -2  -3 -10   11.09    0.88
   2   3  11   -0.25    1.11
   2   3  11   -0.46    1.27
  -2  -3 -11    0.87    0.44
   2   3  12   27.38    4.10
   2   3  12   35.33    4.47
   2   3  13   25.18    3.90
   2   3  13   25.82    4.00
   2   3  14   96.67    7.98
   2   3  14  103.30    8.10
   2   3  15   33.40    4.75
   2   3  15   32.12    4.70
   2   3  16   60.00    6.60
   2   3  17    5.14    1.86
   2   3  18   22.17    4.36
  -2  -4  25   21.78    4.58
  -2  -4  24    8.19    2.66
  -2  -4  23   33.00    5.07
  -2  -4  22   28.64    4.63
  -2  -4  21   52.28    5.81
  -2  -4  20   97.81    6.66
  -2  -4  20   95.28    7.71
  -2  -4  19   41.55    4.18
  -2  -4  19   43.63    5.04
  -2  -4  18  354.81   12.42
  -2  -4  18  364.01   14.39
  -2  -4  17    4.77    1.67
  -2  -4  17   11.48    4.11
  -2  -4  16  255.88    9.48
   2   4 -16  251.12    9.61
  -2  -4  16  269.05   11.29
  -2  -4  15   34.87    3.11
  -2  -4  15   32.61    3.83
  -2  -4  14  195.99    9.00
  -2  -4  13   56.63    4.57
  -2  -4  12   52.21    4.24
  -2  -4  12   57.32    4.69
  -2  -4  11   91.74    5.44
  -2  -4  11   94.44    5.75
   2   4 -11   97.57    4.70
  -2  -4  10    3.35    1.08
   2   4 -10    1.76    0.56
  -2  -4  10    1.28    0.63
  -2  -4   9   49.94    3.77
   2   4  -9   48.37    2.85
  -2  -4   9   48.64    3.53
  -2  -4   8  156.44    7.13
  -2  -4   8  165.45    6.82
   2   4  -8  157.32    5.01
  -2  -4   8  155.64    6.02
  -2  -4   7    0.26    0.19
  -2  -4   7   -0.02    0.41
  -2  -4   7    0.05    0.55
   2   4  -7    0.11    0.21
  -2  -4   6   13.94    0.88
  -2  -4   6   17.55    2.12
   2   4  -6   15.94    1.21
   2   4  -6   15.90    1.62
  -2  -4   6   11.34    1.67
   2   4  -5  121.13    3.28
  -2  -4   5  122.95    3.33
  -2  -4   5  124.03    5.52
   2   4  -5  119.97    4.65
   2   4  -5  127.91    5.55
  -2  -4   5  118.30    5.42
   2   4  -5  123.61    3.10
  -2  -4   4   86.85    3.08
   2   4  -4   86.29    2.89
   2   4  -4   88.92    3.92
  -2  -4   4   84.67    4.48
  -2  -4   4   84.86    4.39
   2   4  -4   87.32    4.40
   2   4  -4   83.72    2.01
  -2  -4   3    2.68    0.61
   2   4  -3    2.84    0.59
   2   4  -3    1.16    0.60
  -2  -4   3    1.84    0.79
   2   4  -3    2.37    0.70
   2   4  -2   59.09    2.95
   2   4  -2   63.62    3.37
  -2  -4   2   60.60    3.79
   2   4  -1  214.16    6.52
   2   4  -1  217.29    6.71
  -2  -4   1  209.71    7.45
   2   4   0  306.56    8.66
   2   4   0  294.06    8.26
  -2  -4   0  306.97    9.20
  -2  -4   0  299.54    5.80
   2   4   1  203.99    4.73
   2   4   1  191.54    7.04
   2   4   1  191.21    6.58
  -2  -4  -1  204.99    4.99
   2   4   2  917.11   14.50
   2   4   2  893.06   19.31
   2   4   2  894.41   18.00
  -2  -4  -2  903.35   15.86
   2   4   3   11.78    1.90
   2   4   3   10.08    1.51
  -2  -4  -3    9.39    1.23
   2   4   4  478.43   13.77
   2   4   4  493.57   12.49
  -2  -4  -4  486.62   11.26
   2   4   5   18.41    2.53
  -2  -4  -5   22.01    2.14
   2   4   6  221.84    9.50
  -2  -4  -6  216.48    7.55
   2   4   7  185.38    8.90
   2   4   8   19.50    2.98
   2   4   9  274.36   11.89
   2   4  10  103.01    7.39
   2   4  10  110.30    8.28
   2   4  11   40.93    4.75
   2   4  11   39.32    5.18
   2   4  12   10.07    2.64
   2   4  12    7.21    2.04
   2   4  13    7.86    2.60
   2   4  13   10.14    2.55
   2   4  14   31.77    4.72
   2   4  14   35.13    4.86
   2   4  15   30.31    4.69
   2   4  15   26.08    4.42
   2   4  16   26.07    4.46
   2   4  17   28.87    4.87
  -2  -5  24    6.06    2.39
  -2  -5  23   12.54    3.27
  -2  -5  22   49.87    6.02
  -2  -5  21   15.85    3.34
  -2  -5  20   72.87    6.76
  -2  -5  19   65.88    5.07
  -2  -5  19   62.86    6.03
  -2  -5  18   64.16    4.81
  -2  -5  18   63.75    6.01
  -2  -5  17   86.19    5.36
  -2  -5  17   82.48    6.42
  -2  -5  16   15.79    2.73
  -2  -5  15  637.61   18.29
  -2  -5  15  605.77   19.42
  -2  -5  14    1.56    1.43
  -2  -5  14    3.31    1.56
  -2  -5  13  519.74   15.47
  -2  -5  13  522.50   16.16
  -2  -5  12  123.14    6.75
  -2  -5  12  132.90    7.16
  -2  -5  11  337.48   11.43
   2   5 -11  341.76    9.26
  -2  -5  11  329.42   11.16
   2   5 -10   16.11    1.67
  -2  -5  10   13.42    2.16
  -2  -5  10   15.81    2.04
  -2  -5   9  173.32    7.58
  -2  -5   9  175.37    8.14
  -2  -5   9  172.49    6.68
   2   5  -9  172.37    5.44
  -2  -5   8    9.00    1.05
  -2  -5   8   14.47    2.48
  -2  -5   8   13.00    2.41
  -2  -5   8   15.89    2.26
   2   5  -8    8.38    1.18
  -2  -5   7    6.60    0.73
  -2  -5   7    6.87    1.51
  -2  -5   7    6.43    1.46
   2   5  -7    6.63    0.84
  -2  -5   7    4.78    0.91
  -2  -5   6    0.26    0.28
  -2  -5   6    1.12    0.65
  -2  -5   6    0.00    0.44
   2   5  -6    0.44    0.61
   2   5  -6    0.59    0.26
  -2  -5   6    0.34    0.37
  -2  -5   5    6.53    0.87
   2   5  -5    6.52    0.83
  -2  -5   5    7.59    1.43
  -2  -5   5    5.17    1.22
   2   5  -5    6.88    1.33
   2   5  -5    6.36    0.58
   2   5  -5    6.34    1.09
  -2  -5   5    6.88    0.76
  -2  -5   4    2.20    0.54
   2   5  -4    3.57    0.72
   2   5  -4    2.47    0.92
  -2  -5   4    1.73    0.80
   2   5  -4    3.08    0.79
  -2  -5   3    3.29    0.77
   2   5  -3    3.12    0.72
  -2  -5   3    4.30    1.14
   2   5  -3    2.55    0.96
   2   5  -3    2.69    0.64
   2   5  -2  125.53    4.78
  -2  -5   2  130.06    5.23
  -2  -5   2  120.49    5.58
   2   5  -2  125.83    4.86
   2   5  -1    0.17    0.38
   2   5  -1    0.17    0.41
  -2  -5   1    0.30    0.42
  -2  -5   1    0.17    0.16
   2   5   0  146.47    5.97
   2   5   0  147.91    5.42
  -2  -5   0  151.59    6.28
  -2  -5   0  145.60    3.78
   2   5   1  200.23    5.29
   2   5   1  195.13    7.42
   2   5   1  196.73    6.53
  -2  -5  -1  203.44    5.27
   2   5   2  304.12    6.93
   2   5   2  319.94   10.26
   2   5   2  319.15    8.76
  -2  -5  -2  317.13    7.62
   2   5   3  676.86   12.10
   2   5   3  657.42   16.83
   2   5   3  672.43   14.71
  -2  -5  -3  677.02   13.93
   2   5   4   58.33    4.58
   2   5   4   76.10    4.35
  -2  -5  -4   73.71    3.85
   2   5   5  465.97   14.41
  -2  -5  -5  480.90   11.78
   2   5   6    2.81    1.05
   2   5   6    0.94    0.73
  -2  -5  -6    4.69    1.20
   2   5   7  126.07    7.56
   2   5   8   39.29    4.30
   2   5   9  290.08   12.56
   2   5  10  229.61   11.37
   2   5  11   12.35    2.71
   2   5  11    9.61    2.63
   2   5  12   80.76    7.58
   2   5  12   75.68    6.83
   2   5  13   42.98    5.66
   2   5  13   36.24    4.96
   2   5  14   31.47    4.92
   2   5  14   36.34    5.11
   2   5  15   30.17    4.76
   2   5  16    0.10    1.40
  -2  -6  24    0.79    1.38
  -2  -6  23    0.80    1.40
  -2  -6  22    0.61    1.45
  -2  -6  21   38.38    5.25
  -2  -6  20    0.13    1.68
  -2  -6  19   60.74    4.73
  -2  -6  19   60.18    5.93
  -2  -6  18    7.91    1.67
  -2  -6  18    9.88    2.36
  -2  -6  17   15.03    2.82
  -2  -6  16  223.24   10.72
  -2  -6  16  229.56   11.69
  -2  -6  15    3.80    1.67
  -2  -6  15    1.68    1.40
  -2  -6  14  436.98   14.57
  -2  -6  14  439.87   15.20
  -2  -6  13    3.65    1.72
  -2  -6  13    2.17    1.36
  -2  -6  12  848.07   20.87
   2   6 -12  871.63   17.63
  -2  -6  12  849.18   20.55
   2   6 -11    3.93    1.01
  -2  -6  11    6.37    1.86
  -2  -6  11    2.37    1.26
  -2  -6  10  787.18   19.50
   2   6 -10  830.03   15.81
  -2  -6  10  853.24   18.35
  -2  -6   9  207.38    5.54
  -2  -6   9  216.46    9.34
  -2  -6   9  215.36    8.79
   2   6  -9  216.07    6.04
  -2  -6   9  217.81    7.43
  -2  -6   8  209.02    5.57
  -2  -6   8  231.37    9.43
  -2  -6   8  215.93    8.57
  -2  -6   8  222.39    6.98
   2   6  -8  245.36    6.00
  -2  -6   7  123.62    4.02
   2   6  -7  131.53    6.62
  -2  -6   7  114.63    5.91
  -2  -6   7  124.24    6.54
   2   6  -7  115.52    3.59
  -2  -6   7  121.53    4.35
  -2  -6   6   44.93    2.47
   2   6  -6   48.11    3.78
  -2  -6   6   46.90    3.65
  -2  -6   6   44.55    3.77
  -2  -6   6   46.42    2.22
   2   6  -6   45.90    1.91
  -2  -6   5  189.14    5.84
   2   6  -5  193.48    5.74
  -2  -6   5  188.21    7.52
   2   6  -5  190.07    7.69
  -2  -6   5  197.60    4.34
   2   6  -5  198.10    6.35
   2   6  -4   10.72    1.32
  -2  -6   4   11.99    1.46
  -2  -6   4   10.41    1.68
   2   6  -4    9.69    1.66
   2   6  -4   13.92    1.54
   2   6  -3  118.15    4.71
  -2  -6   3  109.31    4.87
   2   6  -3  118.05    6.03
  -2  -6   3  106.13    5.43
   2   6  -3  114.14    4.55
   2   6  -2  215.73    7.02
  -2  -6   2  234.37    7.85
  -2  -6   2  214.99    7.93
   2   6  -2  215.19    6.59
  -2  -6   1    1.92    0.69
   2   6  -1    1.76    0.65
  -2  -6   1    4.69    1.25
  -2  -6   1    2.49    0.42
   2   6  -1    1.85    0.62
   2   6   0   43.29    2.53
   2   6   0   44.08    3.34
   2   6   0   47.14    2.85
  -2  -6   0   45.07    3.42
  -2  -6   0   45.29    2.07
   2   6   1  189.29    5.72
   2   6   1  193.15    7.72
   2   6   1  200.60    6.33
  -2  -6  -1  189.41    5.40
   2   6   2   61.52    3.00
   2   6   2   63.39    4.49
   2   6   2   61.05    3.45
  -2  -6  -2   69.97    3.36
   2   6   3  260.35    6.84
   2   6   3  271.25   10.06
   2   6   3  244.32    7.50
  -2  -6  -3  264.48    7.56
   2   6   4  158.99    4.81
   2   6   4  189.42    9.02
   2   6   4  167.72    6.12
  -2  -6  -4  178.22    6.43
   2   6   5  216.83    9.68
   2   6   5  219.52    7.37
  -2  -6  -5  217.03    7.60
   2   6   6  211.39    9.85
   2   6   6  205.93    7.39
   2   6   7   52.03    5.00
   2   6   7   52.12    3.66
   2   6   8  750.37   21.79
   2   6   8  779.02   17.61
   2   6   9   34.85    4.36
   2   6  10   17.40    3.24
   2   6  11  105.30    8.96
   2   6  11  103.42    8.04
   2   6  12    1.66    1.27
   2   6  12    0.41    1.38
   2   6  13  111.52    8.82
   2   6  13  130.66   10.22
   2   6  14   35.87    5.68
   2   6  14   26.59    4.40
   2   6  15   65.31    7.06
  -2  -7  24    8.83    2.96
  -2  -7  23    3.79    2.14
  -2  -7  22   16.03    3.62
  -2  -7  21   21.50    3.97
  -2  -7  20    3.85    2.91
  -2  -7  19    1.16    1.27
  -2  -7  18   13.20    2.81
  -2  -7  18   16.34    3.29
  -2  -7  17   38.94    4.53
  -2  -7  17   54.98    5.74
  -2  -7  16    4.81    1.81
  -2  -7  16    5.56    1.79
  -2  -7  15    0.55    1.03
  -2  -7  15    1.27    1.14
  -2  -7  14   55.40    4.97
  -2  -7  14   50.03    4.75
  -2  -7  13  237.89   10.39
  -2  -7  13  252.63   10.26
  -2  -7  12    1.34    1.28
   2   7 -12    1.24    0.64
  -2  -7  12    0.44    0.74
  -2  -7  11  929.91   16.76
  -2  -7  11  872.18   21.60
   2   7 -11  895.40   17.35
  -2  -7  11  906.37   20.12
  -2  -7  10   23.01    1.82
  -2  -7  10   27.41    3.40
   2   7 -10   23.35    1.94
  -2  -7  10   25.80    2.60
  -2  -7   9  655.85   13.22
  -2  -7   9  688.21   17.83
   2   7  -9  732.74   13.54
  -2  -7   9  695.52   14.92
  -2  -7   8   75.54    3.37
  -2  -7   8   73.61    4.98
   2   7  -8   78.22    3.12
  -2  -7   8   70.93    3.57
  -2  -7   7  729.59   14.42
  -2  -7   7  732.24   18.05
   2   7  -7  731.01   18.53
  -2  -7   7  702.37   18.59
   2   7  -7  759.75   13.05
  -2  -7   7  729.87   13.64
   2   7  -6   67.49    3.41
  -2  -7   6   61.11    3.39
   2   7  -6   68.40    4.79
  -2  -7   6   55.27    4.16
  -2  -7   6   62.06    2.43
  -2  -7   5  272.86    8.10
   2   7  -5  281.72    7.85
   2   7  -5  280.37   10.11
  -2  -7   5  282.10    9.76
  -2  -7   5  280.72    5.30
  -2  -7   4  386.18   10.53
   2   7  -4  397.47   10.04
  -2  -7   4  395.70   11.82
   2   7  -4  415.06   12.71
   2   7  -4  399.46    9.75
  -2  -7   3    0.11    0.52
   2   7  -3    0.02    0.54
  -2  -7   3    1.48    0.83
   2   7  -3    0.29    0.57
   2   7  -3    0.14    0.35
  -2  -7   2  206.32    7.93
   2   7  -2  211.54    7.45
   2   7  -2  209.42    6.42
  -2  -7   2  199.94    7.93
  -2  -7   2  215.42    4.34
   2   7  -1    4.20    0.91
  -2  -7   1    5.93    1.36
   2   7  -1    4.45    1.12
  -2  -7   1    5.83    1.25
  -2  -7   1    4.69    0.62
   2   7  -1    5.30    0.95
   2   7   0   37.92    2.62
   2   7   0   41.51    3.42
  -2  -7   0   42.61    3.41
   2   7   0   41.43    2.61
  -2  -7   0   40.36    2.14
   2   7   1    0.24    0.41
   2   7   1    0.57    0.51
   2   7   1   -0.08    0.31
  -2  -7  -1    0.54    0.44
   2   7   2  122.22    5.03
   2   7   2  117.44    6.50
   2   7   2  129.75    4.87
  -2  -7  -2  124.62    4.85
   2   7   3   18.19    2.04
   2   7   3   22.84    3.10
   2   7   3   13.94    1.56
  -2  -7  -3   23.29    2.60
   2   7   4  303.99    7.96
   2   7   4  321.93   11.98
   2   7   4  310.98    8.45
  -2  -7  -4  321.02    9.25
   2   7   5   71.29    5.60
   2   7   5   71.10    3.64
  -2  -7  -5   81.69    4.60
   2   7   6  399.17   14.55
   2   7   6  408.69   10.24
   2   7   7  321.75   13.20
   2   7   7  307.07    8.90
   2   7   8    4.19    1.77
   2   7   9    5.12    1.81
   2   7  10    4.23    1.83
   2   7  11   21.85    3.88
   2   7  12   29.70    5.01
   2   7  12   21.97    3.86
   2   7  13   19.67    5.08
   2   7  13    8.85    2.85
   2   7  14   43.83    5.82
  -2  -8  23   33.31    5.21
  -2  -8  22   11.94    3.32
  -2  -8  21   16.98    3.57
  -2  -8  20    0.52    1.26
  -2  -8  19   19.46    3.51
  -2  -8  19   19.53    3.84
  -2  -8  18    3.69    1.86
  -2  -8  18    2.60    1.34
  -2  -8  17    8.31    2.14
  -2  -8  17    4.15    1.55
  -2  -8  16   30.12    4.01
  -2  -8  16   27.11    3.76
  -2  -8  15    3.98    1.66
  -2  -8  15    1.90    1.03
  -2  -8  14   10.31    2.25
  -2  -8  14    9.93    2.03
  -2  -8  13    1.51    1.03
  -2  -8  13   -0.09    0.74
  -2  -8  12    4.79    1.00
   2   8 -12    3.05    0.84
  -2  -8  12    3.83    1.15
  -2  -8  12    8.46    1.91
  -2  -8  11   70.95    3.56
  -2  -8  11   70.32    5.39
  -2  -8  11   69.01    4.52
   2   8 -11   71.90    3.65
  -2  -8  10  169.78    5.86
  -2  -8  10  178.92    8.84
   2   8 -10  198.85    6.05
  -2  -8  10  184.92    6.98
  -2  -8   9    4.83    0.93
  -2  -8   9    5.26    1.12
  -2  -8   9    2.45    1.15
   2   8  -9    4.80    0.92
  -2  -8   8 1023.41   19.49
   2   8  -8 1048.34   24.59
  -2  -8   8 1021.55   23.46
   2   8  -8 1081.23   18.12
  -2  -8   8 1026.06   18.58
  -2  -8   7   36.23    2.70
  -2  -8   7   32.98    3.41
   2   8  -7   35.31    3.67
  -2  -8   7   32.11    1.97
   2   8  -6 1186.73   21.88
  -2  -8   6 1179.65   22.15
  -2  -8   6 1162.02   25.08
   2   8  -6 1184.96   25.81
  -2  -8   6 1158.74   18.23
  -2  -8   5   73.58    4.21
   2   8  -5   71.11    3.94
  -2  -8   5   76.08    5.02
   2   8  -5   74.24    5.19
  -2  -8   5   73.37    2.09
  -2  -8   4  291.02    9.54
   2   8  -4  304.19    9.13
  -2  -8   4  303.81   10.45
   2   8  -4  303.62   11.26
  -2  -8   3  105.94    5.64
   2   8  -3  114.10    5.44
   2   8  -3  102.77    6.43
  -2  -8   3  107.06    5.85
  -2  -8   3  106.71    2.51
   2   8  -3  117.63    4.61
   2   8  -2  169.36    6.45
   2   8  -2  170.96    7.00
  -2  -8   2  174.58    7.75
  -2  -8   2  162.04    7.27
   2   8  -2  175.84    5.74
  -2  -8   2  177.73    4.27
   2   8  -1  157.04    6.09
   2   8  -1  162.16    7.07
  -2  -8   1  169.15    7.99
  -2  -8   1  159.66    7.12
   2   8  -1  166.17    5.42
  -2  -8   1  166.17    4.59
   2   8   0    0.33    0.59
   2   8   0    1.87    1.09
  -2  -8   0    2.23    1.31
  -2  -8   0    0.17    0.39
   2   8   0    2.41    0.82
   2   8   1   28.34    2.57
   2   8   1   18.93    2.68
   2   8   1   20.33    1.82
  -2  -8  -1   27.34    2.12
   2   8   2    8.57    1.82
   2   8   2   10.33    1.55
  -2  -8  -2    7.88    1.28
   2   8   2    7.29    1.05
   2   8   3    2.69    1.02
   2   8   3    1.00    0.75
   2   8   3    1.59    0.59
  -2  -8  -3    2.20    0.81
   2   8   4   55.63    3.40
   2   8   4   52.71    4.86
   2   8   4   53.77    2.76
  -2  -8  -4   49.67    3.52
   2   8   5   52.25    2.98
   2   8   5   47.39    4.81
   2   8   5   49.66    2.62
  -2  -8  -5   53.49    3.78
   2   8   6  144.48    8.74
   2   8   6  146.21    4.79
   2   8   7   53.75    5.38
   2   8   8   12.40    2.75
   2   8   9  106.52    8.11
   2   8  10   25.56    4.05
   2   8  11   22.58    3.98
   2   8  12   19.07    4.38
   2   8  12    6.70    3.15
   2   8  13    0.54    0.97
   2   8  13    2.06    1.98
  -2  -9  23  104.33    9.53
  -2  -9  22   25.55    4.56
  -2  -9  21   36.83    5.28
  -2  -9  20    9.16    2.63
  -2  -9  19   45.09    5.48
  -2  -9  19   48.84    5.87
  -2  -9  18   14.78    2.87
  -2  -9  18   12.56    2.62
  -2  -9  17    2.49    1.56
  -2  -9  17   -1.04    1.32
  -2  -9  16   -0.34    1.10
  -2  -9  16   -0.95    1.47
  -2  -9  15  117.72    7.80
  -2  -9  15  105.20    6.96
  -2  -9  14    0.02    0.42
  -2  -9  14    0.77    0.87
  -2  -9  14   -0.35    1.00
  -2  -9  13   30.61    2.50
  -2  -9  13   23.29    3.36
  -2  -9  13   27.51    3.12
  -2  -9  12    3.58    0.82
  -2  -9  12    3.82    1.16
  -2  -9  12    1.01    1.03
   2   9 -12    4.59    1.31
  -2  -9  11   23.14    2.15
   2   9 -11   25.14    2.15
  -2  -9  11   22.13    3.13
  -2  -9  11   24.74    2.54
  -2  -9  10   40.10    2.85
  -2  -9  10   39.34    4.05
   2   9 -10   33.65    2.38
  -2  -9  10   39.68    2.96
  -2  -9   9  174.67    6.41
   2   9  -9  193.52    9.52
  -2  -9   9  181.32    8.79
   2   9  -9  184.35    5.71
  -2  -9   9  167.90    5.90
  -2  -9   8  105.79    5.01
  -2  -9   8  106.96    6.54
   2   9  -8  116.59    7.13
  -2  -9   8   98.25    3.90
  -2  -9   7  526.60   13.19
  -2  -9   7  541.51   15.91
   2   9  -7  539.74   16.41
  -2  -9   7  533.69   10.21
  -2  -9   6   12.41    1.85
   2   9  -6   14.12    1.86
   2   9  -6   14.07    2.31
  -2  -9   6   10.31    2.12
  -2  -9   6   10.42    0.88
  -2  -9   5  691.38   16.67
   2   9  -5  676.92   16.01
   2   9  -5  719.15   19.47
  -2  -9   5  669.09   17.90
  -2  -9   5  719.61   11.19
  -2  -9   4   48.48    3.87
   2   9  -4   51.03    3.69
   2   9  -4   46.85    4.45
  -2  -9   4   50.20    4.22
  -2  -9   4   48.01    1.55
   2   9  -3  591.69   14.63
   2   9  -3  619.46   15.30
  -2  -9   3  628.38   16.44
   2   9  -3  623.34   18.20
  -2  -9   3  583.22   16.03
  -2  -9   3  599.12    9.93
   2   9  -2   75.63    4.45
   2   9  -2   86.75    5.17
  -2  -9   2   87.47    5.41
  -2  -9   2   82.63    2.99
   2   9  -1   96.71    5.07
   2   9  -1   97.47    5.71
  -2  -9   1   95.89    5.55
  -2  -9   1   98.38    3.64
   2   9   0   54.34    3.69
   2   9   0   53.24    4.31
  -2  -9   0   59.45    4.16
   2   9   0   61.69    3.00
  -2  -9   0   58.99    2.99
   2   9   1   23.68    2.43
   2   9   1   26.92    3.31
   2   9   1   26.54    1.89
  -2  -9  -1   25.07    2.08
   2   9   2  241.41    8.37
   2   9   2  249.12   10.45
   2   9   2  237.16    6.17
  -2  -9  -2  251.38    7.67
   2   9   3   56.23    3.84
   2   9   3   58.55    5.11
   2   9   3   57.75    2.62
  -2  -9  -3   57.82    3.69
   2   9   4   24.82    2.47
   2   9   4   25.99    3.54
   2   9   4   30.11    1.75
  -2  -9  -4   26.63    2.67
   2   9   5    1.31    0.89
   2   9   6   -0.23    1.07
   2   9   7   42.76    4.94
   2   9   8   78.71    6.92
   2   9   9   50.97    5.72
   2   9  10   77.58    7.32
   2   9  11    7.81    2.42
   2   9  12   45.81    5.85
  -2 -10  23    4.53    3.19
  -2 -10  22  114.65    9.66
  -2 -10  21    2.45    1.72
  -2 -10  20  189.49   11.76
  -2 -10  20  180.38   11.63
  -2 -10  19    1.44    1.31
  -2 -10  19    5.55    2.39
  -2 -10  18  108.31    8.38
  -2 -10  18   97.79    7.71
  -2 -10  17   10.29    2.31
  -2 -10  17   18.00    3.49
  -2 -10  16   38.74    4.91
  -2 -10  16   25.04    3.65
  -2 -10  15    8.86    2.04
  -2 -10  15   10.14    2.46
  -2 -10  14   73.58    4.08
  -2 -10  14   58.90    5.58
  -2 -10  14   68.11    5.10
  -2 -10  13    1.13    0.69
  -2 -10  13    0.62    0.96
  -2 -10  13    2.47    1.73
   2  10 -13    0.70    0.70
  -2 -10  12   69.33    4.06
  -2 -10  12   83.73    6.54
   2  10 -12   75.38    4.06
  -2 -10  12   73.77    4.68
  -2 -10  11    4.01    0.96
  -2 -10  11    5.79    1.31
  -2 -10  11    5.26    1.73
   2  10 -11    4.46    0.95
  -2 -10  10    7.37    1.38
  -2 -10  10    6.03    1.14
  -2 -10  10    7.29    1.82
  -2 -10   9    4.78    1.23
   2  10  -9    4.10    1.45
  -2 -10   9    4.75    0.96
  -2 -10   9    3.12    1.26
  -2 -10   8    6.52    1.40
  -2 -10   8    5.23    1.70
   2  10  -8    6.68    1.79
  -2 -10   8    6.60    0.98
  -2 -10   7   78.84    4.80
  -2 -10   7   84.78    5.97
   2  10  -7   81.68    6.10
  -2 -10   7   75.00    2.87
  -2 -10   6  210.69    8.43
   2  10  -6  229.35    8.42
   2  10  -6  221.56   10.31
  -2 -10   6  217.33    9.67
  -2 -10   6  219.67    4.87
  -2 -10   5  142.51    7.01
   2  10  -5  151.59    6.81
   2  10  -5  142.63    8.15
  -2 -10   5  140.57    7.55
  -2 -10   5  141.93    3.33
   2  10  -4  380.78   12.05
  -2 -10   4  399.55   13.18
   2  10  -4  404.37   14.71
  -2 -10   4  409.56    7.16
   2  10  -3   51.31    3.94
   2  10  -3   56.65    4.29
   2  10  -3   55.63    5.20
  -2 -10   3   55.53    4.50
  -2 -10   3   54.75    2.37
   2  10  -2  239.79    8.94
   2  10  -2  233.42    9.33
  -2 -10   2  238.95    9.56
  -2 -10   2  236.36    6.10
   2  10  -1   38.87    3.44
   2  10  -1   34.83    3.69
  -2 -10   1   34.68    3.47
  -2 -10   1   35.47    2.32
   2  10   0  140.06    7.52
   2  10   0  147.48    6.79
  -2 -10   0  139.86    5.10
   2  10   1   86.61    6.07
   2  10   1   90.41    5.29
  -2 -10  -1   99.15    4.43
   2  10   2  143.51    8.16
   2  10   2  153.60    6.98
  -2 -10  -2  151.08    5.97
   2  10   3  168.79    9.20
   2  10   3  177.33    7.54
  -2 -10  -3  178.07    6.89
   2  10   4   48.62    5.00
   2  10   5  258.18   12.25
   2  10   6   74.12    6.60
   2  10   7    8.29    2.47
   2  10   8   50.65    5.76
   2  10   9    1.54    1.00
   2  10  10   42.50    5.55
   2  10  11   20.40    4.04
  -2 -11  22    6.38    2.51
  -2 -11  21  134.25   10.27
  -2 -11  21  140.43   10.51
  -2 -11  20    4.51    2.37
  -2 -11  20    7.82    3.07
  -2 -11  19  214.71   12.51
  -2 -11  19  201.83   11.66
  -2 -11  18   11.83    3.18
  -2 -11  18    7.69    2.57
  -2 -11  17  163.46   10.35
  -2 -11  17  138.64    8.77
  -2 -11  16    7.06    2.18
  -2 -11  16   13.41    3.17
  -2 -11  15  157.55    9.62
  -2 -11  15  150.83    8.18
  -2 -11  14    0.31    0.93
  -2 -11  14    4.08    1.77
  -2 -11  13   13.13    1.85
  -2 -11  13   13.07    2.11
   2  11 -13    7.45    1.52
  -2 -11  13   13.65    2.84
  -2 -11  12   22.07    2.37
  -2 -11  12   21.14    2.38
   2  11 -12   22.08    2.27
  -2 -11  12   17.80    3.05
  -2 -11  11   67.75    4.33
  -2 -11  11   71.83    6.03
  -2 -11  11   65.99    4.00
  -2 -11  10   13.95    1.98
   2  11 -10   11.22    2.54
  -2 -11  10   14.26    2.53
  -2 -11  10   11.65    1.59
  -2 -11   9   37.70    3.43
  -2 -11   9   38.74    4.28
   2  11  -9   37.64    4.45
  -2 -11   9   39.39    2.54
  -2 -11   8    1.04    0.47
  -2 -11   8    0.37    0.97
   2  11  -8    3.52    1.24
  -2 -11   8    3.06    0.70
  -2 -11   7    0.82    0.71
  -2 -11   7    0.37    0.87
   2  11  -7    0.54    1.06
  -2 -11   7    0.78    0.38
   2  11  -6   78.00    5.03
  -2 -11   6   74.43    5.77
   2  11  -6   80.06    6.34
  -2 -11   6   83.95    2.62
   2  11  -5  111.57    6.19
  -2 -11   5   97.22    6.54
   2  11  -5  118.85    7.85
  -2 -11   5  112.37    3.01
   2  11  -4  283.59   10.42
  -2 -11   4  283.52   11.13
   2  11  -4  301.31   12.95
  -2 -11   4  270.21    5.53
   2  11  -3   75.43    5.44
  -2 -11   3   89.62    6.47
   2  11  -3   93.29    7.54
  -2 -11   3   96.09    3.71
   2  11  -2  140.83    7.45
  -2 -11   2  126.31    6.91
  -2 -11   2  129.93    4.44
   2  11  -1  116.90    6.48
   2  11  -1  132.41    7.42
  -2 -11   1  115.59    6.56
  -2 -11   1  117.80    4.53
   2  11   0   12.72    2.34
   2  11   0   10.74    1.99
  -2 -11   0   13.38    1.57
   2  11   1  101.41    6.88
   2  11   1   92.83    5.81
  -2 -11  -1  100.97    4.73
   2  11   2   43.51    4.62
   2  11   3   30.42    3.98
   2  11   4  115.21    8.05
   2  11   5   61.03    6.00
   2  11   6   88.43    7.41
   2  11   7   26.17    4.20
   2  11   8   55.75    6.28
   2  11   9   78.67    7.60
   2  11  10   40.63    5.73
  -2 -12  21   17.06    3.87
  -2 -12  21   14.03    3.45
  -2 -12  20  152.15   10.88
  -2 -12  20  127.07    9.47
  -2 -12  19    5.35    2.41
  -2 -12  19    1.54    1.65
  -2 -12  18  309.44   15.18
  -2 -12  18  330.34   14.17
  -2 -12  17   18.79    3.35
  -2 -12  17   21.71    4.17
  -2 -12  16  303.63   14.39
  -2 -12  16  302.63   12.28
  -2 -12  15    3.05    1.53
  -2 -12  15    6.55    2.41
  -2 -12  14  252.23   13.01
  -2 -12  14  231.45    9.48
  -2 -12  13   14.80    2.16
  -2 -12  13   17.53    3.27
  -2 -12  12   99.87    5.55
  -2 -12  12  112.70    7.97
  -2 -12  12  102.86    5.29
  -2 -12  11   86.03    5.30
  -2 -12  11   87.52    6.92
  -2 -12  11   92.80    4.66
  -2 -12  10    6.93    1.56
  -2 -12  10    5.32    1.53
   2  12 -10    7.66    2.36
  -2 -12  10    8.31    1.28
  -2 -12   9   71.28    4.99
  -2 -12   9   67.98    5.90
   2  12  -9   61.86    5.95
  -2 -12   9   68.14    3.27
   2  12  -8   12.79    2.77
  -2 -12   8   11.06    2.38
  -2 -12   8   14.63    1.38
  -2 -12   7   17.23    2.94
   2  12  -7   17.55    3.09
  -2 -12   7   19.99    1.39
   2  12  -6    1.33    0.98
   2  12  -6    1.26    1.20
  -2 -12   6    0.39    0.78
  -2 -12   6    0.06    0.32
   2  12  -5   20.78    2.79
   2  12  -5   27.65    3.90
  -2 -12   5   27.46    3.63
  -2 -12   5   25.86    1.36
   2  12  -4   17.42    2.63
   2  12  -4   17.86    3.26
  -2 -12   4   21.35    3.07
  -2 -12   4   19.94    1.26
   2  12  -3  212.30    9.64
   2  12  -3  245.36   12.22
  -2 -12   3  221.71    9.85
  -2 -12   3  217.41    5.94
   2  12  -2   50.53    4.87
  -2 -12   2   50.71    4.53
   2  12  -1  234.16   10.53
  -2 -12   1  215.81    9.15
   2  12   0   25.80    3.56
   2  12   1   56.62    5.43
   2  12   2   24.69    3.61
   2  12   3    0.30    0.94
   2  12   4   39.35    4.82
   2  12   5   33.06    4.56
   2  12   6   30.13    4.49
   2  12   7   55.71    6.27
   2  12   8   34.74    5.17
  -2 -13  21    7.55    2.51
  -2 -13  21    6.63    2.01
  -2 -13  20    5.67    2.50
  -2 -13  20    4.04    1.98
  -2 -13  19   73.93    7.52
  -2 -13  19   74.63    6.67
  -2 -13  18    0.14    1.09
  -2 -13  18    3.25    1.82
  -2 -13  17  177.88   11.32
  -2 -13  17  179.59    9.63
  -2 -13  16    3.88    1.84
  -2 -13  16    3.12    2.44
  -2 -13  15  226.23   12.41
  -2 -13  15  216.37    9.56
  -2 -13  14   -0.16    0.79
  -2 -13  14    0.79    1.21
  -2 -13  13  274.40   13.39
  -2 -13  13  264.63    9.45
  -2 -13  12    6.33    1.34
  -2 -13  12   10.40    2.76
  -2 -13  11  265.94   12.91
  -2 -13  11  274.01    8.36
   2  13 -10  108.78    8.31
  -2 -13  10  101.46    7.79
  -2 -13  10  108.75    4.52
  -2 -13   9    3.49    1.32
   2  13  -9    2.23    1.48
  -2 -13   9    4.61    0.94
   2  13  -8  241.20   12.31
  -2 -13   8  224.78   11.49
  -2 -13   8  239.00    6.00
  -2 -13   7   74.07    6.30
   2  13  -7   69.11    6.47
  -2 -13   7   72.61    2.67
   2  13  -6   54.50    4.78
  -2 -13   6   52.92    5.30
   2  13  -6   57.15    5.95
  -2 -13   6   56.18    2.10
   2  13  -5   -0.22    0.72
   2  13  -5    2.00    1.74
  -2 -13   5    3.02    1.88
  -2 -13   5    1.54    0.53
   2  13  -4    7.27    2.12
   2  13  -4   10.20    2.93
  -2 -13   4    9.95    1.01
   2  13  -3    2.48    1.83
  -2 -13   3    1.47    2.07
   2  13  -3    2.29    1.96
  -2 -13   3    2.78    0.83
   2  13  -2   55.64    5.17
  -2 -13   2   54.98    4.74
   2  13  -2   56.23    6.10
   2  13  -1   24.43    3.52
  -2 -13   1   23.83    2.97
   2  13   0  116.26    7.88
   2  13   1   62.27    5.90
   2  13   2  204.61   11.17
   2  13   3   22.35    3.87
   2  13   4   27.93    4.25
   2  13   5    9.00    2.58
   2  13   6    0.88    1.15
   2  13   7    3.98    2.25
  -2 -14  20    0.41    1.26
  -2 -14  19   -1.90    1.54
  -2 -14  18   18.85    3.74
  -2 -14  18   17.77    3.22
  -2 -14  17    0.56    1.98
  -2 -14  17    1.27    1.65
  -2 -14  16   76.42    7.50
  -2 -14  16   55.88    5.02
  -2 -14  15   37.23    5.24
  -2 -14  15   38.44    3.85
  -2 -14  14  298.89   14.54
  -2 -14  14  260.97    9.96
  -2 -14  13    6.68    1.50
  -2 -14  13    7.90    3.23
  -2 -14  12  311.54   14.72
  -2 -14  11    3.42    2.00
   2  14 -11    3.25    1.46
  -2 -14  10  114.99    8.73
   2  14 -10  129.48    9.53
   2  14  -9   70.23    6.83
  -2 -14   9   63.88    6.35
   2  14  -8  169.77   10.67
  -2 -14   8  178.68   10.47
  -2 -14   7  314.06   13.91
   2  14  -7  307.43   14.62
   2  14  -6   74.69    5.88
   2  14  -6   70.78    6.88
  -2 -14   6   79.23    6.62
   2  14  -5   36.13    4.13
   2  14  -5   37.53    4.90
  -2 -14   5   31.95    4.19
   2  14  -4    8.12    2.00
  -2 -14   4    9.11    2.18
   2  14  -4    6.91    2.35
   2  14  -3   30.04    3.94
  -2 -14   3   32.64    3.84
   2  14  -3   39.77    5.30
   2  14  -2    3.70    1.64
   2  14  -2    0.11    1.55
  -2 -14   2    4.87    1.65
   2  14  -1    1.73    1.47
   2  14   0   62.10    6.00
   2  14   1  103.92    7.94
   2  14   2   25.63    4.11
   2  14   3   76.52    7.22
   2  14   4   15.23    3.33
   2  14   5   71.29    7.31
   2  14   6    2.48    1.78
  -2 -15  19    4.89    2.23
  -2 -15  18   -0.72    1.73
  -2 -15  17    0.18    1.90
  -2 -15  16   30.83    4.93
  -2 -15  15   32.13    4.92
  -2 -15  14   33.07    5.07
  -2 -15  13  125.19    9.61
  -2 -15  12   34.48    4.88
   2  15 -11  132.63   10.01
  -2 -15  11  135.82    9.96
  -2 -15  10    0.02    1.48
   2  15 -10   -0.29    1.93
  -2 -15   9  216.17   12.07
   2  15  -9  188.92   12.00
  -2 -15   8   41.95    5.26
   2  15  -8   37.06    5.26
  -2 -15   7   33.34    4.57
   2  15  -7   38.87    5.33
   2  15  -6  139.09    8.59
   2  15  -6  164.72   10.91
  -2 -15   6  163.95    9.90
   2  15  -5   15.45    2.98
   2  15  -5   18.28    3.66
  -2 -15   5   17.60    3.14
   2  15  -4  128.26    8.33
  -2 -15   4  111.58    7.59
   2  15  -4  128.96    9.86
   2  15  -3   82.63    6.79
   2  15  -3   96.87    8.57
   2  15  -2   68.36    6.26
   2  15  -2   71.67    7.44
   2  15  -1   62.45    6.14
   2  15  -1   62.09    6.96
   2  15   0    5.55    2.12
   2  15   1   42.78    5.30
   2  15   2    5.48    2.10
   2  15   3   61.46    6.68
   2  15   4   45.19    5.93
  -2 -16  19    1.96    1.46
  -2 -16  18   13.91    3.60
  -2 -16  17    5.28    2.02
  -2 -16  16   14.23    3.61
  -2 -16  15    8.39    2.54
  -2 -16  14   -2.57    2.10
  -2 -16  13   44.87    6.05
  -2 -16  12   38.35    5.51
  -2 -16  11   27.88    4.70
   2  16 -11   26.70    4.57
  -2 -16  10   59.73    6.66
   2  16 -10   54.00    6.68
  -2 -16   9    9.17    2.95
   2  16  -9   10.97    2.97
  -2 -16   8   90.13    8.01
   2  16  -8   88.45    8.34
  -2 -16   7   17.01    4.06
   2  16  -7    8.97    2.71
   2  16  -6  132.07   10.25
  -2 -16   6  125.06    8.78
   2  16  -5   13.86    3.27
   2  16  -5   10.30    2.51
   2  16  -4   23.51    4.36
   2  16  -4   22.29    3.63
   2  16  -3   52.24    6.52
   2  16  -3   51.28    5.52
   2  16  -2   55.57    6.91
   2  16  -2   68.21    6.57
   2  16  -1   58.84    7.12
   2  16  -1   59.86    6.27
   2  16   0   33.87    4.78
   2  16   1   48.93    5.85
   2  16   2   31.61    4.85
   2  16   3    5.69    2.75
  -2 -17  18   14.41    3.84
  -2 -17  17   -1.35    1.86
  -2 -17  16    2.40    1.94
  -2 -17  15    2.54    1.77
  -2 -17  14    1.56    1.60
  -2 -17  13   -1.90    1.85
  -2 -17  12   15.54    3.64
   2  17 -11    0.05    1.85
  -2 -17  11    5.20    2.36
   2  17 -10   54.02    6.81
  -2 -17  10   65.38    7.32
  -2 -17   9   22.74    4.32
   2  17  -9   22.39    4.52
   2  17  -8   54.39    6.87
  -2 -17   8   60.97    6.76
   2  17  -7   69.55    7.77
   2  17  -6   15.01    3.68
   2  17  -5   48.05    5.51
   2  17  -5   56.20    6.92
   2  17  -4    0.81    1.36
   2  17  -4    2.18    1.36
   2  17  -3    7.38    2.70
   2  17  -3    9.14    2.41
   2  17  -2   26.88    4.81
   2  17  -2   28.05    4.41
   2  17  -1   32.53    5.47
   2  17  -1   25.23    4.29
   2  17   0   34.74    5.16
   2  17   1   16.14    3.51
  -2 -18  17   25.15    4.89
  -2 -18  16    1.66    2.35
  -2 -18  15   17.90    4.12
  -2 -18  14   -1.09    1.74
  -2 -18  13   -0.36    1.54
   2  18 -12   -1.58    2.11
  -2 -18  12   -0.01    1.37
   2  18 -11   14.17    3.53
  -2 -18  11   14.72    3.68
  -2 -18  10    0.65    1.21
   2  18 -10   -0.92    1.29
   2  18  -9   57.35    7.18
   2  18  -8   11.15    3.20
   2  18  -7   57.18    7.20
   2  18  -6   41.36    6.05
   2  18  -5   32.44    5.43
   2  18  -5   35.30    5.01
   2  18  -4   30.13    4.63
   2  18  -3   11.50    2.91
   2  18  -2    1.17    1.25
   2  18  -1    0.89    1.39
  -2 -19  16    9.97    3.77
  -2 -19  15   37.55    6.25
  -2 -19  14   86.02    9.39
  -2 -19  13   13.04    3.91
  -2 -19  12   18.43    4.34
   2  19  -4   52.63    6.34
   2  19  -3    4.31    2.08
  -2 -20  15   27.65    5.78
  -2 -20  14   37.63    6.48
   3 -22  13   67.29    6.27
   3 -22  14    4.53    2.40
  -3  21  -1   72.45    7.82
  -3  21  -2    8.90    2.98
  -3  21  -3   78.67    8.06
  -3  21  -4   59.87    7.00
  -3  21  -5   13.27    3.56
  -3  21  -6   -2.00    1.40
  -3  21  -7    1.34    1.32
  -3  21  -8    7.53    2.76
   3 -21  11   57.68    5.33
   3 -21  12   26.01    3.77
   3 -21  13   23.93    3.70
  -3  20   2   11.52    3.38
  -3  20   1    0.38    1.95
  -3  20   0    3.91    2.40
  -3  20  -1   -0.62    1.49
  -3  20  -2   61.15    6.88
  -3  20  -3   55.36    6.55
   3 -20   4   75.26    5.93
  -3  20  -4   78.65    7.75
   3 -20   5   25.61    3.44
  -3  20  -5   21.99    4.24
  -3  20  -6   34.49    5.24
   3 -20   6   29.11    3.57
  -3  20  -7   -0.32    1.76
   3 -20   7    2.30    1.27
  -3  20  -8    1.10    1.27
   3 -20   8    4.71    1.45
   3 -20   9    0.79    0.93
   3 -20   9   -2.08    1.14
   3 -20  10    6.89    1.82
   3 -20  11    0.70    1.12
   3 -20  12    7.82    2.04
   3 -20  13    1.39    1.17
   3 -20  14   16.66    2.86
   3 -20  15   45.80    4.78
   3 -20  16    3.89    1.62
   3 -20  17   92.46    7.11
   3 -20  18    0.03    1.38
  -3  19   3   74.77    7.94
  -3  19   2   25.33    4.60
  -3  19   1   53.54    6.40
  -3  19   0   18.24    3.62
  -3  19  -1    0.25    1.16
  -3  19  -2   40.37    5.38
  -3  19  -3   13.26    3.30
  -3  19  -4   56.68    6.35
  -3  19  -5   57.45    6.35
   3 -19   5   48.82    4.64
  -3  19  -6   64.62    6.82
   3 -19   6   47.29    4.51
  -3  19  -7   56.45    6.42
   3 -19   7   55.43    4.83
  -3  19  -8   15.44    3.46
   3 -19   8   17.74    2.90
   3 -19   9   20.92    2.92
   3 -19  10    0.70    0.77
   3 -19  11    2.13    1.07
   3 -19  12    3.48    1.31
   3 -19  13    5.12    1.60
   3 -19  14    0.39    0.82
   3 -19  15    1.68    1.09
   3 -19  16    2.95    1.67
   3 -19  17    8.28    2.26
   3 -19  18   53.63    5.60
   3 -19  19    3.28    1.74
  -3  18   4   21.11    4.42
  -3  18   2   87.90    8.05
  -3  18   1   12.19    2.92
  -3  18   0   81.40    7.49
  -3  18  -1   39.01    5.13
  -3  18  -2   33.68    4.78
  -3  18  -3  110.21    8.50
  -3  18  -4    6.70    2.49
  -3  18  -5   77.72    7.16
   3 -18   5   84.99    5.97
  -3  18  -6    4.82    1.79
   3 -18   6    5.14    1.50
  -3  18  -7   94.18    8.09
   3 -18   7   94.92    6.34
   3 -18   8   44.24    4.16
   3 -18   9   48.16    4.36
   3 -18  10   35.28    3.76
   3 -18  11    6.47    1.67
   3 -18  12   14.88    2.45
   3 -18  13    8.80    1.97
   3 -18  14    1.24    1.33
   3 -18  15    0.90    0.93
   3 -18  16    3.23    1.57
   3 -18  17    1.05    1.03
   3 -18  18    0.49    1.16
   3 -18  19    8.63    2.54
  -3  17   6   76.04    8.16
   3 -17  -5   18.62    3.23
  -3  17   5    9.72    2.92
   3 -17  -4   62.38    5.78
  -3  17   4   59.08    6.87
   3 -17  -3    9.24    2.39
  -3  17   3   13.25    3.33
   3 -17  -2   44.11    4.84
  -3  17   1   66.12    6.60
  -3  17   0    0.29    1.19
  -3  17  -1   45.64    5.32
  -3  17  -2   32.64    4.44
  -3  17  -3  141.98    9.31
  -3  17  -4   99.78    7.66
  -3  17  -5   89.55    7.28
   3 -17   5   71.49    5.38
  -3  17  -6  275.00   13.24
   3 -17   6  264.78   10.65
  -3  17  -7    1.12    1.08
   3 -17   7    1.83    1.14
   3 -17   8  159.63    7.91
   3 -17   9   30.57    3.43
   3 -17  10  135.13    7.40
   3 -17  11   51.85    4.55
   3 -17  12   34.61    3.75
   3 -17  13   21.11    2.95
   3 -17  14   -0.13    0.78
   3 -17  15    1.96    1.14
   3 -17  16    6.38    1.80
   3 -17  17    0.62    0.97
   3 -17  18   -1.15    1.97
   3 -17  19    3.32    1.59
   3 -17  20    2.11    1.62
   3 -16  -7   18.91    3.19
  -3  16   7   21.34    4.35
   3 -16  -6   65.67    5.85
  -3  16   6   68.77    7.48
   3 -16  -5   35.08    4.31
  -3  16   5   28.14    4.84
   3 -16  -4   64.20    5.77
  -3  16   4   79.92    7.68
   3 -16  -3   14.95    2.93
  -3  16   3   15.69    3.44
   3 -16  -2   13.77    2.74
   3 -16  -1    4.43    1.70
  -3  16   1    1.82    1.00
   3 -16   0   14.80    2.78
  -3  16   0    8.62    2.32
  -3  16  -1    1.98    1.03
  -3  16  -2  124.95    8.44
  -3  16  -3   15.76    3.01
  -3  16  -4   10.87    2.56
  -3  16  -5  223.71   11.34
   3 -16   5  212.08    9.31
  -3  16  -6   88.75    7.12
   3 -16   6   94.83    5.99
  -3  16  -7  166.01    9.86
   3 -16   7  178.27    8.24
   3 -16   8   28.16    3.25
   3 -16   9  253.98   10.08
   3 -16  10    0.65    0.74
   3 -16  11  190.28    8.79
   3 -16  12    0.23    1.28
   3 -16  13   88.52    6.13
   3 -16  14    7.68    1.84
   3 -16  15   39.64    4.33
   3 -16  16    0.18    1.13
   3 -16  17    0.04    1.00
   3 -16  18   -1.65    1.62
   3 -16  19    9.66    2.58
   3 -16  20    1.52    1.71
  -3  15   9    3.69    1.72
   3 -15  -8    5.49    1.81
  -3  15   8    6.69    2.35
   3 -15  -7    2.96    1.53
  -3  15   7    1.17    1.22
   3 -15  -6   17.05    2.96
  -3  15   6   11.96    2.99
   3 -15  -5  101.99    7.27
  -3  15   5   99.63    8.42
   3 -15  -4   47.39    4.90
  -3  15   4   42.43    5.40
  -3  15   3  203.76   11.84
   3 -15  -3  221.58   10.69
   3 -15  -2    6.44    1.74
  -3  15   2    7.02    2.18
   3 -15  -1   70.90    5.87
   3 -15   0   18.55    3.38
  -3  15   0   12.97    3.00
   3 -15   1   31.76    3.87
  -3  15  -1   29.01    3.93
   3 -15   2   -0.39    0.84
  -3  15  -2   -1.58    1.23
  -3  15  -3    0.31    1.27
  -3  15  -4   78.73    6.28
   3 -15   5  267.56   10.39
  -3  15  -5  287.45   12.37
   3 -15   6    8.01    1.86
  -3  15  -6    5.03    1.52
  -3  15  -7    8.94    2.17
   3 -15   7    8.49    1.79
   3 -15   8   19.78    2.65
   3 -15   9    8.51    1.65
   3 -15  10  242.34    9.82
   3 -15  11   19.93    2.85
   3 -15  12  313.88   11.68
   3 -15  13    3.01    1.27
   3 -15  14  176.62    8.86
   3 -15  15   10.75    2.50
   3 -15  16  128.67    8.01
   3 -15  17    3.05    1.73
   3 -15  18   18.78    3.54
   3 -15  19    1.59    1.14
   3 -15  20   -1.32    1.63
  -3  14  11   16.59    3.90
  -3  14  10   79.89    7.98
   3 -14  -9   10.93    2.57
  -3  14   9   10.08    2.83
   3 -14  -8   37.51    4.51
  -3  14   8   39.86    5.44
   3 -14  -7   33.25    4.16
  -3  14   7   38.94    5.20
   3 -14  -6    1.23    1.33
  -3  14   6    1.89    1.54
   3 -14  -5   39.36    4.47
  -3  14   5   32.51    4.58
   3 -14  -4   71.04    5.96
  -3  14   4   60.21    6.16
   3 -14  -3   82.64    6.38
  -3  14   3   97.24    7.71
  -3  14   2  226.03   11.73
   3 -14  -2  206.25   10.02
   3 -14  -1  114.82    7.38
   3 -14   0  136.55    7.88
  -3  14   0  143.58    8.50
   3 -14   1   10.10    2.23
  -3  14  -1    9.46    2.14
   3 -14   2  225.94   10.23
  -3  14  -2  232.65   10.62
   3 -14   3   31.24    3.77
  -3  14  -3   34.62    3.94
  -3  14  -4   85.95    6.26
   3 -14   5   68.86    4.91
  -3  14  -5   66.76    5.52
   3 -14   6   18.63    2.51
  -3  14  -6   16.98    2.78
   3 -14   7    2.70    0.99
   3 -14   8   15.14    2.22
   3 -14   9   95.96    5.75
   3 -14  10   42.69    3.87
   3 -14  11   69.33    5.10
   3 -14  12    9.75    2.19
   3 -14  13  249.47   10.34
   3 -14  14    4.19    1.58
   3 -14  15  429.41   14.84
   3 -14  16    6.71    2.26
   3 -14  17  153.44    9.13
   3 -14  18   -0.29    1.32
   3 -14  19   42.72    5.15
   3 -14  20   11.02    2.90
  -3  13  12   74.56    7.85
  -3  13  11   82.18    8.05
   3 -13 -10   57.44    5.65
  -3  13  10   58.30    6.57
   3 -13  -9  142.93    8.83
  -3  13   9  143.53   10.10
   3 -13  -8   43.80    4.81
  -3  13   8   46.73    5.70
   3 -13  -7  126.71    8.15
  -3  13   7  134.61    9.45
   3 -13  -6   36.75    4.32
  -3  13   6   31.27    4.36
   3 -13  -5   14.39    2.77
  -3  13   5   12.21    2.64
   3 -13  -4   88.06    6.53
  -3  13   4   81.17    6.80
   3 -13  -3   29.39    3.75
  -3  13   3   18.65    3.31
  -3  13   2  145.89    9.03
   3 -13  -2  156.02    8.43
   3 -13  -2  141.49    5.15
   3 -13  -1  130.15    7.62
   3 -13   0  144.12    7.96
  -3  13   0  127.91    7.63
   3 -13   1  100.53    6.50
  -3  13  -1  107.47    6.82
   3 -13   2   16.22    2.99
  -3  13  -2   17.82    2.97
   3 -13   3    1.56    1.11
  -3  13  -3    1.35    0.65
  -3  13  -4    0.84    0.77
  -3  13  -5   82.66    5.90
   3 -13   5   80.52    5.16
  -3  13  -6    8.60    1.80
   3 -13   6    5.30    1.37
   3 -13   7   -0.22    0.53
   3 -13   8    0.95    0.80
   3 -13   9    1.57    1.00
   3 -13  10   -0.14    0.93
   3 -13  11    1.37    1.15
   3 -13  12   29.59    3.38
   3 -13  13    7.52    1.82
   3 -13  14  134.34    7.79
   3 -13  15   13.29    2.53
   3 -13  16  288.09   12.25
   3 -13  17    1.35    1.44
   3 -13  18  241.72   12.15
   3 -13  19    3.11    1.66
   3 -13  20   73.01    7.11
  -3  12  13   37.49    5.41
  -3  12  12    0.17    1.19
   3 -12 -11   48.01    5.19
  -3  12  11   52.79    6.29
   3 -12 -10   29.10    4.14
  -3  12  10   34.36    5.05
   3 -12  -9   66.54    6.00
  -3  12   9   74.36    6.88
   3 -12  -8  147.55    8.96
  -3  12   8  161.82   10.05
   3 -12  -7   90.15    6.79
  -3  12   7   89.39    7.32
   3 -12  -6  314.28   12.94
  -3  12   6  297.83   13.48
   3 -12  -5  113.56    7.45
  -3  12   5  108.51    7.74
   3 -12  -4   67.97    5.62
  -3  12   4   70.68    6.07
   3 -12  -3  184.87    9.22
   3 -12  -3  163.52    4.43
  -3  12   3  173.44    9.51
   3 -12  -2   38.31    4.23
  -3  12   2   29.07    4.01
   3 -12  -1  311.03   11.98
   3 -12   0   40.74    4.13
  -3  12   0   47.30    4.34
   3 -12   1  436.73   14.48
  -3  12  -1  457.72   14.40
   3 -12   2  119.90    6.95
  -3  12  -2  122.79    6.78
   3 -12   3  161.58    8.00
  -3  12  -3  164.30    7.89
   3 -12   4   14.04    2.27
  -3  12  -4   14.30    2.32
  -3  12  -5  110.93    6.53
   3 -12   5  107.83    5.86
   3 -12   6   27.41    2.89
   3 -12   7    2.88    1.03
   3 -12   8    5.89    1.42
   3 -12   9   34.70    3.39
   3 -12  10    4.27    1.14
   3 -12  11    3.37    1.20
   3 -12  12    1.79    0.94
   3 -12  13    0.87    0.96
   3 -12  14   15.87    2.58
   3 -12  15   38.93    4.17
   3 -12  16   24.99    3.48
   3 -12  17  170.79    9.75
   3 -12  18   16.48    3.32
   3 -12  19  172.34   10.71
   3 -12  20    1.48    2.02
  -3  11  15   73.07    7.81
  -3  11  14    1.35    1.38
  -3  11  13   43.90    5.71
   3 -11 -12   11.52    2.73
  -3  11  12   16.75    3.54
   3 -11 -11   47.66    5.21
  -3  11  11   52.83    5.91
   3 -11 -10   47.15    5.06
  -3  11  10   51.54    5.70
   3 -11  -9    4.71    1.80
  -3  11   9    2.42    1.15
   3 -11  -8   83.95    6.63
  -3  11   8   75.59    6.61
   3 -11  -7   78.25    6.33
  -3  11   7   82.44    6.65
   3 -11  -6   32.16    3.87
  -3  11   6   37.52    4.34
   3 -11  -5   91.70    6.61
  -3  11   5   87.60    6.61
   3 -11  -4   86.43    6.22
  -3  11   4   83.22    6.25
   3 -11  -3  261.54   11.03
   3 -11  -3  260.40    7.05
  -3  11   3  255.02   11.20
   3 -11  -2  146.19    7.89
  -3  11   2  148.10    8.32
   3 -11  -1  137.62    7.54
   3 -11   0  232.08    9.86
  -3  11   0  236.09    9.48
   3 -11   1   38.53    3.77
  -3  11  -1   32.29    3.30
   3 -11   2  546.93   15.65
  -3  11  -2  550.94   14.98
   3 -11   3   12.85    2.23
  -3  11  -3   12.18    2.06
   3 -11   4  339.87   11.55
  -3  11  -4  328.86   11.21
   3 -11   5    8.81    1.55
  -3  11  -5    9.83    1.78
   3 -11   6  199.69    7.83
   3 -11   7   10.03    1.72
   3 -11   8  123.35    6.20
   3 -11   9    2.26    0.99
   3 -11  10   39.49    3.54
   3 -11  11    0.34    0.56
   3 -11  12   39.06    3.74
   3 -11  13   14.76    2.38
   3 -11  14    1.74    0.97
   3 -11  15    5.45    1.52
   3 -11  16   33.75    4.16
   3 -11  17   15.23    2.98
   3 -11  18   55.03    5.81
   3 -11  19   37.90    5.08
   3 -11  20   97.78    8.49
  -3  10  16    3.25    1.69
  -3  10  15    1.12    1.26
  -3  10  14   45.38    5.70
   3 -10 -13    2.76    1.77
  -3  10  13    2.37    1.56
   3 -10 -12   72.09    6.53
  -3  10  12   71.65    6.83
   3 -10 -11   49.87    5.39
  -3  10  11   47.43    5.32
   3 -10 -10  113.96    8.02
  -3  10  10  125.71    8.55
   3 -10  -9   50.11    5.27
  -3  10   9   55.09    5.50
   3 -10  -8   53.80    5.34
  -3  10   8   51.03    5.24
   3 -10  -7   11.08    2.40
  -3  10   7   11.55    2.38
   3 -10  -6   17.67    2.97
  -3  10   6   16.43    2.81
   3 -10  -5   38.79    4.19
  -3  10   5   37.76    4.09
   3 -10  -4   71.13    5.77
   3 -10  -4   79.78    2.87
  -3  10   4   72.28    5.54
   3 -10  -3    5.85    1.81
   3 -10  -3    5.96    1.06
  -3  10   3    7.28    1.84
   3 -10  -2  296.78   11.46
  -3  10   2  301.20   11.68
   3 -10  -1   47.83    4.30
   3 -10   0  268.58   10.41
   3 -10   1  320.87   11.35
  -3  10  -1  326.38   10.49
   3 -10   2  104.79    6.06
  -3  10  -2  104.81    5.48
   3 -10   3  687.34   17.44
  -3  10  -3  702.87   16.62
   3 -10   4    1.76    1.01
  -3  10  -4   -0.26    0.81
   3 -10   5 1017.40   22.07
   3 -10   5  962.62   21.68
   3 -10   5  968.20   20.63
   3 -10   6    1.49    1.09
   3 -10   6    2.58    0.73
   3 -10   7  301.36   11.10
   3 -10   7  300.80    9.77
   3 -10   8   67.38    4.41
   3 -10   9  290.24    9.89
   3 -10  10    3.46    1.03
   3 -10  11   13.42    2.10
   3 -10  12    8.97    1.85
   3 -10  13    1.32    1.14
   3 -10  14   14.66    2.49
   3 -10  15    7.92    1.83
   3 -10  16    2.33    1.29
   3 -10  17    1.41    1.24
   3 -10  18    6.24    2.39
   3 -10  19    9.72    3.16
   3 -10  20   18.88    3.91
  -3   9  17   36.53    5.46
  -3   9  16    4.38    2.35
  -3   9  15    5.63    2.22
   3  -9 -14    6.56    2.31
  -3   9  14    9.05    2.41
   3  -9 -13    1.71    1.21
  -3   9  13    4.50    1.84
   3  -9 -12   45.55    5.32
  -3   9  12   50.46    5.48
   3  -9 -11   55.59    5.70
  -3   9  11   48.79    5.30
   3  -9 -10  102.67    7.71
  -3   9  10  122.55    8.01
   3  -9  -9  205.39   10.86
  -3   9   9  212.83   10.46
   3  -9  -8   53.86    5.28
  -3   9   8   58.51    5.23
   3  -9  -7  213.26   10.49
  -3   9   7  214.25   10.08
   3  -9  -6   44.59    4.79
  -3   9   6   25.73    3.69
   3  -9  -5  208.97    9.95
   3  -9  -5  194.46    4.68
  -3   9   5  199.42    9.33
   3  -9  -4   33.68    3.82
   3  -9  -4   32.39    2.04
  -3   9   4   31.39    3.48
   3  -9  -3    5.22    1.58
   3  -9  -3    4.54    1.02
  -3   9   3    3.02    1.23
   3  -9  -2   10.68    2.08
  -3   9   2   11.29    2.04
   3  -9  -1  111.50    6.48
  -3   9   1  113.09    7.34
  -3   9   0   35.62    3.99
   3  -9   0   34.78    3.49
  -3   9   0   31.17    2.88
   3  -9   1  396.64   12.44
  -3   9  -1  405.39   14.17
  -3   9  -1  391.13   10.99
  -3   9  -2  151.50    8.12
   3  -9   2  145.17    7.03
  -3   9  -2  145.96    6.10
   3  -9   2  148.68    7.30
  -3   9  -3  114.97    7.04
   3  -9   3  119.84    6.20
  -3   9  -3  118.66    5.59
   3  -9   4  386.21   11.70
   3  -9   4  375.86   11.16
   3  -9   5  105.68    5.65
   3  -9   5  103.61    5.51
   3  -9   5   99.95    5.14
   3  -9   6 1741.29   32.80
   3  -9   6 1767.11   31.51
   3  -9   7   36.39    3.47
   3  -9   7   34.98    3.03
   3  -9   8  861.04   20.64
   3  -9   8  802.83   18.31
   3  -9   9   -0.16    0.70
   3  -9  10  461.87   13.27
   3  -9  11   11.26    1.99
   3  -9  12   62.21    4.76
   3  -9  13  130.27    7.30
   3  -9  14   51.40    4.70
   3  -9  15    9.76    2.28
   3  -9  16   -1.25    1.28
   3  -9  17   14.37    3.34
   3  -9  18    3.19    2.16
   3  -9  19    3.15    2.05
   3  -9  20    3.25    1.82
  -3   8  18   36.12    5.39
  -3   8  17   22.18    4.16
  -3   8  16   62.84    6.70
   3  -8 -15    9.77    2.54
  -3   8  15    7.68    2.59
   3  -8 -14  101.72    8.26
  -3   8  14  119.13    8.68
   3  -8 -13   18.94    3.46
  -3   8  13   30.08    4.17
   3  -8 -12    2.01    1.39
  -3   8  12    0.40    0.87
   3  -8 -11  265.39   12.87
  -3   8  11  255.91   11.85
   3  -8 -10   10.67    2.40
  -3   8  10   17.25    2.94
   3  -8  -9   74.73    6.27
  -3   8   9   76.27    5.93
   3  -8  -8   93.04    7.02
  -3   8   8   89.92    6.25
   3  -8  -7  128.40    8.13
  -3   8   7   97.68    6.48
   3  -8  -6  280.80   11.83
   3  -8  -6  289.31    5.83
  -3   8   6  266.69   10.65
   3  -8  -5    8.51    1.97
  -3   8   5    6.26    1.61
   3  -8  -5    7.28    0.91
  -3   8   5    8.55    1.83
   3  -8  -4  128.14    7.36
  -3   8   4  112.94    7.35
   3  -8  -4  118.18    4.48
  -3   8   4  127.15    6.80
   3  -8  -3   11.78    2.14
  -3   8   3   13.13    2.40
   3  -8  -3   17.98    1.93
  -3   8   3   12.43    2.21
  -3   8   2  298.10   10.57
  -3   8   2  295.32   11.87
   3  -8  -2  296.99   10.96
   3  -8  -2  295.79   10.15
  -3   8   1  169.29    8.61
   3  -8  -1  158.33    7.59
   3  -8  -1  156.22    7.08
   3  -8   0   14.41    2.15
  -3   8   0   12.61    2.30
  -3   8   0   14.67    1.78
   3  -8   0   12.62    1.95
  -3   8  -1  292.38   11.32
   3  -8   1  292.04   10.17
  -3   8  -1  297.42    8.55
   3  -8   1  287.99   10.02
  -3   8  -2   35.11    3.62
   3  -8   2   33.12    3.14
  -3   8  -2   37.25    2.74
   3  -8   3    1.94    0.97
  -3   8  -3    1.03    0.79
   3  -8   3    1.75    0.68
  -3   8  -3    0.97    0.61
  -3   8  -4  324.04   11.56
   3  -8   4  321.32   10.05
   3  -8   4  310.43    9.33
   3  -8   4  298.58    9.24
  -3   8  -5  452.04   14.11
   3  -8   5  465.11   12.57
   3  -8   5  433.87   12.03
   3  -8   5  451.86   11.78
  -3   8  -6   10.55    2.18
   3  -8   6    6.12    1.45
   3  -8   6   10.56    1.78
  -3   8  -7  935.85   22.29
   3  -8   7  956.03   21.19
   3  -8   7  910.60   19.44
   3  -8   8   85.25    4.83
   3  -8   9  781.41   18.04
   3  -8  10   36.77    3.41
   3  -8  11  572.72   15.61
   3  -8  12    8.46    1.83
   3  -8  13  142.57    7.63
   3  -8  14    0.94    0.87
   3  -8  15   22.12    3.39
   3  -8  16  146.53    8.88
   3  -8  17    5.31    2.38
   3  -8  18    6.90    2.32
   3  -8  19    5.48    1.90
   3  -8  20    0.60    1.22
  -3   7  19    5.12    2.06
  -3   7  18   56.13    6.52
  -3   7  17   18.46    3.59
   3  -7 -16   36.20    5.07
  -3   7  16   40.75    5.12
   3  -7 -15  141.11    9.90
  -3   7  15  147.16    9.57
   3  -7 -14   23.81    4.08
  -3   7  14   31.62    4.30
   3  -7 -13  106.51    8.36
  -3   7  13  113.68    7.81
   3  -7 -12  147.36    9.55
  -3   7  12  152.19    6.40
  -3   7  12  156.71    8.95
   3  -7 -11  153.04    9.42
  -3   7  11  137.42    5.85
  -3   7  11  134.76    8.07
   3  -7 -10  138.69    8.82
  -3   7  10  132.11    5.56
  -3   7  10  143.46    8.02
   3  -7  -9   12.79    2.57
  -3   7   9   13.16    2.29
   3  -7  -8   80.85    6.40
  -3   7   8   84.25    5.73
   3  -7  -7    8.11    3.10
  -3   7   7    2.34    1.66
   3  -7  -6  586.12   17.68
  -3   7   6  576.93   17.82
   3  -7  -6  565.47   10.66
  -3   7   6  589.73   15.94
   3  -7  -5  110.80    6.91
  -3   7   5  105.61    7.07
   3  -7  -5  112.25    4.05
  -3   7   5  113.71    6.21
   3  -7  -4  843.04   21.32
  -3   7   4  836.05   21.83
   3  -7  -4  838.38   16.45
  -3   7   4  844.24   19.68
   3  -7  -4  864.46   19.25
  -3   7   3  639.10   18.14
  -3   7   3  645.94   16.27
   3  -7  -3  629.25   17.31
   3  -7  -3  628.63   14.12
   3  -7  -3  634.67   15.62
   3  -7  -2    0.90    0.71
  -3   7   2    0.15    0.53
   3  -7  -2   -0.35    0.60
   3  -7  -1  160.79    7.49
  -3   7   1  174.22    8.44
   3  -7  -1  164.57    6.94
  -3   7   0    8.86    1.94
   3  -7   0    7.91    1.60
  -3   7   0    8.44    1.20
   3  -7   0    6.67    1.33
  -3   7  -1  194.63    8.64
   3  -7   1  181.20    7.53
  -3   7  -1  186.73    5.95
  -3   7  -2  337.10   11.59
   3  -7   2  342.30   10.47
  -3   7  -2  329.04    8.70
   3  -7   3    2.30    1.05
  -3   7  -3    1.12    0.91
   3  -7   3    3.05    0.90
  -3   7  -4   56.45    4.49
   3  -7   4   59.14    3.83
   3  -7   4   57.90    3.54
   3  -7   4   60.83    3.69
   3  -7   5   25.08    2.58
  -3   7  -5   24.66    2.93
   3  -7   5   22.62    2.38
   3  -7   5   30.90    2.83
  -3   7  -6  120.61    6.42
   3  -7   6  127.16    5.59
  -3   7  -7   43.08    3.82
  -3   7  -7   42.51    3.56
   3  -7   7   44.21    3.31
  -3   7  -8  527.79   15.09
   3  -7   8  546.76   13.87
  -3   7  -9    0.72    0.70
   3  -7   9    2.82    1.10
   3  -7  10  582.38   15.30
   3  -7  11    1.12    0.81
   3  -7  12  255.34   10.12
   3  -7  13   14.12    2.52
   3  -7  14  272.28   11.51
   3  -7  15   43.73    4.69
   3  -7  16   11.39    2.60
   3  -7  17  122.11    8.72
   3  -7  18   38.86    5.08
   3  -7  19   29.38    5.21
   3  -7  20   20.35    4.14
  -3   6  20   87.85    8.38
  -3   6  19   16.87    3.51
  -3   6  18    3.86    1.82
   3  -6 -17   46.41    5.96
  -3   6  17   42.47    5.28
   3  -6 -16    5.07    1.98
  -3   6  16    8.22    2.15
   3  -6 -15   10.04    2.51
  -3   6  15   11.95    2.53
   3  -6 -14   34.78    4.85
  -3   6  14   33.68    4.21
   3  -6 -13   25.74    4.00
  -3   6  13   29.99    3.11
  -3   6  13   31.56    3.98
   3  -6 -12  254.99   12.60
  -3   6  12  252.49    9.14
  -3   6  12  244.24    6.90
  -3   6  12  257.95   11.21
   3  -6 -11   33.62    4.41
  -3   6  11   31.67    3.01
  -3   6  11   36.17    3.91
   3  -6 -10  162.40    9.54
  -3   6  10  170.05    6.81
  -3   6  10  164.92    8.20
   3  -6  -9  151.03    8.97
  -3   6   9  161.54    6.43
  -3   6   9  160.50    7.80
   3  -6  -8   86.14    7.15
  -3   6   8   82.96    4.57
  -3   6   8   79.35    5.75
   3  -6  -7  439.00   15.24
   3  -6  -7  454.13    9.20
  -3   6   7  458.40   13.35
  -3   6   6   20.88    2.99
   3  -6  -6   23.23    3.20
   3  -6  -6   20.95    1.64
   3  -6  -6   25.25    2.73
  -3   6   6   23.12    2.65
   3  -6  -5  817.10   21.16
  -3   6   5  813.44   21.15
   3  -6  -5  804.33   15.57
   3  -6  -5  863.43   18.64
  -3   6   5  830.01   18.90
  -3   6   4   51.38    4.54
   3  -6  -4   51.47    4.45
   3  -6  -4   47.30    2.99
   3  -6  -4   50.65    3.58
  -3   6   4   48.89    3.71
  -3   6   3  368.83   12.88
  -3   6   3  399.62   11.56
   3  -6  -3  396.39   12.83
   3  -6  -3  383.81   10.47
   3  -6  -3  399.01   11.04
   3  -6  -2  108.89    6.08
  -3   6   2  104.50    6.30
   3  -6  -2  105.55    5.19
  -3   6   1  393.53   12.85
   3  -6  -1  412.22   12.36
   3  -6  -1  397.44   11.02
  -3   6   0  200.43    8.51
   3  -6   0  195.70    7.83
   3  -6   0  184.38    7.13
  -3   6   0  191.24    5.51
   3  -6   1   21.73    2.42
  -3   6  -1   27.34    3.01
  -3   6  -1   27.34    1.87
  -3   6  -2   42.03    3.65
   3  -6   2   39.71    3.17
   3  -6   2   39.76    2.37
   3  -6   3  366.45   10.64
  -3   6  -3  371.04   11.59
   3  -6   3  361.32    9.06
   3  -6   4   31.08    2.61
  -3   6  -4   24.84    2.71
   3  -6   4   30.12    2.44
   3  -6   4   25.81    2.29
   3  -6   5  315.55    9.05
  -3   6  -5  315.41   10.33
   3  -6   5  298.92    8.84
  -3   6  -6   61.98    4.29
  -3   6  -6   57.22    3.94
   3  -6   6   65.80    3.91
  -3   6  -7   93.83    5.33
   3  -6   7   82.41    4.52
  -3   6  -7   91.06    5.11
  -3   6  -8   99.76    7.07
  -3   6  -8  105.92    5.76
   3  -6   8  104.99    5.32
  -3   6  -9   26.23    2.89
   3  -6   9   25.86    2.71
  -3   6 -10  135.43    6.81
   3  -6  10  145.60    6.84
  -3   6 -11  380.80   12.19
   3  -6  11  399.75   12.55
   3  -6  12  155.82    7.79
   3  -6  13  354.32   12.97
   3  -6  14   21.18    3.67
   3  -6  15  333.62   13.67
   3  -6  16   28.28    4.16
   3  -6  17  112.02    8.44
   3  -6  18   92.57    8.09
   3  -6  19   33.79    5.31
   3  -6  20   36.49    5.58
  -3   5  21   37.34    5.55
  -3   5  20   15.66    3.47
  -3   5  19   27.47    4.40
   3  -5 -18   19.70    3.92
  -3   5  18   14.27    3.02
   3  -5 -17   31.68    4.80
  -3   5  17   31.30    4.39
   3  -5 -16   13.96    3.31
  -3   5  16   18.39    3.17
   3  -5 -15   13.20    3.04
  -3   5  15   15.87    2.59
  -3   5  15   13.47    2.72
   3  -5 -14    0.60    1.15
  -3   5  14    0.09    0.80
  -3   5  14    0.26    0.88
   3  -5 -13   36.77    4.81
  -3   5  13   45.12    3.99
  -3   5  13   38.93    4.18
   3  -5 -12    8.43    2.36
  -3   5  12   10.36    1.85
  -3   5  12    9.29    2.07
   3  -5 -11   76.26    7.02
  -3   5  11   63.66    4.39
  -3   5  11   59.30    2.41
  -3   5  11   65.20    5.26
   3  -5 -10   81.24    6.58
  -3   5  10   89.90    5.00
  -3   5  10   88.05    5.59
   3  -5  -9  261.82   11.79
  -3   5   9  263.39    8.86
  -3   5   9  262.16    9.81
   3  -5  -8  240.25   10.97
  -3   5   8  251.10    8.37
  -3   5   8  243.77    9.03
   3  -5  -8  244.30    9.07
   3  -5  -7  215.77   10.06
  -3   5   7  223.65    7.69
   3  -5  -7  213.83    6.03
   3  -5  -7  239.36    8.55
  -3   5   7  222.35    8.33
   3  -5  -6 1110.61   25.62
  -3   5   6 1094.55   21.26
   3  -5  -6 1067.36   19.17
  -3   5   6 1125.42   22.49
   3  -5  -6 1119.45   22.13
   3  -5  -5  112.67    6.68
  -3   5   5  113.21    6.68
   3  -5  -5  114.92    4.69
   3  -5  -5  113.60    5.25
  -3   5   5  119.48    5.68
   3  -5  -4  737.00   18.92
  -3   5   4  733.73   19.00
   3  -5  -4  738.84   15.66
  -3   5   4  748.76   16.75
   3  -5  -4  773.52   16.23
  -3   5   3   59.92    4.58
   3  -5  -3   57.30    4.38
   3  -5  -3   60.60    3.67
   3  -5  -3   59.03    3.56
   3  -5  -2  923.90   20.92
  -3   5   2  949.75   21.61
   3  -5  -2  939.74   18.74
   3  -5  -1   35.13    2.80
  -3   5   1   39.20    3.56
   3  -5  -1   33.59    3.12
  -3   5   0  680.74   16.88
   3  -5   0  672.28   16.00
  -3   5   0  673.83   11.73
   3  -5   1  111.07    5.41
  -3   5  -1  111.11    5.87
   3  -5   1  110.21    3.53
  -3   5  -2  781.53   18.47
   3  -5   2  805.75   17.32
   3  -5   2  856.09   14.94
   3  -5   3    0.36    0.53
   3  -5   3    0.36    0.53
  -3   5  -3    0.77    0.85
  -3   5  -4   24.72    2.50
   3  -5   4   26.47    2.33
   3  -5   4   26.14    2.24
  -3   5  -5  114.84    5.65
  -3   5  -5  113.90    5.38
   3  -5   5  123.27    4.99
   3  -5   5  107.78    4.94
  -3   5  -6  242.57   10.29
  -3   5  -6  233.62    8.23
   3  -5   6  233.63    7.63
  -3   5  -6  214.12    7.81
  -3   5  -7    1.31    0.95
  -3   5  -7    4.28    1.08
  -3   5  -7    2.95    0.96
   3  -5   7    4.88    1.25
  -3   5  -8   27.28    3.59
  -3   5  -8   32.82    2.96
   3  -5   8   28.63    2.70
  -3   5  -9   61.28    4.25
   3  -5   9   75.09    4.60
  -3   5 -10    1.64    0.94
   3  -5  10    1.80    0.92
  -3   5 -11  244.78    9.11
   3  -5  11  269.36   10.11
  -3   5 -12   55.20    4.17
   3  -5  12   67.71    5.21
   3  -5  13  138.40    7.81
   3  -5  14  165.45    9.11
   3  -5  15   64.46    5.83
   3  -5  16  122.35    8.57
   3  -5  17    5.09    2.70
   3  -5  18   86.40    8.03
   3  -5  19   33.07    5.20
   3  -5  20    7.75    2.87
  -3   4  21   -1.23    1.41
  -3   4  20    4.94    2.14
   3  -4 -19    8.88    2.61
  -3   4  19    9.40    2.63
   3  -4 -18   24.77    4.36
  -3   4  18   34.32    4.50
   3  -4 -17   33.86    4.97
  -3   4  17   36.48    4.46
   3  -4 -16   95.36    8.19
  -3   4  16   98.55    6.62
  -3   4  16   94.97    7.01
   3  -4 -15   11.05    2.89
  -3   4  15    6.39    1.63
  -3   4  15    8.94    2.25
   3  -4 -14  177.33   10.81
  -3   4  14  179.24    8.50
  -3   4  14  185.54    9.25
   3  -4 -13   66.19    6.34
  -3   4  13   67.93    4.97
  -3   4  13   62.80    5.04
   3  -4 -12   63.67    6.39
  -3   4  12   71.28    4.91
  -3   4  12   71.11    5.16
   3  -4 -11   95.51    7.17
  -3   4  11   87.07    5.24
   3  -4 -10  109.42    7.56
  -3   4  10  120.67    6.11
   3  -4 -10  106.76    6.24
  -3   4  10  115.55    6.19
   3  -4  -9    4.74    1.59
  -3   4   9    3.52    1.16
   3  -4  -9    2.51    0.96
  -3   4   9    5.01    1.25
   3  -4  -8   72.55    5.71
   3  -4  -8   81.60    4.70
  -3   4   8   78.65    4.60
  -3   4   8   75.38    4.47
   3  -4  -8   72.57    3.32
   3  -4  -7    6.72    1.76
   3  -4  -7    7.46    1.35
  -3   4   7    8.00    1.48
  -3   4   7    7.50    1.38
   3  -4  -7    7.93    1.07
   3  -4  -6  151.08    7.94
   3  -4  -6  158.13    5.45
  -3   4   6  177.50    6.76
   3  -4  -6  169.45    6.32
  -3   4   6  165.57    6.49
   3  -4  -5  216.57    9.26
  -3   4   5  216.82    9.20
   3  -4  -5  230.96    7.18
  -3   4   5  228.87    7.78
  -3   4   5  234.67    7.72
   3  -4  -5  234.94    7.31
  -3   4   4  118.22    5.22
   3  -4  -4  113.83    6.30
  -3   4   4  111.49    6.28
   3  -4  -4  117.53    5.22
   3  -4  -4  122.91    4.94
   3  -4  -3  295.08   10.30
  -3   4   3  295.09   10.37
   3  -4  -3  300.03    9.06
   3  -4  -3  306.48    8.34
   3  -4  -2   79.50    3.92
  -3   4   2   85.62    5.18
   3  -4  -2   76.58    4.77
   3  -4  -2   79.37    4.39
   3  -4  -1 1718.93   30.89
  -3   4   1 1634.09   31.29
  -3   4   0   92.68    5.27
   3  -4   0   91.36    4.82
   3  -4   1 2069.53   34.15
   3  -4   1 2039.28   29.28
  -3   4  -2   62.86    4.29
  -3   4  -2   68.84    4.19
   3  -4   2   71.64    3.85
  -3   4  -3  809.94   19.22
  -3   4  -3  821.65   17.62
   3  -4   3  833.79   16.57
   3  -4   3  840.55   16.29
  -3   4  -4   13.10    2.23
   3  -4   4   11.03    1.44
  -3   4  -4   12.02    1.67
  -3   4  -4   10.79    1.53
   3  -4   4   13.05    1.59
  -3   4  -5  431.62   13.74
  -3   4  -5  408.98   10.95
   3  -4   5  439.06   10.05
   3  -4   5  408.59   10.43
  -3   4  -5  402.75   10.87
  -3   4  -6  166.94    8.39
  -3   4  -6  156.17    6.21
  -3   4  -6  145.54    6.22
   3  -4   6  160.25    6.10
  -3   4  -7   -0.27    0.80
  -3   4  -7    0.09    0.47
  -3   4  -7   -0.14    0.43
   3  -4   7    0.67    0.54
  -3   4  -8   52.99    5.03
  -3   4  -8   56.64    3.68
   3  -4   8   53.52    3.73
  -3   4  -9  108.00    7.45
  -3   4  -9  105.76    5.20
   3  -4   9  100.72    5.42
  -3   4 -10   51.31    3.66
   3  -4  10   58.12    4.33
  -3   4 -11   38.39    3.23
   3  -4  11   36.78    3.70
  -3   4 -12   77.93    4.88
   3  -4  12   98.30    6.32
  -3   4 -13   57.08    4.37
   3  -4  13   68.47    5.82
  -3   4 -14  112.62    6.02
   3  -4  14  123.98    7.89
   3  -4  15   70.78    6.33
   3  -4  16   52.17    6.03
   3  -4  17   70.32    6.94
   3  -4  18   20.92    4.07
   3  -4  19   58.04    7.06
   3  -4  20    2.59    2.25
  -3   3  21   26.51    4.24
   3  -3 -20   14.85    3.70
  -3   3  20    9.53    2.53
   3  -3 -19    1.68    1.48
  -3   3  19    0.39    1.02
   3  -3 -18   22.11    4.21
  -3   3  18   26.21    3.78
  -3   3  18   22.14    3.51
   3  -3 -17   11.26    3.05
  -3   3  17   10.45    2.37
  -3   3  17   15.02    2.97
   3  -3 -16   25.19    4.19
  -3   3  16   33.93    3.98
  -3   3  16   26.61    3.52
   3  -3 -15  103.99    8.41
  -3   3  15  132.62    7.59
  -3   3  15  122.92    7.38
   3  -3 -14   46.69    5.35
  -3   3  14   51.17    4.52
  -3   3  14   44.34    4.20
   3  -3 -13  126.95    8.90
  -3   3  13  131.05    7.08
  -3   3  13  135.51    7.12
   3  -3 -12  128.18    8.51
  -3   3  12  118.04    6.54
  -3   3  12   98.91    5.88
  -3   3  11   69.15    6.08
  -3   3  11   69.96    4.72
   3  -3 -10    0.12    0.77
  -3   3  10   -0.40    0.66
  -3   3  10    0.51    0.59
   3  -3 -10    0.32    0.60
   3  -3  -9   14.97    2.68
   3  -3  -9   14.39    1.94
  -3   3   9   13.97    1.91
  -3   3   9   16.19    2.15
   3  -3  -8    2.36    1.22
  -3   3   8    2.57    0.76
   3  -3  -8    2.98    0.83
  -3   3   8    2.17    0.81
   3  -3  -8    3.54    0.83
   3  -3  -7  264.40   10.89
   3  -3  -7  265.45    7.45
  -3   3   7  292.27    9.27
   3  -3  -7  275.26    8.18
  -3   3   7  279.22    8.41
   3  -3  -6    9.61    2.01
  -3   3   6    5.83    1.25
   3  -3  -6    4.71    1.05
   3  -3  -6    5.20    1.02
  -3   3   6    6.69    0.78
  -3   3   6    4.69    1.08
   3  -3  -5  146.99    7.34
   3  -3  -5  138.83    5.55
  -3   3   5  151.98    6.23
  -3   3   5  146.09    4.41
  -3   3   5  152.10    5.73
   3  -3  -5  152.93    5.23
   3  -3  -4   59.05    4.38
  -3   3   4   63.76    4.48
   3  -3  -4   56.90    3.55
  -3   3   4   53.53    3.61
   3  -3  -4   57.85    3.03
  -3   3   4   60.80    2.94
   3  -3  -3    0.98    0.74
  -3   3   3    0.80    0.60
   3  -3  -3    2.00    0.77
  -3   3   3    1.56    0.56
   3  -3  -3    2.47    0.66
   3  -3  -2  391.57   11.38
  -3   3   2  363.61   11.14
   3  -3  -2  403.85   11.01
  -3   3   2  386.67    9.78
  -3   3   1    9.27    1.65
  -3   3   1    6.46    2.28
   3  -3  -1    6.24    1.57
  -3   3   0  245.96    8.40
   3  -3   0  241.60    8.43
  -3   3   0  274.52    8.83
  -3   3  -1   93.79    5.10
   3  -3   1  103.55    4.69
  -3   3  -1   96.03    4.83
  -3   3  -2 1676.21   31.57
  -3   3  -2 1668.84   29.56
   3  -3   2 1722.92   28.54
   3  -3   2 1689.49   27.83
  -3   3  -3   76.42    5.02
  -3   3  -3   74.48    3.99
   3  -3   3   68.44    3.44
   3  -3   3   72.85    3.54
  -3   3  -4 1079.52   23.71
  -3   3  -4 1054.31   19.84
   3  -3   4 1056.72   18.46
  -3   3  -4 1003.07   19.63
   3  -3   4  999.03   19.13
  -3   3  -5   71.11    5.27
  -3   3  -5   74.20    3.91
   3  -3   5   76.42    3.92
  -3   3  -5   74.22    4.06
  -3   3  -6 1125.72   25.87
  -3   3  -6 1056.90   20.48
   3  -3   6 1110.44   20.87
  -3   3  -6 1068.14   21.22
  -3   3  -7   49.90    4.77
  -3   3  -7   50.71    3.27
   3  -3   7   53.30    3.66
  -3   3  -7   52.67    3.77
  -3   3  -8  178.76    9.50
  -3   3  -8  184.75    6.53
   3  -3   8  187.58    7.33
  -3   3  -9   60.79    5.61
  -3   3  -9   61.74    3.77
   3  -3   9   64.65    4.36
  -3   3 -10    3.14    0.97
   3  -3  10    5.96    1.44
  -3   3 -11   43.54    3.41
   3  -3  11   62.30    5.17
  -3   3 -12    2.91    1.45
   3  -3  12    9.31    2.33
  -3   3 -13   44.11    3.44
   3  -3  13   49.92    4.86
   3  -3  14   20.65    3.34
   3  -3  15  127.52    8.72
   3  -3  16   28.56    4.25
   3  -3  17   58.30    6.43
   3  -3  18   37.85    5.55
   3  -3  19   58.71    7.11
   3  -2 -21   20.68    4.53
  -3   2  21   21.24    3.73
   3  -2 -20   49.29    6.53
  -3   2  20   47.36    5.27
   3  -2 -19   15.11    3.69
  -3   2  19   15.29    3.18
  -3   2  19   21.94    3.47
   3  -2 -18   32.51    5.04
  -3   2  18   43.78    4.84
  -3   2  18   38.80    4.43
   3  -2 -17   36.52    5.18
  -3   2  17   41.20    4.58
  -3   2  17   33.91    3.97
   3  -2 -16    0.72    1.30
  -3   2  16    1.80    1.27
  -3   2  16    0.61    0.72
   3  -2 -15  115.17    8.64
  -3   2  15  123.51    7.39
  -3   2  15  127.27    7.16
   3  -2 -14   71.29    6.75
  -3   2  14   59.27    5.01
  -3   2  14   70.02    5.44
   3  -2 -13  274.25   12.83
  -3   2  13  289.74   10.93
  -3   2  13  249.20    9.61
  -3   2  12  241.16    9.61
  -3   2  12  230.80    8.71
  -3   2  11  303.49   10.59
  -3   2  11  292.50    9.50
  -3   2  10  418.21   12.57
  -3   2  10  404.70   11.08
  -3   2   9   11.71    1.91
  -3   2   9   11.30    1.60
   3  -2  -9   11.38    1.63
   3  -2  -8   19.70    2.84
   3  -2  -8   20.32    1.85
  -3   2   8   20.71    2.41
   3  -2  -8   21.92    2.03
  -3   2   8   21.49    2.06
   3  -2  -7   36.08    3.71
   3  -2  -7   37.58    2.58
  -3   2   7   37.38    3.15
   3  -2  -7   38.81    2.54
  -3   2   7   34.30    2.50
   3  -2  -6    9.26    1.84
  -3   2   6    8.79    1.57
   3  -2  -6    8.08    1.26
   3  -2  -6    8.57    1.10
  -3   2   6    8.75    1.21
   3  -2  -5    1.98    1.01
   3  -2  -5    1.20    0.62
  -3   2   5    1.65    0.79
   3  -2  -5    2.50    0.60
  -3   2   5    2.11    0.60
   3  -2  -4   -0.07    0.70
   3  -2  -4    0.43    0.43
  -3   2   4   -0.04    0.54
   3  -2  -4    1.34    0.47
   3  -2  -3   84.21    5.03
   3  -2  -3   90.41    4.73
  -3   2   3   87.70    4.72
   3  -2  -3   90.43    3.77
  -3   2   3   86.26    4.00
  -3   2   2  219.76    7.88
   3  -2  -2  201.90    7.70
   3  -2  -2  225.60    8.10
   3  -2  -2  231.04    7.09
  -3   2   2  216.97    7.24
   3  -2  -1  124.24    5.62
  -3   2   1  120.45    5.52
   3  -2  -1  138.96    6.11
  -3   2   1  128.78    5.64
   3  -2  -1  134.71    5.57
  -3   2   0  154.59    6.52
   3  -2   0  158.06    6.46
  -3   2   0  155.32    6.07
   3  -2   0  151.15    5.79
  -3   2  -1 1187.63   24.28
   3  -2   1 1230.51   24.21
  -3   2  -1 1173.60   22.20
   3  -2   1 1219.77   21.72
   3  -2   1 1185.94   20.40
   3  -2   2    3.22    1.01
  -3   2  -2    1.96    0.83
  -3   2  -2    2.66    0.72
   3  -2   2    2.84    0.75
   3  -2   2    2.36    0.69
  -3   2  -3 1325.99   27.29
   3  -2   3 1329.83   26.99
  -3   2  -3 1308.28   23.03
   3  -2   3 1315.47   21.72
   3  -2   3 1281.44   22.30
  -3   2  -3 1272.59   22.78
  -3   2  -4   39.42    3.83
   3  -2   4   38.89    3.73
  -3   2  -4   41.13    2.65
   3  -2   4   36.97    2.15
   3  -2   4   37.09    2.51
  -3   2  -4   40.73    2.76
   3  -2   5 1227.01   26.84
  -3   2  -5 1218.64   27.32
  -3   2  -5 1179.48   21.29
   3  -2   5 1229.14   21.84
  -3   2  -5 1158.64   22.04
  -3   2  -6   14.44    2.57
   3  -2   6   15.42    2.63
  -3   2  -6   13.76    1.53
   3  -2   6   13.49    1.72
  -3   2  -6   13.26    1.75
   3  -2   7  954.41   23.72
  -3   2  -7  938.98   17.56
  -3   2  -7  925.48   19.49
   3  -2   7  920.70   19.14
   3  -2   8   45.11    4.64
  -3   2  -8   46.65    2.87
   3  -2   8   42.66    3.42
   3  -2   9  198.52   10.13
  -3   2  -9  203.20    6.66
   3  -2   9  213.77    8.32
  -3   2 -10  133.53    5.34
   3  -2  10  133.17    6.84
  -3   2 -11   19.47    2.11
   3  -2  11   22.49    3.02
  -3   2 -12   93.93    4.67
   3  -2  12  102.57    6.70
  -3   2 -13    0.67    0.60
   3  -2  13    1.75    1.33
   3  -2  14   30.03    4.14
   3  -2  15    1.11    1.08
   3  -2  16    2.64    1.62
   3  -2  17    8.98    2.60
   3  -2  18   56.43    6.81
   3  -2  19   23.87    4.65
   3  -2  19   26.25    4.89
   3  -2  20   63.74    7.58
   3  -1 -22   15.64    4.14
   3  -1 -21   34.15    5.51
   3  -1 -20   14.88    3.63
  -3   1  20   11.39    2.98
  -3   1  20   14.64    2.99
   3  -1 -19  123.30    9.99
  -3   1  19  127.45    8.74
  -3   1  19  125.51    8.11
  -3   1  18   86.52    6.42
  -3   1  18   76.06    6.51
  -3   1  17   92.37    6.30
  -3   1  17  100.77    7.25
  -3   1  16   61.59    4.90
  -3   1  16   65.83    5.62
  -3   1  15    6.78    1.73
  -3   1  15    8.73    1.99
  -3   1  14  138.14    6.84
  -3   1  14  138.91    7.63
  -3   1  13  101.39    5.83
  -3   1  13  120.30    6.90
  -3   1  12  513.73   13.26
  -3   1  12  527.90   15.26
  -3   1  11  223.05    7.77
  -3   1  11  236.08    9.33
  -3   1  10  452.19   11.18
  -3   1  10  469.69   13.52
  -3   1   9   83.58    4.01
  -3   1   9   85.93    5.15
   3  -1  -9   84.31    5.18
   3  -1  -9   90.31    4.14
  -3   1   8  189.03    7.73
   3  -1  -8  197.13    6.44
   3  -1  -8  201.06    6.11
  -3   1   8  204.91    6.17
   3  -1  -7  126.50    5.16
  -3   1   7  134.76    6.23
   3  -1  -7  138.41    4.49
  -3   1   7  137.36    4.65
  -3   1   6   43.43    2.44
   3  -1  -6   42.90    2.93
  -3   1   6   42.24    3.38
   3  -1  -6   43.66    2.23
   3  -1  -6   45.65    2.00
  -3   1   5    1.81    0.90
   3  -1  -5    1.60    0.61
   3  -1  -5    2.24    0.50
   3  -1  -5    1.72    0.51
   3  -1  -4    1.79    0.71
  -3   1   4    1.56    0.71
   3  -1  -4    1.93    0.49
   3  -1  -4    1.06    0.57
   3  -1  -3 1533.09   29.61
  -3   1   3 1570.86   29.25
  -3   1   3 1657.15   24.53
   3  -1  -3 1575.21   28.92
   3  -1  -3 1633.91   27.84
   3  -1  -2 9846.18  140.77
  -3   1   2 9743.26  141.24
   3  -1  -2 9999.00  141.53
   3  -1  -2 9819.13  139.86
   3  -1  -1  431.32   10.94
   3  -1  -1  408.32   11.68
   3  -1  -1  446.48   11.81
   3  -1   0  242.22    8.67
   3  -1   0  246.57    7.39
  -3   1   0  241.36    7.39
   3  -1   1   38.97    3.44
   3  -1   1   41.22    2.56
  -3   1  -1   38.22    2.64
   3  -1   1   35.87    2.12
   3  -1   2  505.24   14.47
   3  -1   2  524.37   10.63
  -3   1  -2  526.39   11.36
  -3   1  -2  507.48   10.96
   3  -1   2  502.78   10.56
   3  -1   3   25.83    2.98
   3  -1   3   22.83    1.57
  -3   1  -3   23.22    1.86
   3  -1   3   24.03    1.85
  -3   1  -3   25.56    2.06
   3  -1   4  658.95   17.87
  -3   1  -4  666.31   12.85
   3  -1   4  648.42   11.36
  -3   1  -4  606.85   13.42
   3  -1   4  639.10   13.15
   3  -1   5   34.83    3.84
  -3   1  -5   31.13    2.08
  -3   1  -5   30.42    2.49
   3  -1   5   33.11    2.44
   3  -1   6 1419.41   30.77
  -3   1  -6 1406.45   22.88
  -3   1  -6 1350.35   25.30
   3  -1   6 1349.70   24.84
   3  -1   7    9.74    2.13
  -3   1  -7    8.13    1.03
  -3   1  -7    6.34    1.30
   3  -1   7    8.33    1.48
   3  -1   8  969.43   25.08
  -3   1  -8  946.68   17.26
   3  -1   8  986.79   20.68
   3  -1   9   48.76    5.33
   3  -1   9   61.81    4.78
   3  -1  10  265.97   12.31
  -3   1 -10  249.81    7.15
   3  -1  10  265.24   10.18
   3  -1  11  122.45    8.41
  -3   1 -11  117.91    4.77
   3  -1  11  127.00    7.22
  -3   1 -12   56.60    3.33
   3  -1  12   63.31    5.40
   3  -1  13  167.31    9.46
   3  -1  14    4.49    1.72
   3  -1  15  143.18    9.62
   3  -1  16    9.44    2.71
   3  -1  17   -0.14    1.19
   3  -1  18   19.26    4.13
   3  -1  18   24.54    4.72
   3  -1  19   12.65    3.31
   3  -1  19   18.56    4.35
   3   0 -22    2.36    1.68
  -3   0  21    3.21    1.96
  -3   0  20   42.68    4.64
  -3   0  20   43.09    5.27
  -3   0  19   32.93    4.01
  -3   0  19   38.54    4.93
  -3   0  18   54.13    4.79
  -3   0  18   55.94    5.59
  -3   0  17   42.46    4.09
  -3   0  17   40.73    4.56
  -3   0  16  176.82    8.20
  -3   0  16  178.64    9.46
  -3   0  15  138.87    6.84
  -3   0  15  149.62    8.32
  -3   0  14  112.29    5.89
  -3   0  14  127.65    7.64
  -3   0  13  271.97    8.94
  -3   0  13  278.27   10.97
  -3   0  12    9.84    1.50
  -3   0  12   10.49    1.98
  -3   0  11  823.37   16.53
  -3   0  11  821.50   19.94
  -3   0  10   50.66    2.91
  -3   0  10   47.62    4.00
   3   0 -10   54.00    4.14
  -3   0   9  618.52   12.47
  -3   0   9  633.92   16.12
   3   0  -9  617.72   13.62
   3   0  -9  630.16   15.66
  -3   0   8  137.28    6.53
   3   0  -8  122.37    5.05
  -3   0   8  132.46    4.31
  -3   0   7  576.75   14.70
   3   0  -7  556.57   12.98
  -3   0   7  595.54   10.97
   3   0  -7  574.17   10.48
   3   0  -6    1.75    0.72
  -3   0   6    1.88    0.91
   3   0  -6    2.32    0.42
   3   0  -5    5.26    1.13
  -3   0   5    2.89    1.08
   3   0  -5    3.09    0.46
   3   0  -4  141.49    5.98
  -3   0   4  162.22    6.77
  -3   0   4  159.60    4.88
  -3   0   3 2356.21   41.92
  -3   0   3 2492.78   36.39
   3   0  -3 2436.83   41.23
   3   0  -3 2441.65   36.57
   3   0  -2 2461.35   41.65
   3   0  -2 2537.27   36.76
  -3   0   2 2445.28   41.93
   3   0  -1 2285.35   37.35
   3   0  -1 2325.69   39.31
   3   0   0   96.10    4.21
   3   0   0   98.55    5.33
   3   0   0  101.37    3.46
   3   0   1   37.26    2.33
   3   0   1   40.36    2.16
   3   0   2   73.72    5.13
   3   0   2   74.35    2.97
  -3   0  -2   74.63    3.28
   3   0   2   72.77    3.07
   3   0   3   15.41    2.57
   3   0   3   10.46    0.91
  -3   0  -3   15.83    1.35
  -3   0  -3    9.11    1.22
   3   0   3   10.31    1.22
   3   0   4   33.17    3.67
  -3   0  -4   31.15    1.74
  -3   0  -4   28.49    2.26
   3   0   4   30.69    2.22
   3   0   5  246.67   10.85
  -3   0  -5  264.06    5.89
  -3   0  -5  239.18    7.67
   3   0   5  253.58    7.57
   3   0   6  213.78   10.31
  -3   0  -6  229.53    5.41
  -3   0  -6  224.04    7.57
   3   0   6  221.43    7.46
   3   0   7  227.39   10.93
  -3   0  -7  211.57    5.27
  -3   0  -7  212.07    7.66
   3   0   7  207.38    7.72
   3   0   8   34.24    4.39
  -3   0  -8   31.28    1.95
   3   0   8   35.27    3.35
   3   0   9  218.77   11.15
  -3   0  -9  215.31    5.65
   3   0   9  233.10    9.17
   3   0  10    1.05    0.97
  -3   0 -10    1.01    0.53
   3   0  10    1.38    0.95
   3   0  11  240.09   12.23
  -3   0 -11  238.00    6.41
   3   0  11  252.09   10.78
   3   0  12   73.41    6.78
   3   0  12   73.04    6.03
   3   0  13   64.70    6.45
   3   0  13   60.13    5.68
   3   0  14  253.50   12.67
   3   0  15   14.10    3.09
   3   0  16   87.02    8.08
   3   0  16   97.50    8.38
   3   0  17   19.61    4.02
   3   0  17   17.44    3.69
   3   0  18   33.20    5.28
   3   0  19   36.88    5.65
  -3  -1  22    3.05    1.41
  -3  -1  21    5.22    1.91
  -3  -1  20   14.48    2.57
  -3  -1  20   18.04    3.57
  -3  -1  19    0.21    0.88
  -3  -1  19   -0.89    1.34
  -3  -1  18    6.20    1.61
  -3  -1  18    5.57    1.78
  -3  -1  17    4.75    1.73
  -3  -1  17    5.77    2.32
  -3  -1  16   -0.28    0.54
  -3  -1  16   -0.14    0.97
  -3  -1  15   50.82    3.80
  -3  -1  15   51.37    4.87
  -3  -1  14   11.32    1.70
  -3  -1  14   11.70    2.26
  -3  -1  13  147.55    5.86
  -3  -1  13  145.86    7.80
   3   1 -12  305.08    6.57
  -3  -1  12  318.42    8.62
  -3  -1  12  310.85   11.43
  -3  -1  11  173.79    5.57
  -3  -1  11  175.09    8.14
  -3  -1  10 1193.99   20.11
  -3  -1  10 1193.85   25.55
   3   1 -10 1202.15   24.26
  -3  -1   9   14.86    1.25
  -3  -1   9   18.41    2.51
   3   1  -9   16.83    1.91
   3   1  -9   15.06    2.04
  -3  -1   8 1716.28   25.68
   3   1  -8 1667.97   29.14
  -3  -1   8 1738.37   32.19
   3   1  -8 1696.70   30.21
   3   1  -7   58.70    3.59
  -3  -1   7   58.53    4.20
   3   1  -6  660.03   14.76
  -3  -1   6  679.38   16.42
  -3  -1   5   61.71    3.37
   3   1  -5   63.88    3.86
  -3  -1   5   68.51    4.53
  -3  -1   4    3.01    0.70
  -3  -1   4    2.37    0.99
   3   1  -4    1.80    0.72
   3   1  -3   18.77    2.21
   3   1  -3   16.47    1.49
  -3  -1   3   14.47    2.06
   3   1  -2    6.01    0.92
  -3  -1   2    6.16    1.34
   3   1  -2    8.85    1.58
  -3  -1   1   63.64    4.23
   3   1  -1   66.91    4.26
   3   1  -1   67.71    2.46
   3   1   0  201.28    6.16
   3   1   0  202.16    7.85
   3   1   0  190.22    4.78
   3   1   1    3.75    0.70
   3   1   1    3.12    1.01
  -3  -1  -1    4.05    0.70
   3   1   1    2.66    0.58
   3   1   2   46.33    2.06
   3   1   2   43.00    2.23
  -3  -1  -2   44.56    2.46
  -3  -1  -3    0.54    0.43
   3   1   3    0.98    0.48
  -3  -1  -4   12.71    1.51
   3   1   4   16.42    1.63
   3   1   5   77.86    6.07
   3   1   5   76.84    3.95
  -3  -1  -5   80.78    4.07
   3   1   6    6.28    2.07
   3   1   6    3.35    1.35
  -3  -1  -6    5.88    1.22
   3   1   7   69.31    6.17
  -3  -1  -7   76.10    4.51
   3   1   7   78.15    4.61
   3   1   8   96.15    7.30
   3   1   8   93.11    5.73
   3   1   9   78.36    6.73
   3   1   9   80.66    5.42
   3   1  10  163.62   10.06
   3   1  10  173.61    8.57
   3   1  11   52.37    5.75
  -3  -1 -11   40.76    1.74
  -3  -1 -11   38.79    1.75
   3   1  11   44.89    4.70
   3   1  12  216.82   12.13
   3   1  12  218.88   10.79
   3   1  13   -0.33    1.26
   3   1  13    0.31    0.92
   3   1  13   -0.25    0.96
   3   1  14   85.85    7.73
   3   1  14   87.89    7.67
   3   1  14   83.45    7.18
   3   1  15   44.65    5.53
   3   1  15   55.32    6.23
   3   1  16   18.64    3.85
   3   1  17   97.63    8.82
   3   1  18   26.92    4.76
  -3  -2  23   12.79    3.32
  -3  -2  22   33.53    5.03
  -3  -2  21   28.22    4.50
  -3  -2  20   44.16    5.43
  -3  -2  19    0.26    0.76
  -3  -2  19    0.54    1.15
  -3  -2  18   43.47    3.90
  -3  -2  18   44.71    5.06
  -3  -2  17    6.56    1.72
  -3  -2  17   10.80    3.20
  -3  -2  16   17.01    2.22
  -3  -2  16   18.88    3.16
   3   2 -15   -0.02    0.35
  -3  -2  15    0.12    0.49
  -3  -2  15   -0.48    1.30
  -3  -2  14   18.67    2.03
   3   2 -14   19.83    1.78
  -3  -2  14   22.23    3.15
  -3  -2  13    1.90    0.68
  -3  -2  13    0.61    0.73
  -3  -2  12  268.06    7.14
  -3  -2  12  257.15   10.50
  -3  -2  11   68.16    2.92
  -3  -2  11   66.06    4.92
   3   2 -11   65.94    4.32
  -3  -2  10  398.02    7.84
  -3  -2  10  400.98   12.75
   3   2 -10  387.28   11.08
  -3  -2   9  612.13   10.01
  -3  -2   9  584.25   16.01
   3   2  -9  578.93   13.58
   3   2  -9  599.88   14.13
  -3  -2   8   17.74    2.44
   3   2  -8   18.57    2.03
   3   2  -8   18.90    2.01
   3   2  -7 1878.87   32.11
  -3  -2   7 1861.38   33.00
  -3  -2   7 1902.89   34.86
   3   2  -7 1896.09   31.27
  -3  -2   6   28.22    2.50
   3   2  -6   30.36    2.64
  -3  -2   6   32.72    3.24
   3   2  -5 1172.49   22.97
  -3  -2   5 1240.40   22.29
  -3  -2   5 1232.27   24.98
   3   2  -4   71.90    3.59
  -3  -2   4   65.49    4.45
   3   2  -4   70.13    4.11
  -3  -2   4   67.65    3.51
   3   2  -3  869.53   18.59
  -3  -2   3  853.87   19.40
   3   2  -3  886.42   16.70
  -3  -2   2   29.10    2.89
   3   2  -2   29.12    2.70
  -3  -2   1  225.47    8.53
   3   2  -1  227.32    8.24
   3   2  -1  217.66    4.65
   3   2   0  142.76    6.48
   3   2   0  135.19    3.58
   3   2   1  126.09    6.21
   3   2   1  127.33    3.70
  -3  -2  -1  124.25    3.96
   3   2   2    5.53    0.64
   3   2   2    6.93    1.55
  -3  -2  -2    6.15    0.96
   3   2   2    6.75    0.92
   3   2   3    9.68    1.20
  -3  -2  -3   13.85    1.48
   3   2   4   43.82    2.84
  -3  -2  -4   46.01    2.90
  -3  -2  -5  125.08    5.30
   3   2   5  120.88    5.28
  -3  -2  -6  113.77    5.48
   3   2   6  127.26    5.87
   3   2   7   39.27    4.71
   3   2   7   46.29    3.97
   3   2   8  144.17    9.30
   3   2   8  138.97    7.01
   3   2   9   43.16    5.21
   3   2   9   42.98    4.13
   3   2  10  136.29    9.52
   3   2  10  157.05    8.35
   3   2  11   20.06    3.35
   3   2  11   25.07    4.11
   3   2  11   21.62    3.16
   3   2  12  131.60    9.57
   3   2  12  104.64    8.06
   3   2  12  117.20    7.94
   3   2  13   81.62    7.65
   3   2  13   73.49    6.94
   3   2  13   70.09    6.42
   3   2  14   25.66    4.22
   3   2  14   24.60    4.26
   3   2  15   31.85    4.80
   3   2  15   27.50    4.65
   3   2  16   11.45    3.19
   3   2  17    7.47    3.17
  -3  -3  24   31.22    5.24
  -3  -3  23    7.30    3.04
  -3  -3  22   48.17    6.09
  -3  -3  21   48.62    6.01
  -3  -3  20   55.27    6.16
  -3  -3  19  100.44    6.05
  -3  -3  19  110.83    8.48
  -3  -3  18   50.30    4.37
  -3  -3  18   79.26    6.97
  -3  -3  17   44.10    3.55
  -3  -3  17   52.58    5.35
  -3  -3  16    1.13    0.71
  -3  -3  16    2.43    1.14
  -3  -3  15   82.34    4.33
  -3  -3  15   82.41    6.34
  -3  -3  14   39.10    2.73
  -3  -3  14   39.33    4.19
  -3  -3  13    1.12    0.57
  -3  -3  13    0.82    0.84
  -3  -3  12    4.70    0.74
  -3  -3  12    5.01    1.67
  -3  -3  11   78.23    2.67
  -3  -3  11   72.06    5.28
   3   3 -11   72.91    4.32
  -3  -3  10    4.39    1.34
   3   3 -10    3.31    0.96
  -3  -3   9   76.92    5.21
  -3  -3   9   85.13    5.28
   3   3  -9   81.90    4.34
   3   3  -9   84.82    4.20
  -3  -3   8  190.95    7.82
  -3  -3   8  189.35    8.15
   3   3  -8  174.43    6.48
   3   3  -8  185.99    6.09
  -3  -3   7    3.48    1.31
  -3  -3   7    2.90    1.11
   3   3  -7    3.52    1.04
   3   3  -7    2.56    0.79
  -3  -3   6 1906.20   35.87
   3   3  -6 1965.51   33.30
  -3  -3   6 1930.38   33.33
   3   3  -6 1885.68   29.81
   3   3  -5    2.36    0.40
  -3  -3   5    1.50    0.69
  -3  -3   5    2.10    1.26
   3   3  -5    1.84    0.86
   3   3  -5    2.52    0.76
   3   3  -5    2.78    0.63
   3   3  -4 1330.77   20.71
   3   3  -4 1334.83   24.02
  -3  -3   4 1253.80   26.21
   3   3  -4 1314.51   24.72
   3   3  -3  152.51    4.74
   3   3  -3  149.29    6.30
  -3  -3   3  151.46    7.00
   3   3  -3  159.16    5.96
   3   3  -2 1149.48   20.09
  -3  -3   2 1143.19   23.91
   3   3  -2 1120.44   22.61
   3   3  -2 1127.08   16.41
  -3  -3   1   23.08    2.75
   3   3  -1   21.30    2.40
   3   3  -1   22.86    1.04
   3   3   0  613.92   15.05
   3   3   0  566.22   10.18
  -3  -3   0  616.32   10.56
   3   3   1   97.24    5.33
   3   3   1   93.71    3.30
  -3  -3  -1   92.32    3.37
   3   3   2  228.47    8.81
  -3  -3  -2  221.51    6.00
   3   3   2  210.19    6.11
   3   3   3  131.52    6.63
   3   3   3  123.97    4.76
  -3  -3  -3  118.61    4.56
   3   3   4    6.82    1.25
  -3  -3  -4    7.62    1.20
  -3  -3  -5   56.42    3.47
   3   3   5   50.66    3.57
   3   3   6   58.60    4.06
  -3  -3  -6   59.96    3.80
   3   3   7    1.16    0.70
   3   3   7    3.52    1.21
   3   3   8    4.15    1.59
   3   3   8    3.45    1.61
   3   3   8    3.63    1.23
   3   3   9    2.04    0.96
   3   3   9    6.91    2.32
   3   3   9    5.25    1.53
   3   3  10    0.87    0.84
   3   3  10    0.96    1.30
   3   3  10   -0.31    1.14
   3   3  11  114.49    8.20
   3   3  11  118.44    9.17
   3   3  11  119.05    7.85
   3   3  12   13.91    2.99
   3   3  12   15.34    3.33
   3   3  13   76.48    7.11
   3   3  13   85.64    8.11
   3   3  14   29.55    4.51
   3   3  14   32.92    5.05
   3   3  15   65.39    7.25
   3   3  15   59.77    6.77
   3   3  16   22.12    4.21
  -3  -4  25    9.75    3.44
  -3  -4  24   15.06    3.69
  -3  -4  23   78.34    8.31
  -3  -4  22   15.99    3.75
  -3  -4  21  118.41    9.35
  -3  -4  20   17.88    4.07
  -3  -4  19  105.51    8.30
  -3  -4  18   51.31    3.84
  -3  -4  18   52.17    5.66
  -3  -4  17   90.35    4.91
  -3  -4  17  100.57    7.56
  -3  -4  16   77.75    4.24
  -3  -4  16   76.79    6.38
  -3  -4  15    4.08    0.98
  -3  -4  15    1.61    0.97
  -3  -4  14   10.68    1.31
  -3  -4  14   12.70    2.44
  -3  -4  13    3.95    0.72
  -3  -4  13    2.18    0.86
  -3  -4  12    1.42    0.40
  -3  -4  12    0.12    1.18
   3   4 -12    0.57    0.51
  -3  -4  11  168.37    8.37
   3   4 -11  168.22    6.33
  -3  -4  10   -0.37    0.68
  -3  -4  10    0.23    0.60
   3   4 -10    0.76    0.39
  -3  -4   9   92.31    5.70
  -3  -4   9   93.30    5.92
   3   4  -9   91.74    4.00
  -3  -4   8    7.72    1.58
  -3  -4   8   13.62    2.08
   3   4  -8    9.88    1.17
   3   4  -8   10.55    1.53
   3   4  -7   16.87    2.05
  -3  -4   7   17.10    2.45
   3   4  -7   15.24    1.33
   3   4  -6    9.87    0.75
  -3  -4   6    9.18    1.64
  -3  -4   6    9.19    1.69
   3   4  -6   10.72    1.66
   3   4  -6   11.21    1.58
   3   4  -6    9.87    0.92
   3   4  -5  344.04    7.03
   3   4  -5  336.92    9.82
   3   4  -5  336.03   10.06
  -3  -4   5  326.43   11.26
   3   4  -5  360.29    6.44
   3   4  -4   26.88    1.76
   3   4  -4   27.04    2.52
   3   4  -4   27.52    2.58
  -3  -4   4   26.00    2.90
   3   4  -3  954.54   17.44
   3   4  -3  962.89   19.78
  -3  -4   3  929.93   21.39
   3   4  -3  977.43   19.96
   3   4  -2   15.78    1.71
   3   4  -2   19.12    2.23
  -3  -4   2   16.67    2.36
   3   4  -1  738.46   15.57
  -3  -4   1  715.13   17.80
   3   4  -1  714.64   16.50
   3   4  -1  721.10   11.57
   3   4   0    4.71    1.14
   3   4   0    6.06    1.31
  -3  -4   0    5.50    0.69
   3   4   0    4.88    0.70
   3   4   1 1219.79   23.99
   3   4   1 1184.09   24.04
  -3  -4  -1 1182.42   19.30
   3   4   1 1158.46   19.83
   3   4   2  163.34    3.67
   3   4   2  157.97    7.13
   3   4   2  158.85    7.06
   3   4   2  157.00    5.36
  -3  -4  -2  143.39    4.87
   3   4   3  367.54   11.98
   3   4   3  361.52   11.60
   3   4   3  375.89    9.70
  -3  -4  -3  361.11    8.99
   3   4   4  188.37    8.54
   3   4   4  205.39    8.55
  -3  -4  -4  190.73    6.48
   3   4   4  177.17    6.84
   3   4   5  145.05    7.86
   3   4   5  140.75    7.18
  -3  -4  -5  151.85    5.91
   3   4   5  144.70    6.48
   3   4   6  211.09    9.80
   3   4   6  200.41    8.19
  -3  -4  -6  214.98    7.66
   3   4   7    4.20    1.47
   3   4   7    3.91    1.34
   3   4   8   47.52    4.78
   3   4   9    7.67    2.05
   3   4   9   14.63    3.30
   3   4  10   15.37    2.98
   3   4  10   11.92    3.03
   3   4  11    6.38    2.08
   3   4  11    7.44    2.45
   3   4  12   53.64    6.48
   3   4  12   49.99    5.73
   3   4  13   24.89    4.53
   3   4  13   25.00    4.19
   3   4  14   73.72    7.42
   3   4  14   86.33    8.45
   3   4  15   37.51    5.61
   3   4  15   33.36    5.19
   3   4  16   96.05    8.93
  -3  -5  24    5.28    2.52
  -3  -5  23   64.56    7.65
  -3  -5  22   72.56    7.62
  -3  -5  21   48.99    6.12
  -3  -5  20  178.73   11.40
  -3  -5  19    5.69    2.31
  -3  -5  18  354.81   10.57
  -3  -5  18  379.34   15.88
  -3  -5  17   41.63    3.06
  -3  -5  17   49.07    5.38
  -3  -5  16  171.24    6.09
  -3  -5  16  167.09    9.79
  -3  -5  15   23.11    1.93
  -3  -5  15   21.38    3.51
  -3  -5  14  121.30    4.12
  -3  -5  14  115.98    7.61
  -3  -5  13   23.12    1.46
  -3  -5  13   21.67    3.22
  -3  -5  12   17.75    1.01
  -3  -5  12   16.28    2.78
   3   5 -12   18.77    2.08
  -3  -5  11    7.70    1.84
   3   5 -11    6.93    1.11
  -3  -5  10    0.64    1.42
   3   5 -10    0.34    0.53
  -3  -5   9   12.70    2.49
  -3  -5   9   14.38    2.52
   3   5  -9   11.81    1.32
  -3  -5   8  163.91    8.52
  -3  -5   8  183.35    8.19
   3   5  -8  172.45    4.89
   3   5  -8  175.02    6.71
   3   5  -7   -0.03    0.51
  -3  -5   7   -0.28    0.83
  -3  -5   7    0.35    0.79
   3   5  -7    0.24    0.49
   3   5  -7    0.04    0.19
   3   5  -6   54.77    2.31
  -3  -5   6   52.43    4.04
  -3  -5   6   52.44    4.27
   3   5  -6   48.40    3.80
   3   5  -6   50.66    3.47
   3   5  -6   51.71    1.82
   3   5  -5   27.39    1.81
  -3  -5   5   28.40    3.16
   3   5  -5   28.17    2.82
   3   5  -5   26.92    2.53
   3   5  -4   10.15    1.28
   3   5  -4    7.45    1.54
  -3  -5   4   10.88    2.05
   3   5  -4    9.81    1.71
   3   5  -3  149.96    5.35
  -3  -5   3  147.61    7.25
   3   5  -3  151.49    6.87
   3   5  -3  141.91    6.09
   3   5  -2  383.50   10.03
  -3  -5   2  362.21   11.99
   3   5  -2  380.39   10.80
   3   5  -1  203.52    7.37
   3   5  -1  221.71    7.89
  -3  -5   1  212.90    8.83
  -3  -5   1  207.86    4.18
   3   5   0  890.38   19.25
   3   5   0  885.78   19.23
  -3  -5   0  885.23   14.60
   3   5   1   38.76    2.02
   3   5   1   37.52    3.38
   3   5   1   33.96    3.00
  -3  -5  -1   36.32    2.03
   3   5   2  867.70   14.37
   3   5   2  877.65   20.42
   3   5   2  873.56   19.43
  -3  -5  -2  859.89   15.84
   3   5   3  103.98    6.16
   3   5   3   99.31    5.56
  -3  -5  -3  102.24    4.39
   3   5   4  365.63   12.76
   3   5   4  366.47   11.66
  -3  -5  -4  369.64    9.64
   3   5   5   78.87    5.80
   3   5   5   75.15    5.04
  -3  -5  -5   77.95    4.30
   3   5   6  223.09   10.34
   3   5   6  236.39    9.51
   3   5   7  185.55    9.78
   3   5   7  201.45    8.89
   3   5   8  107.62    7.61
   3   5   8  111.06    6.68
   3   5   9  149.83    9.28
   3   5  10    0.88    1.27
   3   5  10    0.80    1.28
   3   5  11   26.22    4.81
   3   5  11   25.68    4.13
   3   5  12   42.54    5.96
   3   5  12   38.20    5.16
   3   5  13    2.03    1.80
   3   5  13    1.17    1.12
   3   5  14   39.52    5.89
   3   5  14   51.40    6.26
   3   5  15   48.15    6.30
  -3  -6  24    9.75    3.26
  -3  -6  23    0.44    1.57
  -3  -6  22   57.96    6.93
  -3  -6  21   20.92    4.10
  -3  -6  20    7.37    2.33
  -3  -6  19  232.72   12.80
  -3  -6  18   18.97    3.82
  -3  -6  17  299.41    8.45
  -3  -6  17  284.40   13.44
  -3  -6  16    1.53    0.62
  -3  -6  16    4.34    1.84
  -3  -6  15  526.13   10.70
  -3  -6  15  477.12   17.36
  -3  -6  14    1.88    0.59
  -3  -6  14    5.45    2.25
  -3  -6  13  424.37    7.84
  -3  -6  13  422.60   15.18
  -3  -6  12    8.67    2.11
   3   6 -12    5.86    1.20
  -3  -6  11  201.16    9.79
   3   6 -11  199.90    6.33
  -3  -6  10    6.00    2.19
   3   6 -10    7.19    1.19
  -3  -6   9   37.57    1.64
  -3  -6   9   33.73    3.87
   3   6  -9   44.31    2.33
  -3  -6   8   45.33    4.24
   3   6  -8   45.82    2.11
  -3  -6   7  172.54    8.37
   3   6  -7  182.63    8.20
  -3  -6   7  175.68    8.27
   3   6  -7  203.41    7.16
   3   6  -7  184.07    4.25
   3   6  -6    6.72    0.93
  -3  -6   6    5.54    1.54
   3   6  -6   10.17    1.86
   3   6  -6    5.97    1.20
   3   6  -6    6.84    0.59
   3   6  -5  239.43    6.79
   3   6  -5  262.36    9.54
  -3  -6   5  241.51    9.84
   3   6  -5  246.82    8.21
   3   6  -4    0.68    0.44
   3   6  -4   -0.27    0.53
  -3  -6   4    0.14    0.77
   3   6  -4    0.83    0.62
   3   6  -3   23.99    2.25
   3   6  -3   19.94    2.25
   3   6  -3   28.05    3.20
  -3  -6   3   31.56    3.56
   3   6  -2  603.98   14.23
  -3  -6   2  586.38   16.38
   3   6  -2  627.94   14.67
   3   6  -1   35.82    3.08
  -3  -6   1   37.85    3.72
   3   6  -1   37.12    3.10
  -3  -6   1   39.30    1.48
   3   6   0   40.88    3.49
   3   6   0   41.42    3.27
  -3  -6   0   41.10    1.93
   3   6   1  170.51    5.25
   3   6   1  155.05    7.44
   3   6   1  161.71    6.94
  -3  -6  -1  166.47    5.26
   3   6   2   49.70    2.48
   3   6   2   43.82    3.99
   3   6   2   48.75    3.77
  -3  -6  -2   54.44    2.92
   3   6   3  299.60    6.53
   3   6   3  329.31   12.16
   3   6   3  317.89   10.17
  -3  -6  -3  312.42    8.48
   3   6   4   33.68    3.72
   3   6   4   27.91    2.85
  -3  -6  -4   28.10    2.47
   3   6   5  443.58   15.22
   3   6   5  461.00   13.30
  -3  -6  -5  459.45   11.84
   3   6   6   12.96    2.61
   3   6   6   13.05    2.15
   3   6   7  284.98   12.61
   3   6   7  301.01   10.81
   3   6   8  160.23    9.56
   3   6   9   11.98    2.70
   3   6  10  160.90   10.11
   3   6  11   50.42    6.61
   3   6  11   55.96    6.21
   3   6  12   68.26    8.03
   3   6  12   64.82    6.75
   3   6  13   40.24    5.52
   3   6  13   44.34    6.50
   3   6  14    8.44    3.21
   3   6  14   15.50    3.64
  -3  -7  24   -0.43    2.48
  -3  -7  23   11.52    3.84
  -3  -7  22   12.78    3.16
  -3  -7  21   25.62    4.81
  -3  -7  20    5.21    2.19
  -3  -7  19    3.42    2.13
  -3  -7  18   16.58    3.21
  -3  -7  17    6.64    1.68
  -3  -7  16  290.83    7.44
  -3  -7  16  291.70   13.50
  -3  -7  15   48.59    5.27
  -3  -7  14  945.23   15.46
  -3  -7  14  920.02   25.29
  -3  -7  13    1.08    0.35
   3   7 -13    4.09    1.19
  -3  -7  13    3.54    1.94
  -3  -7  12  534.73    9.23
  -3  -7  12  569.26   18.20
   3   7 -12  575.44   12.42
  -3  -7  11    5.46    0.78
  -3  -7  11   11.08    2.82
   3   7 -11   13.91    1.65
  -3  -7  10  194.32    4.91
  -3  -7  10  215.28   10.16
   3   7 -10  221.80    6.00
  -3  -7   9   79.45    3.10
  -3  -7   9   80.71    5.95
   3   7  -9   75.28    3.01
  -3  -7   8  228.13    6.31
   3   7  -8  225.26    9.70
  -3  -7   8  240.06   10.40
   3   7  -8  223.98    5.29
   3   7  -7   12.61    1.39
  -3  -7   7   12.41    1.41
  -3  -7   7   11.57    2.35
   3   7  -7   11.60    2.07
   3   7  -7   10.64    0.85
   3   7  -6    3.03    0.79
  -3  -7   6    3.88    1.41
   3   7  -6    3.76    1.36
   3   7  -6    4.26    1.05
   3   7  -5   41.62    2.77
   3   7  -5   43.58    3.17
   3   7  -5   40.01    3.79
  -3  -7   5   34.01    3.68
   3   7  -4   11.85    1.64
   3   7  -4   10.92    2.00
  -3  -7   4   12.49    2.25
   3   7  -4    9.87    1.50
   3   7  -3    1.29    0.51
  -3  -7   3    1.14    0.71
   3   7  -3    1.68    1.17
   3   7  -3    0.13    0.40
   3   7  -2   42.50    3.33
   3   7  -2   42.15    3.13
  -3  -7   2   41.46    3.98
   3   7  -1   38.16    3.31
  -3  -7   1   33.52    3.56
   3   7  -1   31.50    2.71
  -3  -7   1   33.73    1.45
   3   7   0   70.05    3.53
   3   7   0   69.06    4.78
   3   7   0   71.27    4.20
  -3  -7   0   68.03    2.71
   3   7   1  451.76   10.43
   3   7   1  479.89   14.24
   3   7   1  476.64   12.31
  -3  -7  -1  476.98    9.79
   3   7   2   29.76    2.19
   3   7   2   42.15    4.31
   3   7   2   31.28    2.83
  -3  -7  -2   39.26    2.80
   3   7   3  308.85    7.29
   3   7   3  313.46   11.92
   3   7   3  296.39    9.46
  -3  -7  -3  290.22    8.27
   3   7   4  107.28    6.97
   3   7   4  102.85    5.33
  -3  -7  -4   99.17    4.71
   3   7   5  177.50    9.45
   3   7   5  174.07    7.23
  -3  -7  -5  178.00    6.90
   3   7   6  242.73   11.50
   3   7   6  223.68    8.51
   3   7   7   15.00    2.93
   3   7   8   24.31    3.81
   3   7   9   66.42    6.53
   3   7  10   22.58    3.85
   3   7  11   84.71    8.98
   3   7  11   85.88    7.79
   3   7  12   21.98    4.08
   3   7  12   22.69    4.90
   3   7  13   87.28    8.26
   3   7  13   81.43    9.05
  -3  -8  23    4.10    2.95
  -3  -8  22    3.89    2.64
  -3  -8  21    5.58    2.38
  -3  -8  20    4.07    2.24
  -3  -8  19   22.75    3.87
  -3  -8  18   23.69    3.87
  -3  -8  17   43.78    5.27
  -3  -8  16    7.36    2.57
  -3  -8  15   96.52    7.54
  -3  -8  14    2.10    0.45
  -3  -8  14    4.07    1.91
  -3  -8  13  434.77    8.44
  -3  -8  13  449.71   16.40
   3   8 -13  444.21   10.94
  -3  -8  12    5.85    0.95
  -3  -8  12    9.69    3.11
  -3  -8  11  677.13   20.17
   3   8 -11  717.34   13.62
  -3  -8  10   72.55    3.20
  -3  -8  10   75.65    6.18
   3   8 -10   73.79    3.22
  -3  -8   9  518.28   11.33
  -3  -8   9  531.65   17.01
   3   8  -9  508.49   16.37
   3   8  -9  519.42   10.16
  -3  -8   8    7.81    1.24
  -3  -8   8   11.58    2.64
   3   8  -8   10.80    2.20
   3   8  -7  130.89    5.21
  -3  -8   7  128.26    5.41
   3   8  -7  128.06    7.31
  -3  -8   7  130.28    7.75
   3   8  -6  142.05    5.60
  -3  -8   6  134.95    5.98
   3   8  -6  136.51    7.55
  -3  -8   6  138.19    7.82
   3   8  -5   92.05    4.64
  -3  -8   5   98.14    6.51
   3   8  -5  102.23    6.47
   3   8  -5  102.59    4.96
   3   8  -4  250.86    8.36
  -3  -8   4  236.46   10.27
   3   8  -4  256.07   10.73
   3   8  -4  253.03    8.15
   3   8  -3    3.12    0.94
  -3  -8   3    4.05    1.21
   3   8  -3    2.46    1.03
   3   8  -3    3.85    1.01
   3   8  -2   38.80    3.31
  -3  -8   2   44.24    4.21
   3   8  -2   50.65    3.40
   3   8  -1    1.77    0.84
   3   8  -1    1.14    0.78
  -3  -8   1    2.73    1.42
  -3  -8   1    1.71    0.56
   3   8  -1    0.86    0.75
   3   8   0   52.40    3.34
   3   8   0   45.54    4.04
   3   8   0   51.67    3.51
  -3  -8   0   54.29    2.43
   3   8   1    8.97    1.40
   3   8   1   12.09    2.34
   3   8   1    7.51    1.43
  -3  -8  -1    9.49    1.44
   3   8   2  122.92    4.96
   3   8   2  107.77    6.82
   3   8   2  124.44    5.45
  -3  -8  -2  117.50    4.58
   3   8   3   31.56    2.27
   3   8   3   30.97    3.73
   3   8   3   27.95    2.55
  -3  -8  -3   33.00    2.55
   3   8   4  148.31    4.22
   3   8   4  159.51    8.87
   3   8   4  153.07    6.21
  -3  -8  -4  159.35    6.28
   3   8   5   52.40    5.18
   3   8   6   95.06    7.26
   3   8   7   56.87    5.78
   3   8   8   13.26    2.95
   3   8   9   11.36    2.90
   3   8  10    4.69    2.03
   3   8  11   15.91    4.21
   3   8  11    7.98    3.20
   3   8  12   27.48    5.37
   3   8  12   30.80    5.07
  -3  -9  23    9.24    3.36
  -3  -9  22    4.39    2.22
  -3  -9  21    7.56    3.13
  -3  -9  20   -0.69    1.73
  -3  -9  19   -4.69    2.32
  -3  -9  18   16.28    3.54
  -3  -9  17   26.28    4.23
  -3  -9  16    3.15    1.34
  -3  -9  15   -0.22    1.83
  -3  -9  14    1.90    0.50
  -3  -9  14   -1.32    1.77
  -3  -9  13   11.72    1.23
  -3  -9  13   10.36    2.59
   3   9 -13   10.78    1.45
  -3  -9  12   16.45    1.55
  -3  -9  12   21.00    3.55
   3   9 -12   24.75    2.12
  -3  -9  11   69.83    3.39
  -3  -9  11   75.50    6.39
   3   9 -11   71.49    3.39
  -3  -9  10  425.85   10.42
  -3  -9  10  461.10   16.34
   3   9 -10  448.60    9.64
  -3  -9   9    0.60    0.62
   3   9  -9   -0.77    1.00
  -3  -9   8  702.49   15.93
  -3  -9   8  727.77   21.02
   3   9  -8  768.98   20.91
   3   9  -7   36.02    2.89
  -3  -9   7   31.91    2.92
  -3  -9   7   41.05    4.46
   3   9  -7   34.78    3.97
   3   9  -6  476.48   12.33
  -3  -9   6  458.82   13.03
   3   9  -6  494.32   15.94
  -3  -9   6  474.62   15.92
   3   9  -5   86.09    4.77
  -3  -9   5   91.58    5.48
   3   9  -5   84.23    6.18
  -3  -9   5   89.25    6.35
   3   9  -4  198.64    7.79
   3   9  -4  214.59   10.26
  -3  -9   4  199.89    9.68
   3   9  -4  209.17    7.29
   3   9  -3   89.96    4.59
  -3  -9   3   84.74    6.10
   3   9  -3   86.15    6.44
   3   9  -3   92.59    5.36
   3   9  -2   75.35    4.37
   3   9  -2   78.96    5.12
  -3  -9   2   79.44    5.73
   3   9  -2   78.62    4.23
   3   9  -1   51.96    3.56
   3   9  -1   56.95    4.48
  -3  -9   1   49.93    4.50
   3   9  -1   52.69    3.41
  -3  -9   1   49.04    1.99
   3   9   0   25.74    2.48
   3   9   0   28.51    3.28
   3   9   0   29.25    2.48
  -3  -9   0   30.63    1.83
   3   9   1   21.10    2.20
   3   9   1   27.66    3.43
   3   9   1   20.10    2.05
  -3  -9  -1   21.33    1.75
   3   9   2    0.43    0.79
   3   9   2    0.44    0.64
   3   9   2    0.35    0.42
  -3  -9  -2    0.31    0.50
   3   9   3   29.92    3.85
  -3  -9  -3   26.25    2.31
   3   9   4   36.04    4.34
   3   9   5   73.54    6.41
   3   9   6   11.00    2.51
   3   9   7   66.13    6.38
   3   9   8    6.22    2.07
   3   9   9  107.92    8.69
   3   9  10    4.01    2.30
   3   9  11   27.25    4.61
   3   9  12    2.90    2.29
  -3 -10  22   20.52    4.42
  -3 -10  21   42.23    5.99
  -3 -10  20    2.07    1.65
  -3 -10  19   -0.12    1.70
  -3 -10  18   -0.90    1.18
  -3 -10  17   12.42    3.10
  -3 -10  16    4.53    1.96
  -3 -10  15   -1.47    2.19
  -3 -10  14    4.43    1.39
  -3 -10  13    0.89    0.49
  -3 -10  13    1.00    1.66
   3  10 -13    1.19    0.56
  -3 -10  12    1.53    0.58
  -3 -10  12    1.69    1.07
   3  10 -12    0.76    0.47
   3  10 -11    0.53    0.52
  -3 -10  11    0.03    0.39
  -3 -10  10   57.33    3.63
  -3 -10  10   50.68    5.33
   3  10 -10   56.97    5.47
  -3 -10   9  260.81    8.80
   3  10  -9  270.47   12.19
  -3 -10   9  288.25   12.95
  -3 -10   8  137.07    6.40
  -3 -10   8  148.22    8.98
   3  10  -8  133.07    8.34
   3  10  -7  497.17   13.14
  -3 -10   7  477.46   13.69
   3  10  -7  493.02   16.73
  -3 -10   7  483.79   16.84
  -3 -10   6    4.57    1.32
   3  10  -6    6.68    1.43
   3  10  -6    1.78    1.00
  -3 -10   6    7.38    2.31
   3  10  -5  539.59   14.31
  -3 -10   5  499.40   15.34
  -3 -10   5  510.24   16.99
   3  10  -5  558.90   18.01
   3  10  -4   28.15    3.00
  -3 -10   4   26.93    3.51
   3  10  -4   29.56    3.90
   3  10  -3  191.57    7.81
   3  10  -3  199.85    8.58
  -3 -10   3  208.27    9.97
   3  10  -3  212.59   10.89
   3  10  -3  214.55    7.29
   3  10  -2  132.74    6.33
   3  10  -2  133.99    7.15
  -3 -10   2  138.86    7.82
   3  10  -2  132.30    5.48
   3  10  -1   96.54    5.27
   3  10  -1   85.26    5.80
  -3 -10   1   95.57    6.31
   3  10  -1   97.19    4.53
  -3 -10   1   93.41    2.94
   3  10   0  183.56    7.37
   3  10   0  184.20    8.96
   3  10   0  181.71    6.27
  -3 -10   0  174.01    5.00
   3  10   1   15.66    2.08
   3  10   1   14.85    2.67
   3  10   1   20.97    1.99
   3  10   2  164.51    9.04
   3  10   3   95.26    7.11
   3  10   4   32.86    4.24
   3  10   5   36.41    4.68
   3  10   6    7.87    2.22
   3  10   7   12.68    3.02
   3  10   8   40.79    5.28
   3  10   9   15.54    3.45
   3  10  10  122.30    9.74
  -3 -11  22  140.15   11.50
  -3 -11  21    2.66    2.25
  -3 -11  20   78.38    8.21
  -3 -11  19   -1.70    1.80
  -3 -11  18   11.47    3.15
  -3 -11  17   -1.58    1.93
  -3 -11  16    1.05    1.80
  -3 -11  15    9.87    2.68
  -3 -11  14    3.74    1.65
  -3 -11  13    0.94    2.07
  -3 -11  12    7.59    1.98
  -3 -11  11   -8.14    2.43
  -3 -11  11    0.87    0.67
  -3 -11  10   10.78    2.64
   3  11 -10   13.54    2.86
  -3 -11  10   10.63    1.73
  -3 -11   9   39.31    4.84
   3  11  -9   31.08    4.07
  -3 -11   9   29.53    2.98
  -3 -11   8   22.42    3.65
   3  11  -8   19.67    3.30
  -3 -11   8   27.42    3.01
  -3 -11   7  258.76   12.21
   3  11  -7  272.79   12.44
  -3 -11   7  242.83    9.82
   3  11  -7  243.61    9.18
   3  11  -6  233.01   11.49
  -3 -11   6  235.38   11.55
   3  11  -6  229.96    9.04
   3  11  -5  123.39    8.30
  -3 -11   5  113.28    7.72
   3  11  -5  115.46    6.42
  -3 -11   4  229.59   10.98
   3  11  -4  232.02   11.76
   3  11  -4  204.91    8.93
  -3 -11   3   44.39    4.97
   3  11  -3   36.91    4.89
   3  11  -3   26.39    3.40
  -3 -11   2  159.80    8.61
   3  11  -2  149.84    7.96
   3  11  -1   55.48    4.27
   3  11  -1   53.95    4.82
   3  11   0   47.86    4.65
   3  11   1  199.57   10.11
   3  11   2   62.16    5.80
   3  11   3  137.77    8.86
   3  11   4   56.93    5.83
   3  11   5   42.65    5.20
   3  11   6   61.65    6.35
   3  11   7    6.48    2.17
   3  11   8   49.82    6.06
  -3 -12  21  172.61   12.63
  -3 -12  20    5.13    2.38
  -3 -12  19  183.43   12.50
  -3 -12  18    2.00    2.15
  -3 -12  17   71.53    7.56
  -3 -12  16    9.01    2.75
  -3 -12  15   22.92    4.28
  -3 -12  14    7.52    2.05
  -3 -12  13    0.55    1.63
  -3 -12  12   38.63    5.08
  -3 -12  11    6.41    2.24
   3  12 -11    2.34    1.24
  -3 -12  10   25.11    4.08
   3  12 -10   30.37    4.35
  -3 -12   9   41.15    5.18
   3  12  -9   38.99    4.84
  -3 -12   9   44.29    3.99
  -3 -12   8    0.02    1.07
   3  12  -8   -1.26    1.96
   3  12  -7  144.78    9.41
  -3 -12   7  139.33    9.19
   3  12  -7  142.89    7.27
   3  12  -6  383.25   15.71
  -3 -12   6  371.50   15.18
   3  12  -6  371.84   12.57
   3  12  -5  114.00    8.42
  -3 -12   5  111.03    7.89
   3  12  -5  107.42    6.49
  -3 -12   4  310.49   13.17
   3  12  -4  339.59   14.97
   3  12  -4  318.43   11.88
  -3 -12   3   99.85    7.02
   3  12  -3  106.75    8.32
   3  12  -3  105.85    6.76
  -3 -12   2   40.02    4.28
   3  12  -2   46.24    4.57
   3  12  -1   75.76    6.00
   3  12   0   22.35    3.39
   3  12   1   51.84    5.29
   3  12   2   77.98    6.67
   3  12   3   40.93    4.95
   3  12   4  108.73    8.35
   3  12   5   26.86    4.20
   3  12   6   67.18    6.95
   3  12   7   37.23    5.32
  -3 -13  20  137.32   11.37
  -3 -13  19    3.22    2.06
  -3 -13  18  146.51   11.23
  -3 -13  17    2.72    2.20
  -3 -13  16  145.89   10.95
  -3 -13  15    6.94    2.65
  -3 -13  14  134.44   10.31
  -3 -13  13   27.92    4.61
  -3 -13  12    0.90    1.64
   3  13 -11   18.11    3.58
  -3 -13  11   14.94    3.16
  -3 -13  10   14.60    3.24
   3  13 -10   14.84    3.19
  -3 -13   9   16.39    3.43
   3  13  -9   16.99    3.44
  -3 -13   8   56.79    6.10
   3  13  -8   58.67    6.20
   3  13  -7    2.83    1.45
  -3 -13   7    6.23    1.70
   3  13  -7    7.38    1.83
   3  13  -6    2.73    1.99
  -3 -13   6    0.46    1.15
   3  13  -6    2.53    1.27
  -3 -13   5   65.39    6.16
   3  13  -5   62.78    6.51
   3  13  -5   63.44    5.22
   3  13  -4  113.73    8.92
  -3 -13   4  101.42    7.74
   3  13  -4   94.05    6.59
  -3 -13   3  140.87    8.62
   3  13  -3  152.00   10.31
   3  13  -3  145.99    8.38
  -3 -13   2   43.45    4.58
   3  13  -2   46.72    5.69
   3  13  -2   36.27    4.30
   3  13  -1  105.17    7.43
   3  13   0    5.74    1.59
   3  13   1    9.12    2.63
   3  13   2   15.04    3.15
   3  13   3   18.74    3.58
   3  13   4   16.08    3.38
   3  13   5   39.90    5.41
   3  13   6   16.29    3.77
  -3 -14  20   -1.24    2.38
  -3 -14  19   69.68    8.09
  -3 -14  18    6.56    2.82
  -3 -14  17  186.61   13.27
  -3 -14  16   -0.71    1.40
  -3 -14  15  262.88   15.13
  -3 -14  14    2.97    1.88
  -3 -14  13  106.82    9.42
  -3 -14  12    2.13    2.05
  -3 -14  11   37.38    5.59
   3  14 -11   24.04    4.17
  -3 -14  10   96.91    8.55
   3  14 -10   81.15    7.62
  -3 -14   9   86.65    7.93
   3  14  -9   76.55    7.43
   3  14  -8   90.34    7.96
  -3 -14   8   76.76    7.47
   3  14  -7   34.27    3.92
   3  14  -7   29.01    4.43
  -3 -14   7   26.97    4.19
   3  14  -6   22.67    4.19
  -3 -14   6   16.10    3.50
   3  14  -6   22.76    3.33
  -3 -14   5    2.28    2.31
   3  14  -5    3.85    1.73
   3  14  -5    5.30    1.82
   3  14  -4   11.55    3.11
  -3 -14   4   10.19    2.52
   3  14  -4    8.49    2.20
   3  14  -3  126.79    9.79
  -3 -14   3  109.35    7.61
   3  14  -3   97.84    7.33
   3  14  -2  154.24   10.97
   3  14  -2  124.62    8.36
   3  14  -1   64.61    6.02
   3  14   0   63.98    6.22
   3  14   1    9.89    2.57
   3  14   2   35.72    4.90
   3  14   3    1.68    1.35
   3  14   4    5.37    2.42
  -3 -15  19    3.10    1.99
  -3 -15  18   36.86    6.03
  -3 -15  17   11.48    3.57
  -3 -15  16  124.14   10.77
  -3 -15  15   29.69    5.29
  -3 -15  14  152.32   11.68
  -3 -15  13    4.32    2.58
  -3 -15  12  155.36   11.61
   3  15 -12  145.03   10.82
  -3 -15  11   16.27    3.77
   3  15 -11   12.11    3.03
  -3 -15  10  154.30   11.29
   3  15 -10  146.05   10.75
   3  15  -9  126.11    9.92
  -3 -15   9  126.96    9.95
  -3 -15   8   -0.24    1.38
   3  15  -8    0.45    1.84
   3  15  -7  101.49    7.10
  -3 -15   7  105.38    8.60
   3  15  -7  116.59    9.78
  -3 -15   6   11.07    2.76
   3  15  -6   10.16    2.87
   3  15  -6   10.36    2.34
  -3 -15   5   63.02    6.25
   3  15  -5   65.82    7.11
   3  15  -5   61.82    5.70
   3  15  -4    1.52    1.76
   3  15  -4    1.68    1.36
   3  15  -3   -2.04    1.85
   3  15  -3    1.36    1.10
   3  15  -2   80.65    8.27
   3  15  -2   90.34    7.42
   3  15  -1   50.42    6.76
   3  15  -1   45.66    5.33
   3  15   0  118.86    8.79
   3  15   1   48.44    5.79
   3  15   2   29.57    4.56
   3  15   3   21.78    4.13
  -3 -16  18    9.25    3.26
  -3 -16  17    4.21    2.51
  -3 -16  16   12.37    3.61
  -3 -16  15   43.84    6.52
  -3 -16  14   19.35    4.46
  -3 -16  13   90.71    9.47
  -3 -16  12   18.60    4.29
   3  16 -12   13.48    3.64
  -3 -16  11  100.37    9.53
   3  16 -11   90.85    8.85
  -3 -16  10    6.23    2.77
   3  16 -10    8.46    2.67
   3  16  -9  100.07    9.25
  -3 -16   9  109.67    9.52
  -3 -16   8   18.12    3.94
   3  16  -8   15.86    3.68
  -3 -16   7   62.02    6.75
   3  16  -7   62.62    7.23
   3  16  -6   56.91    5.66
   3  16  -6   63.69    7.32
   3  16  -5    1.13    1.38
   3  16  -5    1.13    1.29
   3  16  -4   74.00    7.95
   3  16  -4   64.42    6.22
   3  16  -3   11.00    3.14
   3  16  -3   13.12    2.85
   3  16  -2   29.00    5.07
   3  16  -2   25.16    4.04
   3  16  -1   49.69    6.68
   3  16  -1   56.74    6.20
   3  16   0   12.98    3.17
   3  16   1   62.30    6.83
  -3 -17  17   22.58    4.86
  -3 -17  16   -0.91    2.45
  -3 -17  15   18.84    4.56
  -3 -17  14   17.04    4.37
  -3 -17  13   24.83    5.10
  -3 -17  12   52.57    7.26
   3  17 -12   44.19    6.32
   3  17 -11   23.20    4.76
  -3 -17  11   18.99    4.52
   3  17 -10   94.41    9.33
  -3 -17  10  120.15   10.49
  -3 -17   9    8.46    3.14
   3  17  -9    7.52    2.98
   3  17  -8   61.23    7.32
   3  17  -7   -0.21    1.45
   3  17  -6   39.51    5.90
   3  17  -6   31.38    4.40
   3  17  -5   55.76    7.12
   3  17  -5   49.12    5.58
   3  17  -4   17.62    4.08
   3  17  -4   12.81    3.05
   3  17  -3   84.96    7.64
   3  17  -2   22.52    4.10
   3  17  -1   56.06    6.34
   3  17   0   16.87    3.86
  -3 -18  16    2.73    2.22
  -3 -18  15    4.96    2.80
  -3 -18  14   11.66    3.71
  -3 -18  13   -2.00    2.43
  -3 -18  12   44.28    6.72
  -3 -18  11   21.09    4.97
   3  18  -6   -0.54    1.01
   3  18  -5    7.98    2.46
   3  18  -4   13.03    2.98
   3  18  -3   16.48    3.52
   3  18  -2   59.76    6.82
  -3 -19  15   18.30    4.84
  -3 -19  14   -4.13    3.14
  -3 -19  13    3.78    2.87
   3  19  -4   11.68    3.07
  -4  22  -3   40.36    5.75
  -4  22  -4   22.92    4.73
  -4  22  -5   82.66    8.48
  -4  22  -6   13.06    3.41
  -4  22  -7   68.33    7.83
  -4  21   1   23.11    4.34
  -4  21   0   59.34    6.92
  -4  21  -1   48.10    6.29
  -4  21  -2    1.54    1.30
  -4  21  -3   28.60    4.76
   4 -21   4   11.88    2.66
  -4  21  -4   13.24    3.27
   4 -21   5    0.49    1.03
  -4  21  -5    3.00    1.60
  -4  21  -6   63.17    7.05
   4 -21   6   54.68    5.25
  -4  21  -7   19.94    4.29
   4 -21   7   20.85    3.15
   4 -21   8   47.12    4.83
   4 -21   9   30.97    3.89
   4 -21  10   66.52    5.75
   4 -21  11   75.74    6.19
   4 -21  12    2.44    1.24
   4 -21  13   95.85    7.05
   4 -21  14    1.87    1.41
   4 -21  15   94.29    7.18
   4 -21  16    2.33    1.64
  -4  20   3   16.73    3.95
  -4  20   2   -1.96    1.75
  -4  20   1   68.03    7.15
  -4  20   0   15.81    3.63
  -4  20  -1   85.40    7.97
  -4  20  -2   32.49    5.02
  -4  20  -3   32.58    4.87
  -4  20  -4    9.87    2.94
   4 -20   5    0.89    1.16
  -4  20  -5    1.36    1.36
  -4  20  -6    1.22    1.69
   4 -20   6    4.75    1.62
  -4  20  -7   15.12    3.52
   4 -20   7   13.10    2.65
   4 -20   8    1.77    1.66
   4 -20   9   38.19    4.30
   4 -20  10   15.15    2.78
   4 -20  11   44.21    4.66
   4 -20  12   28.72    3.76
   4 -20  13   40.05    4.55
   4 -20  14  137.52    8.53
   4 -20  15    1.66    1.45
   4 -20  16  151.35    9.26
   4 -20  17    2.92    1.98
   4 -19  -4   43.57    5.29
  -4  19   4   32.28    5.20
   4 -19  -3   17.84    3.43
  -4  19   3   14.97    3.65
   4 -19  -2   -0.08    0.90
  -4  19   2    0.93    1.24
  -4  19   1    3.83    2.17
  -4  19   0   29.09    4.52
  -4  19  -1   45.32    5.52
  -4  19  -2   76.67    7.11
  -4  19  -3   73.28    6.98
  -4  19  -4   99.09    8.13
   4 -19   5    5.03    1.74
  -4  19  -5    4.91    1.79
  -4  19  -6   34.33    4.80
   4 -19   6   38.96    4.29
   4 -19   7    2.37    1.36
   4 -19   8   -0.42    0.97
   4 -19   9    0.48    1.07
   4 -19  10   13.17    2.52
   4 -19  11    1.40    1.06
   4 -19  12   16.82    2.83
   4 -19  13   17.15    2.99
   4 -19  14   21.35    3.46
   4 -19  15  106.64    7.51
   4 -19  16    8.02    2.32
   4 -19  17  162.58    9.75
   4 -18  -6   46.65    5.48
   4 -18  -5   45.40    5.25
   4 -18  -4   28.36    4.31
   4 -18  -3  109.53    8.26
  -4  18   3  122.32    9.42
   4 -18  -2   39.16    4.91
  -4  18   2   39.75    5.19
   4 -18  -1   39.05    4.88
  -4  18   1   36.22    4.89
   4 -18   0   49.69    5.44
  -4  18   0   49.53    5.71
  -4  18  -1    0.06    1.31
  -4  18  -2   48.61    5.45
  -4  18  -3   36.32    4.66
  -4  18  -4   36.87    4.77
  -4  18  -5   81.39    7.14
   4 -18   5   83.17    6.29
  -4  18  -6   29.29    4.39
   4 -18   6   30.91    3.88
   4 -18   7   59.83    5.13
   4 -18   8    8.18    2.02
   4 -18   9   16.59    2.70
   4 -18  10    3.62    1.54
   4 -18  11    0.18    1.03
   4 -18  12    3.65    1.59
   4 -18  13    1.19    1.05
   4 -18  14   -0.24    0.92
   4 -18  15   14.57    2.90
   4 -18  16   12.72    2.79
   4 -18  17    4.28    1.97
   4 -18  18  106.25    8.15
   4 -17  -7   40.50    5.05
   4 -17  -6    4.89    2.24
  -4  17   6    6.41    2.40
   4 -17  -5   52.04    5.62
   4 -17  -4   35.52    4.77
   4 -17  -3   18.54    3.35
   4 -17  -2  158.92    9.74
  -4  17   2  166.98   10.38
   4 -17  -1   24.92    3.77
  -4  17   1   22.72    3.69
   4 -17   0  137.44    8.96
  -4  17   0  152.96    9.49
   4 -17   1   99.04    7.47
  -4  17  -1   97.20    7.36
   4 -17   2  116.15    8.32
  -4  17  -2  107.32    7.89
  -4  17  -3   88.39    7.07
  -4  17  -4    2.25    1.28
  -4  17  -5  136.54    9.05
   4 -17   5  132.13    7.96
  -4  17  -6   72.28    6.46
   4 -17   6   73.76    5.71
   4 -17   7  132.49    7.56
   4 -17   8   74.49    5.61
   4 -17   9   19.21    2.85
   4 -17  10   68.17    5.42
   4 -17  11    0.74    1.06
   4 -17  12   22.90    3.20
   4 -17  13    7.90    2.02
   4 -17  14   -1.10    0.93
   4 -17  15   -0.62    0.94
   4 -17  16    2.50    1.52
   4 -17  17    4.21    1.98
   4 -17  18    2.27    1.26
   4 -16  -8   24.77    4.02
  -4  16   8   20.41    4.10
   4 -16  -7   24.89    3.94
  -4  16   7   23.33    4.43
  -4  16   6   53.60    6.58
   4 -16  -6   49.82    5.53
   4 -16  -5    5.73    2.13
   4 -16  -4   42.31    5.05
   4 -16  -3   30.08    4.27
   4 -16  -2    2.15    1.13
  -4  16   2    1.12    1.01
   4 -16  -1  111.76    7.89
  -4  16   1   93.89    7.20
   4 -16   0    1.47    1.28
  -4  16   0   -0.89    1.47
   4 -16   1   71.99    6.30
  -4  16  -1   68.17    5.94
   4 -16   2  100.76    7.37
  -4  16  -2  116.10    7.72
   4 -16   3   96.47    7.14
  -4  16  -3   93.41    6.90
  -4  16  -4  354.86   14.08
   4 -16   5   56.03    4.97
  -4  16  -5   51.98    5.21
  -4  16  -6  279.53   12.56
   4 -16   6  276.14   11.29
   4 -16   7   40.00    4.02
   4 -16   8  259.13   10.63
   4 -16   9   40.29    4.06
   4 -16  10  118.60    7.18
   4 -16  11   10.52    2.10
   4 -16  12    0.92    1.24
   4 -16  13   12.01    2.39
   4 -16  14    1.78    0.87
   4 -16  15    0.08    1.03
   4 -16  16   19.65    3.22
   4 -16  17    2.08    1.07
   4 -16  18    3.62    1.07
   4 -16  19   -0.49    1.12
  -4  15  10   31.41    5.20
   4 -15  -9    7.02    2.31
  -4  15   9    7.75    2.72
   4 -15  -8   62.94    6.23
  -4  15   8   42.55    5.87
   4 -15  -7   48.55    5.48
  -4  15   7   38.23    5.44
   4 -15  -6  109.79    8.15
  -4  15   6  109.75    9.05
   4 -15  -5   30.27    4.28
  -4  15   5   26.72    4.46
   4 -15  -4   12.56    2.73
   4 -15  -3   16.91    3.10
   4 -15  -2    2.98    1.51
   4 -15  -1   13.42    2.76
  -4  15   1   10.75    2.42
   4 -15   0   19.56    3.30
  -4  15   0   14.16    2.47
   4 -15   1   10.99    2.51
  -4  15  -1   13.74    2.63
   4 -15   2  170.63    9.36
  -4  15  -2  162.79    8.80
   4 -15   3   64.87    5.71
  -4  15  -3   54.98    5.09
   4 -15   4  210.67   10.39
  -4  15  -4  191.09    9.66
   4 -15   5   75.10    5.59
  -4  15  -5   72.24    5.86
   4 -15   6   11.59    2.21
   4 -15   7  359.59   12.57
   4 -15   8    6.74    1.81
   4 -15   9  250.95   10.35
   4 -15  10    9.22    1.97
   4 -15  11   88.89    6.15
   4 -15  12   24.18    3.32
   4 -15  13  139.19    7.95
   4 -15  14    1.76    1.54
   4 -15  15   10.68    2.49
   4 -15  16   -0.08    0.97
   4 -15  17    1.25    1.30
   4 -15  18   -0.62    1.29
   4 -15  19    8.41    2.30
  -4  14  11   12.33    3.26
   4 -14 -10   -0.39    0.95
  -4  14  10    1.91    1.63
   4 -14  -9   -0.34    0.98
  -4  14   9    3.06    1.40
   4 -14  -8   26.47    4.16
  -4  14   8   25.67    4.35
   4 -14  -7   42.68    5.13
  -4  14   7   39.96    5.32
   4 -14  -6   16.49    3.18
  -4  14   6   21.60    3.79
  -4  14   5   66.39    6.66
   4 -14  -5   55.07    5.69
   4 -14  -4   69.33    6.24
   4 -14  -3  139.80    8.80
   4 -14  -2   35.38    4.63
   4 -14  -1   92.93    6.92
  -4  14   1   84.73    6.27
   4 -14   0   13.25    2.61
  -4  14   0    6.19    1.60
   4 -14   1   12.31    2.55
  -4  14  -1   13.78    2.62
   4 -14   2    2.69    1.36
  -4  14  -2    3.46    1.31
   4 -14   3  175.94    9.18
  -4  14  -3  179.48    8.77
   4 -14   4    1.29    1.33
  -4  14  -4   -0.18    0.93
   4 -14   5    3.83    1.38
   4 -14   5    2.30    1.18
  -4  14  -5    3.70    1.33
   4 -14   6   82.23    5.65
   4 -14   7   67.36    5.03
   4 -14   8  105.86    6.32
   4 -14   9   72.35    5.25
   4 -14  10  439.23   14.19
   4 -14  11    2.58    1.48
   4 -14  12  477.24   15.26
   4 -14  13   16.24    2.85
   4 -14  14  223.96   10.41
   4 -14  15    1.10    0.92
   4 -14  16   44.37    4.80
   4 -14  17    2.99    1.58
   4 -14  18   -0.49    1.55
   4 -14  19    4.62    1.84
  -4  13  13   52.83    6.75
  -4  13  12   61.09    7.06
   4 -13 -11    5.16    2.14
  -4  13  11    2.86    1.43
   4 -13 -10   71.00    6.73
  -4  13  10   64.68    6.97
   4 -13  -9   15.54    3.18
  -4  13   9   24.61    4.23
   4 -13  -8   16.00    3.18
  -4  13   8   20.72    3.79
   4 -13  -7   33.35    4.58
  -4  13   7   32.99    4.67
   4 -13  -6   58.26    5.83
  -4  13   6   59.00    6.13
  -4  13   5   78.86    6.91
   4 -13  -5   73.98    6.51
   4 -13  -4  207.28   10.84
   4 -13  -3  146.34    9.09
   4 -13  -2  186.46    9.95
   4 -13  -1   47.29    4.90
  -4  13   1   45.82    4.32
   4 -13   0   74.05    5.94
  -4  13   0   73.73    5.42
   4 -13   1    3.74    1.80
  -4  13  -1    3.39    1.35
   4 -13   2    8.41    2.04
  -4  13  -2    9.49    1.91
   4 -13   3    8.51    2.11
  -4  13  -3    9.49    1.90
   4 -13   4   63.55    5.21
  -4  13  -4   58.77    4.72
   4 -13   5    6.59    1.73
   4 -13   5    5.86    1.77
   4 -13   6    0.29    0.91
   4 -13   7    1.41    0.93
   4 -13   8    6.90    1.74
   4 -13   9   38.30    3.76
   4 -13  10   14.90    2.51
   4 -13  11  228.39    9.77
   4 -13  12    6.48    1.84
   4 -13  13  369.72   13.42
   4 -13  14    3.44    1.73
   4 -13  15  265.48   11.68
   4 -13  16    1.51    1.37
   4 -13  17  143.96    9.06
   4 -13  18    7.66    2.28
   4 -13  19   18.03    3.61
  -4  12  14   92.44    8.76
   4 -12 -13   43.96    5.60
  -4  12  13   48.33    6.33
   4 -12 -12   51.18    6.06
  -4  12  12   54.00    6.39
   4 -12 -11  104.61    8.42
  -4  12  11   99.06    8.48
   4 -12 -10   35.56    4.79
  -4  12  10   33.04    4.82
   4 -12  -9  191.13   11.18
  -4  12   9  192.80   11.30
   4 -12  -8   42.56    5.18
  -4  12   8   53.10    5.83
   4 -12  -7   66.25    6.29
  -4  12   7   60.13    5.99
   4 -12  -6  147.34    9.30
  -4  12   6  155.92    9.64
   4 -12  -5    2.74    1.41
  -4  12   5    5.48    1.87
  -4  12   4  159.48    9.45
   4 -12  -4  154.10    9.33
   4 -12  -4  155.34    5.63
   4 -12  -3   50.05    5.35
   4 -12  -3   52.43    3.77
   4 -12  -2  189.62    9.81
   4 -12  -1  263.02   11.57
  -4  12   1  261.96   10.24
   4 -12   0  145.28    8.47
  -4  12   0  153.17    7.45
   4 -12   1   62.90    5.30
  -4  12  -1   64.18    4.57
   4 -12   2    7.46    1.82
  -4  12  -2    7.79    1.62
   4 -12   3   21.21    3.09
  -4  12  -3   15.15    2.19
   4 -12   4   32.04    3.61
  -4  12  -4   30.98    3.21
   4 -12   5    1.68    0.98
   4 -12   5    0.62    0.58
   4 -12   6   15.46    2.28
   4 -12   7    1.74    1.10
   4 -12   8   43.79    3.86
   4 -12   9    5.70    1.43
   4 -12  10    0.48    0.98
   4 -12  11    2.32    1.41
   4 -12  12   32.07    4.41
   4 -12  13    2.53    1.27
   4 -12  14  323.63   12.59
   4 -12  15    8.88    2.39
   4 -12  16  330.41   13.65
   4 -12  17    1.95    1.98
   4 -12  18  154.42    9.82
   4 -12  19    2.64    2.17
  -4  11  15   37.21    5.59
   4 -11 -14   11.53    2.99
  -4  11  14   16.72    3.60
   4 -11 -13   56.15    6.37
  -4  11  13   61.39    6.72
   4 -11 -12    7.21    2.38
  -4  11  12    6.35    2.27
   4 -11 -11   49.02    5.69
  -4  11  11   50.11    5.71
   4 -11 -10  131.76    9.40
  -4  11  10  144.45    9.54
   4 -11  -9  120.62    8.75
  -4  11   9   96.95    7.65
   4 -11  -8  139.39    9.32
  -4  11   8  146.62    9.26
   4 -11  -7   25.58    3.86
  -4  11   7   32.71    4.34
   4 -11  -6  206.64   11.00
   4 -11  -6  208.18    4.78
  -4  11   6  202.48   10.57
  -4  11   5   95.43    7.01
   4 -11  -5   89.18    6.99
   4 -11  -5   97.38    3.85
   4 -11  -4   47.89    5.23
  -4  11   4   51.63    5.10
   4 -11  -4   53.54    3.67
   4 -11  -3  309.64   12.95
   4 -11  -3  340.54   10.38
   4 -11  -2    0.33    0.71
   4 -11  -1  350.80   13.31
   4 -11   0   25.37    3.32
  -4  11   0   26.54    2.78
   4 -11   1  385.08   13.50
  -4  11  -1  377.09   11.50
   4 -11   2   63.66    5.13
  -4  11  -2   74.01    4.62
   4 -11   3  121.78    7.07
  -4  11  -3  120.23    6.06
   4 -11   4   74.10    5.34
   4 -11   5   16.30    2.29
   4 -11   5   16.09    2.51
   4 -11   5   16.88    2.31
   4 -11   6   14.84    2.46
   4 -11   6   14.42    2.26
   4 -11   6    9.41    1.82
   4 -11   7   56.09    4.25
   4 -11   8    1.78    0.82
   4 -11   9    3.18    1.00
   4 -11  10    4.87    1.43
   4 -11  11    2.66    1.61
   4 -11  12   -0.05    0.77
   4 -11  13    1.72    1.24
   4 -11  14    0.23    0.92
   4 -11  15   79.24    6.24
   4 -11  16    3.67    1.85
   4 -11  17  243.98   12.17
   4 -11  18    9.93    3.04
   4 -11  19  163.91   10.73
   4 -11  20   -0.01    1.38
  -4  10  17   44.43    6.11
  -4  10  16    0.72    1.54
   4 -10 -15   74.52    7.45
  -4  10  15   87.66    8.09
   4 -10 -14   14.70    3.41
  -4  10  14   17.64    3.69
   4 -10 -13   83.10    7.76
  -4  10  13   84.67    7.56
   4 -10 -12    8.53    2.77
  -4  10  12   15.89    3.18
   4 -10 -11   16.13    3.05
  -4  10  11   21.86    3.64
   4 -10 -10   64.41    6.55
  -4  10  10   71.48    6.36
   4 -10  -9   17.50    3.32
  -4  10   9   16.44    3.28
   4 -10  -8   56.50    5.83
  -4  10   8   48.99    5.16
   4 -10  -7  346.93   14.78
   4 -10  -7  352.43    7.14
  -4  10   7  352.51   13.86
   4 -10  -6   86.60    6.90
   4 -10  -6   80.41    3.30
  -4  10   6   85.72    6.38
  -4  10   5  173.62    9.19
   4 -10  -5  180.41    9.84
   4 -10  -5  172.82    5.97
   4 -10  -4   46.46    4.88
   4 -10  -4   50.35    3.47
   4 -10  -3  118.80    7.68
   4 -10  -3  131.52    6.26
   4 -10  -2  387.22   14.10
   4 -10  -1  104.87    6.81
   4 -10   0  534.38   16.25
  -4  10   0  501.22   13.09
   4 -10   1   16.05    2.57
  -4  10  -1   12.73    1.75
   4 -10   2  572.77   16.55
  -4  10  -2  595.67   14.30
   4 -10   3   25.35    3.09
  -4  10  -3   24.61    2.58
   4 -10   4  333.65   11.55
   4 -10   5    5.56    1.77
   4 -10   5    4.06    1.85
   4 -10   5    0.82    0.86
   4 -10   6   60.32    4.72
   4 -10   6   63.62    4.51
   4 -10   6   63.47    4.39
   4 -10   7   58.28    4.47
   4 -10   7   52.81    4.03
   4 -10   8    8.83    1.64
   4 -10   9    2.44    0.98
   4 -10  10   11.47    1.95
   4 -10  11   24.84    3.01
   4 -10  12    3.64    1.24
   4 -10  13    3.48    1.57
   4 -10  14   -1.16    1.33
   4 -10  15    1.90    1.16
   4 -10  16    5.38    2.02
   4 -10  17   36.86    4.78
   4 -10  18   75.05    7.01
   4 -10  19   43.83    5.68
   4 -10  20   91.40    8.41
  -4   9  18    2.14    1.86
  -4   9  17   -0.27    1.43
  -4   9  16   13.26    3.15
   4  -9 -16    8.44    2.77
  -4   9  15   -0.02    1.06
   4  -9 -15   -0.07    1.53
  -4   9  14   59.05    6.19
   4  -9 -14   42.88    5.84
  -4   9  13   11.47    2.57
   4  -9 -13   11.64    3.03
  -4   9  12  291.58   13.47
   4  -9 -12  296.50   14.78
  -4   9  11  146.58    9.10
   4  -9 -11  153.59   10.32
  -4   9  10  125.82    8.26
   4  -9 -10  136.14    9.44
  -4   9   9    1.23    1.19
   4  -9  -9    0.53    1.02
  -4   9   8   28.42    3.85
   4  -9  -8   24.20    3.90
  -4   9   7    4.32    2.18
   4  -9  -7    3.49    1.13
   4  -9  -6    8.79    2.38
   4  -9  -6   12.19    1.71
  -4   9   6    8.85    2.26
   4  -9  -5    0.86    0.80
   4  -9  -5   -0.11    0.50
  -4   9   5    0.26    0.66
   4  -9  -4  332.20   13.34
   4  -9  -4  335.22   10.28
   4  -9  -3   43.43    4.52
   4  -9  -3   39.42    3.41
   4  -9  -2  540.33   16.84
   4  -9  -1  119.33    7.19
   4  -9   0  116.46    6.88
  -4   9   0  110.25    4.97
   4  -9   1  880.94   21.55
  -4   9  -1  889.81   17.82
   4  -9   2  157.35    7.72
  -4   9  -2  154.89    6.07
   4  -9   3 1140.38   24.80
   4  -9   4    4.98    1.42
   4  -9   4    3.81    1.73
   4  -9   4    3.08    1.06
   4  -9   5 1107.10   23.59
   4  -9   5 1048.42   21.98
   4  -9   5 1088.49   22.66
   4  -9   6  207.33    8.39
   4  -9   6  203.42    8.05
   4  -9   6  195.26    7.80
   4  -9   7  317.01   10.74
   4  -9   7  289.04    9.94
   4  -9   8    2.53    1.26
   4  -9   8    2.26    1.17
   4  -9   9   85.76    5.31
   4  -9  10   16.40    2.44
   4  -9  11    0.05    0.85
   4  -9  12   46.14    4.22
   4  -9  13    0.22    1.07
   4  -9  14   18.99    3.01
   4  -9  15   21.67    3.20
   4  -9  16   28.59    4.27
   4  -9  17    5.15    2.58
   4  -9  18   43.69    5.38
   4  -9  19   41.11    5.48
  -4   8  19   40.68    5.94
  -4   8  18    3.46    2.44
   4  -8 -17   19.36    4.04
  -4   8  17   26.21    4.47
   4  -8 -16    1.59    1.28
  -4   8  16    3.72    1.71
   4  -8 -15    0.83    1.22
  -4   8  15   -0.85    1.15
   4  -8 -14   27.30    4.52
  -4   8  14   27.84    4.12
   4  -8 -13  131.86    9.88
  -4   8  13  155.69    9.49
   4  -8 -12  303.01   14.83
  -4   8  12  295.19   13.01
   4  -8 -11   95.73    8.05
  -4   8  11  102.69    7.29
   4  -8 -10   17.91    3.36
  -4   8  10   15.49    2.70
   4  -8  -9  261.51   13.05
  -4   8   9  268.08   11.39
   4  -8  -8   54.74    3.05
  -4   8   8   40.97    4.37
   4  -8  -7  215.64   11.17
   4  -8  -7  192.16    6.21
  -4   8   7  210.22    9.59
   4  -8  -6   13.84    2.68
   4  -8  -6   15.23    1.74
  -4   8   6   11.53    2.13
  -4   8   5   66.16    5.12
   4  -8  -5   66.98    5.76
   4  -8  -5   62.35    3.90
   4  -8  -4  193.36    9.75
   4  -8  -4  180.08    7.35
   4  -8  -3  266.49   11.34
   4  -8  -3  270.11    9.61
   4  -8  -2   84.13    6.01
   4  -8  -1  198.51    9.19
  -4   8   1  218.69   10.50
  -4   8   1  212.26    6.78
   4  -8  -1  208.42    8.56
   4  -8   0   90.94    5.94
   4  -8   0   96.14    5.76
  -4   8   0   99.89    6.88
  -4   8   0  101.22    4.23
  -4   8  -1   70.96    5.71
   4  -8   1   74.37    5.22
  -4   8  -1   75.67    3.66
  -4   8  -2  340.53   12.94
   4  -8   2  342.68   11.56
   4  -8   3   58.37    4.40
  -4   8  -3   59.50    5.18
   4  -8   3   58.13    3.39
   4  -8   4 1469.41   29.66
  -4   8  -4 1612.11   33.15
   4  -8   4 1512.90   27.36
   4  -8   4 1580.86   29.22
  -4   8  -5  113.29    7.02
   4  -8   5  117.15    6.01
   4  -8   5  107.40    5.34
   4  -8   5  109.15    5.55
   4  -8   6 1098.37   22.53
   4  -8   6 1061.24   22.12
   4  -8   6 1020.15   21.71
   4  -8   7    0.46    1.08
   4  -8   8  513.40   14.03
   4  -8   9   14.88    2.16
   4  -8  10  225.68    9.09
   4  -8  11    4.01    1.27
   4  -8  12   29.12    3.44
   4  -8  13   18.57    2.87
   4  -8  14    4.94    1.37
   4  -8  15   27.84    4.08
   4  -8  16   26.82    3.99
   4  -8  17    5.62    1.92
   4  -8  18    2.16    1.55
   4  -8  19    7.78    2.55
  -4   7  20   38.01    5.60
  -4   7  19   28.04    4.64
   4  -7 -18   65.21    7.52
  -4   7  18   74.33    7.25
   4  -7 -17   17.12    3.98
  -4   7  17   18.68    3.65
   4  -7 -16   45.02    6.15
  -4   7  16   54.76    5.80
   4  -7 -15   44.55    5.85
  -4   7  15   43.15    5.04
   4  -7 -14   20.07    3.84
  -4   7  14   23.32    3.64
   4  -7 -13  252.10   13.76
  -4   7  13  277.98   10.41
  -4   7  13  293.16   12.75
   4  -7 -12   54.44    6.13
  -4   7  12   52.96    4.22
  -4   7  12   50.92    5.07
   4  -7 -11   25.89    4.19
  -4   7  11   30.47    3.12
  -4   7  11   34.88    3.94
   4  -7 -10  116.65    8.69
  -4   7  10  114.62    7.13
   4  -7  -9  151.17    9.54
  -4   7   9  133.09    7.54
   4  -7  -8  145.14    9.13
   4  -7  -8  153.93    5.25
  -4   7   8  146.40    7.77
   4  -7  -7  111.38    7.80
   4  -7  -7   99.00    4.39
  -4   7   7  102.39    6.27
   4  -7  -6  162.55    9.26
   4  -7  -6  163.74    6.35
  -4   7   6  173.83    8.25
  -4   7   5   23.89    3.04
   4  -7  -5   21.25    3.46
   4  -7  -5   21.72    2.38
   4  -7  -4  288.94   11.98
   4  -7  -4  303.73    9.97
   4  -7  -4  292.45    9.93
   4  -7  -3   91.68    6.31
  -4   7   3  100.65    6.99
   4  -7  -3   98.76    5.60
   4  -7  -3  100.45    5.45
  -4   7   2    4.55    1.58
   4  -7  -2    5.27    1.45
   4  -7  -2    6.12    1.38
   4  -7  -1   71.13    5.26
  -4   7   1   76.87    5.87
  -4   7   1   74.26    3.31
   4  -7  -1   77.60    4.87
   4  -7   0   87.58    5.60
  -4   7   0   87.10    6.19
  -4   7   0   86.36    3.49
  -4   7  -1   13.31    2.44
   4  -7   1   11.54    1.99
   4  -7   2   33.15    3.29
  -4   7  -2   29.55    3.46
   4  -7   2   34.87    2.26
  -4   7  -3  259.79   10.73
   4  -7   3  264.15    9.43
   4  -7   3  277.76    7.64
   4  -7   4   61.72    4.23
  -4   7  -4   61.90    5.01
   4  -7   4   65.57    3.68
   4  -7   4   63.66    4.02
  -4   7  -5  349.22   12.26
   4  -7   5  359.20   10.60
   4  -7   5  324.12   10.04
  -4   7  -6   10.63    2.30
   4  -7   6   11.63    1.96
   4  -7   6   10.75    1.84
  -4   7  -7 1438.31   30.00
   4  -7   7 1408.12   27.35
  -4   7  -8    3.95    1.50
   4  -7   8    5.27    1.48
   4  -7   9  675.82   16.94
   4  -7  10   24.42    2.90
   4  -7  11  244.23    9.84
   4  -7  12  134.95    7.44
   4  -7  13   20.13    2.96
   4  -7  14   21.79    3.37
   4  -7  15   15.33    2.83
   4  -7  16    0.64    1.11
   4  -7  17    1.11    1.35
   4  -7  18    6.39    2.61
   4  -7  19    2.50    2.04
  -4   6  20   32.10    4.93
  -4   6  19   12.07    3.04
   4  -6 -18   41.87    5.94
  -4   6  18   43.78    5.41
   4  -6 -17   57.61    6.93
  -4   6  17   63.90    6.30
   4  -6 -16   10.70    3.17
  -4   6  16   10.17    2.42
   4  -6 -15  111.10    9.22
  -4   6  15  125.03    8.29
   4  -6 -14   95.39    8.41
  -4   6  14  103.83    6.72
  -4   6  14  105.71    7.34
   4  -6 -13  224.29   13.01
  -4   6  13  261.63   10.54
  -4   6  13  252.13   11.22
   4  -6 -12   87.65    7.65
  -4   6  12   88.06    5.82
  -4   6  12   88.82    6.29
   4  -6 -11    5.32    2.39
  -4   6  11    5.71    1.69
  -4   6  11    6.11    1.70
   4  -6 -10  321.46   14.50
  -4   6  10  327.95   11.21
  -4   6  10  329.42   11.94
   4  -6  -9   11.61    3.01
  -4   6   9    9.55    2.45
   4  -6  -9    3.92    2.17
  -4   6   9    8.81    2.60
   4  -6  -8  443.34   16.62
  -4   6   8  445.44   12.94
   4  -6  -8  454.04   10.81
  -4   6   8  474.64   14.10
   4  -6  -7  104.05    7.41
   4  -6  -7   96.41    4.65
   4  -6  -7  109.76    5.84
  -4   6   7  109.65    6.21
  -4   6   6  339.73   11.39
   4  -6  -6  333.05   13.40
   4  -6  -6  322.37    9.74
   4  -6  -6  349.15   10.72
   4  -6  -5   87.61    6.39
  -4   6   5   87.42    6.41
   4  -6  -5   83.37    4.81
   4  -6  -5   88.88    4.92
   4  -6  -4   61.84    5.18
  -4   6   4   55.01    5.13
   4  -6  -4   53.68    4.01
   4  -6  -4   56.35    3.83
  -4   6   3  238.59   10.58
   4  -6  -3  224.74   10.01
   4  -6  -3  223.71    8.80
   4  -6  -3  225.98    8.19
  -4   6   2   -1.49    0.92
   4  -6  -2    1.33    0.94
   4  -6  -2    1.01    0.46
   4  -6  -1  444.39   13.77
  -4   6   1  451.78   14.72
  -4   6   1  435.97    8.59
  -4   6   0  607.80   17.39
   4  -6   0  622.99   16.42
  -4   6  -1    3.52    1.64
   4  -6   1    5.89    1.93
  -4   6  -2  686.64   18.43
   4  -6   2  700.13   16.84
   4  -6   2  648.30   12.57
  -4   6  -3   43.92    3.97
   4  -6   3   42.93    3.40
   4  -6   3   40.78    2.61
   4  -6   3   41.44    3.20
  -4   6  -4   10.40    2.17
  -4   6  -4    7.69    1.69
   4  -6   4   11.49    1.77
   4  -6   4    8.64    1.51
  -4   6  -5    2.22    1.61
  -4   6  -5    1.53    0.87
   4  -6   5    1.09    0.76
   4  -6   5    2.28    0.96
  -4   6  -6  352.21   11.87
   4  -6   6  355.70   10.19
   4  -6   6  362.76   10.83
  -4   6  -7   63.50    4.70
   4  -6   7   70.12    4.42
  -4   6  -8  326.38   11.43
   4  -6   8  349.12   10.89
  -4   6  -9   13.49    2.21
   4  -6   9   13.24    2.05
  -4   6 -10  690.04   18.29
   4  -6  10  706.16   17.91
  -4   6 -11    0.91    0.96
   4  -6  11    1.28    1.10
   4  -6  12  273.91   10.99
   4  -6  13   21.54    3.70
   4  -6  14  222.86   10.69
   4  -6  15  151.41    9.11
   4  -6  16  110.29    8.11
   4  -6  17   46.14    5.73
   4  -6  18   14.19    3.33
   4  -6  19   23.70    4.48
  -4   5  20   29.45    4.60
   4  -5 -19   17.00    4.17
  -4   5  19   20.81    3.72
   4  -5 -18   -0.39    1.31
  -4   5  18   -0.48    0.89
   4  -5 -17   22.08    4.36
  -4   5  17   16.47    3.07
   4  -5 -16   39.00    5.75
  -4   5  16   44.46    4.67
  -4   5  16   48.25    5.06
   4  -5 -15   42.16    5.73
  -4   5  15   48.19    4.73
  -4   5  15   48.14    4.88
   4  -5 -14  258.02   13.98
  -4   5  14  249.98   10.91
  -4   5  14  262.03   11.31
   4  -5 -13   58.12    6.31
  -4   5  13   51.67    4.68
  -4   5  13   58.11    4.94
   4  -5 -12  120.52    8.97
  -4   5  12  128.59    7.26
  -4   5  12  127.74    7.22
   4  -5 -11  126.53    8.88
  -4   5  11  129.48    7.11
  -4   5  11  134.64    7.11
   4  -5 -10  113.66    8.29
  -4   5  10  110.94    6.49
  -4   5  10  107.08    6.35
   4  -5  -9  439.51   16.61
  -4   5   9  450.91   13.52
   4  -5  -9  430.59   10.55
   4  -5  -9  460.20   13.18
  -4   5   9  448.29   13.42
   4  -5  -8   75.80    6.34
  -4   5   8   83.43    5.23
   4  -5  -8   76.03    4.00
   4  -5  -8   80.33    4.86
  -4   5   8   78.60    5.01
  -4   5   8   82.98    3.26
   4  -5  -7 1222.62   29.81
  -4   5   7 1257.40   25.91
   4  -5  -7 1258.56   23.74
   4  -5  -7 1295.68   24.87
  -4   5   7 1288.36   25.92
   4  -5  -6    2.52    1.51
   4  -5  -6    2.53    1.09
   4  -5  -6    1.06    0.70
  -4   5   6    1.06    0.63
  -4   5   5  942.26   23.89
   4  -5  -5  900.29   23.49
   4  -5  -5  962.24   20.61
   4  -5  -5  980.54   19.58
   4  -5  -4    6.32    1.67
  -4   5   4    7.81    1.82
   4  -5  -4    6.09    1.43
   4  -5  -4    6.63    1.23
  -4   5   3  314.59   12.28
   4  -5  -3  341.92   12.22
   4  -5  -3  345.73   11.26
   4  -5  -3  347.35    9.96
   4  -5  -2   10.94    1.89
  -4   5   2   11.07    2.13
   4  -5  -2   10.75    1.85
  -4   5   1  267.98   10.52
   4  -5  -1  274.98   10.16
  -4   5   1  269.78    5.08
  -4   5   1  258.49    9.44
  -4   5   0  193.88    8.68
   4  -5   0  193.64    8.09
  -4   5   0  185.23    8.06
   4  -5   1   78.09    4.81
  -4   5  -1   72.10    5.30
   4  -5   1   87.87    2.76
  -4   5  -1   76.27    5.27
  -4   5  -2   56.59    4.67
   4  -5   2   54.76    3.92
  -4   5  -2   62.09    4.64
  -4   5  -3  623.21   17.64
  -4   5  -3  603.15   16.23
   4  -5   3  613.73   14.71
   4  -5   3  624.12   14.25
  -4   5  -4    0.74    1.08
   4  -5   4    0.73    0.56
  -4   5  -4    1.48    0.93
   4  -5   4    1.17    0.73
  -4   5  -5  140.63    8.22
  -4   5  -5  147.31    6.98
   4  -5   5  145.83    5.89
   4  -5   5  142.11    6.06
  -4   5  -6    5.23    1.72
  -4   5  -6    5.38    1.41
   4  -5   6    6.30    1.27
   4  -5   6    6.44    1.31
  -4   5  -7    2.21    0.86
   4  -5   7    1.58    0.89
  -4   5  -8   73.78    4.84
   4  -5   8   76.97    4.74
  -4   5  -9  180.57    7.87
   4  -5   9  185.53    7.88
  -4   5 -10  177.48    7.87
   4  -5  10  183.98    8.11
  -4   5 -11  301.15   10.90
   4  -5  11  329.92   11.71
  -4   5 -12   58.03    4.74
   4  -5  12   62.10    5.14
  -4   5 -13  201.85    9.06
   4  -5  13  221.50   10.28
   4  -5  14   34.54    4.23
   4  -5  15   92.54    7.21
   4  -5  16   47.43    5.50
   4  -5  17  117.42    9.06
   4  -5  18   41.86    5.65
   4  -5  19   24.57    4.52
   4  -4 -20   11.39    3.44
  -4   4  20   10.65    2.82
   4  -4 -19   63.62    7.55
  -4   4  19   58.00    5.90
   4  -4 -18    1.19    1.52
  -4   4  18    1.97    1.28
   4  -4 -17   38.45    5.76
  -4   4  17   35.65    4.42
  -4   4  17   36.10    4.32
   4  -4 -16    2.64    1.68
  -4   4  16    0.66    0.97
  -4   4  16    3.71    1.59
   4  -4 -15    5.04    2.25
  -4   4  15    2.71    1.43
  -4   4  15    4.52    1.58
   4  -4 -14   29.20    4.49
  -4   4  14   35.59    4.01
  -4   4  14   35.06    3.82
   4  -4 -13   77.05    7.30
  -4   4  13   66.42    5.59
  -4   4  13   59.91    4.87
   4  -4 -12   22.82    3.82
  -4   4  12   19.53    2.83
  -4   4  12   20.03    2.69
   4  -4 -11  219.46   11.75
  -4   4  11  215.48    8.76
  -4   4  11  222.88    9.61
   4  -4 -10   75.24    6.47
   4  -4 -10   77.50    4.88
  -4   4  10   88.73    5.23
  -4   4  10   71.87    5.23
   4  -4 -10   77.13    3.95
   4  -4  -9  359.95   14.66
  -4   4   9  358.53   12.20
   4  -4  -9  351.11    9.60
   4  -4  -9  376.84   11.02
  -4   4   9  388.10   11.53
   4  -4  -8  287.10   12.71
  -4   4   8  300.93   10.85
   4  -4  -8  302.26    9.01
   4  -4  -8  324.22    9.66
  -4   4   8  313.68   10.12
  -4   4   7   80.42    4.68
   4  -4  -7   67.61    5.77
  -4   4   7   74.24    5.02
   4  -4  -7   69.46    4.20
   4  -4  -7   79.25    4.26
  -4   4   7   73.40    3.17
   4  -4  -6  731.09   20.63
   4  -4  -6  757.21   17.36
  -4   4   6  774.01   18.43
  -4   4   6  743.90   14.88
   4  -4  -6  761.07   16.04
   4  -4  -5  104.06    6.72
  -4   4   5  100.19    5.65
   4  -4  -5  105.53    5.62
  -4   4   5  102.94    4.66
   4  -4  -5  103.33    4.69
  -4   4   4  823.11   20.67
   4  -4  -4  771.75   20.33
   4  -4  -4  804.09   18.81
   4  -4  -4  763.36   16.16
  -4   4   4  792.73   16.79
  -4   4   3    7.23    1.72
   4  -4  -3    8.41    1.85
   4  -4  -3   10.65    1.98
   4  -4  -3    8.72    1.41
  -4   4   3    9.19    1.54
  -4   4   2 1891.80   35.96
   4  -4  -2 1878.67   35.38
   4  -4  -2 1863.40   35.14
  -4   4   2 1865.69   33.59
  -4   4   1    5.85    1.49
   4  -4  -1    3.19    1.34
  -4   4   1    5.22    1.60
  -4   4   0 2158.33   38.27
   4  -4   0 2101.56   37.13
  -4   4  -1   -0.29    0.76
  -4   4  -1    0.53    0.48
   4  -4   1    1.03    0.95
  -4   4  -2   78.18    5.52
   4  -4   2   91.65    4.79
  -4   4  -2   81.39    5.09
   4  -4   2   91.06    4.44
  -4   4  -3   99.66    6.55
  -4   4  -3  112.51    5.85
   4  -4   3  103.69    5.01
   4  -4   3   98.67    4.69
  -4   4  -4   91.95    6.45
  -4   4  -4   95.34    5.32
   4  -4   4   85.19    4.33
   4  -4   4   90.17    4.54
  -4   4  -5   39.16    4.28
  -4   4  -5   36.54    3.29
   4  -4   5   36.32    2.71
   4  -4   5   39.72    3.06
  -4   4  -5   35.91    3.13
  -4   4  -6  277.36   12.21
  -4   4  -6  259.59    9.20
   4  -4   6  266.17    8.73
  -4   4  -6  254.67    9.18
  -4   4  -7   41.32    3.41
   4  -4   7   43.15    3.38
  -4   4  -8   43.54    3.55
   4  -4   8   50.97    3.80
  -4   4  -9  133.20    6.27
   4  -4   9  128.35    6.45
  -4   4 -10   29.95    2.97
   4  -4  10   33.02    3.54
  -4   4 -11  180.65    7.68
   4  -4  11  190.10    8.71
  -4   4 -12   63.35    4.63
   4  -4  12   70.72    5.60
   4  -4  13   26.84    3.69
   4  -4  14  180.65    9.94
   4  -4  15    7.60    3.31
   4  -4  16  152.76    9.97
   4  -4  17    3.24    1.88
   4  -4  18   67.97    7.20
   4  -4  19   17.14    3.92
   4  -3 -21   19.24    4.42
   4  -3 -20   38.10    5.98
  -4   3  20   34.03    4.53
   4  -3 -19   10.54    3.09
  -4   3  19   15.61    3.07
   4  -3 -18   92.13    8.84
  -4   3  18  107.01    8.03
  -4   3  18  110.70    7.54
   4  -3 -17    3.80    1.74
  -4   3  17    2.82    1.61
  -4   3  17    2.86    1.31
   4  -3 -16  117.23    9.47
  -4   3  16  127.98    8.34
  -4   3  16  124.92    7.46
   4  -3 -15    2.35    1.77
  -4   3  15    1.43    1.04
  -4   3  15    5.33    1.51
   4  -3 -14   79.45    7.50
  -4   3  14   83.97    6.37
  -4   3  14   77.21    5.37
   4  -3 -13   35.85    4.87
  -4   3  13   28.96    3.67
   4  -3 -12    5.67    2.53
  -4   3  12    5.03    2.41
  -4   3  12    2.87    1.75
   4  -3 -11    1.23    0.99
   4  -3 -11    2.81    0.94
  -4   3  11    1.77    0.76
  -4   3  11   -0.34    0.97
   4  -3 -10  223.36   11.45
   4  -3 -10  239.48    8.38
  -4   3  10  238.67    8.52
  -4   3  10  239.40    9.97
   4  -3 -10  232.25    7.53
   4  -3  -9    0.01    0.92
   4  -3  -9    1.65    0.72
  -4   3   9    1.00    0.84
  -4   3   9    0.29    0.65
   4  -3  -9    1.01    0.60
   4  -3  -8   89.62    6.73
   4  -3  -8   91.46    4.72
  -4   3   8   95.18    5.85
   4  -3  -8   91.19    4.43
  -4   3   8   92.54    4.83
   4  -3  -7  336.72   13.30
  -4   3   7  360.53   11.94
   4  -3  -7  349.53   10.47
   4  -3  -7  357.79    9.41
   4  -3  -6  166.60    8.75
   4  -3  -6  179.29    7.35
  -4   3   6  166.36    7.73
   4  -3  -6  190.72    6.14
   4  -3  -5  475.55   15.30
  -4   3   5  473.24   13.93
   4  -3  -5  501.84   13.65
   4  -3  -5  503.99   11.23
   4  -3  -4   18.73    2.68
  -4   3   4   18.90    2.51
   4  -3  -4   16.61    2.39
  -4   3   4   17.86    2.04
   4  -3  -4   16.85    1.73
   4  -3  -3 1690.92   33.55
  -4   3   3 1696.86   33.45
   4  -3  -3 1763.83   33.02
  -4   3   3 1726.20   31.14
  -4   3   2    1.10    0.98
   4  -3  -2    1.42    1.17
   4  -3  -2    0.05    0.65
  -4   3   2    0.09    0.59
   4  -3  -1 1294.84   25.43
  -4   3   1 1373.58   27.20
   4  -3  -1 1288.62   25.91
   4  -3   0   16.77    2.29
  -4   3   0   17.19    2.42
   4  -3   0   19.57    2.37
  -4   3   0   14.37    2.11
   4  -3   1 1512.34   29.98
  -4   3  -1 1471.70   30.41
   4  -3   1 1512.19   27.62
  -4   3  -1 1438.17   28.33
   4  -3   2    0.90    0.96
  -4   3  -2    1.79    1.14
   4  -3   2    0.45    0.63
  -4   3  -2    2.30    1.11
   4  -3   2    1.56    0.65
   4  -3   3  988.51   23.56
  -4   3  -3  962.40   23.77
   4  -3   3  923.35   18.76
  -4   3  -3  974.35   20.40
   4  -3   3  978.65   18.74
   4  -3   4  179.32    8.91
  -4   3  -4  170.69    9.00
  -4   3  -4  169.64    7.06
  -4   3  -4  167.46    6.67
   4  -3   4  162.58    5.89
   4  -3   4  181.63    6.49
   4  -3   5    4.23    1.57
  -4   3  -5    5.18    1.77
   4  -3   5    4.38    0.88
  -4   3  -5    3.65    1.05
  -4   3  -5    4.71    1.14
   4  -3   5    4.46    1.05
   4  -3   6  280.36   12.01
  -4   3  -6  263.57   12.11
  -4   3  -6  257.12    8.69
  -4   3  -6  246.18    8.85
   4  -3   6  268.22    8.65
   4  -3   7   39.13    4.43
  -4   3  -7   36.42    3.00
   4  -3   7   39.33    3.28
  -4   3  -8    0.20    0.50
   4  -3   8    0.91    0.94
  -4   3  -9   64.79    4.05
   4  -3   9   71.25    4.79
  -4   3 -10   90.99    5.57
   4  -3  10  128.44    6.99
  -4   3 -11    0.76    1.28
   4  -3  11   11.32    2.65
  -4   3 -12  149.30    6.61
   4  -3  12  146.80    8.08
   4  -3  13   38.15    4.34
   4  -3  14  146.46    9.12
   4  -3  15   42.87    5.09
   4  -3  16   27.61    4.26
   4  -3  17   42.19    5.60
   4  -3  18    7.16    2.58
   4  -3  19   27.61    5.19
   4  -2 -22    7.97    3.15
   4  -2 -21    6.77    2.84
   4  -2 -20   32.77    5.46
   4  -2 -19    2.01    1.85
  -4   2  19    2.79    1.69
  -4   2  19    3.21    1.38
   4  -2 -18   76.85    8.11
  -4   2  18   79.66    7.09
  -4   2  18   82.84    6.20
   4  -2 -17   76.03    7.69
  -4   2  17   83.59    7.04
  -4   2  17   92.81    6.32
   4  -2 -16   66.02    6.98
  -4   2  16   66.13    6.00
  -4   2  16   60.74    4.92
   4  -2 -15  154.38   10.52
  -4   2  15  158.33    9.21
  -4   2  15  148.02    7.46
   4  -2 -14  105.45    8.48
  -4   2  14  105.52    7.26
   4  -2 -13  242.12   12.76
  -4   2  13  272.60   11.55
  -4   2  13  254.34    9.29
   4  -2 -12    7.67    2.33
  -4   2  12    4.07    1.42
  -4   2  12    5.58    1.32
   4  -2 -11   30.89    4.33
  -4   2  11   39.18    4.07
  -4   2  11   36.58    3.09
   4  -2 -10   68.71    6.10
   4  -2 -10   77.63    4.27
  -4   2  10   73.80    5.43
  -4   2  10   83.61    4.47
   4  -2 -10   76.43    4.14
   4  -2  -9   16.74    2.93
   4  -2  -9   16.53    2.00
  -4   2   9   17.95    2.63
   4  -2  -9   20.23    1.96
  -4   2   9   18.23    2.03
   4  -2  -8   20.67    3.18
  -4   2   8   21.96    2.15
   4  -2  -8   20.49    2.26
  -4   2   8   18.95    2.58
   4  -2  -8   21.18    1.92
   4  -2  -7  185.31    9.42
  -4   2   7  191.50    8.54
   4  -2  -7  179.66    7.21
   4  -2  -7  199.93    5.96
   4  -2  -6   17.86    2.75
   4  -2  -6   19.25    2.38
  -4   2   6   21.12    2.72
   4  -2  -6   17.59    1.58
   4  -2  -5  283.50   11.14
  -4   2   5  276.81   10.27
   4  -2  -5  277.08    9.77
   4  -2  -5  283.56    7.96
   4  -2  -5  282.76    7.45
   4  -2  -4   18.23    2.58
  -4   2   4   21.59    1.45
  -4   2   4   19.69    2.68
   4  -2  -4   19.59    2.47
   4  -2  -4   20.48    2.10
   4  -2  -3   43.87    3.86
   4  -2  -3   41.98    3.69
  -4   2   3   41.93    1.61
   4  -2  -3   42.79    3.31
   4  -2  -2 1395.22   27.56
   4  -2  -2 1317.65   27.70
   4  -2  -2 1352.70   26.67
  -4   2   1    0.82    0.75
   4  -2  -1    2.52    1.17
   4  -2  -1    1.98    1.28
   4  -2  -1    1.67    1.10
   4  -2   0 2646.19   45.65
   4  -2   0 2592.65   42.94
  -4   2   0 2545.13   43.49
   4  -2   1    1.12    1.09
   4  -2   1    1.46    0.63
  -4   2  -1    0.28    0.49
   4  -2   1    0.79    0.71
   4  -2   2 1198.96   26.81
  -4   2  -2 1188.59   23.13
   4  -2   2 1136.75   21.83
   4  -2   2 1176.55   21.12
   4  -2   3    5.00    1.74
   4  -2   3    4.68    0.98
  -4   2  -3    4.47    1.16
   4  -2   3    5.12    1.15
   4  -2   4 1322.88   29.88
   4  -2   4 1320.15   22.30
  -4   2  -4 1291.23   24.36
   4  -2   4 1304.07   23.59
  -4   2  -4 1296.34   24.50
   4  -2   5  230.50   10.77
   4  -2   5  219.32    6.05
  -4   2  -5  227.87    7.55
  -4   2  -5  211.90    7.74
   4  -2   5  210.71    7.24
   4  -2   6  416.26   15.47
  -4   2  -6  424.51   10.92
   4  -2   6  417.41   11.29
  -4   2  -6  419.66   11.85
   4  -2   7  354.32   14.37
  -4   2  -7  360.67    9.76
   4  -2   7  341.61   10.40
   4  -2   8    5.69    1.96
  -4   2  -8    5.94    1.19
   4  -2   8    6.85    1.71
   4  -2   9   69.73    6.50
  -4   2  -9   73.10    4.13
   4  -2   9   83.51    5.25
   4  -2  10    1.78    1.17
  -4   2 -10    0.70    0.65
   4  -2  10    3.01    1.43
  -4   2 -11    8.12    1.37
   4  -2  11   10.57    2.35
   4  -2  12    0.05    1.13
   4  -2  13   39.41    4.53
   4  -2  14    3.27    1.67
   4  -2  15   63.27    6.27
   4  -2  16   26.51    4.34
   4  -2  17   84.09    8.09
   4  -2  18   21.64    4.42
   4  -1 -23    9.56    3.49
   4  -1 -22   57.56    7.69
   4  -1 -21   18.45    4.39
  -4   1  21   24.84    4.59
   4  -1 -20   55.38    7.09
  -4   1  20   63.16    6.82
   4  -1 -19  132.76   10.71
  -4   1  19  143.86    9.95
  -4   1  19  121.41    7.46
   4  -1 -18    4.20    2.00
  -4   1  18    1.95    1.67
  -4   1  18    0.82    0.90
  -4   1  17  122.22    8.58
  -4   1  17  104.86    6.39
  -4   1  16   28.93    4.85
  -4   1  16   22.16    3.00
  -4   1  15  209.60   10.80
  -4   1  15  183.34    7.97
  -4   1  14  115.52    7.60
  -4   1  14   89.56    5.12
  -4   1  13   76.65    6.07
  -4   1  13   77.79    4.53
  -4   1  12   84.77    6.18
  -4   1  12   76.14    4.35
  -4   1  11    1.91    1.41
  -4   1  11    0.28    0.56
   4  -1 -10  905.85   18.67
  -4   1  10  902.81   22.34
  -4   1  10  870.20   17.80
   4  -1 -10  894.43   17.32
  -4   1   9   88.55    4.16
   4  -1  -9   92.60    3.89
   4  -1  -9   86.22    4.75
  -4   1   9   88.11    5.90
   4  -1  -8   15.38    1.40
   4  -1  -8   15.97    1.36
  -4   1   8   14.03    2.29
   4  -1  -8   12.69    1.86
  -4   1   7  190.88    8.67
   4  -1  -7  192.22    7.63
   4  -1  -7  196.96    6.01
   4  -1  -7  208.24    5.51
   4  -1  -6  299.50   10.05
  -4   1   6  314.26   11.13
   4  -1  -6  286.60    6.94
   4  -1  -6  296.33    8.37
   4  -1  -5  358.56   12.32
  -4   1   5  358.04   12.06
  -4   1   5  352.83    8.41
   4  -1  -5  336.18   11.03
   4  -1  -5  348.36    9.90
   4  -1  -4    3.40    1.87
  -4   1   4    7.39    0.98
   4  -1  -4    7.62    1.73
  -4   1   4    8.84    2.03
   4  -1  -4    5.90    1.35
   4  -1  -3    1.80    0.78
   4  -1  -3    2.37    1.00
  -4   1   3    4.36    1.29
   4  -1  -3    2.86    0.90
   4  -1  -2    0.38    0.64
   4  -1  -2    0.53    0.31
   4  -1  -2    1.64    0.99
   4  -1  -2    1.00    0.88
   4  -1  -1   34.70    3.02
   4  -1  -1   35.07    3.39
   4  -1  -1   32.63    3.37
   4  -1   0   29.30    2.66
   4  -1   0   34.13    3.55
   4  -1   0   32.64    3.43
   4  -1   0   32.63    2.26
   4  -1   1 1083.97   24.91
  -4   1  -1 1062.53   20.68
   4  -1   1 1039.39   20.30
   4  -1   1 1010.28   18.71
   4  -1   2   92.25    6.37
   4  -1   2   90.05    4.16
  -4   1  -2   97.14    4.60
   4  -1   2   84.83    3.86
   4  -1   3 1304.75   29.58
   4  -1   3 1279.54   21.88
  -4   1  -3 1286.49   23.26
   4  -1   3 1266.54   22.50
  -4   1  -3 1257.06   23.48
   4  -1   4   37.90    4.30
   4  -1   4   39.54    2.20
  -4   1  -4   40.04    2.73
  -4   1  -4   37.76    2.90
   4  -1   4   36.67    2.69
   4  -1   5 2444.09   47.74
   4  -1   5 2346.16   39.34
  -4   1  -5 2344.81   40.03
   4  -1   6    2.20    1.62
  -4   1  -6    0.93    0.58
  -4   1  -6    1.57    0.93
   4  -1   6    0.66    0.62
   4  -1   7  343.03   14.42
  -4   1  -7  322.77    8.38
   4  -1   7  340.52   10.36
   4  -1   8  373.76   15.67
  -4   1  -8  382.65    9.34
   4  -1   8  379.21   11.63
   4  -1   9    9.41    2.57
  -4   1  -9   10.70    1.30
   4  -1   9   17.87    2.56
   4  -1  10  264.19   13.52
  -4   1 -10  290.97    7.81
   4  -1  10  297.54   11.09
   4  -1  11   11.17    2.95
  -4   1 -11    9.40    1.31
   4  -1  11    6.33    1.88
   4  -1  12   71.29    7.29
   4  -1  12   79.03    6.22
   4  -1  13    1.87    1.05
   4  -1  14   -1.20    1.57
   4  -1  15   16.81    3.38
   4  -1  16   31.80    4.81
   4  -1  17   11.06    3.27
   4  -1  18   47.56    6.48
   4  -1  18   50.52    6.61
   4   0 -24    0.29    2.18
   4   0 -23   29.12    5.68
   4   0 -22    9.18    3.17
  -4   0  22    9.72    2.89
   4   0 -21   46.65    6.64
  -4   0  21   74.04    7.62
  -4   0  20   68.81    7.22
  -4   0  19   34.64    3.74
  -4   0  19   41.56    5.34
  -4   0  18   87.89    5.71
  -4   0  18   80.69    7.28
  -4   0  17   97.57    5.79
  -4   0  17   94.87    7.75
  -4   0  16  337.41   10.97
  -4   0  16  391.03   15.41
  -4   0  15    7.93    1.67
  -4   0  15   13.64    2.92
  -4   0  14  377.32   10.70
  -4   0  14  400.80   15.00
  -4   0  13    6.98    1.31
  -4   0  13   11.27    2.55
  -4   0  12  441.38   10.76
  -4   0  12  424.22   15.03
  -4   0  11  106.51    4.48
  -4   0  11  110.04    7.01
  -4   0  10  178.45    5.77
  -4   0  10  195.04    9.23
   4   0 -10  176.44    6.92
   4   0 -10  180.95    8.00
   4   0  -9  100.56    5.21
  -4   0   9  103.55    6.48
   4   0  -9  104.25    3.64
   4   0  -8   44.43    3.48
  -4   0   8   50.91    4.50
   4   0  -8   45.00    2.09
   4   0  -7    0.52    0.67
  -4   0   7    2.71    1.14
   4   0  -7    2.78    0.53
   4   0  -6  907.40   20.31
  -4   0   6  914.71   21.85
  -4   0   6  929.23   17.96
   4   0  -6  925.60   15.17
  -4   0   5    5.33    0.97
   4   0  -5    8.82    1.77
  -4   0   5    9.47    2.24
  -4   0   4 1249.74   21.11
   4   0  -4 1183.61   25.48
  -4   0   3   48.84    4.22
   4   0  -3   50.60    2.58
   4   0  -3   48.42    4.03
   4   0  -2   -0.08    0.50
   4   0  -2    0.26    0.29
   4   0  -2    1.10    0.89
   4   0  -1  256.03    8.62
   4   0  -1  258.22   10.06
   4   0   0  129.86    5.58
   4   0   0  130.61    7.11
   4   0   0  124.78    4.32
   4   0   1  134.81    7.74
   4   0   1  126.41    5.18
   4   0   1  125.69    4.45
   4   0   2  683.79   19.57
   4   0   2  657.40   13.29
   4   0   2  630.82   13.00
  -4   0  -2  642.97   13.70
   4   0   3   91.25    6.71
   4   0   3   86.12    3.34
  -4   0  -3   87.29    4.25
   4   0   3   84.20    3.87
   4   0   4 1266.42   30.64
   4   0   4 1295.16   19.99
  -4   0  -4 1237.34   23.70
   4   0   4 1301.83   22.97
   4   0   5    8.00    2.22
  -4   0  -5    9.25    1.60
   4   0   5   12.70    1.68
   4   0   6  255.39   12.58
   4   0   6  278.96    9.02
  -4   0  -6  268.26    9.29
   4   0   7   49.07    5.86
  -4   0  -7   62.34    2.36
   4   0   7   68.77    4.45
   4   0   8  188.02   11.03
   4   0   8  196.15    8.06
   4   0   9  112.90    8.63
   4   0   9  118.45    6.52
   4   0  10   51.35    5.96
   4   0  10   52.78    4.60
   4   0  11  267.28   14.03
   4   0  11  289.18   11.87
   4   0  12   25.79    4.45
   4   0  12   28.73    3.90
   4   0  13  127.74    9.92
   4   0  13  131.17    8.73
   4   0  14   29.10    4.92
   4   0  14   25.38    4.00
   4   0  15   21.56    3.91
   4   0  16   39.28    5.64
   4   0  16   46.77    5.99
   4   0  17    0.17    1.25
   4   0  17    0.25    1.23
   4   0  18   17.97    4.22
   4   1 -24    4.55    2.83
  -4  -1  23    8.51    3.32
  -4  -1  22    3.99    1.95
  -4  -1  21    7.10    2.55
  -4  -1  20   13.10    3.15
  -4  -1  19   19.10    3.68
  -4  -1  18   78.84    7.22
  -4  -1  18   70.13    4.83
  -4  -1  17   79.21    7.02
  -4  -1  17   73.15    4.61
  -4  -1  16    6.18    2.17
  -4  -1  16    5.16    1.21
  -4  -1  15  182.93   10.11
  -4  -1  15  164.46    6.43
  -4  -1  14   64.24    5.84
  -4  -1  14   58.30    3.45
  -4  -1  13  547.25   17.60
  -4  -1  13  519.23   11.77
  -4  -1  12   12.49    2.72
  -4  -1  12    9.24    1.22
  -4  -1  11  741.04   13.87
  -4  -1  11  743.75   20.53
  -4  -1  10   61.94    5.15
   4   1 -10   67.82    4.61
  -4  -1   9  964.09   23.45
   4   1  -9  945.84   20.29
   4   1  -8    1.03    0.31
  -4  -1   8    2.03    1.28
  -4  -1   8    0.17    0.59
   4   1  -8    0.60    0.82
   4   1  -7  469.82    7.74
  -4  -1   7  468.23   12.23
  -4  -1   7  457.42   14.63
   4   1  -7  459.49   12.92
  -4  -1   6   29.68    3.45
   4   1  -6   26.72    3.56
   4   1  -5  423.10   12.69
  -4  -1   5  429.79   14.48
  -4  -1   5  441.92   10.59
  -4  -1   4    2.07    1.34
   4   1  -4    2.70    1.08
   4   1  -4    1.24    0.51
  -4  -1   3 1232.61   27.03
   4   1  -3 1310.46   26.63
   4   1  -3 1245.61   21.90
  -4  -1   2   99.52    6.16
   4   1  -2   99.42    5.92
   4   1  -1  148.12    6.25
   4   1  -1  149.56    7.51
   4   1  -1  145.86    4.47
   4   1   0   92.32    4.45
   4   1   0   80.22    5.52
   4   1   0   78.78    3.23
   4   1   1   51.87    3.08
   4   1   1   58.52    4.78
   4   1   1   51.88    2.59
   4   1   2  169.47    5.22
   4   1   2  153.31    5.05
  -4  -1  -2  152.10    5.49
   4   1   3   23.02    1.44
  -4  -1  -3   26.95    2.28
   4   1   3   25.78    2.07
   4   1   4  207.72   11.00
   4   1   4  219.24    6.92
  -4  -1  -4  212.20    7.21
   4   1   5  385.06   15.83
   4   1   5  366.36   10.13
  -4  -1  -5  356.73   10.38
   4   1   6   94.09    7.55
   4   1   6   97.45    4.97
  -4  -1  -6   89.79    5.03
   4   1   7  316.97   14.62
   4   1   7  288.84    9.82
   4   1   8   33.25    4.73
   4   1   8   35.03    3.42
   4   1   9  202.06   12.04
   4   1   9  206.90    9.14
   4   1  10   14.82    3.22
   4   1  10   16.02    2.62
   4   1  11   63.46    6.84
   4   1  11   62.57    5.50
   4   1  12  149.57   10.83
   4   1  12  159.04    9.25
   4   1  13   59.39    6.94
   4   1  13   62.71    6.13
   4   1  14  126.72   10.23
   4   1  14  133.24    9.93
   4   1  14  134.98    9.42
   4   1  15   54.22    6.70
   4   1  15   57.85    6.76
   4   1  15   50.77    6.14
   4   1  16   59.05    7.10
   4   1  16   45.56    6.01
  -4  -2  24   29.62    5.68
  -4  -2  23   11.97    3.44
  -4  -2  22    7.76    2.69
  -4  -2  21    2.14    2.02
  -4  -2  20    1.07    1.51
  -4  -2  19    9.72    2.80
  -4  -2  18   19.47    3.80
  -4  -2  18   11.32    1.96
  -4  -2  17    8.20    2.47
  -4  -2  17    5.28    1.15
  -4  -2  16   20.31    3.54
  -4  -2  16   16.58    1.89
  -4  -2  15   56.33    5.59
  -4  -2  15   47.04    2.98
  -4  -2  14   67.45    6.12
  -4  -2  14   59.24    3.10
  -4  -2  13  164.63    9.23
  -4  -2  13  158.06    4.93
  -4  -2  12  289.45    6.53
  -4  -2  12  278.05   12.07
  -4  -2  11  194.02    9.75
   4   2 -11  202.20    8.04
  -4  -2  10 1007.46   24.77
   4   2 -10  996.05   20.96
  -4  -2   9    3.81    1.79
  -4  -2   9    1.63    0.95
   4   2  -9    2.60    1.09
   4   2  -8 1569.65   30.02
  -4  -2   8 1594.85   33.37
   4   2  -7   44.87    3.66
  -4  -2   7   44.49    3.42
  -4  -2   7   52.04    4.63
  -4  -2   6 1946.68   37.68
   4   2  -6 1959.21   34.96
  -4  -2   6 1840.13   32.66
   4   2  -5  137.98    5.70
   4   2  -5  145.51    6.86
  -4  -2   5  134.68    7.43
   4   2  -4  186.88    8.01
  -4  -2   4  187.46    8.78
   4   2  -4  194.15    6.58
   4   2  -3   14.29    1.70
   4   2  -3   14.11    2.22
  -4  -2   3   15.26    2.47
  -4  -2   2   78.26    5.53
   4   2  -2   77.28    5.17
   4   2  -2   75.13    2.77
   4   2  -1   32.59    3.37
   4   2  -1   32.31    1.80
   4   2   0  131.83    7.10
   4   2   0  123.99    3.85
   4   2   1   18.83    1.76
   4   2   1   16.16    2.53
  -4  -2  -1   16.03    1.56
   4   2   1   15.37    1.32
   4   2   2   96.24    3.58
   4   2   2   86.09    5.94
  -4  -2  -2   88.82    4.02
   4   2   2   96.28    3.75
   4   2   3  223.10    4.55
   4   2   3  236.59   10.29
   4   2   3  222.96    6.67
  -4  -2  -3  230.65    7.15
   4   2   4    9.51    1.80
  -4  -2  -4   14.79    2.30
   4   2   5  279.93    8.68
  -4  -2  -5  270.38    8.72
   4   2   6   13.88    3.11
   4   2   6   19.84    2.56
   4   2   7  168.98   10.82
   4   2   7  159.24    7.23
   4   2   8   67.49    6.97
   4   2   8   77.57    5.27
   4   2   9   46.52    5.88
   4   2   9   47.05    4.47
   4   2  10   71.61    7.33
   4   2  10   67.11    5.50
   4   2  11    5.16    1.98
   4   2  11   11.03    3.07
   4   2  11    6.74    1.95
   4   2  12   66.31    7.39
   4   2  12   60.27    6.38
   4   2  12   62.97    5.93
   4   2  13   27.56    4.48
   4   2  13   27.07    4.71
   4   2  13   24.49    4.03
   4   2  14   11.30    2.98
   4   2  14   10.76    3.35
   4   2  14   14.44    3.25
   4   2  15   49.26    6.53
   4   2  15   52.78    6.50
   4   2  16   23.54    4.65
   4   2  16   27.87    5.13
  -4  -3  25   19.97    5.09
  -4  -3  24   24.30    5.17
  -4  -3  23   55.87    7.42
  -4  -3  22   33.11    5.50
  -4  -3  21   11.42    3.42
  -4  -3  20    9.69    2.79
  -4  -3  19   10.49    3.69
  -4  -3  18   13.36    4.04
  -4  -3  17   20.47    2.00
  -4  -3  17   16.29    3.05
  -4  -3  16    2.15    0.66
  -4  -3  16    1.94    1.17
  -4  -3  15    5.61    0.93
  -4  -3  15    4.54    1.73
  -4  -3  14   14.47    1.21
  -4  -3  14   13.55    2.70
  -4  -3  13   19.27    3.45
  -4  -3  12   19.66    3.23
  -4  -3  11  214.11   10.54
   4   3 -11  233.69    8.17
  -4  -3  10  120.44    7.54
  -4  -3  10  126.19    6.85
   4   3 -10  114.91    5.40
  -4  -3   9 1014.91   22.45
  -4  -3   9 1006.79   24.81
   4   3  -9  972.71   19.48
  -4  -3   8    7.18    1.67
  -4  -3   8   13.44    2.68
   4   3  -8    8.40    1.48
   4   3  -7 1352.52   27.61
  -4  -3   7 1475.75   27.39
  -4  -3   7 1486.28   30.83
   4   3  -7 1340.93   23.86
   4   3  -6    2.63    0.45
  -4  -3   6    3.27    1.02
  -4  -3   6    4.35    1.90
   4   3  -6    4.13    1.41
   4   3  -6    3.25    1.01
   4   3  -5 1494.86   23.33
  -4  -3   5 1451.22   30.96
   4   3  -5 1481.38   27.06
   4   3  -5 1425.54   28.74
   4   3  -4   63.34    4.59
  -4  -3   4   67.15    5.34
   4   3  -4   64.37    3.90
   4   3  -3 1323.03   26.93
  -4  -3   3 1268.52   28.30
   4   3  -3 1308.83   24.69
   4   3  -3 1292.38   19.76
  -4  -3   2  771.82   20.52
   4   3  -2  813.37   19.57
   4   3  -2  805.17   12.90
   4   3  -1   51.30    4.28
   4   3  -1   52.12    2.05
   4   3   0  470.87   14.37
   4   3   0  467.18    8.97
   4   3   1   32.24    2.31
   4   3   1   30.46    3.45
   4   3   1   26.16    1.80
  -4  -3  -1   30.23    2.07
   4   3   2    0.84    0.36
   4   3   2   -0.40    0.79
  -4  -3  -2    1.17    0.58
   4   3   2    0.51    0.50
   4   3   3    8.59    1.93
  -4  -3  -3    9.37    1.35
   4   3   3   10.01    1.44
   4   3   4  107.87    7.15
  -4  -3  -4  114.88    5.24
   4   3   4  106.17    4.98
   4   3   5    0.79    1.06
   4   3   5    3.58    1.58
   4   3   6   60.17    4.16
   4   3   7    2.41    2.04
   4   3   7    3.19    1.41
   4   3   8  116.37    7.98
   4   3   8  126.61    9.87
   4   3   8  136.86    7.28
   4   3   9    5.52    1.54
   4   3   9    4.25    1.70
   4   3   9    6.20    1.82
   4   3  10  120.92    9.98
   4   3  10  119.11    8.58
   4   3  10  120.97    7.68
   4   3  11   94.17    8.90
   4   3  11   94.17    7.88
   4   3  11   86.42    6.80
   4   3  12   36.47    5.01
   4   3  12   37.39    5.71
   4   3  12   35.48    4.64
   4   3  13   37.22    5.68
   4   3  13   39.31    5.33
   4   3  14    0.68    1.23
   4   3  14    2.32    2.14
   4   3  15   14.64    3.50
   4   3  15   12.64    3.57
  -4  -4  24   12.56    3.84
  -4  -4  23   22.83    4.89
  -4  -4  22   73.06    8.03
  -4  -4  21   39.67    5.90
  -4  -4  20   63.54    7.20
  -4  -4  19   17.33    3.90
  -4  -4  18    3.33    1.73
  -4  -4  17    6.71    2.12
  -4  -4  16   17.68    1.41
  -4  -4  16   20.90    3.50
  -4  -4  15    1.95    0.41
  -4  -4  15    1.41    1.69
  -4  -4  14   16.56    3.02
  -4  -4  13    1.15    1.02
  -4  -4  12    6.71    2.16
   4   4 -12    5.44    1.24
  -4  -4  11   53.02    5.17
   4   4 -11   46.12    3.21
  -4  -4  10    0.06    1.09
   4   4 -10    0.25    0.36
  -4  -4   9   11.35    1.99
  -4  -4   9   12.92    2.46
   4   4  -9    9.98    1.36
  -4  -4   8  253.80   11.06
  -4  -4   8  252.06    9.65
   4   4  -8  251.07    7.00
   4   4  -7   19.11    0.96
  -4  -4   7   15.43    2.22
  -4  -4   7   21.48    3.15
   4   4  -7   18.48    2.37
   4   4  -7   20.99    1.69
   4   4  -6 1184.46   19.07
   4   4  -6 1242.38   24.95
   4   4  -6 1199.64   24.44
  -4  -4   6 1189.73   27.50
   4   4  -6 1232.03   19.58
   4   4  -5   27.21    1.85
   4   4  -5   26.73    2.94
  -4  -4   5   23.86    3.26
   4   4  -5   24.74    2.59
   4   4  -5   26.50    1.44
   4   4  -4 1026.54   19.14
  -4  -4   4 1058.62   25.26
   4   4  -4 1069.91   23.04
   4   4  -4 1110.53   22.34
   4   4  -4 1064.05   15.82
   4   4  -3   21.29    2.06
   4   4  -3   20.58    2.71
  -4  -4   3   21.17    3.10
   4   4  -3   23.58    2.60
   4   4  -3   17.22    0.79
   4   4  -2 1156.74   21.96
  -4  -4   2 1101.87   25.97
   4   4  -2 1148.71   24.47
   4   4  -2 1115.77   16.68
   4   4  -1  111.15    5.56
   4   4  -1  117.40    6.52
   4   4  -1  111.81    3.16
   4   4   0  445.94   12.62
   4   4   0  434.73   13.71
   4   4   0  429.35    8.74
   4   4   1  932.88   20.95
   4   4   1  914.91   21.85
  -4  -4  -1  922.67   16.33
   4   4   1  868.21   16.13
   4   4   2   45.90    2.27
   4   4   2   41.17    3.85
   4   4   2   44.02    4.20
  -4  -4  -2   41.00    2.63
   4   4   2   35.56    2.62
   4   4   3  154.34    7.98
   4   4   3  177.43    8.74
  -4  -4  -3  175.22    6.14
   4   4   3  154.23    6.06
   4   4   4   44.58    4.43
   4   4   4   33.80    3.98
  -4  -4  -4   31.98    2.83
   4   4   4   33.09    2.82
   4   4   5   22.18    3.24
   4   4   5   19.69    3.01
  -4  -4  -5   16.99    1.99
   4   4   5   16.81    2.16
   4   4   6   23.28    3.36
   4   4   6   24.70    3.43
   4   4   6   19.92    2.49
   4   4   7    0.26    1.03
   4   4   7    0.87    1.00
   4   4   7    0.42    0.80
   4   4   8    4.68    1.80
   4   4   8    6.16    1.85
   4   4   8    5.38    1.62
   4   4   9  138.45   10.82
   4   4   9  137.41    9.11
   4   4   9  146.40    8.25
   4   4  10   22.87    3.73
   4   4  10   23.98    4.72
   4   4  11  160.17   11.94
   4   4  11  133.89    9.50
   4   4  12   19.76    3.81
   4   4  12   21.03    4.41
   4   4  13   71.78    7.47
   4   4  13   61.68    7.75
   4   4  14   31.49    5.54
   4   4  14   33.37    5.19
   4   4  15   30.91    5.70
  -4  -5  24   13.26    3.82
  -4  -5  23   45.79    6.78
  -4  -5  22   12.52    3.65
  -4  -5  21  112.17    9.91
  -4  -5  20  137.39   10.60
  -4  -5  19  178.28   11.77
  -4  -5  18    4.68    2.02
  -4  -5  17   -2.76    2.06
  -4  -5  16   -6.23    2.27
  -4  -5  15   -1.90    1.85
  -4  -5  14    7.27    1.97
  -4  -5  13    7.12    1.82
  -4  -5  12   15.10    2.86
   4   5 -12   14.22    1.73
  -4  -5  11   11.72    2.44
   4   5 -11   10.63    1.41
  -4  -5  10    1.33    0.91
   4   5 -10    0.52    0.40
  -4  -5   9    6.41    2.12
   4   5  -9    5.66    0.91
  -4  -5   8    0.44    0.58
  -4  -5   8    0.22    0.82
   4   5  -8    0.41    0.23
   4   5  -7   21.78    1.36
  -4  -5   7   23.32    3.25
   4   5  -7   17.70    2.49
   4   5  -7   19.45    1.23
   4   5  -6  105.98    3.71
  -4  -5   6  104.96    6.94
   4   5  -6   99.05    5.63
   4   5  -6  100.52    2.64
   4   5  -5  456.11   10.13
   4   5  -5  468.42   13.26
   4   5  -5  461.59   13.28
  -4  -5   5  448.02   15.20
   4   5  -4  168.78    5.98
   4   5  -4  176.07    7.74
  -4  -5   4  168.95    8.90
   4   5  -4  170.69    7.57
   4   5  -3 1129.34   21.48
  -4  -5   3 1092.49   26.31
   4   5  -3 1129.25   24.02
   4   5  -3 1127.08   24.26
   4   5  -2  133.18    5.99
   4   5  -2  132.74    6.82
  -4  -5   2  137.37    7.89
   4   5  -1  943.94   20.43
   4   5  -1  933.81   21.65
   4   5   0  147.59    6.99
   4   5   0  140.04    7.16
  -4  -5   0  147.65    4.31
   4   5   1  245.41    9.81
   4   5   1  268.94   10.39
   4   5   1  245.63    7.07
  -4  -5  -1  284.22    7.11
   4   5   2  504.77    9.16
   4   5   2  510.81   15.30
   4   5   2  523.45   15.48
  -4  -5  -2  542.68   11.44
   4   5   2  489.41   11.85
   4   5   3  148.27    7.95
   4   5   3  164.63    8.25
  -4  -5  -3  167.20    6.00
   4   5   3  153.03    6.19
   4   5   4  297.28   11.99
   4   5   4  310.89   11.95
  -4  -5  -4  306.46    8.99
   4   5   4  305.81    9.73
   4   5   5  155.19    8.67
   4   5   5  166.32    8.64
  -4  -5  -5  151.73    6.41
   4   5   6  211.32   10.56
   4   5   6  206.04    9.92
   4   5   7   -0.20    1.19
   4   5   7   -0.35    1.15
   4   5   8   10.28    2.64
   4   5   9    9.01    2.46
   4   5   9   10.75    3.24
   4   5  10   12.08    3.37
   4   5  10    9.76    2.59
   4   5  11   43.42    5.43
   4   5  11   42.08    6.49
   4   5  12   45.78    5.94
   4   5  12   63.43    8.01
   4   5  13   34.63    5.92
   4   5  13   38.31    5.54
   4   5  14   97.77   10.07
  -4  -6  24   20.30    4.86
  -4  -6  23   39.13    6.17
  -4  -6  22   90.59    9.18
  -4  -6  21    3.10    2.05
  -4  -6  20  192.81   12.81
  -4  -6  19   51.05    6.45
  -4  -6  18   10.15    2.81
  -4  -6  17   58.18    6.47
  -4  -6  16   48.07    5.81
  -4  -6  15   -0.86    1.34
  -4  -6  14   28.11    4.19
  -4  -6  13    0.14    1.04
   4   6 -13   -0.43    0.73
  -4  -6  12    1.94    1.08
   4   6 -12    0.11    0.50
  -4  -6  11    0.43    0.85
   4   6 -11   -0.03    0.44
  -4  -6  10   12.83    2.72
   4   6 -10   16.60    1.54
  -4  -6   9   10.94    2.51
   4   6  -9   10.32    1.04
  -4  -6   8   44.79    4.66
   4   6  -8   37.68    3.88
   4   6  -8   40.54    1.80
   4   6  -7    2.66    0.58
  -4  -6   7    6.78    1.97
   4   6  -7    2.69    0.99
   4   6  -7    3.53    0.41
   4   6  -6    4.90    0.89
  -4  -6   6    5.69    1.72
   4   6  -6    3.41    1.06
   4   6  -5  121.82    4.85
  -4  -6   5  115.55    7.50
   4   6  -5  119.30    6.57
   4   6  -4   15.55    1.78
   4   6  -4   10.04    2.01
   4   6  -4   14.14    2.15
  -4  -6   4   11.79    2.51
   4   6  -3  599.55   14.45
  -4  -6   3  604.69   18.44
   4   6  -3  615.25   15.94
   4   6  -3  637.46   17.36
   4   6  -2  341.42   10.53
  -4  -6   2  337.41   13.05
   4   6  -2  346.13   11.37
   4   6  -1    9.40    1.88
   4   6  -1    9.34    1.86
   4   6   0  361.16   12.20
   4   6   0  390.95   12.82
   4   6   1   62.42    2.94
   4   6   1   50.69    4.43
   4   6   1   57.56    4.70
   4   6   2  197.18    5.05
   4   6   2  208.27    9.45
   4   6   2  191.99    8.66
  -4  -6  -2  208.55    6.40
   4   6   3   83.98    6.03
   4   6   3   78.84    5.51
  -4  -6  -3   81.17    4.00
   4   6   4  213.26   10.24
   4   6   4  200.68    9.15
  -4  -6  -4  199.66    7.13
   4   6   5  456.98   16.13
   4   6   5  457.68   14.86
  -4  -6  -5  457.07   12.19
   4   6   6   88.58    6.94
   4   6   6   77.63    5.78
   4   6   7  111.91    8.05
   4   6   8  115.51    8.43
   4   6   9   44.99    5.42
   4   6  10   71.38    8.38
   4   6  10   70.59    7.08
   4   6  11   10.20    3.40
   4   6  11   11.63    3.10
   4   6  12   37.35    5.43
   4   6  12   37.94    6.26
   4   6  13    5.91    3.09
   4   6  14   15.13    4.13
  -4  -7  23   19.74    4.51
  -4  -7  22   64.79    7.81
  -4  -7  21   92.36    9.20
  -4  -7  20   34.97    5.47
  -4  -7  19   89.67    8.71
  -4  -7  18   29.61    4.96
  -4  -7  17  602.17   22.25
  -4  -7  16   42.33    5.56
  -4  -7  15   92.27    7.89
  -4  -7  14    5.76    2.17
  -4  -7  13   26.37    4.28
   4   7 -13   20.73    2.04
  -4  -7  12   20.55    3.56
   4   7 -12   19.52    1.82
  -4  -7  11   41.53    4.88
   4   7 -11   40.04    2.43
  -4  -7  10   -0.47    1.19
   4   7 -10    0.38    0.36
  -4  -7   9   -1.13    1.14
   4   7  -9    0.55    0.31
   4   7  -8   11.68    1.29
   4   7  -8   12.27    2.35
  -4  -7   8   10.24    2.35
   4   7  -8   13.46    0.90
   4   7  -7   34.42    2.37
  -4  -7   7   32.53    4.08
   4   7  -7   35.06    3.71
   4   7  -6   10.60    1.39
  -4  -7   6    6.20    1.71
   4   7  -6    7.70    1.70
   4   7  -5   61.78    3.69
  -4  -7   5   61.92    5.51
   4   7  -5   64.73    5.11
   4   7  -4   53.37    3.54
  -4  -7   4   43.63    4.66
   4   7  -4   49.16    4.53
   4   7  -3   49.56    3.66
   4   7  -3   53.39    4.08
  -4  -7   3   49.48    4.91
   4   7  -3   53.09    4.78
   4   7  -2  104.58    5.74
  -4  -7   2  113.91    7.44
   4   7  -2  110.83    5.99
   4   7  -1  141.51    7.07
   4   7  -1  155.97    7.40
   4   7   0  346.54    8.91
   4   7   0  349.50   12.12
   4   7   0  356.54   11.65
  -4  -7   0  373.68    7.59
   4   7   1  231.47    6.62
   4   7   1  251.38   10.54
   4   7   1  252.30    9.66
  -4  -7  -1  260.73    6.79
   4   7   2  110.52    3.85
   4   7   2  115.86    7.09
   4   7   2  108.15    6.21
  -4  -7  -2  113.39    4.55
   4   7   3  192.54    9.61
   4   7   3  179.03    8.19
  -4  -7  -3  187.66    6.47
   4   7   4    4.28    1.78
   4   7   4    2.87    1.17
  -4  -7  -4    2.71    1.04
   4   7   5    4.90    1.98
   4   7   6   58.36    5.77
   4   7   7   62.96    6.14
   4   7   8  140.51    9.62
   4   7   9   44.12    5.45
   4   7  10  103.94   10.44
   4   7  10  106.91    8.77
   4   7  11   41.00    5.71
   4   7  11   47.79    7.40
   4   7  12   58.14    8.12
   4   7  13   18.40    4.70
  -4  -8  23   12.72    4.23
  -4  -8  22   -0.37    1.69
  -4  -8  21   32.64    5.46
  -4  -8  20    7.13    2.19
  -4  -8  19   -1.95    2.52
  -4  -8  18  278.31   15.22
  -4  -8  17    3.19    2.18
  -4  -8  16  623.32   22.58
  -4  -8  15   21.93    4.29
  -4  -8  14  254.12   13.50
  -4  -8  13   39.60    5.26
   4   8 -13   34.80    2.53
  -4  -8  12   66.34    6.64
   4   8 -12   69.90    3.35
  -4  -8  11   25.60    3.92
   4   8 -11   25.10    1.78
  -4  -8  10   27.25    4.10
   4   8 -10   37.81    2.01
  -4  -8   9   47.56    5.23
   4   8  -9   44.41    4.59
   4   8  -9   43.05    1.87
  -4  -8   8    1.38    1.01
   4   8  -8    0.36    0.43
  -4  -8   7   25.27    3.58
   4   8  -7   26.31    3.41
   4   8  -7   26.20    2.26
   4   8  -6    8.27    1.98
  -4  -8   6    7.64    2.08
   4   8  -6    8.33    1.38
   4   8  -5   -0.40    0.97
  -4  -8   5   -0.30    1.40
   4   8  -5   -0.39    0.51
   4   8  -4   19.45    3.01
  -4  -8   4   21.34    3.33
   4   8  -4   15.63    2.07
   4   8  -3    1.55    1.24
  -4  -8   3    1.03    1.06
   4   8  -3    0.09    0.48
  -4  -8   2    2.91    1.59
   4   8  -2    1.52    0.70
   4   8  -1  127.87    5.32
   4   8  -1  134.09    7.08
   4   8  -1  125.65    6.37
   4   8   0   39.85    2.84
   4   8   0   36.84    4.08
   4   8   0   39.55    3.51
  -4  -8   0   46.35    2.23
   4   8   1  224.80    6.82
   4   8   1  222.14   10.03
   4   8   1  216.55    8.65
  -4  -8  -1  226.95    6.14
   4   8   2  183.30    9.43
   4   8   2  175.48    7.75
  -4  -8  -2  184.93    6.08
   4   8   3  220.03   10.70
   4   8   3  200.00    8.41
   4   8   4   82.45    6.66
   4   8   5    1.39    0.95
   4   8   6   44.76    5.20
   4   8   7   27.72    4.27
   4   8   8    2.02    1.47
   4   8   9   35.37    4.94
   4   8  10   22.31    4.36
   4   8  11   70.99    9.06
   4   8  12   17.92    4.96
  -4  -9  22    0.78    1.72
  -4  -9  21   11.43    3.20
  -4  -9  20    1.29    2.05
  -4  -9  19   -1.76    2.41
  -4  -9  18   57.53    6.92
  -4  -9  17   51.90    6.44
  -4  -9  16   12.57    3.38
  -4  -9  15  571.66   21.59
  -4  -9  14   12.51    3.91
   4   9 -14    3.89    1.30
  -4  -9  13  600.47   21.49
   4   9 -13  575.95   12.72
  -4  -9  12   45.18    5.65
   4   9 -12   46.57    2.69
  -4  -9  11   95.73    7.94
   4   9 -11   88.03    3.42
  -4  -9  10    5.13    2.11
   4   9 -10    4.55    1.95
  -4  -9   9  218.33   11.80
   4   9  -9  219.33   10.75
  -4  -9   8    1.20    1.55
   4   9  -8    1.32    1.16
   4   9  -8    1.29    0.74
   4   9  -7   94.68    6.85
  -4  -9   7  101.00    7.63
   4   9  -7   94.47    4.80
   4   9  -6   21.69    3.23
  -4  -9   6   20.29    3.39
   4   9  -6   22.55    2.41
  -4  -9   5   16.04    2.96
   4   9  -5   16.95    2.79
   4   9  -5   17.06    2.16
   4   9  -4   24.62    3.54
  -4  -9   4   32.77    4.29
   4   9  -4   30.22    2.98
   4   9  -3   -0.81    1.30
  -4  -9   3    0.23    0.99
   4   9  -3    0.94    0.63
   4   9  -2    6.29    1.38
  -4  -9   2    5.33    2.07
   4   9  -2    8.30    1.82
   4   9  -1    0.17    1.38
   4   9  -1    2.49    1.27
   4   9   0   18.86    2.88
   4   9   0   19.02    2.11
   4   9   0   19.21    2.40
   4   9   1   44.17    3.56
   4   9   1   42.14    4.41
   4   9   2  194.09    9.96
   4   9   3    8.35    2.35
   4   9   4   85.78    7.00
   4   9   5   57.91    5.88
   4   9   6   15.78    3.23
   4   9   7    1.70    1.16
   4   9   8   10.58    2.92
   4   9   9    6.62    2.40
   4   9  11    1.71    2.23
   4   9  12   16.42    4.71
  -4 -10  22    0.08    1.59
  -4 -10  21    6.54    2.47
  -4 -10  20   34.73    5.74
  -4 -10  19    2.21    2.47
  -4 -10  18    9.98    3.25
  -4 -10  17   -3.13    2.54
  -4 -10  16    2.73    1.64
  -4 -10  15   14.05    3.59
  -4 -10  14  182.94   12.30
  -4 -10  13    7.91    2.93
  -4 -10  12  736.51   24.67
  -4 -10  11  101.55    8.57
  -4 -10  10  451.73   18.33
   4  10 -10  437.17   16.60
   4  10  -9  147.38    9.01
  -4 -10   9  144.99    9.92
   4  10  -8  279.46   12.56
  -4 -10   8  273.81   13.58
   4  10  -8  271.71    9.00
   4  10  -7    6.50    1.98
  -4 -10   7    7.56    2.41
   4  10  -7   11.97    1.90
  -4 -10   6  162.43    9.93
   4  10  -6  171.76    9.76
   4  10  -6  161.60    7.09
  -4 -10   5   20.84    3.52
   4  10  -5   27.19    3.86
   4  10  -5   19.68    2.48
   4  10  -4   44.24    4.96
  -4 -10   4   43.80    4.96
   4  10  -4   54.89    4.33
  -4 -10   3   61.20    5.75
   4  10  -3   60.51    5.93
   4  10  -3   57.50    4.58
   4  10  -2    3.37    1.07
  -4 -10   2    1.99    1.04
   4  10  -2    0.69    0.61
   4  10  -1   58.46    5.05
   4  10   0    0.71    0.79
   4  10   1    4.51    1.74
   4  10   2    7.53    2.25
   4  10   3    2.99    1.43
   4  10   4   90.81    7.38
   4  10   5   53.94    5.87
   4  10   6   24.34    4.09
   4  10   7   86.51    7.86
   4  10   8    8.36    2.55
   4  10  11   -0.92    2.04
  -4 -11  21   -1.52    2.27
  -4 -11  20    0.99    1.54
  -4 -11  19   35.43    5.93
  -4 -11  18    2.43    1.54
  -4 -11  17   82.90    8.54
  -4 -11  16    1.36    1.52
  -4 -11  15    4.13    2.31
  -4 -11  14   19.04    4.08
  -4 -11  13    0.53    1.65
  -4 -11  12  125.57    9.90
  -4 -11  11  227.22   13.25
   4  11 -11  220.09   11.91
  -4 -11  10    3.49    1.96
   4  11 -10    5.93    2.27
   4  11  -9  262.48   12.81
  -4 -11   9  273.47   14.10
   4  11  -8   89.26    7.28
  -4 -11   8   91.91    8.01
   4  11  -8   96.86    5.48
  -4 -11   7  451.02   18.06
   4  11  -7  455.90   17.21
   4  11  -7  467.60   13.47
   4  11  -6    8.46    2.37
  -4 -11   6    4.55    1.99
   4  11  -6    6.84    1.73
  -4 -11   5  357.74   15.40
   4  11  -5  365.73   15.41
   4  11  -5  351.55   12.00
   4  11  -4   29.31    4.44
  -4 -11   4   29.06    4.27
   4  11  -4   24.36    3.12
  -4 -11   3   84.67    6.83
   4  11  -3   74.31    6.77
   4  11  -3   74.61    5.56
   4  11  -2   90.63    6.32
   4  11  -1   24.47    3.36
   4  11   0  106.39    7.37
   4  11   1    0.73    0.77
   4  11   2   36.64    4.58
   4  11   3   43.13    5.09
   4  11   4    0.77    0.89
   4  11   5   38.90    5.18
   4  11   6   32.48    4.88
   4  11   7   21.77    4.06
  -4 -12  20   27.85    5.82
  -4 -12  19   -0.50    1.55
  -4 -12  18    2.40    1.99
  -4 -12  17    4.75    3.01
  -4 -12  16   27.25    5.43
  -4 -12  15    1.43    1.73
  -4 -12  14   42.79    6.08
  -4 -12  13   27.66    4.91
  -4 -12  12    1.55    2.13
  -4 -12  11   30.58    4.88
   4  12 -11   35.51    4.93
   4  12 -10   46.86    5.55
  -4 -12  10   50.08    6.22
   4  12  -9  218.81   12.09
  -4 -12   9  225.39   13.13
   4  12  -8  195.59    8.48
   4  12  -8  204.86   11.60
  -4 -12   8  208.95   12.43
   4  12  -7    5.38    2.13
  -4 -12   7    7.20    2.06
   4  12  -7    9.01    1.92
  -4 -12   6  181.41   11.45
   4  12  -6  187.65   11.22
   4  12  -5   10.73    2.96
  -4 -12   5   18.66    3.74
   4  12  -5   13.34    2.54
  -4 -12   4  354.55   15.16
   4  12  -4  374.26   16.43
   4  12  -4  368.92   13.20
   4  12  -3   22.41    4.04
  -4 -12   3   16.21    3.17
   4  12  -3   17.97    2.87
   4  12  -2  144.14    8.40
   4  12  -1   66.89    5.82
   4  12   0   13.92    2.73
   4  12   1  233.67   11.88
   4  12   2   26.00    4.13
   4  12   3  121.39    8.91
   4  12   4   16.09    3.50
   4  12   5   15.09    3.35
   4  12   6   37.29    5.36
  -4 -13  20    6.76    3.40
  -4 -13  19   82.90    9.35
  -4 -13  18    9.74    3.69
  -4 -13  17   35.38    6.28
  -4 -13  16   50.36    7.08
  -4 -13  15    0.75    1.68
  -4 -13  14   12.63    3.71
  -4 -13  13   43.97    6.35
  -4 -13  12   -1.61    2.18
   4  13 -11    5.08    1.91
  -4 -13  11    7.10    2.77
   4  13 -10  106.40    8.70
  -4 -13  10   96.42    8.88
  -4 -13   9   22.45    4.28
   4  13  -9   26.63    4.36
   4  13  -8  215.41    9.39
   4  13  -8  223.71   12.57
  -4 -13   8  193.98   12.37
   4  13  -7    8.06    3.65
   4  13  -7    9.33    2.50
  -4 -13   6   63.12    6.67
   4  13  -6   58.64    6.44
   4  13  -6   56.65    4.89
   4  13  -5   17.06    3.61
  -4 -13   5   14.80    3.92
   4  13  -5   15.38    3.08
   4  13  -4    7.81    2.65
  -4 -13   4    4.29    1.97
   4  13  -4    4.81    1.70
  -4 -13   3  173.31   10.24
   4  13  -3  172.80   11.43
   4  13  -3  171.90    9.41
   4  13  -2    1.27    1.81
   4  13  -2    2.06    1.33
   4  13  -1   73.03    6.38
   4  13   0  109.69    8.06
   4  13   1   59.81    6.12
   4  13   2  115.75    8.76
   4  13   3   25.87    4.20
   4  13   4  104.58    8.73
  -4 -14  19    2.28    3.16
  -4 -14  18  172.66   13.72
  -4 -14  17   27.30    5.58
  -4 -14  16   74.40    8.77
  -4 -14  15   24.26    4.97
  -4 -14  14    7.97    3.34
  -4 -14  13   52.32    7.07
  -4 -14  12    2.99    1.82
   4  14 -12    5.60    2.31
  -4 -14  11    9.53    3.07
   4  14 -11    7.70    2.36
  -4 -14  10    2.86    1.93
   4  14 -10    7.06    2.58
  -4 -14   9    4.28    2.12
   4  14  -9    2.87    2.01
  -4 -14   8    2.47    1.86
   4  14  -8   -0.15    2.23
   4  14  -8    2.03    1.19
  -4 -14   7   91.77    8.35
   4  14  -7  111.44    9.22
   4  14  -7  104.37    6.88
   4  14  -6    7.05    2.47
  -4 -14   6   15.69    3.75
   4  14  -6   10.48    2.37
   4  14  -5  245.25   13.96
  -4 -14   5  209.47   12.19
   4  14  -5  231.69   10.92
   4  14  -4    1.31    1.71
  -4 -14   4    2.02    1.63
   4  14  -4    0.11    0.84
   4  14  -3  133.50   10.39
   4  14  -3  127.82    8.38
   4  14  -2    2.12    1.77
   4  14  -2    1.54    0.96
   4  14  -1   36.65    4.69
   4  14   0   79.67    7.14
   4  14   1    8.79    2.61
   4  14   2   23.14    4.11
   4  14   3   64.31    6.94
  -4 -15  18    7.77    3.50
  -4 -15  17  189.40   14.54
  -4 -15  16    4.38    3.27
  -4 -15  15  138.25   12.26
  -4 -15  14   31.42    6.12
  -4 -15  13   67.78    8.57
   4  15 -12   56.61    6.93
  -4 -15  12   59.37    7.66
  -4 -15  11   28.16    5.41
   4  15 -11   24.66    4.65
  -4 -15  10   82.15    8.61
   4  15 -10   82.58    8.33
  -4 -15   9    8.78    2.74
   4  15  -9    3.64    1.82
  -4 -15   8   38.50    5.93
   4  15  -8   32.93    5.16
   4  15  -7   -1.33    1.88
  -4 -15   7    0.17    1.32
   4  15  -7    1.79    1.45
   4  15  -6    3.46    2.36
  -4 -15   6    5.42    2.30
   4  15  -6    7.43    2.01
   4  15  -5    7.85    2.72
   4  15  -5    6.27    1.96
   4  15  -4   87.48    8.70
   4  15  -4   78.76    6.75
   4  15  -3    1.11    1.23
   4  15  -3    1.36    1.31
   4  15  -2  109.18    9.93
   4  15  -2   94.80    7.64
   4  15  -1    4.74    2.70
   4  15  -1    2.83    1.67
   4  15   0   90.30    7.94
   4  15   1    8.87    2.73
   4  15   2    7.84    2.67
  -4 -16  17   25.09    5.77
  -4 -16  16  102.66   11.04
  -4 -16  15    5.81    3.29
  -4 -16  14  124.86   12.07
  -4 -16  13    7.85    3.49
   4  16 -12   79.50    8.55
  -4 -16  12   91.55    9.84
   4  16 -11   80.83    8.60
  -4 -16  11   87.41    9.32
   4  16 -10   58.47    7.26
  -4 -16  10   59.92    7.64
  -4 -16   9   97.66    9.46
   4  16  -9   94.34    9.18
  -4 -16   8   18.96    4.21
   4  16  -8   15.24    3.79
   4  16  -7   28.27    4.92
   4  16  -6   10.74    3.26
   4  16  -6   11.23    2.84
   4  16  -5    8.91    2.99
   4  16  -5    5.30    1.99
   4  16  -4   27.99    5.03
   4  16  -4   20.69    3.60
   4  16  -3   14.19    2.99
   4  16  -2   29.48    4.65
   4  16  -1   38.25    5.22
   4  16   0    0.84    1.74
  -4 -17  16   38.90    6.99
  -4 -17  15   62.52    8.90
  -4 -17  14   34.28    6.44
  -4 -17  13  105.33   11.00
  -4 -17  12    2.34    2.42
  -4 -17  11   78.24    9.18
  -4 -17  10   34.57    6.18
   4  17  -5   13.08    2.96
   4  17  -4   35.14    4.89
   4  17  -3   57.96    6.41
   4  17  -2    5.28    2.32
  -4 -18  15   14.61    4.68
  -4 -18  14   23.41    5.65
  -4 -18  13   52.20    8.19
  -4 -18  12   50.97    7.82
   4  18  -3   44.70    5.93
  -5  22  -3   -0.24    1.28
   5 -22   4   35.90    4.70
  -5  22  -4   32.03    5.11
   5 -22   5   12.84    2.87
  -5  22  -5   16.62    3.69
   5 -22   6    5.93    1.83
   5 -22   7   45.24    5.00
   5 -22   8    5.97    2.23
   5 -22   9   82.18    6.98
   5 -22  10   10.53    2.66
   5 -22  11   34.57    4.48
   5 -22  12   25.99    3.90
   5 -22  13    6.54    1.94
  -5  21   1    0.75    1.52
  -5  21   0   70.82    7.29
  -5  21  -1   45.81    5.86
  -5  21  -2    1.51    1.22
  -5  21  -3   82.23    7.79
   5 -21   4   11.25    2.55
  -5  21  -4    8.34    2.33
  -5  21  -5   72.95    7.36
   5 -21   5   71.09    6.40
   5 -21   6   39.73    4.70
   5 -21   7   10.54    2.50
   5 -21   8   77.85    6.56
   5 -21   9    0.89    1.16
   5 -21  10  104.45    7.56
   5 -21  11    2.16    1.52
   5 -21  12   76.94    6.52
   5 -21  13   -0.15    1.72
   5 -21  14   34.96    4.57
   5 -20  -5    1.71    2.91
   5 -20  -4   32.50    4.90
  -5  20   4   21.55    4.25
   5 -20  -3   24.97    4.27
  -5  20   3   22.88    4.27
   5 -20  -2   65.83    6.86
  -5  20   2   59.55    6.62
   5 -20  -1   52.18    6.07
  -5  20   1   46.80    5.79
   5 -20   0    8.68    2.68
  -5  20   0    3.34    1.77
  -5  20  -1   25.60    4.36
  -5  20  -2    4.58    1.89
  -5  20  -3    7.09    2.33
  -5  20  -4   48.67    5.77
   5 -20   5    0.07    1.02
  -5  20  -5   -0.37    1.29
   5 -20   6   73.37    6.35
   5 -20   7   15.57    2.94
   5 -20   8   67.05    5.98
   5 -20   9   46.29    4.99
   5 -20  10   13.36    2.73
   5 -20  11  118.77    8.00
   5 -20  12    1.43    1.67
   5 -20  13  116.46    7.97
   5 -20  14    2.07    1.86
   5 -20  15  113.37    8.20
   5 -19  -6    1.16    1.49
   5 -19  -5    8.26    2.80
  -5  19   5    4.03    2.35
   5 -19  -4    2.39    1.63
  -5  19   4    1.01    1.31
   5 -19  -3   40.20    5.33
  -5  19   3   37.77    5.13
   5 -19  -2   10.63    2.85
  -5  19   2   12.30    2.96
   5 -19  -1   72.32    7.07
  -5  19   1   71.57    6.80
   5 -19   0   87.14    7.64
  -5  19   0   83.20    7.32
   5 -19   1   62.96    6.45
  -5  19  -1   52.00    5.74
   5 -19   2   49.43    5.90
  -5  19  -2   51.29    5.62
  -5  19  -3    5.79    2.09
  -5  19  -4    5.89    1.89
   5 -19   5   14.12    2.73
  -5  19  -5   13.62    3.08
   5 -19   6    0.45    1.34
   5 -19   7   62.26    5.63
   5 -19   8    6.92    2.01
   5 -19   9   39.79    4.58
   5 -19  10   28.28    3.83
   5 -19  11   14.86    2.86
   5 -19  12  104.76    7.47
   5 -19  13    2.99    1.81
   5 -19  14  183.84   10.24
   5 -19  15   -0.09    0.99
   5 -19  16  104.19    7.88
   5 -18  -7   11.64    3.13
   5 -18  -6   32.99    4.93
   5 -18  -5    4.53    1.95
   5 -18  -4    1.38    1.54
  -5  18   4    2.27    1.42
   5 -18  -3    3.70    1.97
  -5  18   3    1.24    1.14
   5 -18  -2   10.26    2.65
  -5  18   2    6.95    2.19
   5 -18  -1    6.03    2.15
  -5  18   1    4.55    1.55
   5 -18   0   99.71    8.02
  -5  18   0   90.96    7.42
   5 -18   1   83.76    7.36
  -5  18  -1   75.60    6.60
   5 -18   2  118.06    8.62
  -5  18  -2  110.63    7.96
   5 -18   3   23.01    3.82
  -5  18  -3   19.15    3.32
  -5  18  -4   80.30    6.83
   5 -18   5    0.30    1.67
  -5  18  -5    0.39    1.38
   5 -18   6    1.82    1.25
   5 -18   7    2.07    1.35
   5 -18   8   38.52    4.34
   5 -18   9    1.34    1.22
   5 -18  10   46.41    4.75
   5 -18  11   24.42    3.63
   5 -18  12   27.04    3.79
   5 -18  13   73.14    6.16
   5 -18  14    8.84    2.45
   5 -18  15  111.84    7.87
   5 -18  16    0.69    1.01
   5 -17  -8   33.27    4.96
   5 -17  -7   75.96    7.33
   5 -17  -6   62.17    6.62
   5 -17  -5   77.13    7.27
   5 -17  -4   56.43    6.18
   5 -17  -3   55.40    6.05
  -5  17   3   58.52    5.90
   5 -17  -2    8.47    2.31
  -5  17   2   14.10    2.87
   5 -17  -1   11.03    2.70
  -5  17   1    8.83    2.10
   5 -17   0    5.57    2.82
  -5  17   0    3.92    1.78
   5 -17   1   36.44    4.96
  -5  17  -1   38.15    4.52
   5 -17   2   45.25    5.23
  -5  17  -2   34.56    4.23
   5 -17   3  226.86   11.65
  -5  17  -3  182.99    9.96
   5 -17   4  112.12    8.44
  -5  17  -4   77.12    6.47
   5 -17   5  166.00    9.18
   5 -17   6   31.36    3.92
   5 -17   7   33.34    4.01
   5 -17   8    9.55    2.26
   5 -17   9    2.67    1.42
   5 -17  10    9.82    2.29
   5 -17  11    2.80    1.15
   5 -17  12   -2.05    1.46
   5 -17  13   10.03    2.34
   5 -17  14   20.00    3.38
   5 -17  15    6.48    2.01
   5 -17  16   89.04    7.19
   5 -17  17    0.38    1.41
   5 -16 -10    7.45    2.77
   5 -16  -9   37.54    5.22
   5 -16  -8    0.97    1.62
   5 -16  -7   53.64    6.07
   5 -16  -6   38.36    5.23
   5 -16  -5   74.19    7.08
   5 -16  -4  245.60   12.99
   5 -16  -3  128.69    9.25
  -5  16   3  117.73    8.03
   5 -16  -2  186.52   10.94
  -5  16   2  173.66    9.70
   5 -16  -1  104.58    8.09
  -5  16   1  109.57    7.41
   5 -16   0  163.97    9.88
  -5  16   0  166.49    9.13
   5 -16   1   16.79    3.30
  -5  16  -1   10.68    2.26
   5 -16   2    9.62    2.58
  -5  16  -2   10.68    2.39
   5 -16   3  158.61   10.47
  -5  16  -3  149.47    8.65
   5 -16   4  320.88   13.68
  -5  16  -4  315.06   12.80
   5 -16   5  259.34   12.15
   5 -16   5  251.00   11.25
   5 -16   6  305.41   12.41
   5 -16   7   56.33    5.10
   5 -16   8   33.78    3.95
   5 -16   9   -1.20    1.16
   5 -16  10    1.25    1.12
   5 -16  11   61.81    5.44
   5 -16  12    3.14    1.15
   5 -16  13    2.23    1.37
   5 -16  14    8.50    2.38
   5 -16  15    0.51    1.00
   5 -16  16    2.81    1.29
   5 -16  17   20.18    3.40
   5 -15 -11   60.34    6.82
   5 -15 -10   14.27    3.45
  -5  15  10   16.62    3.81
  -5  15   9   50.95    6.51
   5 -15  -9   57.94    6.47
   5 -15  -8   13.65    3.18
   5 -15  -7   11.17    3.06
   5 -15  -6    3.17    1.84
   5 -15  -5   34.86    4.82
   5 -15  -4   34.27    4.75
   5 -15  -3   49.63    5.57
   5 -15  -2   33.30    4.41
  -5  15   2   31.98    3.81
   5 -15  -1  182.50   10.50
  -5  15   1  169.84    8.91
   5 -15   0  110.56    8.03
  -5  15   0  106.98    6.84
   5 -15   1  683.32   21.31
  -5  15  -1  692.24   19.13
   5 -15   2  152.84    9.26
  -5  15  -2  143.37    7.93
   5 -15   3  115.78    7.87
  -5  15  -3  115.15    7.08
   5 -15   4  365.41   14.25
  -5  15  -4  324.24   12.62
   5 -15   5  100.96    7.27
   5 -15   5   95.91    6.63
   5 -15   6  432.36   14.83
   5 -15   7  148.67    8.13
   5 -15   8  128.89    7.56
   5 -15   9  143.66    8.01
   5 -15  10   12.13    2.43
   5 -15  11   44.61    4.47
   5 -15  12    2.62    1.34
   5 -15  13    2.99    1.44
   5 -15  14   30.96    3.93
   5 -15  15   -0.39    1.14
   5 -15  16   -0.49    1.45
   5 -15  17   -0.59    1.48
   5 -15  18   -2.28    1.90
   5 -14 -12   13.00    3.35
  -5  14  12   16.57    4.08
   5 -14 -11    4.87    2.25
  -5  14  11    5.27    2.35
  -5  14  10   64.31    7.18
   5 -14 -10   53.20    6.24
   5 -14  -9   11.50    3.03
  -5  14   9    9.03    2.66
  -5  14   8   82.99    7.86
   5 -14  -8   96.69    8.33
   5 -14  -7    2.14    1.15
   5 -14  -6   27.36    4.31
   5 -14  -5   31.22    4.54
   5 -14  -4   14.09    3.12
   5 -14  -3   10.14    2.69
   5 -14  -2    4.58    2.27
  -5  14   2   -0.81    1.00
   5 -14  -1   23.11    3.57
  -5  14   1   19.39    2.72
   5 -14   0  117.49    8.14
  -5  14   0  115.62    6.72
   5 -14   1  140.74    8.77
  -5  14  -1  151.37    7.67
   5 -14   2  129.18    8.27
  -5  14  -2  120.41    6.79
   5 -14   3  227.44   11.04
  -5  14  -3  220.48    9.56
   5 -14   4  497.85   16.80
   5 -14   5  422.77   15.19
   5 -14   5  420.82   14.36
   5 -14   6   12.79    2.27
   5 -14   6   15.09    2.99
   5 -14   7  707.20   19.27
   5 -14   8   58.02    4.94
   5 -14   9  256.53   10.82
   5 -14  10   42.10    4.41
   5 -14  11  147.02    8.15
   5 -14  12   -0.77    1.27
   5 -14  13    0.15    1.04
   5 -14  14   -0.11    1.16
   5 -14  15   15.12    2.90
   5 -14  16    0.19    1.00
   5 -14  17   27.36    4.12
   5 -14  18    0.70    1.20
   5 -13 -13   37.73    5.52
  -5  13  13   46.65    6.33
   5 -13 -12   15.78    3.64
  -5  13  12    8.29    2.58
   5 -13 -11    0.28    1.52
  -5  13  11   -1.27    1.63
   5 -13 -10   30.56    4.73
  -5  13  10   37.59    5.30
   5 -13  -9   63.05    6.72
  -5  13   9   63.50    6.76
   5 -13  -8   29.16    4.61
  -5  13   8   23.36    4.01
   5 -13  -7   77.24    7.35
   5 -13  -6   13.18    2.80
   5 -13  -5  200.45   11.41
   5 -13  -4   32.44    4.62
   5 -13  -3  125.84    8.62
   5 -13  -2    0.00    1.12
  -5  13   2    0.09    0.69
   5 -13  -2    2.69    1.31
   5 -13  -1   17.46    3.18
  -5  13   1   18.49    2.58
   5 -13   0    1.10    1.26
  -5  13   0    0.32    0.79
   5 -13   1   66.83    5.87
  -5  13  -1   60.42    4.44
   5 -13   2    1.90    1.27
  -5  13  -2   -0.38    0.56
   5 -13   3  179.59    9.45
  -5  13  -3  183.62    8.20
   5 -13   4    2.44    1.47
   5 -13   5  205.83    9.95
   5 -13   5  199.64    9.21
   5 -13   6  175.07    9.01
   5 -13   6  161.07    8.19
   5 -13   7  199.99    9.19
   5 -13   8 1019.40   24.14
   5 -13   9   23.36    3.27
   5 -13  10  719.67   19.50
   5 -13  11    9.43    2.92
   5 -13  12  230.15   10.38
   5 -13  13    1.57    1.40
   5 -13  14   50.49    4.95
   5 -13  15    9.52    2.36
   5 -13  16    1.72    1.26
   5 -13  17   -0.62    1.14
   5 -13  18    0.88    1.32
  -5  12  15   37.77    5.84
   5 -12 -14   47.77    6.41
  -5  12  14   62.36    7.17
   5 -12 -13   24.09    4.44
  -5  12  13   20.49    4.02
   5 -12 -12   87.95    8.39
  -5  12  12   94.51    8.39
   5 -12 -11   20.54    4.08
  -5  12  11   26.52    4.40
   5 -12 -10   24.06    4.36
  -5  12  10   25.17    4.19
   5 -12  -9   40.60    5.42
  -5  12   9   34.41    4.81
   5 -12  -8    4.11    1.40
  -5  12   8    2.87    1.71
   5 -12  -7   95.23    8.07
   5 -12  -6   76.62    7.05
   5 -12  -5  124.18    8.82
   5 -12  -4   68.39    6.39
   5 -12  -4   68.87    4.78
   5 -12  -3   39.02    4.77
   5 -12  -3   36.36    3.73
   5 -12  -2  158.46    9.43
  -5  12   2  144.15    7.06
   5 -12  -1    8.51    2.35
  -5  12   1   11.03    1.95
   5 -12   0   63.98    5.69
  -5  12   0   70.92    4.54
   5 -12   1    6.76    1.92
  -5  12  -1    4.58    1.24
   5 -12   2    4.17    1.52
  -5  12  -2    5.95    1.31
   5 -12   3   58.73    5.20
   5 -12   4   10.69    2.34
   5 -12   5   16.76    2.51
   5 -12   5   18.84    2.90
   5 -12   6   35.75    3.88
   5 -12   6   28.06    3.16
   5 -12   6   33.40    3.62
   5 -12   7    1.19    1.04
   5 -12   8   56.41    4.71
   5 -12   9  522.28   15.76
   5 -12  10    2.83    1.70
   5 -12  11 1089.61   25.56
   5 -12  12   23.71    3.50
   5 -12  13  376.76   13.87
   5 -12  14   15.73    2.98
   5 -12  15  149.44    8.99
   5 -12  16    3.68    1.96
   5 -12  17   34.40    4.58
   5 -12  18    5.33    1.97
  -5  11  16   62.81    7.28
   5 -11 -15    4.43    2.00
  -5  11  15    8.27    2.84
   5 -11 -14   69.85    7.73
  -5  11  14   71.15    7.35
   5 -11 -13   66.06    7.34
  -5  11  13   62.41    6.78
   5 -11 -12   13.59    3.43
  -5  11  12   12.37    3.08
   5 -11 -11  128.83   10.04
  -5  11  11  128.87    9.30
   5 -11 -10    5.17    2.02
  -5  11  10    5.68    2.27
   5 -11  -9  154.10   10.65
  -5  11   9  171.06   10.34
   5 -11  -8  170.98   10.95
  -5  11   8  164.64   10.03
   5 -11  -7    2.43    1.87
   5 -11  -6  172.66   10.58
   5 -11  -6  158.19    6.33
   5 -11  -5   11.10    2.87
   5 -11  -5    9.41    2.01
   5 -11  -4  170.43   10.13
   5 -11  -4  167.69    7.85
   5 -11  -3   80.31    6.67
   5 -11  -3   83.85    5.64
   5 -11  -2  130.17    8.67
  -5  11   2  114.66    5.91
   5 -11  -1   43.29    4.72
  -5  11   1   46.47    3.48
   5 -11   0   94.60    6.79
  -5  11   0   96.66    4.98
   5 -11   1   45.89    4.67
  -5  11  -1   49.92    3.54
   5 -11   2   18.20    2.93
  -5  11  -2   19.30    2.25
   5 -11   3   92.27    6.36
   5 -11   4   48.82    4.46
   5 -11   5    1.77    1.06
   5 -11   5    2.17    1.09
   5 -11   5    3.05    1.19
   5 -11   6  151.68    7.88
   5 -11   6  140.36    6.92
   5 -11   6  152.61    7.56
   5 -11   7    9.46    2.02
   5 -11   7    5.05    1.30
   5 -11   7    7.60    1.76
   5 -11   8   92.10    5.84
   5 -11   9   10.28    2.17
   5 -11  10   43.65    4.33
   5 -11  11    9.91    2.24
   5 -11  12  343.52   12.81
   5 -11  13   11.63    2.71
   5 -11  14  519.84   17.12
   5 -11  15   36.92    4.53
   5 -11  16  294.23   13.25
   5 -11  17   19.85    3.84
   5 -11  18  133.89    9.45
  -5  10  17   18.40    4.03
   5 -10 -16   12.25    3.26
  -5  10  16   17.76    3.81
   5 -10 -15   43.55    6.13
  -5  10  15   51.53    6.30
   5 -10 -14   -0.41    1.26
  -5  10  14   -0.87    1.30
   5 -10 -13   27.95    4.85
  -5  10  13   36.01    5.02
   5 -10 -12    8.46    2.57
  -5  10  12    9.04    2.49
   5 -10 -11   20.08    3.71
  -5  10  11   21.21    3.59
   5 -10 -10  218.53   12.99
  -5  10  10  225.53   11.70
   5 -10  -9   21.01    3.89
  -5  10   9   23.99    3.66
   5 -10  -8  116.12    8.84
  -5  10   8  128.91    8.40
   5 -10  -7   56.20    6.02
   5 -10  -7   58.25    3.62
   5 -10  -6   64.20    6.56
   5 -10  -6   71.53    4.59
   5 -10  -5  354.37   14.98
   5 -10  -5  331.15   11.04
   5 -10  -4    8.25    2.44
   5 -10  -4    7.84    1.93
   5 -10  -3  349.90   14.39
   5 -10  -3  360.59   12.64
   5 -10  -2   21.68    3.31
  -5  10   2   21.14    2.22
   5 -10  -1  405.99   15.15
  -5  10   1  449.73   11.37
   5 -10   0   28.48    3.72
  -5  10   0   27.47    2.36
   5 -10   1  159.23    8.60
  -5  10  -1  159.64    6.21
   5 -10   2   20.06    2.91
   5 -10   3   42.95    4.20
   5 -10   4   48.86    4.42
   5 -10   4   48.95    4.17
   5 -10   4   50.23    3.54
   5 -10   5   32.53    3.57
   5 -10   5   36.62    3.14
   5 -10   5   31.44    3.40
   5 -10   6    8.39    1.82
   5 -10   6    9.10    1.61
   5 -10   6    9.78    1.97
   5 -10   7  143.63    7.37
   5 -10   7  151.36    7.20
   5 -10   7  147.86    7.32
   5 -10   8    2.65    1.22
   5 -10   9  141.27    7.31
   5 -10  10    9.33    2.13
   5 -10  11   23.82    3.22
   5 -10  12  191.40    9.23
   5 -10  13  291.96   11.98
   5 -10  14   16.03    2.90
   5 -10  15  220.35   10.99
   5 -10  16    9.23    2.90
   5 -10  17  206.68   11.54
   5 -10  18    2.51    2.29
  -5   9  19    6.63    2.59
  -5   9  18   -0.21    1.28
   5  -9 -17   53.30    7.12
  -5   9  17   42.23    5.72
   5  -9 -16    6.09    2.58
  -5   9  16    9.79    2.67
   5  -9 -15   54.40    6.91
  -5   9  15   57.82    6.31
   5  -9 -14   50.93    6.62
  -5   9  14   41.75    5.26
   5  -9 -13   77.66    8.09
  -5   9  13   94.74    7.63
   5  -9 -12   91.00    8.55
  -5   9  12   90.28    7.31
   5  -9 -11   12.77    3.28
  -5   9  11   14.11    2.84
   5  -9 -10   36.43    5.20
  -5   9  10   42.80    4.77
   5  -9  -9   71.04    7.13
  -5   9   9   72.00    6.11
   5  -9  -9   67.28    3.59
  -5   9   8   -0.42    0.95
   5  -9  -8   -0.05    1.13
   5  -9  -8    0.66    0.56
   5  -9  -7  171.15   10.47
   5  -9  -7  166.98    6.67
   5  -9  -6   27.78    3.95
   5  -9  -6   25.53    2.79
   5  -9  -5   75.15    6.59
   5  -9  -5   71.66    4.99
   5  -9  -4  122.38    8.27
   5  -9  -4  109.85    6.55
   5  -9  -3    7.52    2.09
   5  -9  -3    5.20    1.42
   5  -9  -2  696.94   20.56
  -5   9   2  693.55   14.72
   5  -9  -1   50.13    4.82
  -5   9   1   56.30    3.18
   5  -9   0  652.71   18.97
  -5   9   0  643.80   13.46
   5  -9   1    4.65    1.41
   5  -9   2  812.50   20.96
   5  -9   3   26.84    3.32
   5  -9   4  416.46   13.58
   5  -9   4  398.25   10.72
   5  -9   4  442.98   13.03
   5  -9   5   74.56    5.11
   5  -9   5   74.08    4.32
   5  -9   5   74.07    4.95
   5  -9   6   17.08    2.44
   5  -9   6   20.38    2.43
   5  -9   6   15.10    2.22
   5  -9   7    1.68    1.22
   5  -9   7    2.72    1.19
   5  -9   7    2.67    1.42
   5  -9   8    5.70    1.59
   5  -9   9    3.30    1.16
   5  -9  10   60.16    4.77
   5  -9  11   14.83    2.47
   5  -9  12   54.49    4.87
   5  -9  13   21.48    3.18
   5  -9  14    6.37    2.05
   5  -9  15  183.54   10.10
   5  -9  16   32.96    4.51
   5  -9  17   31.12    4.41
   5  -9  18   89.42    7.99
  -5   8  19    2.53    1.75
   5  -8 -18    4.24    1.94
  -5   8  18    2.76    1.47
   5  -8 -17   -1.45    2.40
  -5   8  17    2.63    1.81
   5  -8 -16   70.26    7.90
  -5   8  16   74.97    7.07
   5  -8 -15   22.46    4.38
  -5   8  15   30.20    4.34
   5  -8 -14  133.64   10.70
  -5   8  14  144.78    9.40
   5  -8 -13   63.75    7.18
  -5   8  13   73.05    6.43
   5  -8 -12   55.99    6.53
  -5   8  12   72.27    6.27
   5  -8 -11   10.24    2.93
  -5   8  11    9.83    2.31
   5  -8 -10   55.36    6.22
   5  -8 -10   65.09    3.53
  -5   8  10   59.47    5.40
   5  -8  -9   25.02    4.13
   5  -8  -9   18.43    2.01
  -5   8   9   16.63    2.95
   5  -8  -8   19.31    4.12
  -5   8   8   25.38    3.51
   5  -8  -8   20.68    2.35
   5  -8  -7   16.46    3.15
   5  -8  -7   15.45    2.13
   5  -8  -6  303.81   13.91
   5  -8  -6  315.15   10.71
   5  -8  -5  155.96    9.43
   5  -8  -5  155.30    7.62
   5  -8  -4  152.87    9.12
   5  -8  -4  162.89    8.09
   5  -8  -3  204.53   10.40
   5  -8  -3  214.24    9.57
   5  -8  -2   98.19    6.89
  -5   8   2   98.89    3.94
   5  -8  -1  578.36   17.66
  -5   8   1  594.09   11.67
   5  -8   0    5.00    1.45
   5  -8   1 1076.96   25.09
   5  -8   2   -0.11    0.73
   5  -8   3  691.98   18.15
   5  -8   3  620.54   13.31
   5  -8   4   53.70    4.31
   5  -8   4   53.14    3.30
   5  -8   4   49.19    3.93
   5  -8   5  377.97   12.02
   5  -8   5  386.55   10.82
   5  -8   5  391.01   11.86
   5  -8   6   12.36    2.06
   5  -8   6   11.86    1.98
   5  -8   7  186.51    7.84
   5  -8   7  170.07    7.75
   5  -8   8   -0.95    0.79
   5  -8   9    2.04    0.94
   5  -8  10    0.49    0.78
   5  -8  11    2.54    1.30
   5  -8  12  163.65    8.55
   5  -8  13   70.19    5.67
   5  -8  14    6.16    1.95
   5  -8  15    6.18    2.37
   5  -8  16  134.11    8.94
   5  -8  17   12.30    3.13
   5  -8  18  102.91    8.59
   5  -7 -19   24.80    5.17
  -5   7  19   26.88    4.49
   5  -7 -18   -0.19    2.32
  -5   7  18    3.93    1.99
   5  -7 -17   -0.57    2.08
  -5   7  17    3.00    2.06
   5  -7 -16   52.71    6.89
  -5   7  16   55.90    5.84
   5  -7 -15    3.78    1.84
  -5   7  15    5.31    1.87
   5  -7 -14  119.09   10.00
  -5   7  14  119.20    8.17
   5  -7 -13   15.94    3.66
  -5   7  13   15.81    2.74
  -5   7  13   14.96    2.90
   5  -7 -12   14.33    3.15
  -5   7  12   18.20    2.74
  -5   7  12   19.97    3.18
   5  -7 -11  186.73   11.78
  -5   7  11  173.69    9.20
   5  -7 -10  128.94    9.68
   5  -7 -10  116.48    5.05
  -5   7  10  111.68    7.28
  -5   7  10  100.27    4.01
  -5   7   9  127.21    7.59
   5  -7  -9  129.13    9.61
   5  -7  -9  129.28    5.79
  -5   7   9  120.32    5.03
   5  -7  -8    3.26    1.77
   5  -7  -8    2.87    0.90
   5  -7  -7    5.87    1.91
   5  -7  -7   10.79    1.85
   5  -7  -6  189.27   10.59
   5  -7  -6  191.35    8.43
   5  -7  -5   86.82    6.88
   5  -7  -5   82.29    5.57
   5  -7  -4   10.63    2.46
   5  -7  -4   11.95    2.21
   5  -7  -4   12.66    1.94
   5  -7  -3  160.04    8.90
   5  -7  -3  162.50    8.30
   5  -7  -3  160.80    7.38
   5  -7  -2  230.15    9.16
   5  -7  -2  242.48   10.88
   5  -7  -2  236.69   10.21
  -5   7   2  240.95    5.74
   5  -7  -1    5.11    1.63
  -5   7   1    3.73    0.60
   5  -7   0  404.75   13.82
   5  -7   1    0.84    0.75
  -5   7  -1    2.76    1.40
  -5   7  -1    1.46    1.00
  -5   7  -2 1005.64   25.79
   5  -7   2 1025.20   23.02
   5  -7   2  967.83   17.01
  -5   7  -2  951.85   25.16
  -5   7  -3   18.72    3.09
   5  -7   3   20.03    2.71
   5  -7   3   14.67    2.13
   5  -7   3   14.39    1.51
  -5   7  -4 1132.50   27.25
   5  -7   4 1174.74   24.46
   5  -7   4 1167.59   23.79
  -5   7  -5   22.74    3.22
   5  -7   5   22.47    2.68
   5  -7   5   26.05    2.78
  -5   7  -6  434.60   14.80
   5  -7   6  419.44   12.23
   5  -7   6  428.47   12.61
   5  -7   7    1.00    0.81
   5  -7   7   -0.29    0.59
   5  -7   8  470.34   13.79
   5  -7   9   18.48    2.57
   5  -7  10   51.73    4.39
   5  -7  11  241.33   10.19
   5  -7  12    2.72    1.48
   5  -7  13    7.53    1.95
   5  -7  14   -0.25    1.10
   5  -7  15    6.90    2.17
   5  -7  16    0.94    1.16
   5  -7  17   32.60    4.79
   5  -7  18    9.09    2.69
   5  -6 -20   19.39    4.50
   5  -6 -19    8.66    3.03
  -5   6  19   11.34    2.80
   5  -6 -18   56.41    7.45
  -5   6  18   56.35    6.00
   5  -6 -17   33.96    5.73
  -5   6  17   40.74    4.94
   5  -6 -16   34.36    5.62
  -5   6  16   37.41    4.63
   5  -6 -15  130.66   10.51
  -5   6  15  136.75    8.52
  -5   6  15  132.36    8.42
   5  -6 -14   25.66    4.58
  -5   6  14   20.15    3.37
  -5   6  14   19.81    3.25
   5  -6 -13  121.69    9.73
  -5   6  13  125.80    7.79
  -5   6  13  122.04    7.69
   5  -6 -12   46.27    5.94
  -5   6  12   38.97    4.35
  -5   6  12   38.38    4.32
   5  -6 -11  153.66   10.59
  -5   6  11  125.29    7.47
  -5   6  11  136.53    7.93
   5  -6 -11  135.64    5.67
   5  -6 -10  122.27    9.33
  -5   6  10  117.71    7.17
   5  -6 -10  117.04    5.49
  -5   6  10  126.49    7.25
   5  -6  -9   72.80    6.91
  -5   6   9   67.92    5.21
  -5   6   9   59.23    4.96
   5  -6  -9   60.36    3.98
  -5   6   9   63.45    3.18
   5  -6  -8  304.46   14.15
   5  -6  -8  292.69    9.92
  -5   6   8  312.53    8.81
   5  -6  -7   12.31    2.91
   5  -6  -7   15.37    2.31
   5  -6  -7   14.17    2.09
  -5   6   7   11.76    1.66
   5  -6  -6   98.71    7.45
   5  -6  -6  107.60    6.19
   5  -6  -6  106.29    5.56
  -5   6   6   97.81    5.20
   5  -6  -5   31.46    4.05
   5  -6  -5   34.55    3.65
   5  -6  -5   33.35    3.05
  -5   6   5   30.59    2.94
   5  -6  -4   27.71    3.67
   5  -6  -4   29.06    3.32
  -5   6   4   24.92    2.84
   5  -6  -4   25.07    2.68
   5  -6  -3  104.26    6.96
   5  -6  -3  100.69    5.50
   5  -6  -3   94.43    6.26
  -5   6   3   99.87    5.93
  -5   6   2  166.57    9.17
   5  -6  -2  181.76    9.08
   5  -6  -2  186.85    8.97
  -5   6   2  174.88    8.25
  -5   6   1   71.75    5.85
   5  -6  -1   75.99    5.62
  -5   6   1   63.13    4.99
  -5   6   0   29.61    3.68
   5  -6   0   36.86    3.78
  -5   6   0   33.24    3.70
   5  -6   1  227.14    9.53
  -5   6  -1  214.29   10.31
   5  -6   1  211.10    4.77
  -5   6  -1  219.73   10.17
   5  -6   2    1.97    0.82
  -5   6  -2    3.37    1.24
  -5   6  -2    3.21    1.31
   5  -6   2    2.13    0.54
  -5   6  -3  172.24    8.66
   5  -6   3  152.96    7.17
   5  -6   3  157.98    6.81
  -5   6  -4    7.57    1.82
   5  -6   4    8.42    1.68
   5  -6   4    8.81    1.59
  -5   6  -5  324.90   12.28
   5  -6   5  343.77   10.65
   5  -6   5  343.40   10.70
   5  -6   6    3.03    0.99
  -5   6  -6    1.32    1.14
   5  -6   6    1.99    0.96
  -5   6  -7  867.27   22.03
   5  -6   7  895.37   18.94
   5  -6   7  861.68   19.85
  -5   6  -8    0.41    0.83
   5  -6   8   -0.06    0.97
  -5   6  -9  442.44   14.74
   5  -6   9  464.78   13.88
  -5   6 -10    7.99    1.92
   5  -6  10    8.19    1.98
   5  -6  11  131.38    7.35
   5  -6  12   62.68    5.27
   5  -6  13   44.72    4.67
   5  -6  14  138.77    8.59
   5  -6  15   16.99    3.07
   5  -6  16   48.44    5.72
   5  -6  17   -0.62    1.54
   5  -6  18    1.83    1.65
   5  -5 -21    4.67    2.42
   5  -5 -20   14.54    3.98
   5  -5 -19   13.08    3.74
  -5   5  19   17.28    3.20
   5  -5 -18    8.46    3.27
  -5   5  18    8.72    2.20
   5  -5 -17  104.77    9.67
  -5   5  17  104.91    7.69
   5  -5 -16   45.47    6.33
  -5   5  16   39.20    4.75
  -5   5  16   43.71    4.79
   5  -5 -15  235.26   14.13
  -5   5  15  225.33   11.47
  -5   5  15  240.09   11.00
   5  -5 -14  100.09    8.87
  -5   5  14   95.26    7.13
  -5   5  14   94.54    6.54
   5  -5 -13  118.89    9.51
  -5   5  13  117.54    7.74
  -5   5  13  115.77    7.13
   5  -5 -12  140.23   10.10
  -5   5  12  137.50    7.59
  -5   5  12  147.07    8.52
   5  -5 -11    3.36    1.90
  -5   5  11    5.12    1.68
  -5   5  11    4.34    1.74
   5  -5 -11    3.41    1.23
  -5   5  10  302.64   11.18
   5  -5 -10  286.73   14.20
   5  -5 -10  303.55    9.57
  -5   5  10  312.87   12.33
   5  -5  -9   39.61    4.95
   5  -5  -9   36.12    3.17
  -5   5   9   36.70    4.01
   5  -5  -9   38.49    3.38
   5  -5  -8  350.47   15.08
  -5   5   8  345.60   12.70
   5  -5  -8  346.48   11.10
   5  -5  -8  364.28   11.00
   5  -5  -7  171.49   10.05
   5  -5  -7  182.38    8.04
  -5   5   7  174.36    6.49
   5  -5  -7  174.12    6.98
   5  -5  -6   91.62    7.04
   5  -5  -6   92.27    5.87
  -5   5   6   98.01    5.08
   5  -5  -6  101.67    5.11
   5  -5  -5  115.00    7.71
   5  -5  -5  112.49    6.66
  -5   5   5  111.38    5.79
   5  -5  -5  116.14    5.52
  -5   5   4   18.84    2.98
   5  -5  -4   18.64    2.94
   5  -5  -4   18.18    2.68
   5  -5  -4   15.99    2.03
  -5   5   4   21.85    2.59
  -5   5   3   10.65    2.21
   5  -5  -3   11.12    2.34
   5  -5  -3    9.05    1.96
  -5   5   3    8.46    1.75
   5  -5  -2  162.00    8.31
  -5   5   2  141.93    8.35
   5  -5  -2  164.94    8.49
  -5   5   2  150.75    7.57
   5  -5  -1    7.47    2.07
  -5   5   1    8.08    2.01
  -5   5   1   10.54    2.12
  -5   5   0   43.47    4.46
   5  -5   0   55.46    4.54
  -5   5   0   50.47    4.64
   5  -5   1    2.37    0.91
  -5   5  -1    4.28    1.47
  -5   5  -1    2.00    1.03
   5  -5   1    3.70    0.55
  -5   5  -2  112.54    7.32
   5  -5   2  103.86    5.81
  -5   5  -2  109.30    6.74
   5  -5   2  102.24    5.21
  -5   5  -3    1.52    1.04
   5  -5   3    1.45    0.73
  -5   5  -3    2.04    1.02
   5  -5   3    1.08    0.54
  -5   5  -4   86.42    5.79
   5  -5   4   88.76    4.96
   5  -5   4   88.76    4.91
  -5   5  -5    9.58    1.94
   5  -5   5   10.73    1.71
   5  -5   5    9.49    1.63
  -5   5  -6  327.33   11.68
   5  -5   6  325.64    9.55
   5  -5   6  321.32   10.33
  -5   5  -7   13.62    2.29
   5  -5   7   15.73    2.18
  -5   5  -8  411.97   13.22
   5  -5   8  395.35   12.33
  -5   5  -9   12.82    2.25
   5  -5   9   12.30    2.10
  -5   5 -10  342.46   12.22
   5  -5  10  359.58   12.34
  -5   5 -11    9.47    2.37
   5  -5  11   35.46    4.07
   5  -5  12  275.49   11.52
   5  -5  13   24.08    3.45
   5  -5  14   54.85    5.44
   5  -5  15   70.07    6.51
   5  -5  16   23.74    4.16
   5  -5  17   62.06    6.70
   5  -5  18    5.78    2.32
   5  -4 -22   31.76    6.13
   5  -4 -21   11.60    3.82
   5  -4 -20    8.41    3.12
   5  -4 -19   12.99    3.58
  -5   4  19   15.54    2.98
   5  -4 -18   -0.94    1.23
  -5   4  18   -0.70    0.95
   5  -4 -17    8.86    2.83
  -5   4  17    4.28    1.86
  -5   4  17    6.56    1.89
   5  -4 -16  135.56   10.73
  -5   4  16  132.32    9.01
  -5   4  16  130.33    7.81
   5  -4 -15   17.50    3.64
  -5   4  15   22.00    3.57
  -5   4  15   16.97    2.73
   5  -4 -14  158.21   11.06
  -5   4  14  143.03    9.04
  -5   4  14  128.47    7.39
   5  -4 -13   79.19    7.67
  -5   4  13   91.26    6.92
  -5   4  13   93.40    6.00
   5  -4 -12   69.45    6.97
  -5   4  12   69.49    5.92
  -5   4  12   67.90    5.06
   5  -4 -11  291.87   14.36
  -5   4  11  299.15   12.44
  -5   4  11  293.42   10.71
   5  -4 -11  294.07   10.07
  -5   4  10   23.18    2.79
   5  -4 -10   21.05    3.83
  -5   4  10   19.86    3.09
   5  -4 -10   20.22    2.40
   5  -4 -10   20.04    2.39
   5  -4  -9  551.20   19.75
   5  -4  -9  559.09   14.70
  -5   4   9  567.89   17.49
   5  -4  -9  599.18   14.35
   5  -4  -8    3.17    1.90
   5  -4  -8    3.62    1.22
  -5   4   8    4.59    1.52
   5  -4  -8    4.71    1.15
   5  -4  -7  352.16   14.52
   5  -4  -7  354.93   11.95
  -5   4   7  348.03   12.89
   5  -4  -7  359.48   10.06
   5  -4  -6   45.61    4.87
  -5   4   6   42.34    4.17
   5  -4  -6   42.90    4.00
   5  -4  -6   47.64    3.27
   5  -4  -5  520.46   17.06
   5  -4  -5  504.91   15.35
  -5   4   5  483.20   13.54
   5  -4  -5  513.35   12.53
   5  -4  -4  138.02    8.06
  -5   4   4  147.73    8.31
   5  -4  -4  141.62    7.76
  -5   4   4  139.35    6.87
  -5   4   3  187.13    9.31
   5  -4  -3  172.05    8.72
   5  -4  -3  171.95    8.84
  -5   4   3  171.79    7.96
  -5   4   2    8.26    2.03
   5  -4  -2    7.21    1.72
   5  -4  -2    7.90    2.19
  -5   4   2    6.95    1.74
  -5   4   1   37.96    3.99
   5  -4  -1   28.05    3.58
  -5   4   1   35.30    3.83
  -5   4   0   24.53    3.26
  -5   4   0   25.55    3.16
   5  -4   0   19.85    2.66
  -5   4  -1  255.32   11.14
  -5   4  -1  274.74   10.63
   5  -4   1  244.54    9.44
  -5   4  -2   17.37    2.96
  -5   4  -2   20.39    2.82
   5  -4   2   15.51    2.24
   5  -4   2   19.90    2.21
  -5   4  -3    3.10    1.31
   5  -4   3    2.85    0.93
  -5   4  -3    5.86    1.46
   5  -4   3    4.45    1.23
   5  -4   4    0.11    0.40
  -5   4  -4   -0.17    0.53
   5  -4   4    0.29    0.64
  -5   4  -5    3.60    1.29
   5  -4   5    4.76    1.13
   5  -4   5    5.76    1.31
  -5   4  -6    3.15    1.17
   5  -4   6    3.65    0.93
   5  -4   6    4.13    1.08
  -5   4  -7   16.19    2.37
   5  -4   7   20.92    2.49
  -5   4  -8   39.58    3.66
   5  -4   8   41.80    3.68
  -5   4  -9  235.24    9.33
   5  -4   9  251.17    9.74
  -5   4 -10   72.27    4.99
   5  -4  10   75.58    5.39
  -5   4 -11  345.01   11.77
   5  -4  11  362.60   12.94
   5  -4  12    8.07    2.38
   5  -4  13  215.69   10.68
   5  -4  14   77.91    6.57
   5  -4  15  126.45    8.92
   5  -4  16   36.38    5.05
   5  -4  17   13.55    3.24
   5  -4  18   33.76    5.31
   5  -3 -22    7.64    3.20
   5  -3 -21   67.68    8.39
   5  -3 -20   11.55    3.56
   5  -3 -19   70.43    8.24
  -5   3  19   82.33    7.69
   5  -3 -18   20.50    4.44
  -5   3  18   18.17    3.54
  -5   3  18   18.84    3.06
   5  -3 -17    6.46    2.49
  -5   3  17    5.72    2.13
  -5   3  17    7.56    1.89
  -5   3  16    4.64    1.86
  -5   3  16    1.84    1.09
   5  -3 -15   52.20    6.55
  -5   3  15   45.54    5.72
  -5   3  15   30.73    3.64
   5  -3 -14    1.66    1.60
  -5   3  14    2.62    1.10
  -5   3  14    2.28    0.97
   5  -3 -13  114.90    9.09
  -5   3  13  121.72    8.01
  -5   3  13  116.86    6.36
   5  -3 -12   30.75    4.63
  -5   3  12   25.65    3.64
  -5   3  12   29.31    3.11
   5  -3 -12   30.97    2.99
  -5   3  11   84.38    5.15
   5  -3 -11   74.77    6.99
  -5   3  11   85.34    6.53
   5  -3 -11   80.16    4.65
   5  -3 -10  142.89    9.53
  -5   3  10  144.76    8.51
   5  -3 -10  148.81    6.14
   5  -3  -9  144.40    9.39
   5  -3  -9  150.24    7.03
  -5   3   9  148.82    8.40
   5  -3  -9  152.61    6.01
   5  -3  -8  497.29   17.88
  -5   3   8  513.24   16.44
   5  -3  -8  515.17   14.52
   5  -3  -8  505.51   12.16
   5  -3  -7    1.21    0.98
   5  -3  -7    0.78    0.99
  -5   3   7    1.17    1.26
   5  -3  -7    1.15    0.54
   5  -3  -6  586.26   18.53
  -5   3   6  559.72   17.03
   5  -3  -6  572.91   16.29
   5  -3  -6  552.58   12.71
   5  -3  -5    2.48    1.35
  -5   3   5    2.96    1.40
   5  -3  -5    1.61    1.02
   5  -3  -5    3.21    0.88
   5  -3  -4 1104.07   26.21
   5  -3  -4 1113.81   25.72
  -5   3   4 1107.04   17.00
   5  -3  -4 1113.68   22.83
   5  -3  -3   16.79    2.83
   5  -3  -3   17.58    2.89
   5  -3  -3   14.45    2.14
  -5   3   2  857.39   21.64
   5  -3  -2  858.93   21.33
   5  -3  -2  806.88   21.44
  -5   3   1   22.89    2.99
   5  -3  -1   25.41    3.05
   5  -3  -1   17.77    2.75
   5  -3  -1   23.59    2.95
   5  -3   0    2.94    1.15
   5  -3   0    5.57    1.44
  -5   3   0    4.42    1.26
   5  -3   1   12.10    2.29
  -5   3  -1   13.16    2.07
   5  -3   1   10.98    1.84
   5  -3   1   12.73    1.68
   5  -3   2   64.52    5.49
   5  -3   2   55.60    4.01
  -5   3  -2   58.19    4.48
   5  -3   2   60.17    3.63
   5  -3   3    8.40    2.14
  -5   3  -3    8.06    1.64
   5  -3   3    6.83    1.35
   5  -3   3    6.34    1.29
   5  -3   4  249.34   11.85
   5  -3   4  238.05    7.97
  -5   3  -4  245.01    9.39
   5  -3   4  256.61    8.41
   5  -3   5    8.71    2.31
   5  -3   5    7.27    1.23
  -5   3  -5    8.07    1.54
   5  -3   5    7.71    1.39
   5  -3   6   13.55    2.78
  -5   3  -6   16.69    2.21
   5  -3   6   14.60    1.62
   5  -3   6   14.52    1.93
   5  -3   7   13.60    3.01
  -5   3  -7   18.23    2.35
   5  -3   7   20.49    2.54
   5  -3   8    3.19    1.83
  -5   3  -8    5.39    1.29
   5  -3   8    2.93    1.18
  -5   3  -9  101.10    5.58
   5  -3   9  109.07    6.19
  -5   3 -10  131.10    6.34
   5  -3  10  151.19    7.76
   5  -3  11   94.92    6.38
   5  -3  12  134.78    8.01
   5  -3  13   17.60    3.46
   5  -3  14  192.42   10.72
   5  -3  15   11.41    2.63
   5  -3  16   73.69    7.29
   5  -3  17    7.21    2.71
   5  -3  18   21.95    4.35
   5  -2 -23   -1.35    2.40
   5  -2 -22    9.52    3.32
   5  -2 -21   14.33    3.97
   5  -2 -20   70.61    8.34
  -5   2  20   61.65    7.03
   5  -2 -19   33.85    5.69
  -5   2  19   32.49    4.96
   5  -2 -18  115.02   10.15
  -5   2  18  135.02    9.81
  -5   2  18  108.96    6.96
   5  -2 -17   26.50    4.77
  -5   2  17   20.31    3.76
  -5   2  17   20.18    2.90
   5  -2 -16   27.73    4.79
  -5   2  16   38.43    4.98
  -5   2  16   29.18    3.34
   5  -2 -15   59.78    6.85
  -5   2  15   62.36    6.25
   5  -2 -14   27.02    5.67
  -5   2  14   36.53    4.80
  -5   2  14   25.85    2.96
   5  -2 -13   49.97    5.92
  -5   2  13   57.54    5.62
  -5   2  13   53.01    4.01
   5  -2 -12  136.86    9.67
  -5   2  12  144.10    6.54
  -5   2  12  155.72    9.19
   5  -2 -11    4.04    1.94
  -5   2  11    7.14    2.00
   5  -2 -11    3.50    0.91
   5  -2 -10   -0.24    0.98
  -5   2  10    0.03    0.98
   5  -2 -10    0.85    0.54
   5  -2  -9   85.08    7.10
  -5   2   9   95.88    6.77
   5  -2  -9  101.65    4.36
   5  -2  -8   -0.21    1.06
   5  -2  -8    1.61    1.15
  -5   2   8    0.60    1.16
   5  -2  -8    1.85    0.73
   5  -2  -7  224.44   11.01
   5  -2  -7  224.98    9.33
  -5   2   7  226.70   10.36
   5  -2  -7  212.82    7.24
   5  -2  -7  230.90    6.73
   5  -2  -6   43.68    4.58
  -5   2   6   51.05    4.74
  -5   2   6   40.71    2.74
   5  -2  -6   46.52    4.22
   5  -2  -6   47.46    2.83
   5  -2  -6   47.57    3.48
   5  -2  -5  977.53   24.43
  -5   2   5  980.34   24.04
  -5   2   5  972.21   16.76
   5  -2  -5  966.23   23.35
   5  -2  -5  969.71   20.77
   5  -2  -4   11.27    2.40
   5  -2  -4    9.06    2.08
   5  -2  -4    8.84    1.75
   5  -2  -3 2109.83   39.98
   5  -2  -3 2042.09   37.77
   5  -2  -2    6.85    2.03
   5  -2  -2    1.73    0.98
   5  -2  -2    4.09    0.59
   5  -2  -2    5.32    1.75
   5  -2  -1 2324.94   42.62
   5  -2  -1 2460.27   45.92
   5  -2  -1 2462.97   45.06
  -5   2   0   30.54    3.21
   5  -2   0   38.27    3.51
   5  -2   0   33.42    3.94
   5  -2   0   31.96    3.83
   5  -2   1  235.45   10.94
  -5   2  -1  245.40    9.23
   5  -2   1  239.43    8.67
   5  -2   1  229.31    7.37
   5  -2   2   17.25    2.86
   5  -2   2   16.72    2.06
  -5   2  -2   21.93    2.56
   5  -2   2   15.30    1.80
   5  -2   3    0.44    0.87
   5  -2   3    0.30    0.55
  -5   2  -3    2.52    0.99
   5  -2   3    2.02    0.84
   5  -2   4   54.73    5.52
  -5   2  -4   50.80    3.79
   5  -2   4   50.98    3.21
   5  -2   4   54.77    3.56
   5  -2   5   30.54    4.24
  -5   2  -5   26.82    2.66
   5  -2   5   26.26    2.05
   5  -2   5   26.16    2.63
   5  -2   6    2.78    1.48
  -5   2  -6    3.06    1.14
   5  -2   6    4.94    1.25
   5  -2   7  214.30   11.91
  -5   2  -7  205.78    7.56
   5  -2   7  211.90    8.18
   5  -2   8   26.62    4.61
  -5   2  -8   38.65    3.22
   5  -2   8   41.11    3.81
   5  -2   9    3.71    2.50
  -5   2  -9    0.63    0.51
   5  -2   9    4.61    1.70
   5  -2  10   53.33    6.29
  -5   2 -10   42.74    3.09
   5  -2  10   41.79    4.12
   5  -2  11   30.41    5.13
   5  -2  11   22.72    3.35
   5  -2  12   71.65    5.97
   5  -2  13  138.87    8.75
   5  -2  14   99.83    7.73
   5  -2  15   57.05    6.13
   5  -2  16   13.05    3.15
   5  -2  17   20.90    4.10
   5  -1 -23   19.31    4.72
   5  -1 -22    8.04    2.78
   5  -1 -21    0.99    1.95
  -5   1  21    4.14    2.00
   5  -1 -20   33.44    5.71
  -5   1  20   33.26    5.26
   5  -1 -19   32.88    5.51
  -5   1  19   38.43    5.32
   5  -1 -18   47.89    6.46
  -5   1  18   57.65    6.44
   5  -1 -17  121.06   10.06
  -5   1  17  131.46    9.62
  -5   1  17  120.82    6.59
  -5   1  16   75.58    7.17
  -5   1  16   42.81    3.89
  -5   1  15  112.79    8.51
  -5   1  15   88.03    5.27
  -5   1  14    2.96    1.48
  -5   1  14    4.16    1.28
  -5   1  13    3.32    1.50
  -5   1  13    2.55    0.70
  -5   1  12   18.67    3.18
  -5   1  11   34.17    4.26
   5  -1 -11   28.52    2.24
  -5   1  10   29.52    3.81
   5  -1 -10   21.81    1.84
   5  -1 -10   29.45    1.96
  -5   1   9    4.41    1.60
   5  -1  -9    3.95    0.90
   5  -1  -9    3.14    0.68
  -5   1   8   16.86    2.78
   5  -1  -8   15.83    1.87
   5  -1  -8   18.87    1.58
   5  -1  -7    9.47    2.18
   5  -1  -7   10.79    2.01
  -5   1   7    9.98    1.48
  -5   1   7    8.46    2.09
   5  -1  -7   10.07    1.19
   5  -1  -7    7.38    1.36
   5  -1  -6    3.14    1.39
   5  -1  -6    5.17    1.54
  -5   1   6    0.27    1.03
  -5   1   6    3.30    0.85
   5  -1  -6    1.20    0.75
   5  -1  -5    2.04    1.64
  -5   1   5    0.83    0.49
  -5   1   5    0.86    1.02
   5  -1  -5    2.73    1.45
   5  -1  -5    1.33    1.03
   5  -1  -4  539.42   16.88
  -5   1   4  538.88   17.05
   5  -1  -4  573.52   17.51
   5  -1  -4  568.45   16.02
   5  -1  -3    2.95    1.25
   5  -1  -3    2.77    1.40
   5  -1  -3    1.96    0.45
   5  -1  -3    2.42    1.21
   5  -1  -2 1082.75   23.84
   5  -1  -2 1063.23   25.68
   5  -1  -2 1049.09   17.87
   5  -1  -2 1086.15   25.29
   5  -1  -1   33.68    3.31
   5  -1  -1   34.14    3.88
   5  -1  -1   30.10    3.70
   5  -1   0  503.31   13.73
   5  -1   0  526.20   17.13
   5  -1   0  499.81   16.50
   5  -1   0  493.27   11.51
   5  -1   1    2.27    1.78
   5  -1   1    0.64    0.76
   5  -1   1    0.65    0.46
   5  -1   2  827.12   23.38
   5  -1   2  817.33   17.24
   5  -1   2  782.93   16.35
   5  -1   3   95.22    7.38
   5  -1   3   80.82    4.08
   5  -1   3   85.65    4.28
   5  -1   4  570.27   19.86
  -5   1  -4  606.86   13.95
   5  -1   4  590.03   12.31
  -5   1  -4  590.19   14.87
   5  -1   4  613.54   13.94
   5  -1   5  129.52    9.10
   5  -1   5  134.13    4.38
  -5   1  -5  137.80    5.51
   5  -1   5  141.33    6.02
  -5   1  -5  122.67    6.24
   5  -1   6    6.21    2.07
  -5   1  -6    5.32    1.09
   5  -1   6    8.45    1.64
   5  -1   7   71.32    6.94
  -5   1  -7   82.75    3.81
   5  -1   7   79.79    4.88
   5  -1   8   13.32    3.06
  -5   1  -8   12.70    1.46
   5  -1   8   16.90    2.52
   5  -1   9    4.16    2.22
  -5   1  -9    0.67    0.49
   5  -1   9    2.23    1.27
   5  -1  10   27.92    4.75
   5  -1  10   23.35    3.10
   5  -1  11    8.16    3.39
   5  -1  11    6.59    2.04
   5  -1  12   16.76    3.56
   5  -1  12   23.27    3.48
   5  -1  13  108.74    9.56
   5  -1  13  105.56    7.72
   5  -1  14   43.44    5.14
   5  -1  15   55.78    6.29
   5  -1  16   28.01    4.63
   5  -1  17   21.75    4.29
   5   0 -23   11.36    3.75
   5   0 -22   38.58    6.34
  -5   0  22   43.63    6.41
   5   0 -21   12.46    3.61
  -5   0  21   23.71    4.54
  -5   0  20   23.68    4.60
  -5   0  19   86.45    8.20
  -5   0  18    5.61    3.29
  -5   0  17  271.94   14.11
  -5   0  17  244.78    9.08
  -5   0  16   22.04    3.94
  -5   0  16   17.60    2.23
  -5   0  15  242.15   12.61
  -5   0  15  223.36    7.93
  -5   0  14   54.69    3.59
  -5   0  14   60.50    6.05
  -5   0  13   18.96    3.35
  -5   0  12  181.35   10.09
   5   0 -12  171.63    4.67
  -5   0  11   62.26    5.68
   5   0 -11   56.51    3.01
  -5   0  10    3.63    1.29
   5   0 -10    3.90    0.72
   5   0 -10    5.36    1.06
  -5   0   9  161.08    7.06
  -5   0   9  149.68    8.71
   5   0  -9  155.62    4.35
  -5   0   8    8.01    1.93
  -5   0   8    8.77    1.53
   5   0  -8    6.68    0.82
  -5   0   7   18.72    2.02
  -5   0   7   19.71    3.08
   5   0  -7   18.05    1.42
  -5   0   6    2.31    0.82
   5   0  -6    0.78    1.30
  -5   0   6    2.92    1.73
  -5   0   5    9.99    2.39
   5   0  -5    5.58    1.57
   5   0  -4    8.57    1.93
   5   0  -4    6.82    1.81
  -5   0   4    8.85    2.24
   5   0  -4    7.83    1.14
   5   0  -3  282.22   10.84
   5   0  -3  287.38   11.62
   5   0  -3  293.21    7.53
   5   0  -2   10.06    1.98
   5   0  -2    8.37    1.19
   5   0  -2   11.73    2.35
   5   0  -1  380.25   12.10
   5   0  -1  393.35   14.18
   5   0  -1  382.77    9.31
   5   0   0   77.74    4.71
   5   0   0   86.49    6.68
   5   0   0   84.95    6.29
   5   0   0   81.18    3.75
   5   0   1 1273.49   24.21
   5   0   1 1321.40   31.24
   5   0   1 1249.97   29.58
   5   0   1 1218.44   22.15
   5   0   2   39.01    4.98
   5   0   2   31.65    2.59
   5   0   2   38.27    2.71
   5   0   3 1607.42   37.96
   5   0   3 1673.25   27.79
   5   0   3 1698.22   28.70
   5   0   4   46.81    5.46
   5   0   4   38.68    2.17
   5   0   4   44.20    3.10
  -5   0  -4   43.15    3.40
   5   0   5  106.87    8.53
  -5   0  -5  103.92    5.61
   5   0   5  111.01    5.37
   5   0   6  152.54   10.47
   5   0   6  173.39    7.10
   5   0   7   58.53    6.43
   5   0   7   50.65    3.93
   5   0   8  127.99    9.86
   5   0   8  142.88    7.06
   5   0   9    7.11    3.04
   5   0   9    7.27    1.88
   5   0  10   77.29    7.88
   5   0  10   70.19    5.55
   5   0  11   -0.38    1.25
   5   0  11   -0.44    1.03
   5   0  12    1.83    1.96
   5   0  12    0.25    1.32
   5   0  13    3.01    1.89
   5   0  13   -1.86    1.81
   5   0  14   16.76    4.25
   5   0  14   14.99    3.19
   5   0  15   28.97    4.79
   5   0  16   46.53    6.45
   5   0  16   52.93    6.39
   5   0  17   18.82    4.02
  -5  -1  23   26.12    5.26
  -5  -1  22   11.40    3.28
  -5  -1  21   45.90    6.41
  -5  -1  20   60.31    7.21
  -5  -1  19   53.15    6.55
  -5  -1  18  103.38    8.87
  -5  -1  17   11.42    3.34
  -5  -1  16  255.50    8.10
  -5  -1  16  267.94   13.75
  -5  -1  15    4.69    1.09
  -5  -1  15    5.54    2.22
   5   1 -14  279.30    5.97
  -5  -1  14  371.20   15.32
  -5  -1  13   52.72    5.55
  -5  -1  12  112.45    8.08
  -5  -1  11   32.33    4.22
  -5  -1  10   28.77    3.20
  -5  -1  10   39.78    4.62
   5   1  -9    0.25    0.18
  -5  -1   9   -0.12    1.15
  -5  -1   9   -0.28    0.61
   5   1  -8   81.42    2.48
  -5  -1   8   87.89    6.60
  -5  -1   8   95.30    5.15
  -5  -1   7    6.99    2.39
  -5  -1   7    7.17    1.47
  -5  -1   6  107.99    7.23
  -5  -1   6  105.28    4.95
   5   1  -5    9.54    2.01
  -5  -1   5    8.63    2.05
   5   1  -5    9.11    1.41
   5   1  -4   89.42    4.25
  -5  -1   4   96.05    6.79
   5   1  -4   94.43    6.29
   5   1  -3    6.10    1.13
   5   1  -3    8.53    1.92
  -5  -1   3    6.75    1.78
   5   1  -2   29.36    3.09
   5   1  -2   31.58    3.71
   5   1  -2   31.00    2.12
   5   1  -1   66.78    4.55
   5   1  -1   77.52    5.97
   5   1  -1   68.67    3.26
   5   1   0  370.63   11.01
   5   1   0  389.53   14.19
   5   1   0  369.95    8.79
   5   1   1  150.27    6.14
   5   1   1  145.41    8.50
   5   1   1  146.00    5.05
   5   1   2  896.20   17.52
   5   1   2  931.21   24.41
   5   1   2  872.16   16.99
   5   1   3   38.09    5.30
   5   1   3   31.00    2.06
  -5  -1  -3   32.41    2.81
   5   1   3   30.57    2.39
   5   1   4  492.26   19.35
   5   1   4  455.73    8.46
   5   1   4  471.67   11.80
  -5  -1  -4  482.04   12.73
   5   1   5   35.90    5.52
  -5  -1  -5   39.23    3.71
   5   1   5   39.04    3.20
   5   1   6  286.86   14.72
   5   1   6  264.58    9.17
   5   1   7   85.06    8.09
   5   1   7   79.64    5.03
   5   1   8   67.11    7.24
   5   1   8   73.21    5.10
   5   1   9  208.61   13.15
   5   1   9  206.11    9.39
   5   1  10   34.79    5.44
   5   1  10   35.74    4.01
   5   1  11  155.91   11.80
   5   1  11  150.15    8.78
   5   1  12   31.67    5.37
   5   1  12   31.91    4.22
   5   1  13   66.25    7.85
   5   1  13   65.30    6.39
   5   1  14   25.34    4.60
   5   1  14   26.50    4.99
   5   1  14   28.17    4.36
   5   1  15    1.63    1.88
   5   1  15    2.84    1.88
   5   1  15    2.58    2.16
   5   1  16   11.40    3.07
  -5  -2  24    0.04    1.85
  -5  -2  23   17.61    4.18
  -5  -2  22   -0.36    1.45
  -5  -2  21   20.39    4.46
  -5  -2  20   63.28    7.57
  -5  -2  19    1.51    1.44
  -5  -2  18  151.89   10.88
  -5  -2  17  144.56   10.36
  -5  -2  16   55.33    6.21
  -5  -2  15  289.84   14.18
  -5  -2  14    6.69    2.44
  -5  -2  13  388.10   16.02
  -5  -2  12   16.39    3.26
  -5  -2  11  363.20   14.92
   5   2 -11  373.48   11.67
  -5  -2  10    2.51    1.60
  -5  -2  10    2.68    1.30
   5   2 -10    1.62    0.87
  -5  -2   9  199.29   10.58
  -5  -2   9  174.96    7.92
  -5  -2   8    2.66    1.05
  -5  -2   8    2.59    1.32
  -5  -2   7    1.84    0.94
  -5  -2   7    4.93    1.24
  -5  -2   6   35.03    4.21
   5   2  -6   26.80    2.61
  -5  -2   5    7.71    2.04
   5   2  -5   11.31    1.66
  -5  -2   4  264.61   11.84
   5   2  -4  278.59    8.53
   5   2  -4  270.55   10.91
   5   2  -3    1.04    0.63
  -5  -2   3    1.11    0.89
   5   2  -3    1.46    1.24
   5   2  -2   69.01    5.52
   5   2  -2   58.17    2.74
   5   2  -1   87.64    5.11
   5   2  -1   98.63    6.68
   5   2  -1   89.52    3.46
   5   2   0   20.35    2.35
   5   2   0   16.14    2.74
   5   2   0   17.27    1.52
   5   2   1   93.02    4.59
   5   2   1   91.61    6.67
   5   2   1   85.84    3.65
   5   2   2  104.54    4.33
   5   2   2   98.03    4.12
   5   2   3  101.04    3.85
   5   2   3  109.65    4.83
  -5  -2  -3  118.00    5.61
   5   2   4  163.87    6.25
  -5  -2  -4  172.88    6.85
   5   2   5  161.13   10.96
   5   2   5  165.01    6.73
  -5  -2  -5  160.46    7.01
   5   2   6   66.34    7.20
   5   2   6   66.86    4.46
   5   2   7  153.80   11.20
   5   2   7  148.10    7.13
   5   2   8    2.85    1.61
   5   2   8    5.58    1.71
   5   2   9  127.12   10.53
   5   2   9  121.19    7.23
   5   2  10  104.24    9.62
   5   2  10  109.82    7.27
   5   2  11   85.63    8.93
   5   2  11   75.16    6.38
   5   2  12  131.41    9.93
   5   2  12  135.89   11.39
   5   2  12  134.84    9.03
   5   2  13   33.53    5.70
   5   2  13   29.68    4.94
   5   2  13   39.18    5.13
   5   2  14   48.37    7.00
   5   2  14   42.75    6.04
   5   2  14   52.90    6.27
   5   2  15   35.47    5.96
   5   2  16    8.00    3.21
  -5  -3  24   -3.95    2.93
  -5  -3  23   11.16    3.58
  -5  -3  22    7.50    3.22
  -5  -3  21   11.80    3.68
  -5  -3  20    6.34    2.82
  -5  -3  19   30.59    5.23
  -5  -3  18    8.66    2.79
  -5  -3  17   41.00    5.54
  -5  -3  16   13.10    3.09
  -5  -3  15   78.89    7.31
  -5  -3  14  221.31   12.22
  -5  -3  13   47.93    5.51
  -5  -3  12  665.95   21.76
  -5  -3  11    3.63    2.04
   5   3 -11    2.46    1.23
  -5  -3  10  891.90   21.68
  -5  -3  10  942.23   25.63
   5   3 -10  880.41   18.91
  -5  -3   9   26.63    4.06
  -5  -3   9   25.23    2.97
   5   3  -9   29.47    2.71
  -5  -3   8  751.41   22.36
  -5  -3   8  808.24   19.13
   5   3  -7   11.21    0.94
  -5  -3   7    9.88    2.48
   5   3  -6   94.21    3.53
  -5  -3   6   91.22    6.88
   5   3  -6   91.80    5.17
   5   3  -5   20.67    2.32
  -5  -3   5   25.19    3.68
   5   3  -4   10.22    1.65
  -5  -3   4    8.81    2.16
  -5  -3   3   56.53    5.29
   5   3  -3   52.33    3.81
   5   3  -3   48.25    2.21
   5   3  -2    2.01    0.47
   5   3  -1   52.09    4.83
   5   3  -1   49.46    2.30
   5   3   0   21.94    2.34
   5   3   0   19.97    1.51
   5   3   1    1.20    0.65
   5   3   1    1.29    0.60
  -5  -3  -2    5.68    1.48
   5   3   2    3.07    0.84
   5   3   2    3.96    1.07
   5   3   3  203.94    6.83
  -5  -3  -3  233.80    7.64
  -5  -3  -4   67.19    4.32
   5   3   4   46.85    3.64
   5   3   5  200.61    7.70
   5   3   6  102.88    9.15
   5   3   6  105.91    5.89
   5   3   7  124.56   10.29
   5   3   7  117.53    6.59
   5   3   8   53.75    6.97
   5   3   8   58.13    4.87
   5   3   9    9.00    2.78
   5   3   9   10.53    3.40
   5   3   9   10.54    2.39
   5   3  10   79.07    8.62
   5   3  10   92.37    7.89
   5   3  10   84.61    6.58
   5   3  11   32.62    4.86
   5   3  11   36.96    6.01
   5   3  11   28.46    3.99
   5   3  12   34.56    5.21
   5   3  12   36.61    6.05
   5   3  12   35.25    4.62
   5   3  13   49.99    6.35
   5   3  13   68.86    8.44
   5   3  14   41.53    6.75
   5   3  15   73.72    8.91
  -5  -4  24   30.05    5.89
  -5  -4  23    0.68    1.58
  -5  -4  22   33.41    5.86
  -5  -4  21    4.69    2.90
  -5  -4  20   78.37    8.94
  -5  -4  19   11.37    3.61
  -5  -4  18    1.82    1.77
  -5  -4  17   25.68    4.50
  -5  -4  16   40.73    5.60
  -5  -4  15    1.62    1.73
  -5  -4  14   74.91    7.13
  -5  -4  13   61.80    6.32
  -5  -4  12    1.27    1.54
   5   4 -12    1.82    1.04
  -5  -4  11  303.76   13.91
   5   4 -11  285.74    8.99
  -5  -4  10   14.46    3.55
   5   4 -10   12.69    2.04
  -5  -4   9  735.33   22.37
   5   4  -9  742.76   15.38
  -5  -4   8    5.45    1.66
  -5  -4   8    8.57    2.62
   5   4  -8    8.44    1.34
   5   4  -7  625.16   11.31
   5   4  -7  646.22   16.60
  -5  -4   7  648.27   20.30
   5   4  -7  647.35   12.70
   5   4  -6    1.16    0.63
   5   4  -6    0.63    0.76
  -5  -4   6    1.31    1.69
   5   4  -5  810.70   15.98
  -5  -4   5  799.66   23.06
   5   4  -5  845.88   19.18
   5   4  -4   63.13    3.66
  -5  -4   4   65.41    6.00
   5   4  -4   53.52    4.08
   5   4  -4   54.48    1.99
   5   4  -3  104.41    5.13
  -5  -4   3   93.31    7.07
   5   4  -3  108.21    5.97
   5   4  -3   95.31    2.72
   5   4  -2  225.21    8.36
   5   4  -2  227.24    4.91
   5   4  -1    0.10    0.35
   5   4   0   20.61    1.63
   5   4   1   57.45    3.43
   5   4   1   62.15    3.07
   5   4   2   58.53    3.04
  -5  -4  -2   60.57    3.63
   5   4   2   59.79    3.40
   5   4   3    2.06    1.16
   5   4   3    3.81    1.18
  -5  -4  -3    6.78    1.51
   5   4   4   48.63    4.76
   5   4   4   48.40    3.56
  -5  -4  -4   52.26    3.62
   5   4   5   30.17    3.97
   5   4   5   31.72    3.06
   5   4   6   41.67    4.74
   5   4   6   46.75    4.03
   5   4   7    0.27    1.28
   5   4   7    1.29    1.82
   5   4   7    1.39    0.84
   5   4   8  194.75   13.64
   5   4   8  190.71   10.97
   5   4   8  185.03    9.14
   5   4   9  102.83    9.96
   5   4   9  107.28    8.39
   5   4   9  102.01    7.06
   5   4  10   34.93    4.93
   5   4  10   44.76    6.66
   5   4  10   38.33    4.50
   5   4  11   45.72    5.80
   5   4  11   38.95    6.39
   5   4  12   14.22    3.36
   5   4  12   10.32    3.75
   5   4  13   13.09    3.50
   5   4  13   17.09    4.62
   5   4  14    9.13    3.87
   5   4  15   11.85    3.96
  -5  -5  23   25.12    5.60
  -5  -5  22   27.88    5.42
  -5  -5  21   24.14    5.06
  -5  -5  20    5.91    2.71
  -5  -5  19   17.44    4.04
  -5  -5  18    4.82    2.31
  -5  -5  17   31.29    4.97
  -5  -5  16   14.07    3.36
  -5  -5  15   12.04    2.90
  -5  -5  14    8.68    2.55
  -5  -5  13    5.08    2.07
  -5  -5  12    5.17    2.46
   5   5 -12    2.64    0.81
  -5  -5  11   32.36    4.48
   5   5 -11   33.32    2.59
  -5  -5  10  210.76   11.73
   5   5 -10  217.02    6.67
  -5  -5   9   62.16    6.10
   5   5  -9   59.38    2.97
   5   5  -8  510.94    9.22
   5   5  -8  496.98   15.14
  -5  -5   8  494.90   18.04
   5   5  -8  512.50   10.16
   5   5  -7   39.27    2.19
  -5  -5   7   42.70    5.07
   5   5  -7   34.23    3.42
   5   5  -7   40.08    1.93
   5   5  -6  829.55   15.83
  -5  -5   6  823.91   23.93
   5   5  -6  818.67   19.99
   5   5  -6  857.06   13.35
   5   5  -5   22.86    2.15
   5   5  -5   22.95    2.81
  -5  -5   5   26.94    4.01
   5   5  -4  925.21   18.86
  -5  -5   4  906.11   25.05
   5   5  -4  905.89   21.52
   5   5  -3  171.99    7.03
  -5  -5   3  180.57   10.11
   5   5  -3  171.29    8.20
   5   5  -2  309.54   10.29
   5   5  -2  299.77    5.93
   5   5  -1  440.95   13.21
   5   5  -1  433.61    8.66
   5   5   0   50.46    4.31
   5   5   0   45.71    2.54
   5   5   1   95.42    6.22
   5   5   1   96.89    4.51
   5   5   1   91.82    4.09
   5   5   2    2.19    1.45
   5   5   2    2.39    0.66
   5   5   2    3.09    0.54
  -5  -5  -2    1.37    0.68
   5   5   2    0.30    0.49
   5   5   3   56.71    5.17
  -5  -5  -3   73.42    4.05
   5   5   3   67.77    4.07
   5   5   4    2.32    1.49
  -5  -5  -4    3.22    1.01
   5   5   4    1.96    0.84
   5   5   5   15.09    3.02
   5   5   5   11.48    2.01
   5   5   6   14.27    3.02
   5   5   6    9.59    2.09
   5   5   7  175.04   10.41
   5   5   8   73.47    8.54
   5   5   8   61.12    6.29
   5   5   9   75.25    8.83
   5   5   9   68.12    6.84
   5   5  10   53.49    7.57
   5   5  10   53.48    6.22
   5   5  11   90.26    9.97
   5   5  11   92.59    8.42
   5   5  12   20.98    4.97
   5   5  12   15.29    3.67
   5   5  13   39.64    6.72
   5   5  14    4.46    2.42
  -5  -6  23   66.88    8.62
  -5  -6  22    6.78    3.06
  -5  -6  21   47.35    7.12
  -5  -6  20   -0.13    1.90
  -5  -6  19    4.73    2.48
  -5  -6  18   45.35    6.19
  -5  -6  17   70.66    7.66
  -5  -6  16   95.38    8.69
  -5  -6  15   37.37    5.37
  -5  -6  14    1.93    1.30
  -5  -6  13  114.75    8.99
   5   6 -13  108.03    4.93
  -5  -6  12    3.92    1.75
   5   6 -12    6.65    1.12
  -5  -6  11   12.97    3.04
   5   6 -11   11.91    1.40
  -5  -6  10   33.69    4.60
   5   6 -10   35.16    2.12
  -5  -6   9    1.59    1.66
   5   6  -9    0.51    0.29
   5   6  -8   40.81    2.15
  -5  -6   8   37.45    4.78
   5   6  -8   36.05    3.76
   5   6  -8   36.45    1.60
   5   6  -7  158.52    5.15
  -5  -6   7  158.47    9.81
   5   6  -7  152.31    7.91
   5   6  -6  119.81    4.85
  -5  -6   6  118.39    8.36
   5   6  -6  117.45    6.83
   5   6  -5  537.78   12.80
  -5  -6   5  530.99   18.66
   5   6  -5  541.75   16.04
   5   6  -4   12.18    1.82
   5   6  -4    9.22    2.08
  -5  -6   4    9.24    2.63
   5   6  -3  396.13   11.76
  -5  -6   3  385.43   15.39
   5   6  -3  395.24   13.75
   5   6  -2   38.97    3.57
   5   6  -1  305.21   11.05
   5   6   0  248.45   10.21
   5   6   1   92.25    6.21
   5   6   2  295.98   12.06
   5   6   2  296.18    7.03
   5   6   2  283.23    6.10
  -5  -6  -2  299.62    8.22
   5   6   3   52.35    5.07
  -5  -6  -3   59.87    3.67
   5   6   4  296.36   12.93
   5   6   5    2.37    1.50
   5   6   6   13.37    2.81
   5   6   7  114.90    8.54
   5   6   8   16.90    3.55
   5   6   9   54.21    7.79
   5   6   9   44.71    5.57
   5   6  10   23.55    5.32
   5   6  10   22.39    4.20
   5   6  11   18.11    4.78
   5   6  11   18.89    3.93
   5   6  12   58.71    8.44
   5   6  13   16.20    4.82
  -5  -7  22   79.48    9.35
  -5  -7  21    3.50    2.76
  -5  -7  20   78.56    8.73
  -5  -7  19    0.58    2.33
  -5  -7  18  158.09   11.86
  -5  -7  17    2.75    2.38
  -5  -7  16   58.46    6.98
  -5  -7  15   39.05    5.77
  -5  -7  14   20.17    4.69
  -5  -7  13    3.17    2.10
   5   7 -13    3.90    0.90
  -5  -7  12   41.82    5.68
   5   7 -12   43.75    2.66
  -5  -7  11    2.31    1.24
   5   7 -11    4.43    0.73
  -5  -7  10   96.07    8.00
   5   7 -10   93.58    3.15
   5   7  -9   27.73    3.58
  -5  -7   9   34.66    4.79
   5   7  -9   28.59    1.36
   5   7  -8    1.31    0.43
  -5  -7   8    4.72    2.05
   5   7  -8    4.39    1.47
   5   7  -7   90.30    4.11
  -5  -7   7   90.64    7.52
   5   7  -7   91.14    6.27
   5   7  -6   39.75    2.93
  -5  -7   6   40.01    4.92
   5   7  -6   44.47    4.39
   5   7  -5   78.53    4.44
  -5  -7   5   87.93    7.25
   5   7  -5   82.61    5.98
   5   7  -4  123.68    5.94
  -5  -7   4  112.69    8.23
   5   7  -4  122.33    7.48
   5   7  -3   64.44    4.51
  -5  -7   3   59.53    5.86
   5   7  -3   66.75    5.58
   5   7  -2  430.72   13.35
   5   7  -1   30.35    3.55
   5   7   0  319.94   12.10
   5   7   1   41.75    4.39
  -5  -7  -1   43.84    2.54
   5   7   2   86.80    6.59
   5   7   3  158.92    9.16
   5   7   4   38.87    4.68
   5   7   5   37.50    4.75
   5   7   6   40.39    5.00
   5   7   7  111.04    8.58
   5   7   8   10.93    2.94
   5   7   9    4.84    2.94
   5   7   9    2.71    2.22
   5   7  10   49.55    6.35
   5   7  10   49.78    7.72
   5   7  11   -1.06    1.90
   5   7  12   26.34    5.82
  -5  -8  22   22.74    5.04
  -5  -8  21   64.28    8.30
  -5  -8  20   10.21    3.29
  -5  -8  19  180.86   13.39
  -5  -8  18   10.98    3.75
  -5  -8  17  184.85   12.98
  -5  -8  16   -0.91    1.73
  -5  -8  15  215.97   13.62
  -5  -8  14    6.17    3.02
  -5  -8  13  171.60   12.07
  -5  -8  12   13.68    3.25
   5   8 -12   14.79    1.40
  -5  -8  11   37.06    5.18
   5   8 -11   39.02    2.02
  -5  -8  10    8.16    2.60
   5   8 -10    9.46    2.34
   5   8 -10    9.69    0.85
   5   8  -9   60.64    3.19
   5   8  -9   71.28    5.90
  -5  -8   9   59.45    6.44
  -5  -8   8   12.16    2.75
   5   8  -8    8.67    2.17
   5   8  -8   13.43    1.56
  -5  -8   7    0.36    1.32
   5   8  -7    6.97    1.76
   5   8  -7    5.74    1.15
   5   8  -6   28.52    3.67
  -5  -8   6   23.78    3.88
   5   8  -6   28.78    2.62
   5   8  -5   -0.90    1.01
  -5  -8   5    0.10    1.26
   5   8  -5    0.81    0.73
  -5  -8   4  117.70    8.50
   5   8  -4  114.68    7.62
   5   8  -4  107.52    5.81
   5   8  -3   78.16    6.87
   5   8  -3   65.75    4.78
   5   8  -2   52.29    4.44
   5   8  -1  172.39    8.68
   5   8   0   86.84    6.23
   5   8   1   74.21    5.99
   5   8   2    3.09    1.40
   5   8   3   81.08    6.69
   5   8   4   24.73    3.79
   5   8   5   44.83    5.25
   5   8   6  135.24    9.55
   5   8   7   30.14    4.55
   5   8   8  101.13    8.63
   5   8   9   46.85    7.64
   5   8   9   33.39    5.15
   5   8  10   46.08    7.65
   5   8  11   49.81    8.05
  -5  -9  21    6.61    2.90
  -5  -9  20   53.49    7.53
  -5  -9  19   21.75    4.83
  -5  -9  18  190.36   13.74
  -5  -9  17   23.30    5.13
  -5  -9  16  283.68   16.40
  -5  -9  15    6.88    3.55
  -5  -9  14  255.95   15.34
  -5  -9  13    5.35    2.45
  -5  -9  12  198.17   12.65
  -5  -9  11    2.32    1.56
  -5  -9  10   25.71    4.59
   5   9 -10   26.67    3.86
   5   9  -9   45.73    3.06
  -5  -9   9   40.91    5.44
   5   9  -9   45.48    4.92
  -5  -9   8    6.43    2.03
   5   9  -8   10.69    2.51
   5   9  -8    6.74    1.26
  -5  -9   7   -0.86    1.86
   5   9  -7    1.25    0.95
   5   9  -7    0.24    0.42
   5   9  -6   20.63    3.21
  -5  -9   6   20.03    3.76
   5   9  -6   26.44    2.67
   5   9  -5    2.95    1.20
  -5  -9   5    2.02    1.33
   5   9  -5    3.87    1.09
   5   9  -4    5.26    2.10
  -5  -9   4    4.55    2.05
   5   9  -4    3.24    1.25
   5   9  -3   27.25    3.93
  -5  -9   3   30.17    4.27
   5   9  -3   26.56    3.12
   5   9  -2   31.79    3.58
   5   9  -1  142.73    8.01
   5   9   0   12.36    2.52
   5   9   1  150.20    8.83
   5   9   2   88.53    6.95
   5   9   3   82.04    6.97
   5   9   4    3.44    1.68
   5   9   5    3.69    1.91
   5   9   6   11.00    2.81
   5   9   7   19.58    3.87
   5   9   8   20.02    4.00
   5   9  10   15.51    4.74
  -5 -10  21    2.03    2.67
  -5 -10  20   -0.14    1.49
  -5 -10  19   12.22    3.65
  -5 -10  18    8.26    3.34
  -5 -10  17  126.90   11.19
  -5 -10  16    9.78    3.43
  -5 -10  15  307.25   17.08
  -5 -10  14    3.45    2.77
  -5 -10  13  285.36   15.98
  -5 -10  12   15.31    4.21
   5  10 -11  254.92   12.66
  -5 -10  11  266.45   15.04
  -5 -10  10   23.31    4.62
   5  10 -10   25.15    3.87
   5  10  -9  126.97    5.67
   5  10  -9  131.98    8.77
  -5 -10   9  107.94    9.22
  -5 -10   8  150.79   10.69
   5  10  -8  156.26    9.53
   5  10  -8  156.76    6.67
   5  10  -7   16.52    3.09
  -5 -10   7   16.83    3.60
   5  10  -7   20.79    2.43
  -5 -10   6   68.49    7.00
   5  10  -6   68.05    6.27
   5  10  -6   66.34    4.57
   5  10  -5   33.31    4.46
  -5 -10   5   34.78    5.04
   5  10  -5   31.68    3.27
   5  10  -4    9.91    2.44
  -5 -10   4    5.46    1.60
   5  10  -4    7.70    1.71
   5  10  -3   -0.23    1.13
  -5 -10   3    1.33    2.26
   5  10  -3    0.01    0.68
   5  10  -2    2.69    1.14
   5  10  -1    3.18    1.09
   5  10   0   87.76    6.66
   5  10   1   41.86    4.85
   5  10   2  117.48    8.31
   5  10   3    6.84    2.11
   5  10   4   47.45    5.54
   5  10   5   20.58    3.81
   5  10   6   17.18    3.80
   5  10   7    5.98    2.34
  -5 -11  20   34.42    6.41
  -5 -11  19   14.83    4.28
  -5 -11  18    7.05    3.26
  -5 -11  17    4.62    2.70
  -5 -11  16   40.22    6.56
  -5 -11  15    7.11    3.09
  -5 -11  14  135.80   11.38
  -5 -11  13    3.88    2.98
  -5 -11  12  244.84   15.13
  -5 -11  11    2.41    2.80
   5  11 -11    0.69    1.53
   5  11 -10  269.14   13.48
  -5 -11  10  275.59   15.54
  -5 -11   9    2.32    2.71
   5  11  -9    2.76    1.97
   5  11  -9    3.33    1.27
  -5 -11   8  124.48    9.99
   5  11  -8  122.35    8.79
   5  11  -8  137.95    6.62
  -5 -11   7   90.72    8.29
   5  11  -7   72.22    6.77
   5  11  -7   76.73    5.09
  -5 -11   6   98.13    8.49
   5  11  -6   96.21    7.79
   5  11  -6   92.11    5.74
  -5 -11   5  170.20   11.02
   5  11  -5  175.47   10.81
   5  11  -5  172.53    8.28
  -5 -11   4   74.16    7.08
   5  11  -4   80.17    7.25
   5  11  -4   71.84    5.43
   5  11  -3   68.11    6.78
   5  11  -3   59.32    5.07
   5  11  -2   17.05    2.85
   5  11  -1    6.98    1.91
   5  11   0    3.08    1.31
   5  11   1    1.78    1.38
   5  11   2   11.60    2.73
   5  11   3   38.67    5.11
   5  11   4   30.62    4.58
   5  11   5   65.33    6.91
  -5 -12  19    5.22    2.99
  -5 -12  18    2.28    2.42
  -5 -12  17   21.75    5.14
  -5 -12  16    6.14    3.34
  -5 -12  15   -0.81    1.60
  -5 -12  14   13.85    3.99
  -5 -12  13   37.11    6.17
  -5 -12  12   71.59    8.32
   5  12 -11  281.46   14.52
  -5 -12  11  292.01   16.77
  -5 -12  10    1.91    1.93
   5  12 -10    0.65    1.31
   5  12  -9  106.55    5.99
  -5 -12   9   93.40    9.07
   5  12  -9  106.84    8.52
  -5 -12   8    2.62    1.76
   5  12  -8    1.22    1.63
   5  12  -8    4.22    1.29
  -5 -12   7  194.07   12.61
   5  12  -7  170.37   11.05
   5  12  -7  162.18    7.98
   5  12  -6   29.41    4.46
  -5 -12   6   38.33    5.41
   5  12  -6   35.91    3.79
  -5 -12   5   80.44    7.65
   5  12  -5   97.78    8.28
   5  12  -5   87.98    6.10
  -5 -12   4   86.52    7.79
   5  12  -4  106.47    8.76
   5  12  -4  101.03    6.79
   5  12  -3   72.91    7.38
   5  12  -3   74.49    5.96
   5  12  -2  109.81    9.18
   5  12  -2   99.30    7.24
   5  12  -1   16.62    3.04
   5  12   0  113.86    8.21
   5  12   1   18.63    3.51
   5  12   2    5.52    2.09
   5  12   3   21.92    3.98
   5  12   4    8.24    2.49
  -5 -13  18    4.43    3.39
  -5 -13  17    4.10    2.58
  -5 -13  16   27.54    5.59
  -5 -13  15    1.86    2.10
  -5 -13  14    7.92    3.11
  -5 -13  13   64.91    8.29
  -5 -13  12   28.06    5.54
   5  13 -12   22.70    4.18
   5  13 -11   63.44    6.90
  -5 -13  11   59.94    7.66
  -5 -13  10   10.07    3.25
   5  13 -10    9.78    2.58
  -5 -13   9   86.15    8.87
   5  13  -9   93.45    8.28
  -5 -13   8   95.03    9.40
   5  13  -8   79.70    8.03
   5  13  -8   73.65    5.52
   5  13  -7   12.98    3.40
   5  13  -7   13.26    2.75
  -5 -13   6  160.43   11.31
   5  13  -6  170.71   11.34
   5  13  -6  155.72    8.42
   5  13  -5    3.40    1.55
  -5 -13   5    3.80    1.74
   5  13  -5    7.33    1.96
  -5 -13   4   44.56    5.65
   5  13  -4   52.63    6.44
   5  13  -4   56.82    5.30
   5  13  -3   50.31    6.37
   5  13  -3   42.61    4.71
   5  13  -2   13.44    3.32
   5  13  -2   13.66    2.79
   5  13  -1   93.53    7.47
   5  13   0   81.22    7.14
   5  13   1   79.12    7.28
   5  13   2   31.21    4.79
   5  13   3   48.81    6.11
  -5 -14  18   33.46    7.03
  -5 -14  17    2.92    2.00
  -5 -14  16    5.00    2.88
  -5 -14  15    2.53    2.25
  -5 -14  14   -0.21    2.25
  -5 -14  13    1.43    2.34
  -5 -14  12   14.85    3.93
   5  14 -12   12.00    3.10
  -5 -14  11    0.24    1.90
   5  14 -11   -0.36    2.17
  -5 -14  10  127.91   11.27
   5  14 -10  127.59   10.21
  -5 -14   9   18.76    4.69
   5  14  -9   14.43    4.02
  -5 -14   8   91.32    9.11
   5  14  -8  101.68    8.99
   5  14  -7   42.90    5.87
  -5 -14   7   40.65    5.92
   5  14  -6   42.91    5.88
  -5 -14   6   35.47    5.58
   5  14  -6   39.98    4.42
   5  14  -5   31.39    5.21
   5  14  -5   26.51    3.73
   5  14  -4   -0.40    1.53
   5  14  -4    1.35    1.02
   5  14  -3   22.88    4.52
   5  14  -3   20.82    3.50
   5  14  -2   10.28    2.94
   5  14  -2   10.89    2.72
   5  14  -1   23.39    4.71
   5  14  -1   19.15    3.51
   5  14   0   21.48    3.79
   5  14   1    8.97    2.65
  -5 -15  17    6.45    3.28
  -5 -15  16   42.97    7.36
  -5 -15  15   27.83    6.03
  -5 -15  14   12.68    4.06
  -5 -15  13   15.15    4.55
  -5 -15  12   -0.90    2.23
   5  15 -12   -1.45    2.18
  -5 -15  11   -1.12    2.14
   5  15 -11   -0.75    1.14
  -5 -15  10   -1.31    2.12
   5  15 -10    1.14    1.55
   5  15  -9   10.16    3.24
  -5 -15   9   11.07    3.61
  -5 -15   8    4.29    3.07
   5  15  -8   -2.97    2.46
   5  15  -7   39.75    5.94
  -5 -15   7   46.96    6.52
   5  15  -6    3.74    2.65
   5  15  -5   66.25    7.72
   5  15  -5   58.35    5.72
   5  15  -4    5.42    2.40
   5  15  -4    2.83    1.31
   5  15  -3   31.99    4.40
   5  15  -2   24.95    4.01
   5  15  -1    1.53    1.60
   5  15   0    9.94    2.70
  -5 -16  15   54.57    8.65
  -5 -16  14   16.32    6.00
  -5 -16  13   17.60    5.27
  -5 -16  12   51.50    7.96
  -5 -16  11    5.06    3.12
  -5 -16  10   39.04    6.61
  -5 -16   9    7.28    2.97
   5  16  -3    3.78    1.92
   5  16  -2   44.62    5.59
   5  16  -1    7.16    2.47
  -5 -17  14   69.63    9.79
  -5 -17  13   20.56    5.00
  -5 -17  12   36.73    6.93
  -5 -17  11   66.23    8.88
   6 -22   4   31.89    4.58
   6 -22   5   18.62    3.57
   6 -22   6   19.47    3.49
   6 -22   7   57.39    5.86
   6 -22   8   31.05    4.47
   6 -22   9   50.35    5.48
   6 -21   4   13.41    2.99
   6 -21   5   46.72    5.37
   6 -21   6   -0.89    1.09
   6 -21   7   93.69    7.67
   6 -21   8   14.38    3.08
   6 -21   9   42.54    5.06
   6 -21  10   28.27    4.17
   6 -21  11   27.01    4.22
   6 -20  -2   14.23    3.44
   6 -20  -1   40.74    5.64
   6 -20   0   22.53    4.10
   6 -20   1   49.04    6.05
   6 -20   2   25.18    4.31
   6 -20   4   21.31    3.67
   6 -20   5   49.82    5.48
   6 -20   6   68.87    6.42
   6 -20   7   15.42    3.08
   6 -20   8   92.96    7.33
   6 -20   9   -1.35    1.52
   6 -20  10  155.35    9.60
   6 -20  11   13.87    2.90
   6 -20  12   54.10    5.57
   6 -20  13   26.91    4.10
   6 -19  -6   28.34    4.86
   6 -19  -5   20.28    4.05
   6 -19  -4  121.42    9.71
   6 -19  -3   24.86    4.39
   6 -19  -2   15.32    3.36
   6 -19  -1    2.12    1.73
   6 -19   0    1.17    1.13
   6 -19   1    8.25    2.63
  -6  19  -1    5.81    2.11
   6 -19   2    9.27    2.76
  -6  19  -2    8.22    2.15
   6 -19   3   30.04    4.50
  -6  19  -3   28.29    4.10
   6 -19   4   51.74    5.96
   6 -19   5   26.44    3.96
   6 -19   6   60.78    5.98
   6 -19   7   47.98    5.16
   6 -19   8   38.38    4.65
   6 -19   9  113.24    8.00
   6 -19  10    4.73    2.03
   6 -19  11  173.97   10.10
   6 -19  12    1.82    1.78
   6 -19  13  138.70    9.02
   6 -19  14   12.47    2.92
   6 -18  -8    6.10    2.70
   6 -18  -7    5.88    2.40
   6 -18  -6    0.98    1.32
   6 -18  -5   24.04    4.47
   6 -18  -4   24.51    4.34
   6 -18  -3  104.10    8.86
  -6  18   3  118.71    8.36
   6 -18  -2   42.40    5.63
  -6  18   2   44.67    4.98
   6 -18  -1   65.18    6.89
  -6  18   1   60.91    5.75
   6 -18   0   10.94    3.19
  -6  18   0    2.74    1.28
   6 -18   1   47.63    5.85
  -6  18  -1   45.36    4.81
   6 -18   2    1.13    1.39
  -6  18  -2    1.92    1.17
   6 -18   3    3.66    1.89
  -6  18  -3   -0.08    1.35
   6 -18   4    2.25    1.88
   6 -18   5   21.91    3.78
   6 -18   5   14.70    2.98
   6 -18   6    1.97    1.50
   6 -18   7   63.58    5.86
   6 -18   8   12.91    2.74
   6 -18   9   54.55    5.38
   6 -18  10  102.60    7.50
   6 -18  11   23.75    3.76
   6 -18  12  179.80   10.19
   6 -18  13    1.91    1.76
   6 -18  14  167.29    9.97
   6 -18  15    2.37    1.94
   6 -17 -10   59.52    7.18
   6 -17  -9   13.78    3.67
   6 -17  -8   60.26    7.00
   6 -17  -7   13.32    4.76
   6 -17  -6   18.26    3.90
   6 -17  -5    9.94    2.80
   6 -17  -4    7.14    2.77
  -6  17   4    5.26    1.88
   6 -17  -3   54.92    6.36
  -6  17   3   62.12    5.74
   6 -17  -2   49.97    6.03
  -6  17   2   39.41    4.44
   6 -17  -1  105.83    8.57
  -6  17   1  110.44    7.33
   6 -17   0  129.95    9.36
  -6  17   0  119.96    7.62
   6 -17   1    1.34    1.38
  -6  17  -1    2.01    1.31
   6 -17   2   30.89    4.45
  -6  17  -2   28.48    3.72
   6 -17   3   17.27    3.41
  -6  17  -3   12.87    2.48
   6 -17   4   99.02    7.73
   6 -17   5    0.62    1.02
   6 -17   5   -0.78    1.65
   6 -17   6    0.90    1.05
   6 -17   7    5.02    1.70
   6 -17   8   29.55    3.95
   6 -17   9    3.04    1.22
   6 -17  10   11.10    2.54
   6 -17  11   35.65    4.34
   6 -17  12   12.93    2.80
   6 -17  13  103.05    7.52
   6 -17  14    5.33    2.22
   6 -17  15  176.07   10.33
   6 -16 -11    3.58    2.49
   6 -16 -10   32.95    5.25
   6 -16  -9   38.98    5.81
   6 -16  -8   23.05    4.28
   6 -16  -7  129.93   10.23
   6 -16  -6   24.39    4.35
   6 -16  -5  141.95   10.36
   6 -16  -4   55.25    6.29
  -6  16   4   48.11    4.91
   6 -16  -3   23.57    4.16
  -6  16   3   21.96    3.20
   6 -16  -2   51.71    5.98
  -6  16   2   50.87    4.81
   6 -16  -1    8.25    2.80
  -6  16   1    2.26    1.38
   6 -16   0  116.20    8.60
  -6  16   0   99.89    6.61
   6 -16   1   15.95    3.30
  -6  16  -1   15.43    2.72
   6 -16   2  111.28    8.41
  -6  16  -2   75.05    5.89
   6 -16   3  275.08   13.07
   6 -16   4   24.99    3.73
   6 -16   5   73.31    6.52
   6 -16   5   76.26    6.22
   6 -16   6    5.84    1.94
   6 -16   6    8.37    2.45
   6 -16   7   18.89    3.03
   6 -16   8   24.99    3.62
   6 -16   9    7.33    2.01
   6 -16  10   14.72    2.82
   6 -16  11   28.80    3.83
   6 -16  12    0.11    1.23
   6 -16  13    9.98    2.60
   6 -16  14   42.16    5.03
   6 -16  15    2.04    1.53
   6 -16  16  107.24    8.02
   6 -15 -12   28.62    5.15
   6 -15 -11   32.70    5.18
   6 -15 -10    4.38    2.22
   6 -15  -9   20.34    4.22
   6 -15  -8   32.68    5.20
   6 -15  -7   28.22    4.70
   6 -15  -6  120.17    9.60
   6 -15  -5   36.23    5.12
   6 -15  -4  191.76   11.80
   6 -15  -3   52.52    5.99
  -6  15   3   60.02    5.08
   6 -15  -2  126.35    9.27
  -6  15   2  130.58    7.38
   6 -15  -1   95.52    7.97
  -6  15   1  117.40    6.79
   6 -15   0   40.59    5.08
  -6  15   0   38.27    3.85
   6 -15   1  187.39   11.11
  -6  15  -1  169.12    8.34
   6 -15   2  301.68   13.82
  -6  15  -2  300.16   11.40
   6 -15   3  280.94   13.04
   6 -15   4    5.88    1.92
   6 -15   5  149.75    9.14
   6 -15   5  151.70    8.71
   6 -15   6   21.84    3.45
   6 -15   6   18.85    3.08
   6 -15   7   11.61    2.39
   6 -15   8  111.03    7.32
   6 -15   9   14.70    2.80
   6 -15  10    0.86    1.02
   6 -15  11   68.58    5.84
   6 -15  12   16.45    3.02
   6 -15  13   29.57    4.01
   6 -15  14    0.27    0.90
   6 -15  15    4.52    1.79
   6 -15  16    5.18    2.08
   6 -14 -13   35.27    5.66
   6 -14 -12   10.01    2.95
   6 -14 -11   41.27    5.91
   6 -14 -10   15.82    3.72
   6 -14  -9   36.14    5.38
   6 -14  -8   20.61    3.93
   6 -14  -7   10.84    2.89
   6 -14  -6   19.92    3.73
   6 -14  -5   83.85    7.66
   6 -14  -4   23.82    4.09
   6 -14  -3  160.77   10.42
  -6  14   3  135.14    7.35
   6 -14  -2   59.63    6.29
  -6  14   2   53.76    4.35
   6 -14  -1  180.75   10.83
  -6  14   1  181.29    8.19
   6 -14   0  250.09   12.63
  -6  14   0  266.41    9.92
   6 -14   1    3.41    1.99
  -6  14  -1    1.97    0.88
   6 -14   2  293.08   13.35
  -6  14  -2  295.54   10.74
   6 -14   3   15.41    3.04
   6 -14   4  344.30   14.12
   6 -14   5    9.48    2.10
   6 -14   5   10.44    2.64
   6 -14   6  168.37    9.33
   6 -14   6  138.31    8.14
   6 -14   7   24.96    3.57
   6 -14   7   21.45    3.29
   6 -14   8  168.13    8.88
   6 -14   9   10.21    2.35
   6 -14  10    1.92    1.75
   6 -14  11    3.15    1.43
   6 -14  12   44.31    4.75
   6 -14  13    6.74    2.00
   6 -14  14   20.27    3.33
   6 -14  15    0.07    1.13
   6 -14  16    4.11    1.58
   6 -14  17   10.11    2.69
   6 -13 -14    5.77    2.38
  -6  13  14    3.92    2.11
   6 -13 -13   -2.58    2.37
  -6  13  13    0.22    1.25
   6 -13 -12   21.25    4.39
   6 -13 -11    4.00    1.99
   6 -13 -10   67.77    7.58
   6 -13  -9   25.56    4.56
   6 -13  -8   94.38    8.68
   6 -13  -7   11.60    3.07
   6 -13  -6   12.24    3.05
   6 -13  -5   29.41    4.55
   6 -13  -4    0.14    1.97
   6 -13  -3   -0.27    1.41
  -6  13   3    0.34    0.69
   6 -13  -2   59.09    6.11
  -6  13   2   65.71    4.54
   6 -13  -1    5.92    2.15
  -6  13   1    4.25    1.22
   6 -13   0  141.85    9.15
  -6  13   0  131.53    6.32
   6 -13   1   68.00    6.25
  -6  13  -1   70.06    4.58
   6 -13   2  207.58   10.91
   6 -13   3  242.74   11.64
   6 -13   4   18.80    3.22
   6 -13   5  532.02   17.32
   6 -13   5  476.94   15.74
   6 -13   6   11.50    2.49
   6 -13   6    8.96    2.09
   6 -13   7  452.62   15.66
   6 -13   7  435.79   14.83
   6 -13   8   12.71    2.51
   6 -13   9  257.65   11.06
   6 -13  10    7.71    2.00
   6 -13  11  130.47    7.94
   6 -13  12   15.52    2.73
   6 -13  13    1.89    1.24
   6 -13  14   13.50    2.66
   6 -13  15   23.47    3.66
   6 -13  16    1.02    1.60
   6 -13  17   -0.52    1.33
   6 -12 -15   24.09    4.94
  -6  12  15   21.90    4.51
   6 -12 -14   11.53    3.48
  -6  12  14   11.01    3.05
   6 -12 -13    3.10    1.76
  -6  12  13    9.40    2.45
   6 -12 -12    5.19    2.15
  -6  12  12    2.74    1.67
   6 -12 -11    0.41    1.74
   6 -12 -10    7.28    2.71
   6 -12  -9   77.19    7.91
   6 -12  -8   36.61    5.35
   6 -12  -7   51.25    6.20
   6 -12  -6  107.05    8.96
   6 -12  -5  135.69    9.76
   6 -12  -4    2.45    1.74
   6 -12  -4    2.02    1.50
   6 -12  -3   28.38    4.27
   6 -12  -3   22.57    3.53
  -6  12   3   28.66    2.92
   6 -12  -2    1.66    1.02
  -6  12   2    4.58    1.18
   6 -12  -1    2.31    1.28
  -6  12   1    0.81    0.70
   6 -12   0    4.08    1.66
  -6  12   0    1.20    0.56
   6 -12   1   20.87    3.36
   6 -12   2    5.34    1.95
   6 -12   3   42.65    4.61
   6 -12   4  100.09    6.51
   6 -12   4  100.10    6.96
   6 -12   5   97.82    6.81
   6 -12   5   89.15    6.21
   6 -12   6  404.35   14.34
   6 -12   6  395.61   13.58
   6 -12   7    5.11    1.88
   6 -12   7    5.40    1.81
   6 -12   8  508.02   15.91
   6 -12   9    8.36    2.26
   6 -12  10  369.36   13.60
   6 -12  11    4.85    1.72
   6 -12  12  184.89    9.57
   6 -12  13   25.69    3.67
   6 -12  14    6.71    1.96
   6 -12  15   18.01    3.18
   6 -12  16    3.42    1.73
   6 -12  17    5.52    2.43
  -6  11  17   44.82    6.47
   6 -11 -16   35.95    6.13
  -6  11  16   34.92    5.46
   6 -11 -15   16.97    4.15
  -6  11  15   26.94    4.85
   6 -11 -14   67.01    8.03
  -6  11  14   63.87    7.00
   6 -11 -13   13.28    3.50
  -6  11  13   15.44    3.44
  -6  11  12   41.59    5.47
   6 -11 -12   58.20    7.20
   6 -11 -11   25.13    4.96
   6 -11 -10   -1.73    2.02
   6 -11  -9   25.50    4.52
   6 -11  -8    6.56    2.81
   6 -11  -7  101.77    8.94
   6 -11  -6  163.62   10.80
   6 -11  -6  158.29    7.82
   6 -11  -5  132.29    9.54
   6 -11  -5  126.70    7.42
   6 -11  -4  115.51    8.72
   6 -11  -4  125.02    7.74
   6 -11  -3   30.54    4.42
   6 -11  -3   26.81    3.69
  -6  11   3   25.11    2.51
   6 -11  -2   37.61    4.68
  -6  11   2   43.19    3.11
   6 -11  -1    6.28    1.86
  -6  11   1    7.16    1.30
   6 -11   0    1.69    1.16
  -6  11   0    2.83    0.75
   6 -11   1    0.70    1.00
   6 -11   2    2.80    1.51
   6 -11   3   32.06    3.96
   6 -11   4    5.77    1.75
   6 -11   4    5.56    2.08
   6 -11   5    0.05    0.66
   6 -11   5    0.21    0.90
   6 -11   5    2.03    0.85
   6 -11   6   72.15    5.63
   6 -11   6   64.12    4.42
   6 -11   6   75.10    5.43
   6 -11   7  205.79    9.49
   6 -11   7  185.12    8.08
   6 -11   7  201.79    9.14
   6 -11   8   12.00    2.33
   6 -11   9  549.84   16.59
   6 -11  10    1.47    1.25
   6 -11  11  294.97   12.05
   6 -11  12    2.41    1.60
   6 -11  13  281.58   12.21
   6 -11  14   -0.36    1.21
   6 -11  15   94.31    7.25
   6 -11  16   36.62    4.68
   6 -11  17    8.63    2.61
  -6  10  18   44.04    6.23
   6 -10 -17    2.33    2.37
  -6  10  17    5.34    2.25
   6 -10 -16   48.34    7.04
  -6  10  16   61.87    6.98
   6 -10 -15    9.36    3.27
  -6  10  15   29.36    4.72
   6 -10 -14   21.35    4.57
  -6  10  14   15.68    3.59
  -6  10  13   83.29    7.55
   6 -10 -13   81.25    8.64
   6 -10 -12   10.93    3.39
  -6  10  12    9.07    2.61
   6 -10 -11  115.04    9.88
   6 -10 -10   72.69    7.67
   6 -10  -9   73.86    7.64
   6 -10  -8  103.51    8.81
   6 -10  -7    5.73    2.56
   6 -10  -7    7.25    2.44
   6 -10  -6  177.93   11.18
   6 -10  -6  170.21    8.49
   6 -10  -5   99.80    8.08
   6 -10  -5   93.61    6.45
   6 -10  -4  185.51   11.07
   6 -10  -4  185.35    9.54
   6 -10  -3  108.53    8.13
   6 -10  -3  105.40    7.18
  -6  10   3  107.13    4.77
   6 -10  -2  113.79    8.12
  -6  10   2  119.09    4.73
   6 -10  -1   97.97    7.31
  -6  10   1  105.32    4.41
   6 -10   0   -0.88    1.23
   6 -10   1   57.38    5.33
   6 -10   2   13.33    2.43
   6 -10   3   26.35    3.38
   6 -10   4   99.38    6.61
   6 -10   4   86.24    4.42
   6 -10   4  110.73    6.58
   6 -10   5   66.43    5.25
   6 -10   5   56.63    3.77
   6 -10   5   56.76    4.56
   6 -10   6   45.72    4.27
   6 -10   6   36.49    3.22
   6 -10   6   41.37    3.95
   6 -10   7    0.14    1.35
   6 -10   7    0.77    0.77
   6 -10   7    2.88    1.39
   6 -10   8   10.23    2.84
   6 -10   9   16.69    2.66
   6 -10  10  254.98   10.76
   6 -10  11   33.23    4.04
   6 -10  12  569.11   17.78
   6 -10  13    4.75    1.90
   6 -10  14  272.49   12.38
   6 -10  15   25.17    4.40
   6 -10  16  127.18    8.82
   6 -10  17   36.35    4.74
   6  -9 -18   11.42    3.56
  -6   9  18   19.90    4.04
   6  -9 -17   26.01    5.35
  -6   9  17   27.54    4.58
   6  -9 -16    3.86    2.21
  -6   9  16   17.87    3.69
   6  -9 -15   30.63    5.39
  -6   9  15   31.51    4.67
   6  -9 -14   22.07    4.68
  -6   9  14   13.31    2.94
   6  -9 -13   10.58    3.26
  -6   9  13   10.13    2.46
  -6   9  12   47.72    5.41
   6  -9 -12   49.01    6.51
   6  -9 -11   47.47    6.31
   6  -9 -10  114.33    9.66
   6  -9  -9   87.13    8.19
   6  -9  -9   84.61    4.94
   6  -9  -8  191.62   11.96
   6  -9  -8  177.29    7.88
  -6   9   8  167.01    7.72
   6  -9  -7  201.87   12.02
   6  -9  -7  211.82    9.26
   6  -9  -6  108.66    8.69
   6  -9  -6  108.31    6.80
   6  -9  -5  159.24   10.15
   6  -9  -5  167.48    8.89
   6  -9  -4    6.90    2.30
   6  -9  -4    8.47    2.12
   6  -9  -3  441.74   16.81
   6  -9  -3  455.60   15.91
  -6   9   3  447.22   10.02
   6  -9  -2  213.68   11.07
  -6   9   2  224.08    6.06
   6  -9  -1  311.06   13.26
   6  -9   0   17.17    3.01
   6  -9   1   96.21    6.77
   6  -9   2   36.73    4.05
   6  -9   3   53.10    4.78
   6  -9   3   43.36    2.72
   6  -9   4   -0.18    0.67
   6  -9   4    0.14    0.57
   6  -9   4   -0.05    0.34
   6  -9   5   35.74    3.74
   6  -9   5   34.99    2.85
   6  -9   5   32.87    3.45
   6  -9   6    5.71    1.50
   6  -9   6    4.68    1.12
   6  -9   6    4.56    1.40
   6  -9   7   22.36    2.85
   6  -9   7   23.84    3.02
   6  -9   8    3.69    1.34
   6  -9   9   19.24    2.81
   6  -9  10   10.16    2.09
   6  -9  11   30.82    3.73
   6  -9  12    3.81    1.94
   6  -9  13  188.97    9.89
   6  -9  14   64.34    5.85
   6  -9  15  209.56   11.12
   6  -9  16    4.45    1.84
   6  -9  17   99.00    8.22
   6  -8 -19   16.13    4.38
   6  -8 -18    2.24    1.91
  -6   8  18    9.00    2.62
   6  -8 -17   61.96    8.03
  -6   8  17   71.46    7.14
   6  -8 -16    8.58    3.10
  -6   8  16    7.26    2.33
   6  -8 -15   21.46    4.88
  -6   8  15   22.89    3.85
   6  -8 -14    3.72    2.02
  -6   8  14    4.19    2.00
   6  -8 -13   30.50    5.15
  -6   8  13   43.62    5.00
   6  -8 -12   44.98    6.26
   6  -8 -11   26.16    4.96
   6  -8 -10   92.00    8.48
   6  -8 -10   88.18    5.13
   6  -8  -9  149.35   10.62
   6  -8  -9  138.16    6.83
  -6   8   9  148.18    6.51
   6  -8  -8    3.94    1.87
   6  -8  -8    4.68    1.38
  -6   8   8    4.66    1.32
   6  -8  -7  127.40    9.40
   6  -8  -7  130.27    7.38
  -6   8   7  135.91    6.92
   6  -8  -6    3.38    1.88
   6  -8  -6    2.73    1.08
  -6   8   6    2.46    1.09
   6  -8  -5  182.10   10.87
   6  -8  -5  199.92    9.90
  -6   8   5  206.00    9.32
   6  -8  -4  596.57   20.21
   6  -8  -4  611.11   18.78
  -6   8   4  627.66   17.93
   6  -8  -3   11.76    2.64
  -6   8   3   11.10    1.06
   6  -8  -3    9.21    2.41
  -6   8   3   10.77    2.34
   6  -8  -2  615.62   19.60
  -6   8   2  604.01   18.49
   6  -8  -1   15.99    3.13
   6  -8   0  550.35   17.52
   6  -8   1   66.20    5.49
   6  -8   2  110.05    6.93
   6  -8   3    6.40    1.72
   6  -8   3    6.13    1.51
   6  -8   3    5.55    0.93
   6  -8   4   31.03    3.50
   6  -8   4   36.12    2.74
   6  -8   4   39.20    3.71
   6  -8   5    7.41    2.06
   6  -8   5    4.89    1.67
   6  -8   6    3.62    1.17
   6  -8   6    3.77    1.26
   6  -8   7   27.47    3.03
   6  -8   7   27.17    3.20
   6  -8   8   77.97    5.41
   6  -8   9    0.21    0.83
   6  -8  10    7.33    1.98
   6  -8  11    3.80    1.63
   6  -8  12    1.49    1.42
   6  -8  13  139.73    8.61
   6  -8  14   84.97    6.82
   6  -8  15   49.34    5.41
   6  -8  16  100.86    8.03
   6  -8  17   23.52    4.58
   6  -7 -20   -0.99    2.66
   6  -7 -19    3.99    2.38
   6  -7 -18   13.33    3.70
  -6   7  18    9.97    2.74
   6  -7 -17   12.92    4.11
  -6   7  17   12.10    2.88
   6  -7 -16   25.06    5.00
  -6   7  16   25.92    4.12
   6  -7 -15   30.03    5.53
  -6   7  15   31.86    4.37
   6  -7 -14  124.94   10.84
  -6   7  14  132.76    8.77
  -6   7  14  139.15    8.78
   6  -7 -13   27.06    4.80
  -6   7  13   25.33    3.69
  -6   7  13   24.86    3.73
   6  -7 -12   47.54    6.24
   6  -7 -11   67.95    7.43
   6  -7 -10    3.06    1.94
   6  -7  -9   -0.04    1.52
  -6   7   9    2.04    0.83
   6  -7  -8   93.83    8.17
   6  -7  -8   89.48    5.90
  -6   7   8   89.75    5.13
   6  -7  -7   -0.04    1.01
   6  -7  -7    0.99    1.03
  -6   7   7    0.59    0.70
   6  -7  -6  140.69    9.56
   6  -7  -6  149.43    8.28
  -6   7   6  140.01    7.25
   6  -7  -5  170.02   10.25
   6  -7  -5  173.22    9.24
  -6   7   5  183.13    8.58
   6  -7  -4  143.84    9.19
   6  -7  -4  134.19    8.21
  -6   7   4  139.47    7.65
   6  -7  -3  232.60   11.62
  -6   7   3  239.50   10.56
   6  -7  -2   92.42    6.92
  -6   7   2   86.46    6.40
   6  -7  -1 1105.61   27.25
  -6   7   1 1123.35   27.50
   6  -7   0    8.79    2.26
   6  -7   1 1077.79   25.77
   6  -7   2   36.39    3.88
   6  -7   2   39.18    2.03
   6  -7   3  467.83   14.51
   6  -7   3  459.72   10.29
   6  -7   3  455.74   13.47
   6  -7   4   58.47    4.63
   6  -7   4   49.83    4.03
   6  -7   5  108.88    6.20
   6  -7   5  106.89    6.00
   6  -7   6   15.28    2.21
   6  -7   6   15.53    2.37
   6  -7   7   30.15    3.06
   6  -7   7   29.79    3.19
   6  -7   8   41.27    3.91
   6  -7   9   19.47    2.79
   6  -7  10   97.39    6.34
   6  -7  11   29.83    3.64
   6  -7  12   32.00    4.21
   6  -7  13   13.21    2.90
   6  -7  14   66.29    5.99
   6  -7  15    0.18    1.43
   6  -7  16  118.36    8.75
   6  -7  17   45.22    5.79
   6  -6 -21   13.09    4.32
   6  -6 -20   16.25    4.49
   6  -6 -19    0.58    1.52
   6  -6 -18   19.05    4.56
  -6   6  18   19.59    3.56
   6  -6 -17    0.71    1.41
  -6   6  17    0.69    1.30
   6  -6 -16   25.60    5.00
  -6   6  16   35.72    4.52
   6  -6 -15   31.53    5.32
  -6   6  15   30.32    4.50
  -6   6  15   28.45    3.94
  -6   6  14   42.17    4.63
   6  -6 -14   34.81    5.62
  -6   6  14   39.62    4.87
   6  -6 -13   40.13    6.41
  -6   6  13   32.27    4.05
  -6   6  13   33.55    4.35
   6  -6 -12   85.98    8.59
  -6   6  12   79.68    6.77
   6  -6 -11  130.67   10.38
  -6   6  11  123.82    8.16
   6  -6 -10    3.17    2.15
  -6   6  10    5.59    1.82
   6  -6  -9  102.57    8.64
   6  -6  -8   76.29    7.28
   6  -6  -7    0.37    0.98
  -6   6   7    0.98    0.83
   6  -6  -6   22.27    3.62
   6  -6  -6   20.72    3.04
  -6   6   6   23.99    2.88
   6  -6  -6   23.51    2.63
   6  -6  -5  173.35   10.20
   6  -6  -5  174.53    9.30
  -6   6   5  173.99    8.26
   6  -6  -5  162.65    7.37
   6  -6  -4    8.90    2.23
   6  -6  -4   15.31    2.68
  -6   6   4   15.99    2.56
   6  -6  -4   13.04    2.15
   6  -6  -3   55.27    5.34
  -6   6   3   60.99    5.15
   6  -6  -2  169.09    9.28
  -6   6   2  184.30    9.40
   6  -6  -1  100.68    6.90
  -6   6   1   90.52    6.70
   6  -6   0  872.79   22.58
   6  -6   1   14.35    2.64
   6  -6   1    7.10    0.63
   6  -6   2  986.27   23.38
   6  -6   2  982.21   21.58
   6  -6   3    4.39    1.41
  -6   6  -3    3.14    1.70
   6  -6   3    5.23    1.47
   6  -6   4  530.20   14.97
  -6   6  -4  525.95   17.45
   6  -6   4  531.93   14.40
  -6   6  -5   36.14    4.13
   6  -6   5   40.96    3.61
   6  -6   5   38.00    3.47
  -6   6  -6  205.96   10.18
   6  -6   6  217.73    8.30
   6  -6   6  222.57    8.90
  -6   6  -7   20.69    3.16
   6  -6   7   17.49    2.19
   6  -6   7   16.60    2.52
  -6   6  -8   91.27    6.62
   6  -6   8   91.54    5.80
   6  -6   9   59.87    4.87
   6  -6  10   51.44    4.59
   6  -6  11   34.71    3.89
   6  -6  12    5.16    1.90
   6  -6  13    9.78    2.21
   6  -6  14    2.92    2.18
   6  -6  15   13.89    3.16
   6  -6  16    1.78    1.53
   6  -6  17   53.59    6.25
   6  -5 -21   16.68    4.24
   6  -5 -20   37.70    6.59
   6  -5 -19   22.47    4.90
   6  -5 -18   21.73    4.78
   6  -5 -17   64.46    7.93
  -6   5  17   69.92    6.94
  -6   5  17   66.80    5.99
   6  -5 -16   57.42    7.33
  -6   5  16   53.52    6.00
  -6   5  16   61.51    5.57
   6  -5 -15    9.21    2.98
  -6   5  15    7.24    2.33
  -6   5  15    8.60    2.04
   6  -5 -14   22.02    5.41
  -6   5  14   20.33    3.79
  -6   5  14   16.30    2.86
   6  -5 -13   95.34    8.83
  -6   5  13   76.41    6.84
   6  -5 -12   96.51    8.82
  -6   5  12   86.61    7.07
   6  -5 -11  121.70    9.68
  -6   5  11  132.04    8.61
   6  -5 -10   89.52    8.09
  -6   5  10   83.96    6.79
   6  -5  -9   66.07    6.85
  -6   5   9   70.09    6.09
   6  -5  -9   69.52    4.54
   6  -5  -8  233.61    8.45
   6  -5  -8  226.41   12.50
   6  -5  -7   10.86    1.75
   6  -5  -7    7.08    2.23
   6  -5  -6   58.12    4.02
   6  -5  -6   56.51    5.79
  -6   5   5    7.99    1.80
   6  -5  -5    6.94    1.43
   6  -5  -5    6.66    1.79
  -6   5   4   18.28    2.77
   6  -5  -4   12.79    2.59
  -6   5   3   15.75    2.67
   6  -5  -3   13.26    2.60
  -6   5   2   12.66    2.65
   6  -5  -2   15.35    3.00
  -6   5   1   -0.35    0.74
   6  -5  -1   -2.23    1.17
  -6   5   0   43.64    4.71
   6  -5   0   43.85    4.38
  -6   5   0   37.39    4.22
   6  -5   1  162.72    8.20
  -6   5  -1  159.98    8.86
  -6   5  -2   21.76    3.29
   6  -5   2   16.84    2.64
   6  -5   2   20.65    2.52
  -6   5  -3  632.22   18.77
   6  -5   3  619.97   16.54
   6  -5   3  623.31   15.53
   6  -5   4    7.36    1.61
  -6   5  -4    7.51    1.97
   6  -5   4    6.04    1.50
   6  -5   5  629.76   15.59
  -6   5  -5  629.79   18.54
   6  -5   5  639.56   16.24
  -6   5  -6   18.32    2.93
   6  -5   6   19.20    2.33
   6  -5   6   18.12    2.48
   6  -5   7  521.61   12.97
  -6   5  -7  488.31   15.92
   6  -5   7  494.57   14.38
  -6   5  -8   57.01    4.95
   6  -5   8   65.66    4.93
  -6   5  -9  265.44   11.06
   6  -5   9  280.78   10.81
  -6   5 -10   45.86    4.74
   6  -5  10   69.17    5.38
   6  -5  11   52.92    4.82
   6  -5  12   36.30    4.14
   6  -5  13   12.56    2.64
   6  -5  14   40.73    5.05
   6  -5  15    1.60    1.76
   6  -5  16    5.72    2.10
   6  -5  17    4.78    2.37
   6  -4 -22    2.44    2.22
   6  -4 -21    4.62    2.80
   6  -4 -20   17.37    4.25
   6  -4 -19   29.72    5.57
   6  -4 -18   26.08    5.27
  -6   4  18   28.56    4.71
   6  -4 -17   96.60    9.70
  -6   4  17   82.54    7.80
  -6   4  17   97.48    6.92
  -6   4  16   84.99    6.31
   6  -4 -16   79.16    8.52
  -6   4  16   83.42    7.61
  -6   4  15   63.37    5.32
   6  -4 -15   62.80    7.43
  -6   4  15   73.11    6.96
   6  -4 -14   83.84    8.43
  -6   4  14  101.69    8.02
   6  -4 -13   15.55    4.13
  -6   4  13   14.66    3.24
   6  -4 -12  144.97   10.70
  -6   4  12  157.65    9.79
   6  -4 -12  155.08    7.20
   6  -4 -11    0.34    1.00
  -6   4  11    1.13    1.49
   6  -4 -10  294.90   14.91
  -6   4  10  314.07   13.60
   6  -4 -10  305.06    9.77
   6  -4  -9  113.74    8.87
  -6   4   9  114.07    8.01
   6  -4  -9  119.30    5.58
   6  -4  -8  140.46    9.74
  -6   4   8  139.88    8.76
   6  -4  -8  163.07    6.51
   6  -4  -7   76.05    6.89
  -6   4   7   81.17    6.50
   6  -4  -7   80.96    4.47
   6  -4  -6   64.87    6.16
   6  -4  -6   66.43    4.10
   6  -4  -5   39.09    4.61
  -6   4   5   41.64    1.72
   6  -4  -4   73.12    6.13
   6  -4  -3   21.94    3.33
  -6   4   2   71.10    6.02
   6  -4  -2   66.22    5.53
   6  -4  -1   73.91    5.78
  -6   4   1   73.71    5.89
   6  -4  -1   72.19    5.52
   6  -4   0    0.92    0.80
  -6   4   0    1.63    0.72
   6  -4   0    1.93    0.97
   6  -4   1   -0.29    1.04
   6  -4   1    0.74    0.88
   6  -4   1    1.44    1.13
  -6   4  -1   -0.11    0.66
   6  -4   2   17.40    3.08
   6  -4   2   14.41    2.32
  -6   4  -2   13.52    2.47
   6  -4   2   14.71    2.01
   6  -4   3   57.96    5.78
   6  -4   3   58.39    4.23
  -6   4  -3   58.16    4.96
   6  -4   3   54.55    3.85
   6  -4   4  146.91    9.61
  -6   4  -4  142.84    7.74
   6  -4   4  140.56    6.45
   6  -4   4  134.90    6.38
   6  -4   5   16.65    3.37
  -6   4  -5   16.49    2.57
   6  -4   5   16.40    2.07
   6  -4   5   13.34    1.99
   6  -4   6  343.63   10.03
  -6   4  -6  345.91   12.43
   6  -4   6  353.27   11.37
  -6   4  -7    6.64    1.70
   6  -4   7    8.77    2.10
  -6   4  -8  475.05   14.89
   6  -4   8  502.02   14.68
  -6   4  -9   15.34    2.76
   6  -4   9   23.70    3.20
   6  -4  10  182.81    8.84
   6  -4  11   22.77    3.28
   6  -4  12  214.53   10.55
   6  -4  13   79.89    6.61
   6  -4  14   40.65    4.97
   6  -4  15   73.99    6.95
   6  -4  16    5.49    2.23
   6  -4  17   42.39    5.86
   6  -3 -22   10.54    3.74
   6  -3 -21    8.17    2.89
   6  -3 -20   -0.44    1.51
   6  -3 -19    2.04    1.91
  -6   3  19    8.72    3.13
   6  -3 -18   36.69    5.96
  -6   3  18   43.09    5.68
   6  -3 -17    2.42    2.68
  -6   3  17    4.56    2.07
  -6   3  17    4.13    1.38
  -6   3  16   76.44    5.69
   6  -3 -16   85.51    8.90
  -6   3  16   96.14    8.34
   6  -3 -15   12.31    3.39
  -6   3  15   11.73    2.72
   6  -3 -14   80.39    8.14
  -6   3  14   77.33    7.23
   6  -3 -13   32.08    5.05
  -6   3  13   44.42    5.23
   6  -3 -13   43.07    3.56
   6  -3 -12  127.22    9.92
  -6   3  12  148.63    9.64
   6  -3 -12  146.60    6.42
   6  -3 -11  249.62   13.85
  -6   3  11  264.38   12.91
   6  -3 -11  294.41    9.14
   6  -3 -10   -0.08    1.26
  -6   3  10    1.68    1.47
   6  -3 -10    1.39    0.74
   6  -3  -9  426.06   17.60
  -6   3   9  419.99   16.08
   6  -3  -9  438.14   11.12
   6  -3  -8    2.62    1.93
  -6   3   8    0.54    0.76
   6  -3  -8    0.39    0.38
   6  -3  -7  320.49   14.27
  -6   3   7  298.13   13.17
  -6   3   7  307.62    8.49
   6  -3  -7  310.59    8.99
   6  -3  -6   16.43    3.19
   6  -3  -6   17.61    1.99
  -6   3   6   15.34    1.42
   6  -3  -5  338.00   14.03
   6  -3  -5  355.11   11.78
   6  -3  -4  255.86   11.78
   6  -3  -4  244.11   10.14
   6  -3  -3  250.96   11.34
   6  -3  -3  256.33   10.69
   6  -3  -2    1.74    0.95
   6  -3  -2    2.38    1.14
  -6   3   1  458.45   15.31
   6  -3  -1  469.26   14.98
   6  -3  -1  439.67    8.11
   6  -3  -1  436.34   15.48
   6  -3   0   61.33    5.64
  -6   3   0   56.36    4.91
   6  -3   0   49.10    4.40
   6  -3   1  122.49    8.20
  -6   3  -1  121.99    7.18
   6  -3   1  110.12    6.39
   6  -3   1  111.71    5.44
   6  -3   2    3.04    1.61
  -6   3  -2    4.58    1.48
   6  -3   2    4.10    1.39
   6  -3   2    5.45    1.22
   6  -3   3   29.50    4.28
  -6   3  -3   34.32    3.66
   6  -3   3   27.42    2.82
   6  -3   3   28.89    2.79
   6  -3   4   19.99    3.68
  -6   3  -4   21.20    2.85
   6  -3   4   19.81    2.33
   6  -3   4   20.47    2.44
   6  -3   5   18.99    3.56
  -6   3  -5   14.56    2.27
   6  -3   5   16.35    1.95
   6  -3   5   17.06    2.28
   6  -3   6   97.33    8.25
  -6   3  -6   88.51    5.57
   6  -3   6   87.88    4.31
   6  -3   6   89.31    5.30
   6  -3   7  174.01   11.47
  -6   3  -7  181.65    8.02
   6  -3   7  190.73    8.39
   6  -3   8   53.05    6.35
  -6   3  -8   49.44    4.03
   6  -3   8   48.27    4.12
   6  -3   9  218.42   13.27
   6  -3   9  218.65    9.46
   6  -3  10    6.06    1.97
   6  -3  11  326.90   12.89
   6  -3  12    7.84    2.24
   6  -3  13  135.30    8.83
   6  -3  14    6.30    2.10
   6  -3  15   43.92    5.47
   6  -3  16   71.89    7.33
   6  -3  17   10.65    2.96
   6  -2 -22   20.54    4.93
   6  -2 -21   37.19    6.39
   6  -2 -20    2.44    2.07
  -6   2  20    2.37    2.13
   6  -2 -19   16.30    4.44
  -6   2  19   16.15    3.74
   6  -2 -18    4.95    3.42
  -6   2  18    3.97    2.06
   6  -2 -17   30.57    5.29
  -6   2  17   19.74    4.51
   6  -2 -16   19.06    4.38
  -6   2  16   13.70    3.28
   6  -2 -15  106.00    9.40
  -6   2  15  109.92    8.72
   6  -2 -14    1.49    1.46
  -6   2  14    3.88    1.77
   6  -2 -13   59.07    6.82
  -6   2  13   59.79    6.20
   6  -2 -12   85.20    7.93
  -6   2  12  105.92    8.24
   6  -2 -12   94.96    4.70
   6  -2 -11   61.24    6.61
  -6   2  11   73.62    6.66
   6  -2 -11   68.24    3.76
   6  -2 -10  123.56    9.15
  -6   2  10  120.26    8.47
   6  -2 -10  131.11    5.14
   6  -2  -9   39.97    5.11
  -6   2   9   43.38    5.05
   6  -2  -9   44.97    2.88
   6  -2  -8  629.53   21.06
  -6   2   8  617.23   20.14
  -6   2   8  628.99   14.57
   6  -2  -8  644.52   13.43
   6  -2  -8  592.79   15.01
   6  -2  -7   22.45    3.80
  -6   2   7   27.12    4.03
  -6   2   7   22.12    2.05
   6  -2  -7   21.59    2.08
   6  -2  -7   19.25    2.48
   6  -2  -6  692.62   21.25
  -6   2   6  670.21   20.82
  -6   2   6  664.93   13.18
   6  -2  -6  691.20   17.80
   6  -2  -5  771.03   22.48
   6  -2  -5  686.16   19.35
   6  -2  -4 1912.90   39.72
   6  -2  -4 1965.02   38.38
   6  -2  -3  242.54   10.85
   6  -2  -3  240.75   10.80
   6  -2  -2   37.86    4.03
   6  -2  -2   46.02    2.22
   6  -2  -2   50.99    5.12
   6  -2  -1   47.78    4.98
   6  -2  -1   42.44    4.17
   6  -2   0    6.76    1.94
   6  -2   0    4.50    1.43
   6  -2   0    3.47    0.92
   6  -2   1    9.62    2.63
   6  -2   1    9.15    1.88
   6  -2   1   10.17    1.58
   6  -2   2   80.26    6.97
   6  -2   2   78.04    4.96
   6  -2   2   76.00    4.36
   6  -2   3   -0.60    1.23
   6  -2   3   -0.25    0.59
  -6   2  -3    0.65    0.72
   6  -2   3    2.54    0.96
   6  -2   4  104.70    8.45
  -6   2  -4  104.44    5.81
   6  -2   4   97.85    4.97
   6  -2   4  109.37    5.48
   6  -2   5   13.39    3.12
  -6   2  -5   16.90    2.33
   6  -2   5   11.87    1.54
   6  -2   5   16.93    2.20
   6  -2   6   25.85    4.41
   6  -2   6   24.41    2.00
  -6   2  -6   24.89    2.65
   6  -2   6   20.85    2.56
   6  -2   7   72.29    7.42
  -6   2  -7   83.83    4.75
   6  -2   7   95.26    5.60
   6  -2   8   41.47    5.80
  -6   2  -8   46.49    3.36
   6  -2   8   50.26    4.24
   6  -2   9  128.05   10.35
   6  -2   9  125.99    7.13
   6  -2  10  105.74    9.57
   6  -2  10  101.31    6.70
   6  -2  11   67.57    7.72
   6  -2  11   65.41    5.62
   6  -2  12  173.46    9.68
   6  -2  13   20.17    3.46
   6  -2  14   64.31    6.50
   6  -2  15   10.26    2.73
   6  -2  16   32.93    5.19
   6  -1 -22   35.04    6.29
   6  -1 -21    2.91    1.74
  -6   1  21    4.06    2.01
   6  -1 -20   41.45    6.52
  -6   1  20   42.53    6.12
   6  -1 -19   21.18    4.63
  -6   1  19   25.48    4.57
   6  -1 -18   43.36    6.35
  -6   1  18   43.94    6.05
   6  -1 -17   25.16    5.06
  -6   1  17   17.63    3.91
   6  -1 -16   21.20    4.61
  -6   1  16   21.36    4.39
   6  -1 -15    5.66    2.01
  -6   1  15    6.22    2.20
   6  -1 -14    8.75    2.61
  -6   1  14    8.95    2.58
   6  -1 -13    4.59    2.12
  -6   1  13    4.10    1.59
   6  -1 -12    8.19    2.48
  -6   1  12   15.29    3.04
   6  -1 -12   14.69    1.58
   6  -1 -11   25.82    4.16
  -6   1  11   19.60    3.50
   6  -1 -11   29.16    2.13
   6  -1 -11   26.95    2.29
   6  -1 -10   49.62    5.74
  -6   1  10   47.13    5.36
  -6   1  10   56.86    4.31
   6  -1 -10   47.85    2.70
   6  -1 -10   46.13    3.38
   6  -1  -9   92.13    7.58
  -6   1   9   98.54    7.79
  -6   1   9   99.09    5.36
   6  -1  -9   92.08    5.15
   6  -1  -9  101.58    3.99
   6  -1  -8   11.18    2.63
  -6   1   8   11.23    2.50
  -6   1   8   11.72    1.67
   6  -1  -8   12.19    1.40
   6  -1  -8   13.32    2.01
   6  -1  -7  449.10   10.45
   6  -1  -7  454.31   16.92
  -6   1   7  459.61   16.87
  -6   1   7  444.79   11.13
   6  -1  -7  448.99   13.77
   6  -1  -6  218.78   11.07
  -6   1   6  211.24   11.39
   6  -1  -6  209.75    9.39
   6  -1  -5 1426.61   32.87
  -6   1   5 1421.69   33.51
   6  -1  -5 1499.94   31.53
   6  -1  -4 1238.06   29.00
   6  -1  -4 1235.12   28.52
   6  -1  -3   19.74    3.07
   6  -1  -3   25.31    1.95
   6  -1  -3   28.99    3.94
   6  -1  -2  106.60    6.74
   6  -1  -2  112.85    7.78
   6  -1  -2  106.27    4.18
   6  -1  -1  338.89   14.24
   6  -1  -1  349.94   12.29
   6  -1  -1  322.61    9.45
   6  -1   0   12.77    2.88
   6  -1   0   13.00    2.23
   6  -1   0   11.56    1.58
   6  -1   1  148.88    9.60
   6  -1   1  136.41    6.77
   6  -1   1  132.97    5.61
   6  -1   2   92.88    7.83
   6  -1   2   92.33    5.26
   6  -1   2   97.49    4.84
   6  -1   3   17.17    3.44
   6  -1   3   14.24    1.82
   6  -1   3   16.35    1.98
   6  -1   4   11.62    2.91
   6  -1   4   11.60    1.53
   6  -1   4   11.65    1.80
   6  -1   5    1.06    0.56
   6  -1   5    1.29    0.98
   6  -1   6   28.01    5.18
   6  -1   6   41.97    3.69
   6  -1   7    9.12    2.80
   6  -1   7    9.94    1.96
   6  -1   8   40.70    5.89
   6  -1   8   45.26    4.05
   6  -1   9   17.86    4.25
   6  -1   9   12.84    2.57
   6  -1  10  115.17   10.06
   6  -1  10  124.92    7.52
   6  -1  11   56.11    7.24
   6  -1  11   53.63    5.18
   6  -1  12  152.45   12.08
   6  -1  12  150.14    9.16
   6  -1  13   35.05    5.94
   6  -1  13   40.22    4.95
   6  -1  14   30.28    4.40
   6  -1  15   28.52    4.56
   6  -1  16    1.96    1.66
   6   0 -22   15.77    4.44
  -6   0  22   16.61    4.27
   6   0 -21    6.78    3.09
  -6   0  21    5.45    2.79
   6   0 -20   45.88    6.96
  -6   0  20   57.18    7.37
  -6   0  19   46.42    6.66
  -6   0  18  110.98    9.80
  -6   0  17   35.47    5.48
  -6   0  16   47.25    6.07
  -6   0  15   11.10    2.77
  -6   0  14    1.12    1.34
  -6   0  13    1.53    1.32
   6   0 -13    2.95    0.67
  -6   0  12   17.97    3.34
   6   0 -12   17.62    1.97
  -6   0  11    6.88    2.22
  -6   0  11    4.37    1.33
   6   0 -11    3.83    1.07
   6   0 -11    3.90    0.67
  -6   0  10    3.43    1.61
  -6   0  10    4.24    1.39
   6   0 -10    6.56    1.42
   6   0 -10    6.24    0.82
  -6   0   9    3.95    1.42
  -6   0   9    4.95    1.30
   6   0  -9    4.66    0.75
   6   0  -9    2.89    0.82
  -6   0   8    5.29    1.19
  -6   0   8    4.71    1.52
   6   0  -8    5.53    1.45
   6   0  -8    5.80    0.90
  -6   0   7   18.73    3.65
  -6   0   7   15.23    1.93
   6   0  -6  370.50   14.63
  -6   0   6  395.24   15.91
   6   0  -5  137.90    8.37
  -6   0   5  142.57    9.12
   6   0  -4  726.28   20.40
   6   0  -4  705.30   14.68
   6   0  -4  722.08   20.88
   6   0  -3  252.67   10.85
   6   0  -3  242.70    7.38
   6   0  -3  251.71   11.85
   6   0  -2  779.49   20.15
   6   0  -2  802.00   23.17
   6   0  -2  731.55   15.67
   6   0  -1    7.33    2.35
   6   0  -1    4.99    1.53
   6   0  -1    3.97    0.91
   6   0   0  764.16   23.64
   6   0   0  712.38   18.29
   6   0   0  725.38   15.28
   6   0   1    7.72    2.48
   6   0   1    5.06    1.34
   6   0   1    6.62    1.23
   6   0   2  210.51   12.18
   6   0   2  193.82    7.51
   6   0   2  205.24    6.99
   6   0   3  149.75   10.42
   6   0   3  144.09    5.72
   6   0   3  143.50    5.96
   6   0   4   49.86    6.10
   6   0   4   51.68    2.83
   6   0   4   52.90    3.66
   6   0   5   63.28    7.04
   6   0   5   79.61    3.02
   6   0   5   81.50    4.76
   6   0   6    1.13    1.40
   6   0   6    0.55    0.96
   6   0   7   20.09    4.23
   6   0   7   16.37    2.38
   6   0   8    3.39    2.03
   6   0   8    1.33    0.98
   6   0   9    0.58    1.37
   6   0   9    0.68    1.42
   6   0  10    0.08    1.67
   6   0  10    0.98    0.95
   6   0  11   35.13    5.74
   6   0  11   35.82    4.32
   6   0  12    8.93    3.34
   6   0  12    4.63    1.55
   6   0  13   80.12    9.01
   6   0  13   53.94    5.83
   6   0  14   16.78    4.14
   6   0  14   23.93    4.18
   6   0  15   58.82    6.78
   6   0  16   11.46    3.12
  -6  -1  24   62.91    8.86
  -6  -1  23   13.38    3.99
  -6  -1  22   17.13    4.43
  -6  -1  21   74.01    8.71
  -6  -1  20   12.53    3.82
  -6  -1  19  143.47   11.59
  -6  -1  18   26.51    5.56
  -6  -1  17   99.14    8.97
  -6  -1  16   41.96    5.95
  -6  -1  15   87.40    8.23
  -6  -1  14   63.55    6.71
   6   1 -14   58.85    3.34
  -6  -1  13    2.90    1.91
  -6  -1  12   41.18    5.37
  -6  -1  11   25.02    3.93
  -6  -1  11   38.41    3.76
  -6  -1  10   27.67    4.21
  -6  -1  10   26.61    3.00
   6   1 -10   26.10    1.16
  -6  -1   9    0.95    0.43
  -6  -1   9    1.61    0.92
   6   1  -9    0.98    0.32
  -6  -1   8    3.39    1.20
  -6  -1   8    3.67    1.73
   6   1  -8    2.66    0.60
  -6  -1   7   15.94    3.09
  -6  -1   6   18.80    3.20
  -6  -1   5    2.88    1.46
   6   1  -5    3.91    1.06
   6   1  -4    1.71    1.21
  -6  -1   4    4.24    1.78
   6   1  -4    1.25    0.53
   6   1  -3  211.13    9.77
   6   1  -3  225.60    7.55
   6   1  -2    1.18    1.10
   6   1  -2    0.17    0.42
   6   1  -1  371.05   12.34
   6   1  -1  364.46    9.16
   6   1   0    2.27    1.09
   6   1   0    1.21    0.69
   6   1   1  597.35   21.45
   6   1   1  572.14   14.63
   6   1   1  555.56   12.59
   6   1   2    2.17    1.62
   6   1   2    0.47    0.68
   6   1   2    2.19    0.94
   6   1   3  605.58   22.56
   6   1   3  581.68   12.60
   6   1   3  595.22   13.67
   6   1   4  152.16   11.13
   6   1   4  157.84    4.59
   6   1   4  162.56    6.59
   6   1   5   41.46    6.12
   6   1   5   46.83    3.60
   6   1   6  189.85   12.82
   6   1   6  183.45    7.71
   6   1   7   30.63    5.21
   6   1   7   27.96    3.12
   6   1   8   60.95    7.42
   6   1   8   73.44    5.50
   6   1   9   16.62    4.01
   6   1   9   18.98    3.02
   6   1  10   10.23    3.11
   6   1  10   17.30    3.00
   6   1  11   10.92    3.42
   6   1  11    8.67    2.27
   6   1  12    3.12    2.54
   6   1  12    1.69    1.25
   6   1  13   33.33    5.97
   6   1  13   27.69    4.44
   6   1  14   34.99    6.27
   6   1  14   26.21    4.48
   6   1  15   21.45    4.92
   6   1  15   18.03    4.10
  -6  -2  24    0.59    2.18
  -6  -2  23   51.77    7.70
  -6  -2  22   14.79    4.35
  -6  -2  21   66.98    8.30
  -6  -2  20   93.52    9.60
  -6  -2  19   35.47    5.80
  -6  -2  18  132.56   10.74
  -6  -2  17   16.57    4.18
  -6  -2  16  331.15   16.82
  -6  -2  15   30.39    5.03
  -6  -2  14  141.69   10.25
  -6  -2  13   26.42    4.39
  -6  -2  12   37.40    5.11
  -6  -2  11   -0.24    0.96
  -6  -2  10    7.52    1.97
  -6  -2  10   11.44    3.25
  -6  -2   9   -0.91    1.44
  -6  -2   9    0.55    0.71
  -6  -2   8   36.60    4.73
  -6  -2   8   40.06    3.56
  -6  -2   7   14.93    2.99
  -6  -2   6    5.01    1.78
   6   2  -6   13.30    1.97
  -6  -2   5   45.69    5.15
   6   2  -5   51.54    3.66
   6   2  -4   -0.19    0.62
  -6  -2   4    0.89    0.97
   6   2  -3   29.72    3.51
   6   2  -3   25.28    2.60
   6   2  -3   26.01    2.01
   6   2  -2   28.37    3.31
   6   2  -2   33.43    2.30
   6   2  -1   42.35    3.83
   6   2  -1   45.43    2.61
   6   2   0  315.76   10.63
   6   2   0  308.85    8.02
   6   2   1    6.30    1.33
   6   2   1    6.90    1.14
   6   2   2  524.02   12.60
   6   2   2  518.94   12.05
   6   2   3   22.47    4.30
   6   2   3   29.03    2.60
   6   2   4  216.45   13.51
   6   2   4  205.24    7.50
   6   2   5    5.47    2.89
   6   2   5    1.92    1.20
   6   2   6  170.73   12.47
   6   2   6  162.19    7.40
   6   2   7   63.95    7.78
   6   2   7   68.19    5.04
   6   2   8   90.73    9.17
   6   2   8   64.94    5.15
   6   2   9  151.38   12.35
   6   2   9  136.61    8.05
   6   2  10   35.18    6.02
   6   2  10   35.66    4.29
   6   2  11   39.17    6.61
   6   2  11   40.21    4.84
   6   2  12   13.94    3.47
   6   2  12   18.05    4.69
   6   2  12   22.47    3.88
   6   2  13    3.52    1.87
   6   2  13    7.86    3.19
   6   2  13    7.68    2.31
   6   2  14   20.33    4.73
   6   2  14   22.13    4.02
   6   2  15    5.17    2.78
  -6  -3  23   -1.46    2.31
  -6  -3  22   34.45    6.54
  -6  -3  21    2.28    2.12
  -6  -3  20   29.80    5.26
  -6  -3  19   31.06    5.46
  -6  -3  18   50.50    6.71
  -6  -3  17  181.13   12.59
  -6  -3  16   13.20    3.71
  -6  -3  15  273.18   15.07
  -6  -3  14   23.06    4.40
  -6  -3  13  397.53   17.74
  -6  -3  12    7.14    3.13
  -6  -3  11  307.53   15.09
   6   3 -11  239.48    8.93
  -6  -3  10    4.74    2.00
   6   3 -10    6.23    1.43
  -6  -3   9   99.53    8.34
  -6  -3   9  102.00    6.29
   6   3  -8    0.87    0.26
  -6  -3   8    0.56    1.10
  -6  -3   7    1.87    0.96
   6   3  -7    2.57    1.13
  -6  -3   6    3.93    1.68
   6   3  -6    2.63    1.10
  -6  -3   5   13.02    2.77
   6   3  -5   21.49    2.49
   6   3  -4    2.13    0.96
  -6  -3   4    1.23    0.86
   6   3  -4    1.62    0.51
   6   3  -3    2.02    0.98
   6   3  -3    1.49    0.53
   6   3  -2    8.21    1.83
   6   3  -2    8.62    1.03
   6   3  -1    0.62    0.51
   6   3  -1    1.24    0.57
   6   3   0  103.14    5.68
   6   3   0   95.97    3.83
   6   3   1   90.70    5.56
   6   3   1   93.10    4.09
   6   3   2   40.14    2.71
   6   3   2   36.36    2.72
   6   3   3  142.85    3.91
   6   3   3  135.69    5.70
   6   3   4   87.39    4.81
   6   3   5  247.19   15.13
   6   3   5  242.40    8.89
   6   3   6    4.54    2.43
   6   3   6    3.22    1.24
   6   3   7   77.56    8.81
   6   3   7   83.05    5.67
   6   3   8   82.86    9.21
   6   3   8   87.53    6.23
   6   3   9   46.51    5.77
   6   3   9   55.92    7.64
   6   3   9   58.33    5.34
   6   3  10   94.81   10.14
   6   3  10  110.40    9.06
   6   3  10  107.96    7.61
   6   3  11   32.19    5.10
   6   3  11   29.76    5.86
   6   3  11   28.84    4.16
   6   3  12   70.88    9.01
   6   3  12   77.12    8.05
   6   3  12   79.55    7.18
   6   3  13   25.14    5.45
   6   3  14   23.46    5.34
  -6  -4  23   13.04    4.18
  -6  -4  22    2.31    2.74
  -6  -4  21   22.20    5.07
  -6  -4  20   18.53    4.26
  -6  -4  19   21.63    4.68
  -6  -4  18   17.62    4.41
  -6  -4  17   10.58    3.22
  -6  -4  16   33.19    5.35
  -6  -4  15   30.16    4.97
  -6  -4  14  229.08   13.54
  -6  -4  13   23.85    4.48
  -6  -4  12  470.35   19.33
   6   4 -12  424.47   12.09
  -6  -4  11   12.87    3.45
   6   4 -11   10.80    1.83
  -6  -4  10  555.49   20.84
   6   4 -10  517.43   12.96
  -6  -4   9    5.39    2.38
   6   4  -9    3.96    1.04
   6   4  -8  169.22    4.52
  -6  -4   8  170.39   10.72
   6   4  -7    0.83    0.51
  -6  -4   7    0.86    1.24
   6   4  -7    2.16    1.13
   6   4  -6   21.52    2.01
   6   4  -6   24.36    2.85
  -6  -4   6   28.20    4.31
   6   4  -5   13.15    1.76
   6   4  -5   16.10    2.35
  -6  -4   5   12.58    2.68
   6   4  -5   13.53    1.15
   6   4  -4    8.33    1.47
   6   4  -4    7.18    1.59
  -6  -4   4   10.56    2.62
   6   4  -4    8.78    0.87
   6   4  -3   36.05    3.60
   6   4  -3   38.26    1.82
   6   4  -2   27.37    1.62
   6   4  -1    6.17    1.55
   6   4  -1    5.20    0.84
   6   4   0    3.76    1.50
   6   4   0    5.36    0.97
   6   4   1   58.52    3.92
   6   4   1   63.06    3.31
   6   4   2   13.23    1.48
   6   4   2   14.37    1.79
   6   4   3   86.00    4.56
   6   4   4   31.89    4.17
   6   4   4   30.72    3.02
  -6  -4  -4   32.31    3.17
   6   4   5   80.38    6.80
   6   4   5   74.96    4.95
   6   4   6   99.64   10.02
   6   4   6   99.89    7.87
   6   4   6   92.14    5.84
   6   4   7   67.95    8.58
   6   4   7   78.52    7.12
   6   4   7   67.97    5.30
   6   4   8  156.69   13.10
   6   4   8  151.74   10.29
   6   4   8  153.67    8.50
   6   4   9    3.75    2.00
   6   4   9    1.84    2.00
   6   4   9    4.94    1.86
   6   4  10   15.12    3.63
   6   4  10   22.68    5.09
   6   4  10   13.88    2.78
   6   4  11   29.78    4.93
   6   4  11   42.68    7.14
   6   4  12   30.57    6.49
   6   4  13   34.91    6.49
  -6  -5  23    7.41    3.86
  -6  -5  22   16.65    4.95
  -6  -5  21    5.38    2.52
  -6  -5  20   -1.27    2.21
  -6  -5  19   -1.07    1.45
  -6  -5  18   16.93    4.00
  -6  -5  17    0.21    2.06
  -6  -5  16    0.50    1.88
  -6  -5  15   -0.07    1.77
  -6  -5  14   13.97    3.46
  -6  -5  13  105.67    9.15
  -6  -5  12    6.73    2.53
   6   5 -12    6.88    1.44
  -6  -5  11  680.29   23.81
   6   5 -11  603.72   13.80
  -6  -5  10   10.01    3.39
   6   5 -10    8.09    1.38
   6   5  -9  497.05    8.55
  -6  -5   9  490.33   19.52
   6   5  -9  505.80   10.87
   6   5  -8    1.07    0.56
   6   5  -8    1.98    1.09
  -6  -5   8    3.17    2.48
   6   5  -8    0.59    0.55
   6   5  -7  435.38   10.09
  -6  -5   7  432.70   17.92
   6   5  -7  438.89   14.05
   6   5  -7  453.30    8.91
   6   5  -6   13.07    1.64
  -6  -5   6   11.84    2.97
   6   5  -6   13.08    2.38
   6   5  -6   12.36    0.89
   6   5  -6   11.07    0.91
   6   5  -5  124.58    5.66
  -6  -5   5  125.18    9.06
   6   5  -5  123.21    6.93
   6   5  -5  113.55    2.63
   6   5  -4  176.96    7.26
  -6  -5   4  172.86   10.73
   6   5  -4  179.43    8.50
   6   5  -4  162.60    3.43
   6   5  -3   31.99    3.19
   6   5  -3   32.14    3.57
   6   5  -3   30.43    1.43
   6   5  -2    5.28    1.37
   6   5  -2    6.59    0.77
   6   5  -1    3.18    1.45
   6   5  -1    4.35    0.82
   6   5   0   28.20    3.44
   6   5   0   29.64    3.27
   6   5   0   29.53    2.17
   6   5   1    4.28    1.86
   6   5   1    6.06    1.28
   6   5   1    5.06    1.01
   6   5   2    0.84    1.10
   6   5   2    0.00    0.33
   6   5   2    1.53    0.73
   6   5   3    0.81    0.97
   6   5   3   -0.44    0.55
   6   5   4   91.54    7.09
   6   5   4   81.87    4.98
   6   5   5    0.09    0.96
   6   5   5    1.75    1.07
   6   5   6  211.53   11.70
   6   5   6  202.59    9.11
   6   5   7  109.41   10.95
   6   5   7  101.01    8.23
   6   5   8   59.38    8.05
   6   5   8   59.87    6.49
   6   5   9   14.97    3.40
   6   5   9   11.96    3.54
   6   5  10    9.16    3.38
   6   5  10    8.82    4.53
   6   5  11    6.70    3.66
   6   5  12    3.64    2.66
  -6  -6  22    7.66    3.06
  -6  -6  21   37.80    6.65
  -6  -6  20   12.40    3.89
  -6  -6  19    7.80    3.05
  -6  -6  18   12.83    3.56
  -6  -6  17   -2.55    1.95
  -6  -6  16   44.04    6.35
  -6  -6  15   -2.11    2.24
  -6  -6  14   -0.81    1.80
  -6  -6  13    2.17    1.76
  -6  -6  12   45.18    6.27
   6   6 -12   41.59    2.77
  -6  -6  11   10.27    2.70
   6   6 -11    6.84    1.04
  -6  -6  10  131.75   10.02
   6   6 -10  133.28    4.37
   6   6  -9    7.74    0.90
  -6  -6   9    6.45    2.32
   6   6  -9    4.53    1.63
   6   6  -9    8.32    0.93
   6   6  -8  398.01    8.92
  -6  -6   8  394.57   17.39
   6   6  -8  387.93   13.76
   6   6  -8  362.61    6.76
  -6  -6   7    3.99    2.56
   6   6  -7    1.04    0.85
   6   6  -7    1.53    0.72
  -6  -6   6  313.82   15.12
   6   6  -6  315.16   12.00
   6   6  -6  305.90    9.11
   6   6  -5   20.61    3.04
  -6  -6   5   22.01    4.06
   6   6  -5   21.32    2.40
  -6  -6   4  393.51   16.77
   6   6  -4  370.05   13.50
   6   6  -4  368.76   11.42
   6   6  -3   56.91    5.13
   6   6  -3   55.14    4.34
   6   6  -2   17.84    2.58
   6   6  -1  175.83    8.65
   6   6   0    5.81    1.30
   6   6   0    6.04    1.87
   6   6   1  125.93    5.32
   6   6   1  119.36    7.57
   6   6   2    2.00    1.37
   6   6   3   33.53    4.31
   6   6   4    7.83    2.32
   6   6   5   78.06    6.94
   6   6   6   57.27    6.16
   6   6   7   94.36   10.42
   6   6   7   89.91    7.86
   6   6   8   21.27    4.95
   6   6   8   18.06    3.68
   6   6   9   94.60   10.71
   6   6   9   93.17    8.62
   6   6  10   31.86    6.38
   6   6  11   44.17    7.60
  -6  -7  22   -0.66    1.87
  -6  -7  21   77.11    9.51
  -6  -7  20    3.49    2.26
  -6  -7  19   20.53    4.91
  -6  -7  18   21.74    4.88
  -6  -7  17    7.37    2.70
  -6  -7  16   -1.22    1.45
  -6  -7  15    6.64    2.68
  -6  -7  14   -0.86    2.30
  -6  -7  13    1.61    1.52
  -6  -7  12   10.47    2.58
  -6  -7  11   22.03    3.95
  -6  -7  10   21.13    3.98
  -6  -7   9   88.23    8.27
   6   7  -9   93.02    6.70
   6   7  -9   90.38    3.65
  -6  -7   8   93.03    8.41
   6   7  -8   86.57    6.45
   6   7  -8   86.69    3.98
  -6  -7   7  192.12   12.06
   6   7  -7  211.11   10.06
   6   7  -7  200.62    6.90
  -6  -7   6   42.48    5.61
   6   7  -6   37.92    4.19
   6   7  -6   37.04    3.05
  -6  -7   5  327.04   15.55
   6   7  -5  325.38   12.97
   6   7  -5  307.23   10.14
   6   7  -4    2.96    1.47
  -6  -7   4    1.76    1.48
   6   7  -4    2.01    1.09
   6   7  -3  224.78   11.05
   6   7  -3  212.25    9.20
   6   7  -2   66.23    5.15
   6   7  -1  185.72    9.12
   6   7   0  143.35    8.32
   6   7   1   39.33    4.48
   6   7   2  111.29    7.73
   6   7   3    5.45    1.93
   6   7   4    6.39    1.98
   6   7   5   10.94    2.71
   6   7   6    0.00    1.18
   6   7   7   32.41    4.88
   6   7   8   22.02    5.53
   6   7   8   20.27    4.09
   6   7   9   31.95    6.44
   6   7  10   44.11    7.88
  -6  -8  21    7.58    3.30
  -6  -8  20  111.33   11.24
  -6  -8  19   22.84    5.20
  -6  -8  18  145.53   12.51
  -6  -8  17    8.52    3.46
  -6  -8  16   69.01    8.70
  -6  -8  15    2.84    2.08
  -6  -8  14   -0.15    1.92
  -6  -8  13    6.12    2.43
  -6  -8  12   -1.65    2.22
  -6  -8  11    1.69    1.67
  -6  -8  10    6.22    2.27
   6   8 -10    8.64    2.17
  -6  -8   9   -1.61    2.39
   6   8  -9    0.44    1.04
   6   8  -9    2.75    0.77
  -6  -8   8    0.95    1.48
   6   8  -8    3.22    1.37
   6   8  -8    5.08    1.06
  -6  -8   7  103.77    8.95
   6   8  -7  115.47    7.71
   6   8  -7  107.09    5.17
  -6  -8   6   46.07    5.96
   6   8  -6   46.72    4.79
   6   8  -6   45.25    3.53
  -6  -8   5   44.14    5.87
   6   8  -5   44.56    4.82
   6   8  -5   42.10    3.60
  -6  -8   4  156.21   10.78
   6   8  -4  130.26    8.64
   6   8  -4  126.06    6.83
   6   8  -3    4.15    1.42
   6   8  -3    3.68    1.28
   6   8  -2  172.63    8.70
   6   8  -1    1.14    1.08
   6   8   0  146.69    8.67
   6   8   1   83.96    6.68
   6   8   2   54.56    5.61
   6   8   3   98.00    7.67
   6   8   4   45.31    5.41
   6   8   5   31.55    4.61
   6   8   6   29.86    4.61
   6   8   7   29.27    5.05
   6   8   8   48.59    7.97
  -6  -9  20    7.00    3.34
  -6  -9  19  115.12   11.52
  -6  -9  18    2.30    2.38
  -6  -9  17  157.25   13.31
  -6  -9  16    3.67    3.40
  -6  -9  15  200.96   14.34
  -6  -9  14   11.58    3.85
  -6  -9  13   10.90    3.34
  -6  -9  12    3.31    2.26
  -6  -9  11   25.09    5.05
  -6  -9  10   -1.15    2.11
   6   9 -10    1.55    1.30
  -6  -9   9    2.47    1.45
   6   9  -9    7.95    2.17
   6   9  -9    7.16    1.26
   6   9  -8    4.48    1.57
   6   9  -8    4.98    1.12
  -6  -9   7    5.66    2.34
   6   9  -7    5.22    1.65
   6   9  -7    8.49    1.54
  -6  -9   6   33.12    5.10
   6   9  -6   38.91    4.67
   6   9  -6   33.83    3.21
  -6  -9   5   60.73    7.13
   6   9  -5   59.64    5.96
   6   9  -5   44.07    3.97
  -6  -9   4  114.10    9.18
   6   9  -4  134.23    9.00
   6   9  -4  117.06    6.68
   6   9  -3   69.31    6.75
   6   9  -3   74.54    5.70
   6   9  -2   86.94    6.26
   6   9  -1  127.58    7.97
   6   9   0   15.69    2.90
   6   9   1   34.29    4.42
   6   9   2    2.69    1.48
   6   9   3   30.13    4.36
   6   9   4   35.41    4.92
   6   9   5   21.83    3.95
   6   9   6   94.01    8.36
  -6 -10  20   82.56   10.25
  -6 -10  19   -0.29    2.15
  -6 -10  18  138.74   12.73
  -6 -10  17    0.42    2.32
  -6 -10  16  209.06   15.27
  -6 -10  15   -0.03    1.95
  -6 -10  14  226.32   15.39
  -6 -10  13   18.34    4.65
  -6 -10  12  104.77   10.13
  -6 -10  11   46.98    6.67
   6  10 -11   44.05    5.31
  -6 -10  10    9.46    2.50
   6  10 -10    4.87    1.99
   6  10  -9   19.63    3.60
  -6 -10   9   17.60    3.97
   6  10  -8    5.59    1.93
   6  10  -8    5.44    1.24
   6  10  -7    6.54    2.04
  -6 -10   7    8.05    3.01
   6  10  -7    7.95    1.54
   6  10  -6    0.01    1.01
   6  10  -6    0.18    0.64
   6  10  -5   15.43    3.57
   6  10  -5   21.64    2.93
   6  10  -4   19.18    3.68
   6  10  -4   18.90    2.87
   6  10  -3   68.08    6.73
   6  10  -3   73.30    5.68
   6  10  -2   46.08    5.60
   6  10  -2   47.50    4.75
   6  10  -1   95.12    7.06
   6  10   0   11.88    2.59
   6  10   1   69.02    6.37
   6  10   2   27.75    4.21
   6  10   3    4.64    1.71
   6  10   4    8.44    2.49
   6  10   5   14.78    3.48
  -6 -11  19   17.30    4.78
  -6 -11  18    0.94    2.42
  -6 -11  17   91.88   10.55
  -6 -11  16    8.85    4.01
  -6 -11  15  164.13   13.64
  -6 -11  14   12.65    4.14
  -6 -11  13  213.11   15.17
  -6 -11  12    3.20    2.79
   6  11 -11  159.82   10.62
  -6 -11  11  167.53   13.06
  -6 -11  10   71.19    8.21
   6  11 -10   74.64    7.12
   6  11  -9    1.59    1.87
  -6 -11   9    2.60    1.86
  -6 -11   8  109.12    9.91
   6  11  -8  109.99    8.49
   6  11  -7   12.38    3.03
  -6 -11   7   17.37    4.04
   6  11  -7   17.75    2.57
  -6 -11   6   39.18    5.67
   6  11  -6   49.51    5.91
   6  11  -6   43.71    4.07
   6  11  -5    3.45    1.89
  -6 -11   5    1.42    1.21
   6  11  -5    1.29    0.90
   6  11  -4    8.51    2.61
   6  11  -4    5.28    1.52
   6  11  -3   16.79    3.47
   6  11  -3   15.08    2.73
   6  11  -2   23.12    4.06
   6  11  -2   21.35    3.26
   6  11  -1   17.92    3.30
   6  11   0   52.90    5.62
   6  11   1   17.58    3.44
   6  11   2   56.14    6.12
   6  11   3   24.65    4.24
   6  11   4   37.86    5.45
  -6 -12  18    0.53    2.24
  -6 -12  17    2.66    1.70
  -6 -12  16   22.73    5.56
  -6 -12  15   15.95    4.69
  -6 -12  14  165.29   13.98
  -6 -12  13    3.37    2.88
  -6 -12  12  202.40   14.96
  -6 -12  11    2.59    2.87
   6  12 -11    1.88    1.51
  -6 -12  10   26.51    5.16
   6  12 -10   26.98    4.37
  -6 -12   9    7.90    2.82
   6  12  -9   13.16    3.20
  -6 -12   8  125.28   10.91
   6  12  -8  128.87    9.67
  -6 -12   7  113.51   10.21
   6  12  -7  104.61    8.78
   6  12  -6   38.13    5.31
  -6 -12   6   31.34    5.31
   6  12  -6   36.12    3.92
   6  12  -5   39.93    5.40
  -6 -12   5   30.92    5.25
   6  12  -5   40.80    4.34
   6  12  -4    6.25    2.16
   6  12  -4    3.21    1.41
   6  12  -3   23.02    4.51
   6  12  -3   30.02    3.97
   6  12  -2   13.83    3.41
   6  12  -2   13.80    2.77
   6  12  -1    3.32    1.64
   6  12   0   28.69    4.26
   6  12   1   18.36    3.52
   6  12   2   24.19    4.21
   6  12   3   33.33    4.96
  -6 -13  17    8.64    3.57
  -6 -13  16   17.34    4.13
  -6 -13  15    6.20    2.83
  -6 -13  14   19.77    5.18
  -6 -13  13   66.21    8.98
  -6 -13  12   28.69    5.95
   6  13 -12   26.29    4.72
  -6 -13  11   33.75    6.59
   6  13 -11   33.76    5.17
   6  13 -10   52.35    6.41
  -6 -13  10   44.79    7.10
  -6 -13   9  173.69   13.36
   6  13  -9  164.85   11.44
  -6 -13   8   13.90    3.93
   6  13  -8   11.47    3.20
   6  13  -7   26.76    4.62
  -6 -13   7   25.33    4.86
  -6 -13   6   57.04    7.09
   6  13  -6   70.54    7.56
   6  13  -5   21.85    4.29
   6  13  -5   18.98    3.10
   6  13  -4  115.54    9.80
   6  13  -4  100.19    7.32
   6  13  -3   29.78    4.93
   6  13  -3   29.83    4.14
   6  13  -2   56.07    7.13
   6  13  -2   48.87    5.42
   6  13  -1   20.02    4.41
   6  13  -1   17.94    3.45
   6  13   0    5.50    2.06
   6  13   1   37.91    5.25
  -6 -14  16   -2.42    3.23
  -6 -14  15   -2.04    3.01
  -6 -14  14    4.48    2.85
  -6 -14  13   41.18    7.40
  -6 -14  12    2.60    1.83
   6  14 -12    1.64    1.68
  -6 -14  11  109.22   11.23
   6  14 -11  104.14    9.61
  -6 -14  10   93.90   10.38
   6  14 -10   71.75    7.97
  -6 -14   9   14.53    4.34
   6  14  -9   14.02    3.69
  -6 -14   8   36.52    6.31
   6  14  -8   36.69    5.52
   6  14  -7   11.58    2.98
  -6 -14   7   14.85    4.24
   6  14  -6   25.74    4.79
   6  14  -5   11.28    3.11
   6  14  -4   15.26    3.83
   6  14  -3   40.43    4.98
   6  14  -2   21.01    3.75
   6  14  -1   56.67    6.25
   6  14   0   22.82    4.02
  -6 -15  15   -3.43    3.14
  -6 -15  14   -0.23    2.33
  -6 -15  13    0.33    1.73
  -6 -15  12   27.57    6.11
  -6 -15  11   14.67    5.12
  -6 -15  10   17.77    5.00
   6  15 -10   24.25    4.92
  -6 -15   9    3.50    3.68
   6  15  -1   14.98    3.59
  -6 -16  13    8.31    3.30
  -6 -16  12   -2.00    3.19
  -6 -16  11    1.15    2.15
   7 -21   4   37.33    5.20
   7 -21   5   33.43    4.84
   7 -21   6   76.06    7.26
   7 -21   7   47.21    5.56
   7 -20   4    5.67    1.98
   7 -20   5   84.34    7.48
   7 -20   6    3.65    1.55
   7 -20   7   68.62    6.55
   7 -20   8   27.49    4.22
   7 -20   9   59.52    6.19
   7 -20  10   21.76    3.81
   7 -19  -3    1.12    1.32
   7 -19  -2   22.88    4.41
   7 -19  -1   19.23    4.10
   7 -19   0    8.23    2.65
   7 -19   1   39.75    5.46
   7 -19   2   35.73    5.01
   7 -19   3   44.67    5.67
   7 -19   4   72.83    7.26
   7 -19   4   68.40    6.62
   7 -19   5   27.17    4.16
   7 -19   5   21.53    3.91
   7 -19   6   78.40    6.96
   7 -19   7   -0.88    1.55
   7 -19   8  126.79    8.81
   7 -19   9    6.26    2.33
   7 -19  10   74.61    6.74
   7 -19  11   12.76    3.07
   7 -18  -6   63.34    7.46
   7 -18  -5   26.29    4.81
   7 -18  -4   50.42    6.43
   7 -18  -3   19.82    3.91
   7 -18  -2   11.38    3.00
   7 -18  -1   27.30    4.56
   7 -18   0    0.09    1.80
   7 -18   1    0.78    1.31
   7 -18   2   40.93    5.42
   7 -18   3    0.78    1.35
   7 -18   4   48.80    5.48
   7 -18   4   51.48    6.00
   7 -18   5   17.15    3.37
   7 -18   5   20.17    3.73
   7 -18   6   38.05    5.07
   7 -18   6   39.66    4.92
   7 -18   7   80.04    6.86
   7 -18   8   22.31    3.60
   7 -18   9  160.76    9.81
   7 -18  10    8.20    2.69
   7 -18  11  196.07   10.96
   7 -18  12    6.56    2.43
   7 -18  13   79.73    6.96
   7 -17  -8    0.99    1.57
   7 -17  -7    1.90    1.73
   7 -17  -6   25.25    4.64
   7 -17  -5   86.66    8.50
   7 -17  -4   31.01    5.04
   7 -17  -3   78.20    7.89
   7 -17  -2   38.59    5.91
   7 -17  -1   35.33    5.26
   7 -17   0    7.05    2.38
   7 -17   1    6.70    2.47
   7 -17   2   -1.14    1.59
   7 -17   3    8.56    2.71
   7 -17   4   10.86    2.92
   7 -17   5   33.79    4.66
   7 -17   5   29.82    4.23
   7 -17   6    2.59    1.70
   7 -17   6    1.86    1.72
   7 -17   7   12.10    2.77
   7 -17   8   34.49    4.40
   7 -17   9    1.76    1.33
   7 -17  10  154.82    9.53
   7 -17  11    3.58    1.91
   7 -17  12  169.70   10.03
   7 -17  13    3.97    1.85
   7 -16 -10   69.69    8.02
   7 -16  -9    6.33    2.63
   7 -16  -8   69.01    7.91
   7 -16  -7   14.60    3.98
   7 -16  -6   -0.21    1.39
   7 -16  -5   39.98    5.80
   7 -16  -4    3.39    1.82
   7 -16  -3   95.85    8.61
   7 -16  -2   32.41    4.96
   7 -16  -1   66.81    6.94
   7 -16   0  106.82    8.65
   7 -16   1   34.87    5.43
   7 -16   2  143.47    9.82
   7 -16   3    0.02    1.56
   7 -16   4   11.76    2.60
   7 -16   4    9.81    2.44
   7 -16   5    4.87    1.83
   7 -16   5    4.39    1.75
   7 -16   6    2.45    1.47
   7 -16   6    4.12    1.55
   7 -16   7    4.98    1.70
   7 -16   7    3.96    1.58
   7 -16   8    3.38    1.55
   7 -16   9   28.84    4.06
   7 -16  10   37.15    4.57
   7 -16  11   22.63    3.66
   7 -16  12    5.64    2.34
   7 -16  13  137.01    9.05
   7 -16  14    3.93    1.95
   7 -15 -12   53.02    7.23
   7 -15 -11   17.20    4.09
   7 -15 -10   19.53    4.21
   7 -15  -9   57.74    7.34
   7 -15  -8   40.23    6.02
   7 -15  -7   84.69    8.47
   7 -15  -6    9.24    2.93
   7 -15  -5   69.74    7.43
   7 -15  -4   65.15    7.15
   7 -15  -3    8.35    2.61
   7 -15  -2  171.96   11.23
  -7  15   2  179.68    8.15
   7 -15  -1   34.32    4.97
  -7  15   1   32.11    3.34
   7 -15   0   99.63    8.56
  -7  15   0   80.50    5.37
   7 -15   1  118.02    8.86
   7 -15   2   31.81    4.60
   7 -15   3    7.81    2.16
   7 -15   4    7.28    2.09
   7 -15   4    7.61    2.24
   7 -15   5   58.17    5.78
   7 -15   5   54.60    5.39
   7 -15   6    1.45    1.29
   7 -15   6    0.55    1.02
   7 -15   7    0.51    1.08
   7 -15   7    0.59    1.03
   7 -15   8    5.92    1.84
   7 -15   9   13.76    2.81
   7 -15  10    9.67    2.44
   7 -15  11    5.41    1.85
   7 -15  12    8.64    2.70
   7 -15  13    2.47    1.72
   7 -15  14   82.74    6.98
   7 -15  15   11.25    2.67
   7 -14 -13   43.91    6.83
   7 -14 -12    9.99    3.34
   7 -14 -11   21.40    4.86
   7 -14 -10    2.52    2.20
   7 -14  -9   23.26    6.38
   7 -14  -8   84.82    8.60
   7 -14  -7   15.93    3.79
   7 -14  -6  207.75   13.13
   7 -14  -5   57.62    6.65
  -7  14   5   57.22    4.57
   7 -14  -4  181.68   11.90
  -7  14   4  193.43    8.37
   7 -14  -3  117.28    9.18
  -7  14   3  110.40    5.98
   7 -14  -2   13.09    3.82
  -7  14   2   13.24    2.07
   7 -14  -1  205.55   12.17
  -7  14   1  220.53    8.43
   7 -14   0   58.79    6.26
  -7  14   0   67.11    4.52
   7 -14   1  226.36   12.18
   7 -14   2   13.51    3.02
   7 -14   3  167.28   10.19
   7 -14   4   31.34    3.87
   7 -14   4   37.49    4.61
   7 -14   5   65.63    6.07
   7 -14   5   63.04    5.65
   7 -14   6   10.54    2.59
   7 -14   6   13.17    2.58
   7 -14   7    2.11    1.52
   7 -14   7    3.85    1.69
   7 -14   8    3.18    1.69
   7 -14   9   16.97    3.07
   7 -14  10    0.08    0.78
   7 -14  11    0.51    1.20
   7 -14  12   -0.94    1.33
   7 -14  13    1.08    1.16
   7 -14  14    2.63    1.61
   7 -14  15   19.50    3.42
   7 -13 -15   21.34    4.80
   7 -13 -14    9.70    3.52
   7 -13 -13   43.87    6.85
   7 -13 -12   13.77    4.00
   7 -13 -11   66.85    7.98
   7 -13 -10    6.05    2.65
   7 -13  -9    6.34    2.92
   7 -13  -8    7.49    2.60
   7 -13  -7    5.23    1.96
   7 -13  -6    8.94    2.91
   7 -13  -5   49.38    6.11
   7 -13  -4   22.15    3.99
  -7  13   4   24.36    2.60
   7 -13  -3  153.84   10.55
  -7  13   3  176.77    7.07
   7 -13  -2   99.31    8.25
  -7  13   2  105.17    5.27
   7 -13  -1   54.73    6.05
  -7  13   1   52.29    3.74
   7 -13   0  183.76   10.93
   7 -13   1    5.06    2.02
   7 -13   2  306.50   13.96
   7 -13   3    0.72    1.18
   7 -13   4  254.84   12.19
   7 -13   4  260.04   11.54
   7 -13   5    0.69    1.01
   7 -13   5    2.92    1.75
   7 -13   6  161.69    9.47
   7 -13   6  148.11    8.56
   7 -13   7   36.94    4.36
   7 -13   7   30.10    3.76
   7 -13   8   25.78    3.60
   7 -13   8   25.57    3.54
   7 -13   9    6.60    2.18
   7 -13  10    3.19    1.42
   7 -13  11    3.81    1.25
   7 -13  12   13.43    2.70
   7 -13  13    1.52    1.27
   7 -13  14    6.05    2.15
   7 -13  15    0.61    1.28
   7 -12 -16    1.47    2.04
   7 -12 -15   -2.32    1.94
   7 -12 -14    1.93    1.45
   7 -12 -13    8.19    3.04
   7 -12 -12   67.27    8.16
   7 -12 -11    7.68    2.97
   7 -12 -10   71.18    8.08
   7 -12  -9   29.84    5.24
   7 -12  -8   63.88    7.26
   7 -12  -7   32.27    5.49
   7 -12  -6    4.71    3.47
   7 -12  -5    0.18    1.18
   7 -12  -4   16.06    3.49
  -7  12   4   16.46    2.08
   7 -12  -3    5.23    2.18
  -7  12   3    7.85    1.36
   7 -12  -2   10.75    2.71
  -7  12   2   15.64    1.82
   7 -12  -1   14.98    3.03
   7 -12   0   67.02    6.41
   7 -12   1  114.34    8.33
   7 -12   2   64.49    6.05
   7 -12   3  266.27   12.38
   7 -12   4   -1.11    1.18
   7 -12   4    0.41    1.12
   7 -12   5  343.73   13.85
   7 -12   5  360.51   13.39
   7 -12   6    3.40    1.41
   7 -12   6    2.03    1.09
   7 -12   7  286.69   12.06
   7 -12   7  262.13   11.28
   7 -12   8    2.51    1.93
   7 -12   8    2.63    1.76
   7 -12   9  159.18    8.75
   7 -12  10    3.94    1.51
   7 -12  11    1.54    1.36
   7 -12  12    1.39    1.35
   7 -12  13    4.21    1.72
   7 -12  14   -0.66    1.01
   7 -12  15    5.50    2.03
   7 -12  16    3.78    2.41
   7 -11 -16   20.46    5.01
   7 -11 -15   32.59    5.97
   7 -11 -14   16.70    4.30
   7 -11 -13   -0.12    2.36
   7 -11 -12    1.12    1.83
   7 -11 -11   38.57    6.12
   7 -11 -10   77.32    8.27
   7 -11  -9  161.32   11.98
   7 -11  -8   54.30    6.84
   7 -11  -7   79.43    7.96
   7 -11  -6   19.41    4.45
   7 -11  -5   72.03    7.27
   7 -11  -4    0.21    1.37
  -7  11   4    1.08    0.70
   7 -11  -3   -0.18    1.56
  -7  11   3    0.40    0.48
   7 -11  -2    2.19    0.94
  -7  11   2    3.98    0.89
   7 -11  -1   24.82    3.86
   7 -11   0    0.56    0.84
   7 -11   1   28.41    4.07
   7 -11   2   22.88    3.57
   7 -11   3   24.22    3.72
   7 -11   4  182.82    9.70
   7 -11   4  173.12    8.90
   7 -11   5   14.26    2.62
   7 -11   5   11.53    1.74
   7 -11   5   13.60    2.60
   7 -11   6  371.86   13.69
   7 -11   6  337.36   10.54
   7 -11   6  364.59   13.22
   7 -11   7    4.48    1.74
   7 -11   7    2.08    0.94
   7 -11   7    4.19    1.67
   7 -11   8  383.90   13.72
   7 -11   8  342.80   13.14
   7 -11   9    4.47    1.70
   7 -11  10  264.72   11.57
   7 -11  11   18.09    3.11
   7 -11  12   57.98    5.54
   7 -11  13    4.18    1.68
   7 -11  14    1.26    1.42
   7 -11  15    8.02    2.40
   7 -11  16    4.05    1.78
   7 -10 -17   14.39    4.13
   7 -10 -16   61.01    8.44
   7 -10 -15   11.87    3.75
   7 -10 -14  149.41   12.54
   7 -10 -13    4.41    2.56
   7 -10 -12   17.98    4.13
   7 -10 -11   59.72    7.43
   7 -10 -10    9.93    3.36
   7 -10  -9   75.50    8.43
   7 -10  -8   46.38    6.44
   7 -10  -7  177.95   11.91
  -7  10   7  166.58    8.91
   7 -10  -6  109.64    9.16
  -7  10   6  116.57    7.53
   7 -10  -5   70.07    7.17
   7 -10  -4  189.25   11.60
  -7  10   4  200.49    5.92
   7 -10  -3    7.71    2.44
  -7  10   3    6.51    0.87
   7 -10  -2   16.31    3.20
   7 -10  -1   16.21    3.13
   7 -10   0    7.00    1.96
   7 -10   1   38.04    4.58
   7 -10   2    2.14    1.66
   7 -10   3   47.02    4.49
   7 -10   3   53.37    5.16
   7 -10   4   76.17    5.97
   7 -10   4   61.61    3.50
   7 -10   4   75.96    5.59
   7 -10   5   50.75    4.83
   7 -10   5   39.29    3.05
   7 -10   5   50.03    4.52
   7 -10   6    2.80    1.26
   7 -10   6    1.05    0.69
   7 -10   6    3.72    1.91
   7 -10   7  215.95    9.81
   7 -10   7  193.34    8.12
   7 -10   7  222.90    9.99
   7 -10   8    5.91    1.68
   7 -10   8    5.86    1.76
   7 -10   9  269.84   11.38
   7 -10  10    3.81    2.07
   7 -10  11  337.43   13.34
   7 -10  12   26.77    3.77
   7 -10  13  176.52    9.89
   7 -10  14   23.68    3.93
   7 -10  15   33.16    4.55
   7 -10  16   37.61    5.00
   7  -9 -18   31.39    5.91
   7  -9 -17   13.55    4.13
   7  -9 -16    6.33    2.88
   7  -9 -15  136.49   12.06
   7  -9 -14    2.72    2.18
   7  -9 -13   26.32    5.13
   7  -9 -12  100.28    9.78
   7  -9 -11  139.30   11.27
   7  -9 -10  128.97   10.60
   7  -9  -9   63.32    7.39
   7  -9  -8  172.81   11.92
   7  -9  -7   18.23    4.37
  -7   9   7   11.83    2.37
   7  -9  -6  345.77   16.43
  -7   9   6  351.62   13.42
   7  -9  -5  103.30    8.57
  -7   9   5  115.41    7.64
   7  -9  -4  209.45   12.00
  -7   9   4  237.47    5.51
   7  -9  -3   39.28    5.03
   7  -9  -2   47.96    5.39
   7  -9  -1   75.03    6.65
   7  -9   0    4.00    2.09
   7  -9   1    2.92    1.51
   7  -9   2  105.92    7.29
   7  -9   3   27.37    3.61
   7  -9   3   24.55    1.83
   7  -9   3   22.70    2.97
   7  -9   4    9.24    2.12
   7  -9   4    7.29    1.18
   7  -9   4    7.12    1.80
   7  -9   5    1.72    1.34
   7  -9   5    0.61    0.58
   7  -9   5    2.82    1.32
   7  -9   6    2.63    1.56
   7  -9   6    3.11    0.97
   7  -9   6    2.65    1.41
   7  -9   7    9.39    2.01
   7  -9   7    9.23    2.04
   7  -9   8   66.75    5.08
   7  -9   8   76.36    5.61
   7  -9   9    1.54    1.31
   7  -9  10  320.57   12.60
   7  -9  11   58.09    5.33
   7  -9  12  267.25   12.05
   7  -9  13   26.25    4.35
   7  -9  14  158.89    9.62
   7  -9  15   11.88    2.79
   7  -9  16   40.86    5.27
   7  -8 -19   18.37    4.73
   7  -8 -18    3.01    2.09
   7  -8 -17    4.76    2.64
   7  -8 -16    0.86    2.14
   7  -8 -15    3.06    2.22
   7  -8 -14    5.91    2.71
   7  -8 -13   28.59    5.26
   7  -8 -12  112.79   10.35
   7  -8 -11   48.82    6.65
   7  -8 -10  144.73   11.22
   7  -8  -9   74.36    7.77
   7  -8  -8  117.67    9.81
  -7   8   8  113.03    6.62
   7  -8  -7  297.69   15.31
  -7   8   7  318.70   12.12
   7  -8  -6   18.68    3.71
  -7   8   6   19.35    2.99
   7  -8  -5  360.87   16.45
  -7   8   5  374.85   14.09
   7  -8  -4    5.15    2.09
   7  -8  -3  257.17   12.91
   7  -8  -2   40.88    4.88
   7  -8  -1  205.26   10.96
   7  -8   0   19.92    3.35
   7  -8   1    0.67    1.11
   7  -8   2    0.17    0.69
   7  -8   3    0.94    1.15
   7  -8   3    1.19    0.96
   7  -8   3    0.52    0.42
   7  -8   4    1.34    0.81
   7  -8   4    2.13    0.71
   7  -8   4    1.50    1.05
   7  -8   5   50.06    4.47
   7  -8   5   52.17    4.42
   7  -8   6    1.89    1.02
   7  -8   6    1.28    1.32
   7  -8   7   26.83    3.12
   7  -8   7   20.47    2.84
   7  -8   8    5.40    1.50
   7  -8   8    4.79    1.26
   7  -8   9   39.33    4.16
   7  -8  10  103.59    6.90
   7  -8  11  170.90    9.26
   7  -8  12   28.70    3.89
   7  -8  13  148.29    9.00
   7  -8  14    1.42    1.63
   7  -8  15  110.75    8.40
   7  -8  16    1.05    1.44
   7  -7 -19   40.21    6.87
   7  -7 -18   24.53    5.21
   7  -7 -17   33.44    5.98
   7  -7 -16   -0.21    1.56
   7  -7 -15   67.74    8.40
   7  -7 -14   25.06    5.08
   7  -7 -13   35.35    6.08
   7  -7 -12   10.94    3.42
   7  -7 -11   36.11    6.55
   7  -7 -10   -3.23    2.62
   7  -7  -9   99.90    9.00
   7  -7  -8   38.08    5.50
  -7   7   7  218.35    9.74
   7  -7  -7  195.52   12.17
  -7   7   6  233.61   10.87
   7  -7  -6  268.62   14.09
  -7   7   5  100.58    7.00
   7  -7  -5   99.69    8.21
  -7   7   4  517.66   17.58
   7  -7  -4  515.47   19.17
   7  -7  -3    9.89    2.63
   7  -7  -2  705.19   21.91
   7  -7  -1   20.47    3.47
   7  -7   0  517.15   17.74
   7  -7   1   19.37    3.14
   7  -7   2  251.57   11.07
   7  -7   2  243.13    5.62
   7  -7   2  255.77   10.00
   7  -7   3    4.40    1.94
   7  -7   3    2.36    1.65
   7  -7   4   14.38    2.38
   7  -7   4   13.86    2.24
   7  -7   5    2.76    1.26
   7  -7   5    4.14    1.31
   7  -7   6    0.97    0.95
   7  -7   6    1.07    0.95
   7  -7   7    5.45    1.52
   7  -7   7    7.82    1.63
   7  -7   8   36.60    3.76
   7  -7   9    1.12    1.07
   7  -7  10    3.62    1.71
   7  -7  11   21.59    3.63
   7  -7  12   34.16    4.29
   7  -7  13  109.43    7.72
   7  -7  14   42.77    5.12
   7  -7  15   64.06    6.68
   7  -7  16   72.11    7.15
   7  -6 -20    9.65    3.79
   7  -6 -19   19.50    4.70
   7  -6 -18   24.35    5.20
   7  -6 -17   10.34    3.68
   7  -6 -16  115.18   10.98
  -7   6  16  117.91    9.32
   7  -6 -15    2.58    3.08
  -7   6  15    0.72    1.31
   7  -6 -14   41.12    6.44
  -7   6  14   33.13    4.75
   7  -6 -13   65.35    8.36
  -7   6  13   55.71    6.29
   7  -6 -12   45.24    6.32
  -7   6  12   37.37    5.02
   7  -6 -11    1.47    1.43
   7  -6 -10    2.19    1.37
   7  -6  -9   13.62    3.20
   7  -6  -8   14.98    3.50
   7  -6  -7   -0.94    1.95
   7  -6  -6   60.75    6.45
  -7   6   6   75.13    2.58
  -7   6   5   75.51    6.02
   7  -6  -5   70.63    6.75
  -7   6   4  130.69    8.20
   7  -6  -4  127.20    8.94
   7  -6  -3  500.68   18.32
   7  -6  -2   39.29    4.73
   7  -6  -1  919.77   25.78
   7  -6   0   11.42    2.70
   7  -6   1  573.56   17.88
   7  -6   2    2.98    1.55
   7  -6   2    2.16    1.19
   7  -6   3  265.59   10.82
   7  -6   3  262.47    9.85
   7  -6   4    5.99    1.67
   7  -6   4    5.17    1.36
   7  -6   5  108.73    6.29
   7  -6   5  109.04    6.28
   7  -6   6   33.68    3.38
   7  -6   6   35.98    3.69
   7  -6   7    0.26    0.52
   7  -6   7    0.03    0.77
   7  -6   8   25.96    3.32
   7  -6   9    1.78    1.18
   7  -6  10   43.82    4.88
   7  -6  11    0.71    1.11
   7  -6  12   61.72    5.63
   7  -6  13    8.58    2.65
   7  -6  14   55.37    5.84
   7  -6  15   32.12    4.72
   7  -6  16   55.56    6.40
   7  -5 -20   16.97    4.33
   7  -5 -19    3.84    2.78
   7  -5 -18   17.23    4.38
   7  -5 -17    5.97    2.85
  -7   5  17    9.09    2.99
   7  -5 -16   30.89    5.72
  -7   5  16   31.34    4.96
   7  -5 -15   51.35    7.10
  -7   5  15   49.85    6.19
   7  -5 -14   92.90    9.34
  -7   5  14   70.02    7.32
   7  -5 -13   58.52    7.28
  -7   5  13   54.99    6.23
   7  -5 -12   21.91    4.63
  -7   5  12   15.29    3.41
   7  -5 -11  220.29   13.84
  -7   5  11  201.90   11.69
   7  -5 -10    4.81    2.66
  -7   5  10    3.63    1.57
   7  -5  -9   34.83    5.32
   7  -5  -8   -0.29    1.42
   7  -5  -8    2.28    0.89
  -7   5   7    0.89    0.42
   7  -5  -7    0.06    0.46
   7  -5  -6    0.41    1.08
  -7   5   6    0.40    0.22
   7  -5  -6   -0.35    0.68
   7  -5  -5   40.31    4.99
   7  -5  -4   22.83    3.76
   7  -5  -3   67.43    6.19
   7  -5  -2   63.26    5.80
   7  -5  -1    1.81    1.35
   7  -5   0  675.97   19.80
   7  -5   1   12.29    2.19
   7  -5   1    8.87    2.22
   7  -5   2  605.95   17.56
   7  -5   2  601.93   15.77
   7  -5   3    0.98    0.95
   7  -5   3    1.56    0.85
   7  -5   4  374.84   12.45
   7  -5   4  388.97   12.33
  -7   5  -5   25.45    3.60
   7  -5   5   21.15    2.71
   7  -5   5   27.64    3.09
  -7   5  -6  192.91    9.93
   7  -5   6  199.05    7.89
   7  -5   6  196.90    8.67
  -7   5  -7  107.19    7.25
   7  -5   7  109.49    5.62
   7  -5   7  107.73    6.48
  -7   5  -8   70.58    5.83
   7  -5   8   85.15    5.80
   7  -5   9   43.08    4.21
   7  -5  10   17.20    2.77
   7  -5  11    8.80    2.22
   7  -5  12    4.05    1.59
   7  -5  13   16.26    3.91
   7  -5  14    4.25    1.76
   7  -5  15   35.56    4.96
   7  -5  16   16.41    3.69
   7  -4 -20   47.06    7.38
   7  -4 -19   18.26    4.47
   7  -4 -18   44.25    6.84
  -7   4  18   40.07    5.84
   7  -4 -17   52.73    7.38
  -7   4  17   50.01    6.33
   7  -4 -16   18.20    4.46
  -7   4  16   20.71    4.46
   7  -4 -15  151.02   12.08
  -7   4  15  150.51   10.88
   7  -4 -14   13.45    4.09
  -7   4  14   12.84    3.55
   7  -4 -13  118.54   10.26
  -7   4  13  105.59    8.72
   7  -4 -12   77.80    8.14
  -7   4  12   76.63    7.28
   7  -4 -12   78.28    4.91
   7  -4 -11   47.56    6.21
  -7   4  11   47.87    5.66
   7  -4 -11   44.82    3.59
   7  -4 -10   66.12    7.24
  -7   4  10   62.94    6.49
   7  -4 -10   67.54    4.28
   7  -4  -9   21.73    4.05
  -7   4   9   20.88    3.57
   7  -4  -9   18.09    2.23
   7  -4  -8  158.51   10.78
  -7   4   8  154.18    5.72
   7  -4  -8  143.46    6.40
   7  -4  -7    3.46    1.67
  -7   4   7    7.86    1.01
   7  -4  -7    5.95    1.39
   7  -4  -6    2.84    1.12
   7  -4  -6    4.28    1.72
   7  -4  -5   39.34    4.89
   7  -4  -4   -0.88    1.43
   7  -4  -3   29.05    3.71
   7  -4  -3   27.97    4.07
   7  -4  -2   16.25    2.87
   7  -4  -2   13.22    2.60
   7  -4  -1    2.16    1.43
   7  -4  -1   -0.18    0.94
   7  -4   0    8.26    2.60
   7  -4   0    3.53    1.52
   7  -4   1  142.97    9.46
   7  -4   1  139.50    7.82
   7  -4   1  126.14    6.34
   7  -4   2   40.42    5.23
   7  -4   2   43.56    4.21
  -7   4  -2   35.09    4.14
   7  -4   2   41.83    3.57
   7  -4   3  641.49   22.24
   7  -4   3  597.87   16.58
  -7   4  -3  616.33   18.96
   7  -4   3  596.25   15.60
   7  -4   4    1.79    2.03
   7  -4   4   -0.08    0.61
  -7   4  -4    1.15    1.07
   7  -4   4    1.90    1.04
   7  -4   5  454.73   19.08
  -7   4  -5  450.84   15.17
   7  -4   5  445.02   12.58
   7  -4   5  437.90   13.42
   7  -4   6   16.32    3.74
  -7   4  -6   11.87    2.40
   7  -4   6   12.94    1.96
   7  -4   6   11.98    2.53
  -7   4  -7  303.07   11.87
   7  -4   7  300.01    9.23
   7  -4   7  315.05   11.39
   7  -4   8   87.03    5.95
   7  -4   9  160.21    8.32
   7  -4  10   73.36    5.79
   7  -4  11   14.09    2.66
   7  -4  12   53.22    5.80
   7  -4  13    1.47    1.62
   7  -4  14   12.84    2.94
   7  -4  15    0.38    1.36
   7  -4  16    2.26    1.75
   7  -3 -21   31.57    6.17
   7  -3 -20    7.01    2.95
   7  -3 -19   87.26    9.73
  -7   3  19   93.69    9.35
   7  -3 -18   23.78    5.23
  -7   3  18   22.83    4.56
   7  -3 -17   57.78    7.74
  -7   3  17   88.99    8.58
   7  -3 -16   36.98    6.04
  -7   3  16   32.78    5.34
   7  -3 -15   31.49    5.48
  -7   3  15   30.79    5.15
   7  -3 -14  148.18   11.69
  -7   3  14  178.79   11.68
   7  -3 -13    7.57    2.97
  -7   3  13   11.67    3.44
   7  -3 -12  221.67   13.71
  -7   3  12  227.61   12.95
   7  -3 -12  239.17    8.33
   7  -3 -11    1.67    1.55
  -7   3  11    3.79    1.82
   7  -3 -11    0.57    0.56
   7  -3 -10  213.99   12.87
  -7   3  10  219.98   12.34
  -7   3  10  208.17    8.30
   7  -3 -10  206.28    7.29
   7  -3  -9  108.10    8.95
  -7   3   9  114.63    8.70
  -7   3   9  113.30    5.47
   7  -3  -9  111.69    5.27
   7  -3  -8  270.08   14.14
  -7   3   8  268.40   13.48
  -7   3   8  282.45    8.05
   7  -3  -8  261.08    8.50
   7  -3  -7  146.04    9.95
  -7   3   7  136.08    4.67
   7  -3  -7  130.96    7.05
   7  -3  -7  130.85    5.98
   7  -3  -6   30.83    4.78
   7  -3  -6   35.62    4.04
   7  -3  -5    5.53    1.86
   7  -3  -5    7.35    1.82
   7  -3  -4   62.06    6.14
   7  -3  -4   49.86    4.93
   7  -3  -3   -0.07    0.99
   7  -3  -3    0.79    0.94
   7  -3  -2  162.49    9.17
   7  -3  -2  149.10    3.92
   7  -3  -2  165.61    9.65
   7  -3  -1    8.17    1.88
   7  -3  -1   11.49    2.53
   7  -3  -1   10.26    1.02
   7  -3   0   53.36    5.78
   7  -3   0   59.31    5.21
   7  -3   0   53.64    3.88
   7  -3   1   39.10    5.05
   7  -3   1   30.91    3.56
   7  -3   1   30.99    2.92
   7  -3   2    3.71    1.70
  -7   3  -2    2.51    1.37
   7  -3   2    3.16    1.36
   7  -3   2    1.97    0.83
   7  -3   3   89.09    7.94
   7  -3   3   92.60    5.61
  -7   3  -3   85.81    6.15
   7  -3   3   95.40    5.39
   7  -3   4   84.41    8.03
  -7   3  -4   82.74    5.92
   7  -3   4   83.47    4.99
   7  -3   4   87.97    5.30
   7  -3   5   40.58    5.68
  -7   3  -5   29.80    3.49
   7  -3   5   36.81    3.08
   7  -3   5   35.13    3.44
   7  -3   6  465.18   20.29
   7  -3   6  481.34   11.97
  -7   3  -6  459.60   14.48
   7  -3   6  506.07   14.42
   7  -3   7   13.33    4.04
   7  -3   7   36.90    3.85
   7  -3   8  259.31   15.21
   7  -3   8  266.14   10.65
   7  -3   9   12.80    3.85
   7  -3   9   16.19    2.86
   7  -3  10  162.85    8.80
   7  -3  11   30.22    3.94
   7  -3  12   78.44    6.54
   7  -3  13   70.80    6.55
   7  -3  14   10.18    2.72
   7  -3  15   54.56    6.43
   7  -2 -21   -2.25    2.14
  -7   2  21   -0.05    1.83
   7  -2 -20   13.43    4.03
  -7   2  20   14.42    4.25
   7  -2 -19   19.47    5.31
  -7   2  19   11.51    4.17
   7  -2 -18   70.32    8.49
  -7   2  18   85.26    8.80
   7  -2 -17   21.89    4.60
  -7   2  17   19.68    4.07
   7  -2 -16   89.95    9.19
  -7   2  16   98.10    9.01
   7  -2 -15   66.80    7.73
  -7   2  15   64.83    7.21
   7  -2 -14   21.02    4.66
  -7   2  14   41.63    5.78
   7  -2 -13   91.15    8.85
  -7   2  13  105.14    8.89
   7  -2 -12   74.38    7.79
  -7   2  12   79.76    7.72
   7  -2 -12   78.01    4.07
   7  -2 -11  406.56   18.60
  -7   2  11  451.34   18.56
  -7   2  11  445.58   13.69
   7  -2 -11  457.98   11.10
   7  -2 -10    6.07    2.58
  -7   2  10    5.82    2.37
  -7   2  10    6.56    1.52
   7  -2 -10    5.73    1.16
   7  -2  -9  368.75   16.75
  -7   2   9  368.61   16.27
  -7   2   9  347.01   10.35
   7  -2  -9  341.51   11.53
   7  -2  -9  355.15    9.44
   7  -2  -8   58.48    6.32
  -7   2   8   47.52    5.75
  -7   2   8   53.71    3.33
   7  -2  -8   49.29    3.29
   7  -2  -8   46.33    4.27
   7  -2  -7  706.00   22.96
  -7   2   7  690.80   22.76
   7  -2  -7  697.19   19.22
   7  -2  -6    9.52    2.67
   7  -2  -6    4.94    1.76
   7  -2  -5  174.31   10.18
   7  -2  -5  176.03    9.45
   7  -2  -4    3.06    1.49
   7  -2  -4    0.53    1.11
   7  -2  -3    2.15    1.32
   7  -2  -3    3.10    0.65
   7  -2  -3    1.34    1.13
   7  -2  -2    2.67    0.82
   7  -2  -2    2.08    1.39
   7  -2  -2    1.31    0.49
   7  -2  -1   46.44    5.39
   7  -2  -1   45.69    4.57
   7  -2  -1   43.88    3.39
   7  -2   0    4.89    1.73
   7  -2   0    3.58    1.27
   7  -2   0    4.20    1.10
   7  -2   1   82.37    7.55
   7  -2   1   82.93    5.81
   7  -2   1   82.77    4.74
   7  -2   2   -0.07    1.12
   7  -2   2    0.27    0.67
   7  -2   2    0.98    0.70
   7  -2   3   75.22    7.62
   7  -2   3   73.36    4.77
   7  -2   3   82.95    4.90
   7  -2   4  111.30    9.47
   7  -2   4  110.68    5.47
   7  -2   4  111.37    5.92
   7  -2   5   66.75    7.71
   7  -2   5   58.64    3.69
   7  -2   5   74.54    5.12
   7  -2   6  155.55   11.59
   7  -2   6  143.99    5.38
   7  -2   6  161.64    7.51
   7  -2   7  158.37   11.85
   7  -2   7  156.67    7.62
   7  -2   8   59.11    7.36
   7  -2   8   52.15    4.58
   7  -2   9  208.65   14.20
   7  -2   9  235.87   10.37
   7  -2  10    6.33    2.94
   7  -2  10    4.53    2.22
   7  -2  11  130.82   11.38
   7  -2  11  128.30    8.18
   7  -2  12   15.14    2.96
   7  -2  13   35.33    4.71
   7  -2  14   51.17    5.84
   7  -2  15   13.59    3.25
  -7   1  22    4.70    3.33
   7  -1 -21   16.77    4.60
  -7   1  21   21.87    4.78
   7  -1 -20    9.55    3.33
  -7   1  20   12.42    3.95
   7  -1 -19   18.16    4.73
  -7   1  19   17.82    4.63
   7  -1 -18   12.71    4.13
  -7   1  18   14.64    3.87
   7  -1 -17    9.88    3.29
  -7   1  17    9.45    3.14
   7  -1 -16    0.12    2.01
  -7   1  16   -2.05    1.91
   7  -1 -15   36.25    5.71
  -7   1  15   50.07    6.53
   7  -1 -14   10.07    3.20
  -7   1  14    8.43    2.79
   7  -1 -13  106.32    9.38
  -7   1  13  124.83    9.87
   7  -1 -12  119.30    9.83
  -7   1  12  120.97    9.59
  -7   1  12  151.37    7.88
   7  -1 -12  121.70    5.68
   7  -1 -12  134.19    4.81
   7  -1 -11   10.97    2.92
  -7   1  11   11.24    2.83
  -7   1  11   10.11    1.97
   7  -1 -11    8.86    1.20
   7  -1 -11   10.46    1.88
   7  -1 -10  282.35   14.64
  -7   1  10  305.77   14.94
  -7   1  10  281.00    9.93
   7  -1 -10  264.83   10.11
   7  -1 -10  291.81    7.64
   7  -1  -9   14.61    3.36
  -7   1   9   20.63    3.94
  -7   1   9   22.83    2.55
   7  -1  -9   20.90    2.98
   7  -1  -9   20.06    1.86
   7  -1  -8  621.52   21.63
   7  -1  -8  620.66   13.52
  -7   1   8  628.14   22.16
  -7   1   8  607.57   14.24
   7  -1  -8  622.36   17.87
   7  -1  -7   20.47    3.92
  -7   1   7   23.36    4.65
   7  -1  -7   18.81    3.02
   7  -1  -6 1001.63   28.08
   7  -1  -6  972.25   25.34
   7  -1  -5    5.52    2.42
   7  -1  -5    8.66    2.58
   7  -1  -4  356.23   14.34
   7  -1  -4  327.50    8.67
   7  -1  -4  369.19   14.99
   7  -1  -3  120.86    7.93
   7  -1  -3  121.08    4.70
   7  -1  -3  128.87    8.86
   7  -1  -2    1.84    1.16
   7  -1  -2    1.14    1.27
   7  -1  -2    2.40    0.62
   7  -1  -1   45.01    5.40
   7  -1  -1   34.58    3.93
   7  -1  -1   36.76    3.02
   7  -1   0    7.29    2.38
   7  -1   0    6.52    1.66
   7  -1   0    6.41    1.37
   7  -1   1    3.42    1.87
   7  -1   1    1.35    1.12
   7  -1   1    1.79    0.79
   7  -1   2   99.94    8.73
   7  -1   2   87.97    5.43
   7  -1   2   90.09    4.89
   7  -1   3   29.90    4.93
   7  -1   3   21.15    2.48
   7  -1   3   24.87    2.62
   7  -1   4    7.30    2.61
   7  -1   4    9.04    1.41
   7  -1   4    7.00    1.44
   7  -1   5   66.36    7.62
   7  -1   5   76.53    3.90
   7  -1   5   84.88    5.20
   7  -1   6   23.26    5.11
   7  -1   6   26.59    2.91
   7  -1   7  128.64   10.94
   7  -1   7  124.16    6.82
   7  -1   8   41.64    6.26
   7  -1   8   48.98    4.45
   7  -1   9  100.04    9.91
   7  -1   9  106.81    6.90
   7  -1  10   77.76    8.81
   7  -1  10   70.51    5.89
   7  -1  11   39.16    6.40
   7  -1  11   35.50    4.43
   7  -1  12   59.81    7.99
   7  -1  12   61.36    6.09
   7  -1  13   -0.38    1.24
   7  -1  14   15.55    3.45
   7  -1  15    8.82    2.83
  -7   0  23    8.28    3.63
  -7   0  22   28.08    5.84
   7   0 -21   23.25    5.16
  -7   0  21   42.51    7.08
   7   0 -20   45.17    6.95
  -7   0  20   61.74    7.92
   7   0 -19   19.61    4.38
  -7   0  19   22.60    5.29
   7   0 -18   10.80    4.37
  -7   0  18   17.15    4.38
   7   0 -17    0.43    1.38
  -7   0  17   -1.95    1.54
  -7   0  16    1.55    1.78
  -7   0  15    6.63    2.34
  -7   0  14   16.20    3.63
  -7   0  13   -0.57    1.96
   7   0 -13    0.67    0.55
  -7   0  12    8.89    2.69
   7   0 -12   10.83    1.04
   7   0 -12   10.88    1.81
  -7   0  11    9.83    2.69
  -7   0  11   14.36    2.36
   7   0 -11   10.52    1.05
   7   0 -11    5.24    1.37
  -7   0  10    1.27    0.83
  -7   0  10    0.23    1.27
   7   0 -10    1.98    0.60
   7   0 -10   -0.19    0.84
   7   0  -9  184.77   11.31
  -7   0   9  195.36   11.86
  -7   0   9  186.95    7.73
   7   0  -9  177.20    8.98
   7   0  -9  191.37    5.70
   7   0  -8   21.89    4.01
  -7   0   8   21.66    4.27
   7   0  -8   13.74    2.64
   7   0  -7  693.76   22.73
  -7   0   7  694.82   23.32
   7   0  -7  686.88   20.43
   7   0  -6   46.17    5.25
  -7   0   6   41.49    5.36
   7   0  -6   40.15    4.66
   7   0  -5  596.81   19.56
   7   0  -5  558.87   13.19
   7   0  -5  570.58   19.26
   7   0  -4    4.07    2.01
   7   0  -4    2.18    0.81
   7   0  -4    5.36    2.53
   7   0  -3  678.16   20.43
   7   0  -3  669.25   22.25
   7   0  -3  678.23   14.80
   7   0  -2    4.60    1.68
   7   0  -2    9.23    2.91
   7   0  -2    4.24    1.02
   7   0  -2    4.38    1.05
   7   0  -1  101.57    8.48
   7   0  -1   99.76    6.61
   7   0  -1  103.27    4.92
   7   0   0   81.23    7.70
   7   0   0   69.55    5.48
   7   0   0   75.09    4.21
   7   0   1   34.71    5.12
   7   0   1   39.12    3.71
   7   0   1   32.16    2.74
   7   0   2   29.88    5.09
   7   0   2   28.60    2.91
   7   0   2   30.87    2.78
   7   0   3   -0.20    0.58
   7   0   3    0.01    0.62
   7   0   4   51.70    3.31
   7   0   4   61.36    4.16
   7   0   5    5.59    2.62
   7   0   5    3.98    1.29
   7   0   5    4.75    1.41
   7   0   6    1.54    1.61
   7   0   6    0.79    1.05
   7   0   7    5.56    2.60
   7   0   7    8.31    1.91
   7   0   8   60.54    7.81
   7   0   8   63.80    5.04
   7   0   9   23.31    4.87
   7   0   9   26.53    3.55
   7   0  10  121.50   11.38
   7   0  10  115.66    7.66
   7   0  11    9.43    3.36
   7   0  11   13.75    2.83
   7   0  12   81.34    9.57
   7   0  12   85.46    7.31
   7   0  13    8.49    3.46
   7   0  13   12.86    3.12
   7   0  14   19.85    4.88
   7   0  14   21.92    4.09
   7   0  15   16.60    3.96
  -7  -1  23    0.08    2.04
  -7  -1  22   44.35    7.29
   7   1 -21   29.22    5.74
  -7  -1  21   18.50    5.17
  -7  -1  20   57.73    7.91
  -7  -1  19   35.55    6.04
  -7  -1  18   44.33    6.58
  -7  -1  17   90.55    9.14
  -7  -1  16   -3.17    2.24
  -7  -1  15   42.83    6.13
  -7  -1  14   15.57    3.51
   7   1 -14   14.22    2.02
  -7  -1  13    7.40    2.37
   7   1 -13    6.22    1.46
  -7  -1  12   60.25    6.75
   7   1 -12   49.59    4.32
  -7  -1  11   18.14    2.62
  -7  -1  11   20.05    4.00
  -7  -1  10    1.47    1.07
   7   1 -10    0.60    0.32
  -7  -1   9   10.14    2.80
   7   1  -9    9.27    1.06
  -7  -1   8   51.10    6.01
   7   1  -7   45.87    5.30
  -7  -1   7   44.88    5.64
   7   1  -6  306.40   13.77
  -7  -1   6  320.23   15.10
   7   1  -5   33.44    4.26
   7   1  -5   32.05    2.82
   7   1  -4  302.81   12.94
   7   1  -4  288.02    9.24
   7   1  -3    0.92    0.99
   7   1  -3    0.00    0.61
   7   1  -3    0.63    0.53
   7   1  -2  518.34   16.44
   7   1  -2  478.12   13.03
   7   1  -2  481.82   11.66
   7   1  -1    5.88    2.58
   7   1  -1    4.51    1.70
   7   1  -1    4.12    1.10
   7   1   0  379.75   17.63
   7   1   0  368.57   12.65
   7   1   0  369.17    9.95
   7   1   1  145.17   10.95
   7   1   1  163.28    7.52
   7   1   1  152.44    6.01
   7   1   2  126.48   10.34
   7   1   2  109.71    5.56
   7   1   2  109.85    5.21
   7   1   3   69.40    7.80
   7   1   3   57.59    3.49
   7   1   3   58.65    3.82
   7   1   4  108.29    9.95
   7   1   4  108.80    4.01
   7   1   4  111.83    5.62
   7   1   5   45.66    6.66
   7   1   5   51.17    3.92
   7   1   6   16.21    4.11
   7   1   6   11.76    2.12
   7   1   7    4.76    2.36
   7   1   7   10.00    2.08
   7   1   8    6.81    2.91
   7   1   8    6.36    1.57
   7   1   9   -0.92    2.15
   7   1   9    2.24    1.55
   7   1  10    6.42    2.55
   7   1  10    9.03    2.24
   7   1  11   52.53    7.75
   7   1  11   64.13    6.08
   7   1  12   17.85    4.69
   7   1  12   19.86    3.61
   7   1  13   48.96    7.65
   7   1  13   60.74    6.61
   7   1  14    9.67    3.14
  -7  -2  23   40.41    7.42
  -7  -2  22   25.67    5.73
  -7  -2  21   55.78    8.12
  -7  -2  20    3.44    3.09
  -7  -2  19  203.18   14.64
  -7  -2  18   21.23    4.82
  -7  -2  17  116.27   10.68
  -7  -2  16   39.85    6.34
  -7  -2  15   14.73    3.63
  -7  -2  14   21.22    4.29
  -7  -2  13   33.28    5.25
  -7  -2  12    8.35    2.89
  -7  -2  11  142.30   10.55
  -7  -2  10    0.04    1.29
  -7  -2   9   33.41    5.11
  -7  -2   8    7.93    2.53
  -7  -2   7   50.58    5.96
  -7  -2   6   15.02    3.43
   7   2  -6    9.29    1.70
   7   2  -5  125.95    8.27
  -7  -2   5  103.40    8.54
   7   2  -5  115.34    5.84
   7   2  -4   89.57    6.79
   7   2  -4   76.92    4.75
   7   2  -4   78.85    3.85
   7   2  -3  146.57    8.43
   7   2  -3  137.65    6.60
   7   2  -3  148.01    5.28
   7   2  -2   24.46    3.36
   7   2  -2   29.22    2.26
   7   2  -1  363.09   12.81
   7   2  -1  355.39    9.11
   7   2   0    2.29    1.14
   7   2   0    2.90    0.98
   7   2   1  335.33   17.38
   7   2   1  347.70   11.23
   7   2   1  321.79    9.10
   7   2   2   64.05    7.67
   7   2   2   79.08    4.60
   7   2   2   79.70    4.25
   7   2   3  153.99   11.91
   7   2   3  151.31    5.17
   7   2   3  151.72    6.30
   7   2   4   75.79    8.77
   7   2   4   74.09    4.57
   7   2   5  140.57   11.90
   7   2   5  136.54    6.69
   7   2   6   80.30    9.05
   7   2   6   70.27    4.99
   7   2   7   41.72    6.77
   7   2   7   46.95    4.36
   7   2   8  106.96   10.94
   7   2   8  103.09    6.83
   7   2   9    1.19    2.07
   7   2   9    1.29    0.98
   7   2  10    8.37    3.28
   7   2  10    7.00    2.09
   7   2  11    9.98    3.34
   7   2  11   12.80    4.09
   7   2  11   11.55    2.52
   7   2  12    7.67    2.99
   7   2  12    8.19    2.46
   7   2  13   11.71    2.98
  -7  -3  22   37.07    6.96
  -7  -3  21   42.88    7.30
  -7  -3  20   93.29   10.23
  -7  -3  19   13.10    3.98
  -7  -3  18  237.27   15.87
  -7  -3  17    6.83    3.39
  -7  -3  16  233.21   15.02
  -7  -3  15   13.21    3.47
  -7  -3  14  166.31   12.30
  -7  -3  13   52.97    6.72
  -7  -3  12   29.32    7.03
  -7  -3  11   -0.09    1.49
   7   3 -11   -0.35    0.90
  -7  -3  10   38.41    5.56
   7   3  -9    3.47    0.60
  -7  -3   9    2.12    1.38
   7   3  -8   60.67    3.02
  -7  -3   8   64.66    6.98
  -7  -3   7    0.80    1.23
   7   3  -7    0.96    0.94
  -7  -3   6   16.38    3.67
   7   3  -6   22.87    2.73
   7   3  -5    6.24    1.50
  -7  -3   5    7.20    2.83
   7   3  -5    6.29    1.02
   7   3  -4    9.80    2.20
   7   3  -4    7.52    1.62
   7   3  -4    9.30    1.16
   7   3  -3   14.15    2.54
   7   3  -3   16.97    2.43
   7   3  -3   16.24    1.55
   7   3  -2   97.18    6.47
   7   3  -2   97.43    3.89
   7   3  -1   52.96    4.57
   7   3  -1   48.61    2.76
   7   3   0  202.03    8.79
   7   3   0  179.19    5.96
   7   3   1   35.07    3.46
   7   3   1   35.21    2.69
   7   3   2  224.67    7.25
   7   3   2  203.58    7.17
   7   3   3    0.64    1.07
   7   3   3    0.35    0.63
   7   3   4   75.32    8.67
   7   3   4   73.02    4.62
   7   3   5    8.48    3.25
   7   3   5   10.83    1.98
   7   3   6  161.93   13.27
   7   3   6  150.41    7.64
   7   3   7  106.68   10.87
   7   3   7  101.58    6.60
   7   3   8   33.26    5.04
   7   3   8   37.23    6.64
   7   3   8   35.55    4.10
   7   3   9  104.52   11.14
   7   3   9  112.87    9.43
   7   3   9  108.78    7.62
   7   3  10   16.07    3.65
   7   3  10   14.31    4.44
   7   3  10   12.83    2.81
   7   3  11   45.74    7.56
  -7  -4  22   48.77    7.77
  -7  -4  21    4.06    2.51
  -7  -4  20    9.93    3.59
  -7  -4  19   85.14    9.77
  -7  -4  18   19.02    4.68
  -7  -4  17  156.38   12.73
  -7  -4  16    0.62    2.39
  -7  -4  15  329.73   17.85
  -7  -4  14   14.16    3.96
  -7  -4  13  309.31   17.44
  -7  -4  12    5.99    3.30
   7   4 -12    1.73    1.31
  -7  -4  11  184.72   12.42
   7   4 -11  178.25    7.22
  -7  -4  10    2.01    1.68
   7   4 -10    1.10    0.74
   7   4  -9    0.46    0.36
  -7  -4   9   -0.18    1.18
   7   4  -9   -0.28    0.73
   7   4  -8    8.03    1.11
  -7  -4   8    6.85    2.72
   7   4  -8    4.75    1.42
   7   4  -7   22.22    2.07
   7   4  -7   24.15    3.03
  -7  -4   7   27.26    4.50
   7   4  -6    0.93    0.69
  -7  -4   6   -0.14    1.32
   7   4  -6   -0.13    0.83
   7   4  -5   68.81    4.39
  -7  -4   5   69.60    7.12
   7   4  -5   67.89    5.00
   7   4  -5   70.92    2.91
   7   4  -4    6.35    1.41
   7   4  -4    8.56    1.82
   7   4  -4    7.68    0.89
   7   4  -3    6.75    1.67
   7   4  -3    7.88    1.84
   7   4  -3    7.59    0.91
   7   4  -2  161.37    8.36
   7   4  -2  154.90    4.67
   7   4  -1   30.66    3.61
   7   4  -1   26.55    1.96
   7   4   0   51.84    4.18
   7   4   0   48.51    2.82
   7   4   1   40.49    3.33
   7   4   1   42.59    2.88
   7   4   2   62.70    3.80
   7   4   3  102.69    7.61
   7   4   3  110.44    5.49
   7   4   4   65.74    6.33
   7   4   4   70.56    8.69
   7   4   4   58.88    4.41
   7   4   5  157.22   13.09
   7   4   5  143.66    9.67
   7   4   5  136.79    7.05
   7   4   6   31.25    4.69
   7   4   6   35.47    6.53
   7   4   6   27.90    3.33
   7   4   7   70.35    9.12
   7   4   7   68.89    7.05
   7   4   8   22.43    4.18
   7   4   8   26.28    5.63
   7   4   9   35.27    5.37
   7   4   9   43.30    7.38
   7   4  10   57.71    8.54
  -7  -5  21   -1.77    2.50
  -7  -5  20    4.87    3.14
  -7  -5  19   48.02    7.41
  -7  -5  18    1.63    2.01
  -7  -5  17   23.76    5.15
  -7  -5  16  108.88   10.51
  -7  -5  15    1.98    2.17
  -7  -5  14  356.13   18.81
  -7  -5  13    8.60    3.50
  -7  -5  12  456.31   20.99
  -7  -5  11    6.40    2.99
  -7  -5  10  301.54   16.17
   7   5  -9   33.75    1.92
  -7  -5   9   44.70    6.15
   7   5  -8   82.72    3.74
  -7  -5   8   72.73    7.64
   7   5  -8   79.42    5.88
   7   5  -7   70.38    3.86
  -7  -5   7   76.40    7.81
   7   5  -7   70.76    5.39
   7   5  -7   65.82    2.83
   7   5  -7   68.47    2.60
   7   5  -6    0.54    0.49
  -7  -5   6   -0.41    1.70
   7   5  -6    0.29    0.74
   7   5  -6    1.30    0.36
   7   5  -5   63.92    4.36
  -7  -5   5   64.88    7.00
   7   5  -5   66.98    5.25
   7   5  -5   60.29    1.99
   7   5  -4    0.17    0.83
   7   5  -4    0.80    0.83
   7   5  -4    0.13    0.24
   7   5  -3   25.23    3.08
   7   5  -3   20.92    2.99
   7   5  -3   19.66    1.27
   7   5  -2   10.56    2.12
   7   5  -2    8.85    1.93
   7   5  -2    8.34    0.99
   7   5  -1   40.54    4.23
   7   5  -1   52.95    4.53
   7   5  -1   42.36    2.53
   7   5   0    1.37    1.49
   7   5   0    0.44    1.07
   7   5   0    0.75    0.67
   7   5   1   63.47    5.73
   7   5   1   55.56    3.37
   7   5   2    5.61    1.88
   7   5   3  193.70   10.88
   7   5   4   56.42    6.01
   7   5   5   30.07    4.54
   7   5   5   36.49    6.55
   7   5   6   22.08    4.01
   7   5   6   21.85    5.02
   7   5   7    0.49    1.06
   7   5   7   -0.52    1.63
   7   5   8   12.93    3.08
   7   5   8    7.75    3.54
   7   5   9    2.09    2.89
  -7  -6  21   -1.12    2.32
  -7  -6  20   26.04    5.56
  -7  -6  19   35.55    6.68
  -7  -6  18   -2.32    2.64
  -7  -6  17   -1.37    2.31
  -7  -6  16    1.95    1.41
  -7  -6  15   38.77    6.40
  -7  -6  14    8.11    3.19
  -7  -6  13  228.59   14.80
  -7  -6  12   12.72    3.74
  -7  -6  11  367.73   18.55
  -7  -6  10   12.40    3.76
  -7  -6   9  403.24   19.02
   7   6  -9  373.49   14.08
   7   6  -9  386.89    8.70
  -7  -6   8   14.30    3.69
   7   6  -8    6.84    2.07
   7   6  -8   10.27    1.42
  -7  -6   7  223.42   13.82
   7   6  -7  255.36   11.11
   7   6  -7  248.72    8.05
  -7  -6   6  193.86   12.70
   7   6  -6  201.14    9.80
   7   6  -6  200.48    7.65
  -7  -6   5   46.31    6.08
   7   6  -5   43.23    4.45
   7   6  -5   56.64    4.22
   7   6  -4   30.30    3.83
   7   6  -4   29.96    3.25
   7   6  -3   -0.50    1.24
   7   6  -3   -0.83    0.60
   7   6  -2   58.65    5.08
   7   6  -1    1.57    0.80
   7   6  -1    0.55    0.95
   7   6   0    0.51    0.91
   7   6   1    1.18    1.17
   7   6   2   60.12    5.90
   7   6   3   20.70    3.58
   7   6   4   36.48    4.86
   7   6   5   33.39    4.81
   7   6   6   73.40    9.63
   7   6   6   93.05    8.17
   7   6   7   20.36    5.27
   7   6   7   29.93    4.82
   7   6   8   37.64    7.30
   7   6   8   35.13    5.46
  -7  -7  20    8.62    3.77
  -7  -7  19   -0.61    2.35
  -7  -7  18    8.04    3.20
  -7  -7  17    2.12    2.17
  -7  -7  16   -0.31    1.70
  -7  -7  15    1.58    1.86
  -7  -7  14    5.40    2.40
  -7  -7  13   17.46    4.21
  -7  -7  12   65.63    7.87
  -7  -7  11   52.31    7.06
  -7  -7  10  249.37   15.28
  -7  -7   9   18.74    4.70
   7   7  -9   10.31    2.43
  -7  -7   8  291.50   16.15
   7   7  -8  293.97   12.56
   7   7  -8  280.16    8.33
  -7  -7   7   19.99    4.36
   7   7  -7   13.13    2.75
   7   7  -7   15.38    2.03
  -7  -7   6  240.72   14.39
   7   7  -6  249.41   11.50
   7   7  -6  247.13    8.92
  -7  -7   5   46.42    6.12
   7   7  -5   45.31    4.85
   7   7  -5   48.50    4.05
   7   7  -4  101.03    7.36
   7   7  -4  104.20    6.26
   7   7  -3  168.28    9.77
   7   7  -3  187.02    8.91
   7   7  -2   39.81    4.20
   7   7  -1   97.16    6.88
   7   7   0    4.37    1.56
   7   7   1   17.38    3.17
   7   7   2   24.57    3.83
   7   7   3    7.01    2.30
   7   7   4    4.50    1.97
   7   7   5   55.48    6.32
   7   7   6   22.52    5.40
   7   7   6   16.82    3.62
   7   7   7   39.57    5.67
  -7  -8  20   14.44    4.50
  -7  -8  19    2.44    1.61
  -7  -8  18    2.09    2.07
  -7  -8  17   10.93    4.23
  -7  -8  16   -0.80    2.32
  -7  -8  15    6.47    2.71
  -7  -8  14   -0.47    2.12
  -7  -8  13   -1.73    2.70
  -7  -8  12   -0.01    1.71
  -7  -8  11   -0.57    1.86
   7   8 -10   15.37    2.93
  -7  -8  10   11.12    3.29
  -7  -8   9   77.85    8.57
   7   8  -9   77.08    6.58
  -7  -8   8   22.58    4.59
   7   8  -8   16.90    3.10
  -7  -8   7  165.06   12.16
   7   8  -7  161.25    9.47
   7   8  -7  157.11    6.76
   7   8  -6   15.28    2.99
  -7  -8   6   22.25    4.62
   7   8  -6   15.50    2.27
   7   8  -5  172.74   10.07
   7   8  -5  187.23    8.36
   7   8  -4   16.42    3.10
   7   8  -4   18.81    2.85
   7   8  -3  101.03    7.88
   7   8  -3   96.62    6.48
   7   8  -2  107.84    8.22
   7   8  -2  105.02    7.07
   7   8  -1   37.00    4.35
   7   8   0  121.38    8.18
   7   8   1  108.07    7.99
   7   8   2   42.94    5.18
   7   8   3   20.82    3.76
   7   8   4    1.42    1.17
   7   8   5   48.50    6.05
   7   8   6    1.43    1.57
  -7  -9  19    8.70    4.34
  -7  -9  18   40.25    7.41
  -7  -9  17    2.34    2.33
  -7  -9  16    8.24    4.03
  -7  -9  15    1.91    1.80
  -7  -9  14    2.25    2.02
  -7  -9  13    0.24    1.89
  -7  -9  12    9.66    3.27
  -7  -9  11   11.82    3.50
   7   9 -10    2.24    1.18
  -7  -9  10    4.76    2.61
  -7  -9   9   30.02    5.33
   7   9  -9   26.58    4.01
  -7  -9   8   14.20    3.50
   7   9  -8    8.88    2.34
  -7  -9   7   62.66    7.98
   7   9  -7   55.92    5.77
   7   9  -7   58.08    4.22
  -7  -9   6   89.72    9.03
   7   9  -6   92.36    7.61
   7   9  -6   90.73    5.66
   7   9  -5   59.69    6.08
   7   9  -5   58.50    4.73
   7   9  -4  193.81   11.27
   7   9  -4  173.83    8.69
   7   9  -3   10.28    2.87
   7   9  -3   16.68    2.80
   7   9  -2   64.94    6.74
   7   9  -2   68.43    5.85
   7   9  -1   15.62    2.96
   7   9   0   58.31    5.86
   7   9   1   57.64    5.97
   7   9   2    7.62    2.32
   7   9   3   54.57    6.23
   7   9   4   34.78    5.08
   7   9   5   68.00    7.35
  -7 -10  18    3.23    3.13
  -7 -10  17   90.42   10.85
  -7 -10  16    3.67    2.86
  -7 -10  15   41.26    6.94
  -7 -10  14   11.10    3.72
  -7 -10  13    4.02    3.16
  -7 -10  12   11.43    3.49
   7  10 -11    3.17    1.82
  -7 -10  11    3.30    2.14
  -7 -10  10   17.56    4.40
   7  10 -10   15.04    3.20
  -7 -10   9    9.56    3.49
   7  10  -9    9.37    2.45
  -7 -10   8    8.53    3.48
   7  10  -8   -0.96    1.78
  -7 -10   7    8.06    3.38
   7  10  -7    4.21    1.89
  -7 -10   6   75.35    8.23
   7  10  -6   76.71    7.13
   7  10  -5   27.80    4.40
   7  10  -5   28.91    3.46
   7  10  -4   76.86    7.29
   7  10  -4   75.60    5.82
   7  10  -3   52.12    6.14
   7  10  -3   50.79    4.98
   7  10  -2   61.78    6.80
   7  10  -2   69.21    6.00
   7  10  -1   69.38    6.27
   7  10   0    1.60    1.50
   7  10   1    1.84    1.41
   7  10   2   13.09    3.08
   7  10   3   19.98    3.91
  -7 -11  17    9.98    4.05
  -7 -11  16  114.56   12.21
  -7 -11  15    2.18    2.57
  -7 -11  14   87.85   10.50
  -7 -11  13    1.28    2.24
  -7 -11  12    6.60    3.31
   7  11 -11   54.01    6.22
  -7 -11  11   65.31    8.53
  -7 -11  10   10.00    3.64
   7  11 -10    7.01    2.41
  -7 -11   9   18.68    4.47
   7  11  -9   25.04    4.09
  -7 -11   8    4.46    2.91
   7  11  -8    5.32    1.96
   7  11  -7    2.04    1.74
  -7 -11   7   -0.10    2.35
   7  11  -6    3.67    2.11
  -7 -11   6    6.67    2.69
   7  11  -5   25.83    4.26
   7  11  -4   14.06    3.52
   7  11  -4   19.81    3.13
   7  11  -3   81.24    7.96
   7  11  -3   72.01    6.12
   7  11  -2   54.32    6.77
   7  11  -2   55.59    5.59
   7  11  -1   99.17    9.21
   7  11  -1  107.44    8.10
   7  11   0   14.60    3.08
   7  11   1   36.73    5.03
   7  11   2    8.11    2.58
  -7 -12  16    2.45    2.75
  -7 -12  15  118.75   12.53
  -7 -12  14   10.00    4.21
  -7 -12  13   88.45   10.63
   7  12 -12   37.70    5.42
  -7 -12  12   49.85    7.85
  -7 -12  11   29.83    6.07
   7  12 -11   32.48    5.08
  -7 -12  10   36.70    6.65
   7  12 -10   36.67    5.35
  -7 -12   9   36.52    6.37
   7  12  -9   25.48    4.43
  -7 -12   8   43.04    7.08
   7  12  -8   43.81    5.78
   7  12  -7    0.29    1.29
  -7 -12   7    3.01    2.19
   7  12  -6   10.06    2.87
   7  12  -5    0.76    1.37
   7  12  -4    2.76    1.96
   7  12  -3   34.98    5.42
   7  12  -3   33.36    4.36
   7  12  -2   63.71    7.55
   7  12  -2   52.92    5.66
   7  12  -1    0.80    1.20
   7  12   0   66.31    6.71
   7  12   1   19.99    3.99
  -7 -13  15    2.43    2.84
  -7 -13  14   63.14    9.28
  -7 -13  13    4.79    3.16
   7  13 -12   59.47    7.19
  -7 -13  12   65.94    9.27
  -7 -13  11    6.26    3.30
   7  13 -11    0.38    1.64
  -7 -13  10   95.95   10.78
   7  13 -10   88.04    8.65
  -7 -13   9   40.47    6.85
   7  13  -9   42.58    5.91
  -7 -13   8    9.58    3.51
   7  13  -8   10.78    2.81
  -7 -13   7   86.00    9.43
   7  13  -7   86.17    8.47
   7  13  -6    3.55    1.56
   7  13  -5   35.32    5.66
   7  13  -1   10.16    2.77
   7  13   0   36.21    5.22
  -7 -14  13   53.86    8.71
  -7 -14  12   23.07    5.90
  -7 -14  11  114.91   12.25
  -7 -14  10    8.58    3.96
  -7 -14   9   67.05    9.05
  -7 -14   8   11.91    4.06
  -7 -15  12   16.73    5.52
  -7 -15  11   21.66    5.49
  -7 -15  10   70.54    9.87
   8 -19   1   49.66    6.22
   8 -19   2   29.22    4.86
   8 -19   3   85.06    8.29
   8 -19   4    2.77    1.60
   8 -19   4    0.07    1.25
   8 -19   5  107.01    8.97
   8 -19   5  112.69    8.83
   8 -19   6   11.53    3.06
   8 -19   6   12.86    2.64
   8 -19   7   87.72    7.63
   8 -19   8   12.51    3.02
   8 -18  -3    6.54    2.62
   8 -18  -2    7.35    2.52
   8 -18  -1   34.26    5.27
   8 -18   0   16.34    3.62
   8 -18   1   62.76    6.92
   8 -18   2   35.79    5.36
   8 -18   3   85.34    7.98
   8 -18   4   39.49    5.45
   8 -18   4   43.54    5.45
   8 -18   5   11.05    2.65
   8 -18   5    9.73    2.89
   8 -18   6  146.41   10.18
   8 -18   6  143.80    9.69
   8 -18   7    1.26    1.49
   8 -18   8  118.62    8.80
   8 -18   9    1.48    1.43
   8 -18  10  114.20    8.58
   8 -17  -6  112.23   10.27
   8 -17  -5   19.66    4.27
   8 -17  -4   55.36    6.96
   8 -17  -3   26.54    5.08
   8 -17  -2   13.31    4.05
   8 -17  -1    6.85    2.42
   8 -17   0   13.14    3.14
   8 -17   1    7.25    2.71
   8 -17   2   97.50    8.41
   8 -17   3    2.97    1.61
   8 -17   4   59.54    6.48
   8 -17   4   66.06    6.45
   8 -17   5   62.58    6.51
   8 -17   5   56.21    6.01
   8 -17   6   23.42    4.02
   8 -17   6   19.87    3.56
   8 -17   7  151.52   10.09
   8 -17   7  141.60    9.35
   8 -17   8    1.07    1.48
   8 -17   9  214.18   11.61
   8 -17  10    0.77    1.25
   8 -17  11   94.57    7.66
   8 -16  -8   20.56    4.49
   8 -16  -7   32.68    5.56
   8 -16  -6   35.26    5.70
   8 -16  -5   55.85    7.15
   8 -16  -4   82.02    8.64
   8 -16  -3   88.21    8.69
   8 -16  -2   30.90    5.07
   8 -16  -1   72.89    7.60
   8 -16   0    3.19    2.14
   8 -16   1    7.45    2.43
   8 -16   2   12.27    3.11
   8 -16   3   36.45    4.98
   8 -16   4   -0.02    1.24
   8 -16   4    2.79    1.81
   8 -16   5   11.21    2.63
   8 -16   5   11.78    2.84
   8 -16   6   17.98    3.53
   8 -16   6   10.32    2.61
   8 -16   7   34.97    4.74
   8 -16   7   26.14    3.88
   8 -16   8  153.88    9.57
   8 -16   9   26.21    4.04
   8 -16  10  124.17    8.62
   8 -16  11    3.09    1.80
   8 -16  12  152.03    9.79
   8 -15 -10   49.85    7.12
   8 -15  -9   17.47    4.30
   8 -15  -8   16.97    4.04
   8 -15  -7    1.97    1.87
   8 -15  -6   -1.01    1.54
   8 -15  -5   72.06    7.98
   8 -15  -4   28.37    5.16
   8 -15  -3   84.98    8.36
   8 -15  -2  143.91   10.75
   8 -15  -1   20.03    4.78
   8 -15   0   24.97    4.33
   8 -15   1    0.03    1.37
   8 -15   2   11.70    2.88
   8 -15   3    4.21    1.75
   8 -15   4    1.62    1.20
   8 -15   4    3.04    1.17
   8 -15   5    1.84    1.18
   8 -15   5    1.89    1.46
   8 -15   6    6.80    2.33
   8 -15   6    5.41    1.92
   8 -15   7   20.58    3.64
   8 -15   7   26.46    3.92
   8 -15   8   20.87    3.58
   8 -15   8   19.12    3.48
   8 -15   9    7.44    2.08
   8 -15  10    9.24    2.46
   8 -15  11  110.83    8.21
   8 -15  12   -0.01    1.02
   8 -15  13  106.12    8.09
   8 -14 -12   18.80    4.73
   8 -14 -11   57.18    7.70
   8 -14 -10   44.69    6.75
   8 -14  -9   82.08    9.04
   8 -14  -8    9.95    3.35
   8 -14  -7  110.25   10.26
   8 -14  -6   61.43    7.45
   8 -14  -5   42.56    6.11
   8 -14  -4  114.85    9.86
   8 -14  -3   21.02    4.59
   8 -14  -2  171.23   11.67
   8 -14  -1  119.06    9.28
   8 -14   0  149.20   10.38
   8 -14   1  149.74   10.16
   8 -14   2    8.89    2.50
   8 -14   3   12.32    2.55
   8 -14   4    0.91    1.30
   8 -14   4    0.73    1.21
   8 -14   5    2.51    1.57
   8 -14   5    1.58    1.25
   8 -14   6   17.19    3.25
   8 -14   6   15.65    3.03
   8 -14   7   22.46    3.53
   8 -14   7   16.54    3.04
   8 -14   8   13.75    2.80
   8 -14   8   14.86    3.02
   8 -14   9    0.89    0.91
   8 -14  10    3.75    1.97
   8 -14  11    0.81    1.20
   8 -14  12   38.21    4.69
   8 -14  13    2.76    1.61
   8 -13 -13   20.13    4.97
   8 -13 -12   -0.49    1.66
   8 -13 -11   43.65    6.96
   8 -13 -10   12.39    3.73
   8 -13  -9   13.06    3.76
   8 -13  -8  118.83   10.67
   8 -13  -7   47.42    6.55
   8 -13  -6  137.91   10.88
   8 -13  -5   38.00    5.54
   8 -13  -4   71.80    7.69
   8 -13  -3  113.86    9.37
   8 -13  -2    4.14    2.26
   8 -13  -1  175.85   11.29
   8 -13   0   20.75    4.01
   8 -13   1  215.64   12.11
   8 -13   2    1.49    1.30
   8 -13   3  102.70    7.91
   8 -13   4   19.06    3.18
   8 -13   4   19.35    3.38
   8 -13   5    1.86    1.18
   8 -13   5    4.77    1.75
   8 -13   6   -0.02    1.06
   8 -13   6    0.66    0.90
   8 -13   7    3.28    1.57
   8 -13   7    1.57    1.23
   8 -13   8    1.95    1.54
   8 -13   8    0.32    0.84
   8 -13   9   14.36    2.77
   8 -13  10    8.46    1.97
   8 -13  11    0.65    0.90
   8 -13  12    7.12    2.23
   8 -13  13    1.62    1.32
   8 -13  14    4.35    2.04
   8 -12 -14   10.23    3.51
   8 -12 -13   48.45    7.20
   8 -12 -12   12.91    3.74
   8 -12 -11   26.82    5.35
   8 -12 -10   -2.03    2.46
   8 -12  -9   11.46    3.52
   8 -12  -8   25.79    5.01
   8 -12  -7   26.75    5.18
   8 -12  -6   14.82    3.84
   8 -12  -5  135.62   10.56
   8 -12  -4   39.50    5.65
   8 -12  -3   92.43    8.25
   8 -12  -2  113.48    9.07
   8 -12  -1    7.21    2.20
   8 -12   0  224.16   12.35
   8 -12   1   -0.10    1.07
   8 -12   2  308.08   14.20
   8 -12   3   10.02    2.63
   8 -12   3   14.89    3.14
   8 -12   4  305.78   13.63
   8 -12   4  308.83   12.92
   8 -12   5    5.79    2.19
   8 -12   5    7.90    2.16
   8 -12   6   61.74    5.75
   8 -12   6   71.59    5.92
   8 -12   7   10.98    2.27
   8 -12   7   14.17    2.81
   8 -12   8    0.93    1.02
   8 -12   8    3.28    1.56
   8 -12   9    3.23    1.54
   8 -12  10   -0.11    1.29
   8 -12  11   -0.31    1.02
   8 -12  12   11.99    2.64
   8 -12  13    4.46    1.70
   8 -12  14    1.14    1.11
   8 -11 -15   -0.09    1.82
   8 -11 -14   23.98    5.35
   8 -11 -13   20.93    4.57
   8 -11 -12  108.87   10.81
   8 -11 -11    4.34    2.75
   8 -11 -10   51.38    7.02
   8 -11  -9   40.64    6.15
   8 -11  -8   44.23    6.63
   8 -11  -7    1.26    1.96
   8 -11  -6    1.85    1.30
   8 -11  -5   -0.31    1.57
   8 -11  -4   45.30    5.83
   8 -11  -3    6.02    2.61
   8 -11  -2  114.36    8.98
   8 -11  -1   46.28    5.63
   8 -11   0   75.55    6.96
   8 -11   1  356.78   15.42
   8 -11   2    9.79    2.57
   8 -11   3  515.31   18.32
   8 -11   3  505.00   16.75
   8 -11   4    2.93    1.77
   8 -11   4    2.96    1.71
   8 -11   5  341.88   14.01
   8 -11   5  320.64   12.83
   8 -11   6    0.83    1.40
   8 -11   6    0.57    1.28
   8 -11   7  192.20    9.84
   8 -11   7  202.80    9.99
   8 -11   8    1.92    1.22
   8 -11   8    4.95    1.85
   8 -11   9   37.60    4.33
   8 -11  10   16.11    2.90
   8 -11  11    5.85    1.81
   8 -11  12    3.01    1.39
   8 -11  13    3.73    1.59
   8 -11  14    3.15    2.05
   8 -10 -16    3.37    2.44
   8 -10 -15   10.79    3.79
   8 -10 -14    7.49    2.89
   8 -10 -13   34.64    6.29
   8 -10 -12   15.39    4.22
   8 -10 -11   56.34    7.68
   8 -10 -10  145.55   11.92
   8 -10  -9   91.34    9.24
   8 -10  -8   10.43    3.26
   8 -10  -7  138.04   10.88
   8 -10  -6    6.92    2.96
   8 -10  -5    6.51    2.19
   8 -10  -4   13.33    3.10
   8 -10  -3    0.26    1.18
   8 -10  -2   19.32    3.61
   8 -10  -1   48.64    5.51
   8 -10   0   11.10    2.62
   8 -10   1   66.86    6.30
   8 -10   2  122.01    8.47
   8 -10   3   17.13    3.22
   8 -10   3   14.52    2.55
   8 -10   4  374.53   14.66
   8 -10   4  386.81   13.88
   8 -10   5    4.94    2.32
   8 -10   5    0.27    0.85
   8 -10   6  299.44   12.32
   8 -10   6  278.01   11.67
   8 -10   7    4.10    1.78
   8 -10   7    4.34    1.67
   8 -10   8  263.71   11.27
   8 -10   8  261.08   11.49
   8 -10   9    9.37    2.32
   8 -10  10  216.81   10.76
   8 -10  11   37.53    4.52
   8 -10  12   28.71    3.99
   8 -10  13   23.47    3.70
   8 -10  14    4.51    1.88
   8  -9 -16  132.26   12.48
   8  -9 -15   50.81    7.66
   8  -9 -14   20.51    4.56
   8  -9 -13   81.51    9.14
   8  -9 -12   13.79    4.03
   8  -9 -11  114.41   10.56
   8  -9 -10   44.65    6.66
   8  -9  -9  154.91   12.00
   8  -9  -8  118.81   10.32
  -8   9   7  178.26    9.99
   8  -9  -7  180.89   12.49
   8  -9  -6   73.18    7.64
   8  -9  -5    1.75    1.22
   8  -9  -4  130.92    9.84
   8  -9  -3   32.92    4.80
   8  -9  -2    2.72    2.13
   8  -9  -1  107.63    8.25
   8  -9   0    2.36    1.38
   8  -9   1   44.26    5.04
   8  -9   2   33.45    4.28
   8  -9   2   35.31    3.90
   8  -9   3   31.11    4.05
   8  -9   3   34.63    3.88
   8  -9   4    5.39    2.73
   8  -9   4    5.82    2.09
   8  -9   5  184.76    9.58
   8  -9   5  187.84    9.12
   8  -9   6    4.26    1.81
   8  -9   6    4.59    1.59
   8  -9   7  309.99   12.07
   8  -9   7  317.65   12.52
   8  -9   8    5.66    1.71
   8  -9   8    5.37    1.77
   8  -9   9  339.16   13.34
   8  -9  10   51.88    5.15
   8  -9  11  165.08    9.44
   8  -9  12   36.43    4.72
   8  -9  13   63.20    6.08
   8  -9  14   31.87    4.54
   8  -8 -17   25.03    5.44
   8  -8 -16    1.86    1.96
   8  -8 -15   53.87    7.69
   8  -8 -14   76.13    9.12
   8  -8 -13  189.99   14.19
   8  -8 -12  118.52   10.85
   8  -8 -11   68.27    8.23
   8  -8 -10  210.87   14.32
   8  -8  -9    1.59    2.43
   8  -8  -8  344.02   17.65
  -8   8   7    8.78    2.23
   8  -8  -7    9.30    3.05
   8  -8  -6  106.61    9.20
   8  -8  -5   62.82    6.84
   8  -8  -4   38.27    5.16
   8  -8  -3   47.74    5.74
   8  -8  -2    0.69    0.99
   8  -8  -1   15.05    3.08
   8  -8   0   69.27    6.57
   8  -8   1    9.07    2.27
   8  -8   2  105.11    7.49
   8  -8   2   96.96    6.32
   8  -8   3    3.79    2.03
   8  -8   3    1.13    0.43
   8  -8   3    2.43    1.42
   8  -8   4    5.99    1.89
   8  -8   4    9.78    2.03
   8  -8   5    7.27    1.97
   8  -8   5    7.92    2.00
   8  -8   6   33.23    3.79
   8  -8   6   32.71    3.71
   8  -8   7   11.91    2.27
   8  -8   7   10.59    2.20
   8  -8   8  232.10    9.74
   8  -8   8  231.89   10.53
   8  -8   9   90.92    6.63
   8  -8  10  213.90   10.57
   8  -8  11    4.00    1.96
   8  -8  12  183.55   10.16
   8  -8  13    8.86    2.42
   8  -8  14  131.07    9.08
   8  -8  15   45.82    5.62
   8  -7 -18   18.37    4.88
   8  -7 -17   -0.42    2.06
   8  -7 -16    5.05    2.81
   8  -7 -15    2.44    2.63
   8  -7 -14   95.80   10.39
   8  -7 -13   13.49    3.89
   8  -7 -12   91.82    9.53
   8  -7 -11  140.84   11.80
   8  -7 -10  221.12   14.43
   8  -7  -9  380.14   18.78
   8  -7  -8  113.18    9.95
   8  -7  -7  386.41   18.28
   8  -7  -6   22.70    4.49
   8  -7  -5  402.65   17.88
   8  -7  -4   30.40    4.74
   8  -7  -3  270.92   13.76
   8  -7  -2   24.22    4.01
   8  -7  -1   39.79    5.05
   8  -7   0   23.73    3.61
   8  -7   1    1.48    1.25
   8  -7   1    0.26    0.74
   8  -7   2    1.20    1.04
   8  -7   2    1.60    0.96
   8  -7   2    0.85    0.32
   8  -7   3    4.83    1.70
   8  -7   3    7.94    1.91
   8  -7   4    2.92    1.19
   8  -7   4    5.16    1.65
   8  -7   5   84.36    5.98
   8  -7   5   78.30    5.64
   8  -7   6   25.26    3.16
   8  -7   6   23.69    3.09
   8  -7   7    1.72    1.12
   8  -7   7    1.48    0.96
   8  -7   8   69.44    4.91
   8  -7   8   67.51    5.47
   8  -7   9   28.78    3.87
   8  -7  10    4.87    1.91
   8  -7  11  116.17    7.76
   8  -7  12   23.99    3.74
   8  -7  13  111.56    8.20
   8  -7  14    8.50    2.83
   8  -6 -18    6.75    2.80
   8  -6 -17   99.65   10.62
   8  -6 -16    8.07    3.48
  -8   6  16    2.92    2.40
   8  -6 -15   16.47    4.26
  -8   6  15   23.49    4.11
   8  -6 -14   21.04    4.74
   8  -6 -13   13.63    4.57
   8  -6 -12    7.22    2.69
   8  -6 -11   18.54    4.18
   8  -6 -10   20.93    4.32
   8  -6  -9  106.88    9.65
   8  -6  -8   92.55    8.85
   8  -6  -7  179.40   12.08
   8  -6  -6  435.11   18.72
   8  -6  -5   33.41    4.92
   8  -6  -4  511.99   19.67
   8  -6  -3    3.27    2.06
   8  -6  -2  675.47   22.20
   8  -6  -1    6.44    1.94
   8  -6   0  400.35   15.56
   8  -6   1   13.40    2.34
   8  -6   1   16.24    3.13
   8  -6   2   29.82    3.78
   8  -6   2   31.84    3.45
   8  -6   3    9.85    2.34
   8  -6   3    8.63    1.78
   8  -6   4   12.07    2.32
   8  -6   4   11.18    2.18
   8  -6   5    0.40    0.74
   8  -6   5    2.13    1.15
   8  -6   6   22.49    2.86
   8  -6   6   22.76    3.01
   8  -6   7    0.53    0.77
   8  -6   7    1.01    0.99
   8  -6   8    2.00    1.52
   8  -6   9   76.72    6.10
   8  -6  10    1.11    1.32
   8  -6  11   48.98    5.09
   8  -6  12   20.32    3.54
   8  -6  13   35.89    5.01
   8  -6  14   85.42    7.55
   8  -5 -19   19.50    4.98
   8  -5 -18   60.85    8.47
   8  -5 -17   12.46    4.07
  -8   5  17   10.99    3.32
   8  -5 -16   56.97    7.94
  -8   5  16   62.78    7.46
   8  -5 -15   36.51    6.44
  -8   5  15   35.82    5.66
   8  -5 -14   22.79    4.97
  -8   5  14   26.20    4.66
   8  -5 -13    3.64    2.19
  -8   5  13    3.75    2.30
   8  -5 -12    2.29    1.98
  -8   5  12    0.05    1.17
   8  -5 -11   51.37    6.85
   8  -5 -10    2.04    1.79
   8  -5  -9   -0.45    1.52
   8  -5  -8   -0.35    1.38
  -8   5   8    0.85    0.36
   8  -5  -7    2.82    1.96
   8  -5  -6   99.62    8.67
   8  -5  -5  115.93    9.03
   8  -5  -4   70.22    6.85
   8  -5  -3  595.04   20.79
   8  -5  -2   14.78    3.14
   8  -5  -1  729.65   22.38
   8  -5   0   12.91    2.36
   8  -5   0   15.20    2.99
   8  -5   1  590.85   18.54
   8  -5   1  561.22   15.85
   8  -5   2   10.17    2.34
   8  -5   2    7.78    1.83
   8  -5   3  251.98   10.89
   8  -5   3  253.58    9.95
   8  -5   4   27.21    3.33
   8  -5   4   28.54    3.30
   8  -5   5   28.30    3.26
   8  -5   5   27.19    3.22
   8  -5   6   53.31    4.20
   8  -5   6   53.23    4.59
   8  -5   7    2.92    1.11
   8  -5   7    2.85    1.19
   8  -5   8   27.08    3.62
   8  -5   9    7.99    2.27
   8  -5  10   22.87    3.45
   8  -5  11    0.81    1.16
   8  -5  12   62.32    5.95
   8  -5  13    6.17    2.20
   8  -5  14   52.84    5.89
   8  -4 -19    3.93    2.50
  -8   4  19   -0.33    1.38
   8  -4 -18   41.48    7.02
  -8   4  18   45.27    6.61
   8  -4 -17   32.46    5.97
  -8   4  17   26.58    5.43
   8  -4 -16  125.23   11.89
  -8   4  16  135.23   11.19
   8  -4 -15   26.30    5.37
  -8   4  15   28.22    5.24
   8  -4 -14   42.42    6.58
  -8   4  14   61.50    7.19
   8  -4 -13   57.21    7.44
  -8   4  13   56.35    6.92
   8  -4 -12    5.17    1.94
  -8   4  12    4.96    2.46
   8  -4 -11   41.22    6.08
  -8   4  11   33.49    4.96
   8  -4 -10   34.81    5.52
   8  -4 -10   37.72    3.32
   8  -4  -9    0.29    1.91
   8  -4  -9    0.66    0.55
   8  -4  -8   29.18    4.70
   8  -4  -8   24.09    2.76
   8  -4  -7   10.39    2.70
   8  -4  -7    9.63    1.81
   8  -4  -6   78.60    7.63
   8  -4  -5    8.32    2.62
   8  -4  -4   51.71    6.07
   8  -4  -4   45.00    5.05
   8  -4  -3    4.67    2.29
   8  -4  -3    6.76    2.51
   8  -4  -2  493.16   18.00
   8  -4  -2  494.07   18.54
   8  -4  -1    1.82    1.64
   8  -4  -1    4.05    0.55
   8  -4   0  743.01   24.36
   8  -4   0  707.81   21.24
   8  -4   0  707.84   17.82
   8  -4   1   13.75    3.48
   8  -4   1   14.74    2.97
   8  -4   1   13.67    2.27
   8  -4   2  640.68   23.33
   8  -4   2  625.53   18.26
   8  -4   2  586.49   16.00
   8  -4   3    7.44    2.86
   8  -4   3    6.79    1.88
   8  -4   3    6.22    1.57
   8  -4   4  259.94   10.27
   8  -4   4  243.04    9.78
   8  -4   5   87.79    8.69
  -8   4  -5   86.42    6.58
   8  -4   5   79.36    5.07
   8  -4   5   85.90    5.70
   8  -4   6   98.90    9.38
   8  -4   6  102.30    5.48
   8  -4   6  110.04    6.62
   8  -4   7  102.15    5.17
   8  -4   7   93.84    6.25
   8  -4   8   17.18    2.77
   8  -4   9   37.78    4.22
   8  -4  10    2.39    1.26
   8  -4  11    2.43    2.20
   8  -4  12    8.44    2.34
   8  -4  13    3.69    1.58
   8  -4  14    0.19    1.38
  -8   3  20   33.54    5.92
   8  -3 -19   48.96    7.54
  -8   3  19   42.46    6.61
   8  -3 -18   15.90    4.37
  -8   3  18   12.13    3.54
   8  -3 -17   50.28    7.43
  -8   3  17   62.92    7.80
   8  -3 -16   17.63    5.29
  -8   3  16   15.22    4.30
   8  -3 -15  145.84   12.11
  -8   3  15  159.52   11.94
   8  -3 -14   23.65    5.16
  -8   3  14   24.12    4.85
   8  -3 -13  118.35   10.60
  -8   3  13  119.27   10.06
   8  -3 -12   12.36    3.36
  -8   3  12   11.11    3.16
   8  -3 -11   40.04    5.87
  -8   3  11   36.23    5.32
   8  -3 -10   13.42    3.62
  -8   3  10   13.47    3.25
   8  -3 -10   15.27    1.96
   8  -3  -9   13.14    3.27
  -8   3   9   12.36    1.62
   8  -3  -9   12.13    1.79
   8  -3  -8   -0.80    1.44
   8  -3  -8    0.51    0.90
   8  -3  -8    0.61    0.71
   8  -3  -7   32.21    4.90
   8  -3  -7   36.82    4.15
   8  -3  -6    5.50    2.06
   8  -3  -6    6.07    1.83
   8  -3  -5  174.81   10.87
   8  -3  -5  167.28    9.67
   8  -3  -4    0.48    1.19
   8  -3  -4    0.38    1.11
   8  -3  -3  275.26   13.18
   8  -3  -3  263.65   13.06
   8  -3  -2   31.57    4.19
   8  -3  -2   32.37    1.84
   8  -3  -2   37.17    4.96
   8  -3  -1    3.69    1.66
   8  -3  -1    5.05    1.55
   8  -3  -1    9.31    2.70
   8  -3  -1    6.13    0.90
   8  -3   0   72.61    7.32
   8  -3   0   79.42    6.37
   8  -3   0   68.26    4.69
   8  -3   1  424.15   18.59
   8  -3   1  410.72   14.61
   8  -3   1  396.35   12.17
   8  -3   2   14.88    3.81
   8  -3   2   17.72    2.86
   8  -3   2   17.80    2.50
   8  -3   3  454.33   19.95
   8  -3   3  421.06   13.64
   8  -3   3  408.50   12.83
   8  -3   4    4.22    2.54
   8  -3   4    2.91    1.27
   8  -3   4    8.97    2.12
   8  -3   5  478.28   21.60
   8  -3   5  518.11   13.71
   8  -3   5  528.49   15.30
   8  -3   6   40.81    6.32
   8  -3   6   47.26    3.48
   8  -3   6   52.71    4.64
   8  -3   7  147.96   12.04
   8  -3   7  147.67    7.87
   8  -3   8   85.02    9.25
   8  -3   8   70.76    5.53
   8  -3   9   48.34    7.18
   8  -3   9   58.87    5.31
   8  -3  10   65.31    5.74
   8  -3  11   -0.02    1.10
   8  -3  12   34.06    4.61
   8  -3  13   16.18    3.23
   8  -3  14    1.93    1.91
  -8   2  21   35.95    6.36
   8  -2 -20    4.80    2.77
  -8   2  20   12.54    3.81
   8  -2 -19   35.74    6.50
  -8   2  19   33.98    6.01
   8  -2 -18   45.84    7.05
  -8   2  18   44.74    6.74
   8  -2 -17   23.74    5.13
  -8   2  17   26.96    5.37
   8  -2 -16  147.65   12.38
  -8   2  16  173.97   12.97
   8  -2 -15    6.20    3.32
  -8   2  15   10.14    3.39
   8  -2 -14  123.12   10.87
  -8   2  14  156.01   11.81
   8  -2 -13    5.84    2.77
  -8   2  13    8.51    3.10
   8  -2 -12  255.19   15.16
  -8   2  12  230.83   14.11
   8  -2 -11    8.56    3.12
  -8   2  11    9.46    3.48
   8  -2 -10  214.66   13.40
  -8   2  10  218.89   13.39
  -8   2  10  219.47    8.10
   8  -2 -10  194.54    9.07
   8  -2 -10  209.23    7.17
   8  -2  -9   40.19    5.74
  -8   2   9   34.81    5.46
   8  -2  -9   39.28    3.04
   8  -2  -9   34.10    3.87
   8  -2  -8   89.15    4.96
   8  -2  -8  103.93    7.10
   8  -2  -7   -0.18    0.99
   8  -2  -7    0.99    0.88
   8  -2  -6    2.04    1.39
   8  -2  -6    4.73    1.72
   8  -2  -5   -0.59    1.06
   8  -2  -5    0.63    0.84
   8  -2  -4   22.90    3.88
   8  -2  -4   21.99    3.75
   8  -2  -3    4.89    2.03
   8  -2  -3    4.33    1.85
   8  -2  -3    4.17    0.75
   8  -2  -2   62.53    5.92
   8  -2  -2   56.02    6.23
   8  -2  -2   56.65    3.03
   8  -2  -2   50.57    3.88
   8  -2  -1    3.21    1.22
   8  -2  -1    6.45    2.19
   8  -2  -1    4.81    1.18
   8  -2  -1    4.19    1.32
   8  -2   0   49.69    6.17
   8  -2   0   52.07    5.09
   8  -2   0   51.08    3.87
   8  -2   1  155.02   11.23
   8  -2   1  147.52    8.28
   8  -2   1  154.43    7.04
   8  -2   2   36.65    5.64
   8  -2   2   33.96    3.75
   8  -2   2   34.46    3.35
   8  -2   3  194.61   13.17
   8  -2   3  170.69    7.99
   8  -2   3  183.78    7.93
   8  -2   4  399.23   19.62
   8  -2   4  381.23   11.55
   8  -2   4  385.33   12.38
   8  -2   5   33.73    6.14
   8  -2   5   32.21    2.95
   8  -2   5   44.65    4.01
   8  -2   6  157.19   12.52
   8  -2   6  160.40    7.86
   8  -2   7   11.39    4.13
   8  -2   7    6.80    1.87
   8  -2   8  139.80   12.12
   8  -2   8  141.28    7.96
   8  -2   9   40.91    6.56
   8  -2   9   38.68    4.32
   8  -2  10   29.67    5.82
   8  -2  10   35.00    4.35
   8  -2  11   69.86    8.90
   8  -2  11   91.51    7.20
   8  -2  12   39.41    5.00
   8  -2  13   55.06    6.19
   8  -2  14   18.07    3.76
  -8   1  22    3.88    2.89
  -8   1  21    3.97    2.41
   8  -1 -20   26.42    5.57
  -8   1  20   28.21    5.99
   8  -1 -19    1.62    1.54
  -8   1  19   -0.56    1.41
   8  -1 -18   25.23    5.14
  -8   1  18   22.15    4.91
   8  -1 -17    3.29    2.33
  -8   1  17    1.34    2.01
   8  -1 -16   11.32    3.97
  -8   1  16   10.56    3.56
   8  -1 -15   74.99    8.51
  -8   1  15   89.04    9.08
   8  -1 -14   56.32    7.28
  -8   1  14   60.09    7.33
   8  -1 -13  326.55   17.44
  -8   1  13  319.65   17.13
   8  -1 -12    2.64    2.02
  -8   1  12    5.97    2.80
   8  -1 -12    3.45    1.45
   8  -1 -11  360.21   17.69
  -8   1  11  374.58   18.16
   8  -1 -11  337.45   12.43
   8  -1 -10    9.41    3.07
  -8   1  10    5.20    1.40
  -8   1  10    8.15    3.23
   8  -1 -10    5.45    1.86
   8  -1  -9  408.25   18.35
  -8   1   9  396.24   18.28
   8  -1  -9  377.51   10.10
   8  -1  -9  388.03   14.48
  -8   1   8    2.14    2.26
   8  -1  -8    0.44    1.04
   8  -1  -7  204.84   12.13
   8  -1  -7  214.93   11.07
   8  -1  -6    2.18    1.62
   8  -1  -6   -1.09    1.14
   8  -1  -5    8.83    2.39
   8  -1  -5    9.78    2.58
   8  -1  -4    2.03    1.14
   8  -1  -4    3.71    0.85
   8  -1  -4    4.24    1.67
   8  -1  -3    0.68    0.99
   8  -1  -3   -0.08    1.30
   8  -1  -3    0.49    0.38
   8  -1  -2  113.50    7.96
   8  -1  -2  119.70    9.42
   8  -1  -2  112.40    5.01
   8  -1  -2  116.96    5.72
   8  -1  -1  123.26    9.73
   8  -1  -1  120.78    8.04
   8  -1  -1  121.69    5.88
   8  -1   0   85.28    8.31
   8  -1   0   83.46    6.33
   8  -1   0   79.12    4.69
   8  -1   1  146.71   11.21
   8  -1   1  142.06    7.87
   8  -1   1  138.91    6.53
   8  -1   2  147.15   11.47
   8  -1   2  149.61    7.57
   8  -1   2  144.47    6.79
   8  -1   3   93.90    9.61
   8  -1   3   80.26    5.16
   8  -1   3   99.28    5.62
   8  -1   4  275.83   16.43
   8  -1   4  251.97    8.69
   8  -1   4  266.76    9.77
   8  -1   5  105.62   10.43
   8  -1   5  107.99    6.14
   8  -1   6  100.59   10.21
   8  -1   6  107.35    6.31
   8  -1   7  122.27   11.47
   8  -1   7  128.17    7.33
   8  -1   8   13.54    4.00
   8  -1   8   20.32    3.22
   8  -1   9   58.10    8.09
   8  -1   9   44.20    4.58
   8  -1  10    4.45    3.00
   8  -1  10    4.43    1.62
   8  -1  11   59.66    8.33
   8  -1  11   46.07    5.18
   8  -1  12   22.94    5.12
   8  -1  12   28.64    4.29
   8  -1  13   30.57    4.68
   8  -1  14   50.78    6.17
  -8   0  22    3.41    3.38
  -8   0  21    5.39    2.56
   8   0 -20    6.51    3.65
  -8   0  20    6.28    3.69
   8   0 -19    3.60    1.99
  -8   0  19    4.69    3.26
   8   0 -18    0.25    1.64
  -8   0  18    3.72    2.80
   8   0 -17   21.93    4.73
  -8   0  17   35.90    6.05
   8   0 -16    1.85    1.38
  -8   0  16    4.63    2.91
   8   0 -15   34.99    5.63
  -8   0  15   38.67    6.15
   8   0 -14   70.05    7.89
  -8   0  14   84.08    8.81
   8   0 -13   11.16    3.03
  -8   0  13   18.98    4.30
   8   0 -13   13.67    2.27
   8   0 -12  114.71    9.79
  -8   0  12  126.90   10.56
   8   0 -12  111.54    6.79
   8   0 -11    0.34    1.22
   8   0 -11    2.94    1.34
   8   0 -10  353.25   17.04
  -8   0  10  358.48   17.77
   8   0 -10  328.96   13.28
   8   0  -9    6.62    2.68
  -8   0   9    4.69    2.75
   8   0  -9    2.21    0.81
   8   0  -9    8.25    2.43
   8   0  -8  382.25   17.18
  -8   0   8  361.92   17.55
   8   0  -8  373.45   15.12
   8   0  -7    2.72    2.18
   8   0  -7    3.24    2.25
   8   0  -6  403.74   16.97
   8   0  -6  384.22   16.40
   8   0  -5    4.05    2.31
   8   0  -5    3.35    1.07
   8   0  -5    3.40    1.82
   8   0  -4  149.63    9.66
   8   0  -4  150.95   10.46
   8   0  -4  165.21    6.39
   8   0  -3   43.10    4.94
   8   0  -3   34.21    4.99
   8   0  -3   41.49    3.12
   8   0  -3   37.29    3.10
   8   0  -2    7.82    2.13
   8   0  -2    6.97    2.33
   8   0  -2    6.31    1.22
   8   0  -2   13.52    1.83
   8   0  -1   36.58    5.47
   8   0  -1   41.08    4.36
   8   0  -1   41.32    3.23
   8   0   0   18.91    4.06
   8   0   0   19.79    3.06
   8   0   0   19.77    2.27
   8   0   1   42.12    6.30
   8   0   1   35.57    3.74
   8   0   1   46.65    3.53
   8   0   2    3.89    2.16
   8   0   2    2.47    1.10
   8   0   2    1.92    0.99
   8   0   3   13.98    4.35
   8   0   3    7.14    2.65
   8   0   4   18.15    4.72
   8   0   4   14.71    2.31
   8   0   5  190.54   14.20
   8   0   5  197.91    8.48
   8   0   6   50.96    7.57
   8   0   6   46.96    4.19
   8   0   7  181.26   14.15
   8   0   7  180.60    8.75
   8   0   8   34.21    6.29
   8   0   8   30.05    3.72
   8   0   9   46.58    7.39
   8   0   9   51.43    5.12
   8   0  10   25.07    5.74
   8   0  10   22.81    3.41
   8   0  11    1.35    1.81
   8   0  11    5.50    2.00
   8   0  12    6.52    2.23
   8   0  13    3.02    1.84
  -8  -1  22   47.97    8.03
  -8  -1  21   15.35    5.63
   8   1 -20   26.66    5.52
  -8  -1  20   53.71    8.07
   8   1 -19    4.58    2.54
  -8  -1  19    0.93    2.39
   8   1 -18    8.64    3.24
  -8  -1  18    9.95    2.90
  -8  -1  17    2.02    1.92
  -8  -1  16    4.79    2.46
  -8  -1  15   -1.74    2.34
  -8  -1  14    6.33    2.75
  -8  -1  13    4.95    2.26
   8   1 -13    4.55    1.55
  -8  -1  12    8.00    3.55
   8   1 -12    3.55    1.49
   8   1 -11   50.47    6.32
   8   1 -11   59.02    5.40
   8   1 -10    9.04    2.56
  -8  -1  10   11.54    3.28
   8   1 -10   10.65    2.38
   8   1  -9  304.45   15.21
  -8  -1   9  284.96   15.69
   8   1  -9  249.71   12.33
   8   1  -8   12.78    3.20
  -8  -1   8   19.52    4.39
   8   1  -8   16.53    3.29
   8   1  -7  306.76   14.69
  -8  -1   7  285.45   15.51
   8   1  -7  302.55   14.21
   8   1  -6   44.50    5.48
   8   1  -6   40.82    3.43
   8   1  -6   45.85    5.59
   8   1  -5  314.34   14.26
   8   1  -5  270.24    9.42
   8   1  -5  301.92   14.91
   8   1  -4    8.67    1.44
   8   1  -4    8.44    2.56
   8   1  -4    6.40    1.38
   8   1  -3  346.10   14.40
   8   1  -3  338.26   16.74
   8   1  -3  338.45   10.63
   8   1  -3  338.72    9.63
   8   1  -2   23.72    3.54
   8   1  -2   30.00    5.11
   8   1  -2   22.62    2.57
   8   1  -2   19.83    2.17
   8   1  -1   72.18    7.95
   8   1  -1   80.40    6.18
   8   1  -1   76.65    4.22
   8   1   0   17.08    4.72
   8   1   0   18.66    2.97
   8   1   0   20.74    2.31
   8   1   1   26.37    5.05
   8   1   1   22.96    2.92
   8   1   1   22.98    2.36
   8   1   2  131.49   11.33
   8   1   2  143.81    6.83
   8   1   2  147.13    6.35
   8   1   3    4.39    2.43
   8   1   3    2.06    0.91
   8   1   4   66.40    8.32
   8   1   4   53.81    4.13
   8   1   5   25.62    5.35
   8   1   5   24.30    2.98
   8   1   6   28.50    5.80
   8   1   6   24.73    3.02
   8   1   7   40.95    6.82
   8   1   7   32.61    3.72
   8   1   8   86.89   10.15
   8   1   8   86.99    6.35
   8   1   9    3.93    2.54
   8   1   9    5.79    1.95
   8   1  10   82.20   10.16
   8   1  10   86.33    7.02
   8   1  11    5.72    3.32
   8   1  11   -2.25    1.57
  -8  -2  21   10.92    3.88
  -8  -2  20    3.06    2.31
  -8  -2  19   49.88    7.83
  -8  -2  18   15.70    4.59
  -8  -2  17   41.31    6.71
  -8  -2  16    6.75    2.29
  -8  -2  15    0.98    2.15
  -8  -2  14   66.44    7.99
   8   2 -14   46.77    4.55
  -8  -2  13    2.56    1.80
  -8  -2  12   15.07    3.72
  -8  -2  11    3.51    2.49
  -8  -2  10    0.48    1.16
  -8  -2   9    5.67    2.36
   8   2  -8   94.81    8.08
  -8  -2   8  119.66    9.94
   8   2  -7    5.31    2.03
  -8  -2   7   10.47    3.23
   8   2  -6  422.85   17.13
   8   2  -6  426.96   12.81
   8   2  -5   27.84    4.24
   8   2  -5   25.10    2.83
   8   2  -5   22.08    2.17
   8   2  -4  297.25   13.56
   8   2  -4  307.12   10.46
   8   2  -4  294.03    8.48
   8   2  -3    8.09    2.30
   8   2  -3    6.36    1.63
   8   2  -3    5.93    1.18
   8   2  -2  248.06   11.44
   8   2  -2  262.07   15.23
   8   2  -2  246.50    9.81
   8   2  -2  271.51    8.04
   8   2  -1    3.06    1.59
   8   2  -1    2.42    1.01
   8   2   0  138.30   11.37
   8   2   0  123.54    7.27
   8   2   0  135.73    5.57
   8   2   1   98.09    9.86
   8   2   1   83.94    5.53
   8   2   1   93.37    4.66
   8   2   2   35.67    6.03
   8   2   2   41.36    3.28
   8   2   3   98.84   10.25
   8   2   3  107.44    5.50
   8   2   4    6.28    3.11
   8   2   4    1.60    0.96
   8   2   5   92.76   10.35
   8   2   5   83.99    5.40
   8   2   6   19.35    4.89
   8   2   6   19.19    2.75
   8   2   7    3.14    2.15
   8   2   7    1.63    1.34
   8   2   8   41.43    7.16
   8   2   9   41.63    7.28
   8   2  10   16.71    4.85
  -8  -3  21   89.69   10.91
  -8  -3  20   12.98    4.41
  -8  -3  19  149.24   13.50
  -8  -3  18   12.95    4.13
  -8  -3  17   29.70    5.94
  -8  -3  16   41.47    6.93
  -8  -3  15    1.58    1.70
  -8  -3  14   11.94    3.73
  -8  -3  13   50.45    7.00
  -8  -3  12    0.95    1.61
  -8  -3  11   60.90    7.49
  -8  -3  10    0.79    1.68
   8   3  -9   -0.16    0.32
  -8  -3   9   -3.28    2.01
   8   3  -8    1.12    0.53
  -8  -3   8    4.04    2.23
  -8  -3   7   -1.65    1.20
   8   3  -7    0.86    0.76
   8   3  -6   13.45    2.96
   8   3  -6   16.46    2.44
   8   3  -6   13.76    1.54
   8   3  -5   99.03    7.62
   8   3  -5   91.95    5.78
   8   3  -5   93.23    4.09
   8   3  -4   72.34    6.38
   8   3  -4   64.25    4.86
   8   3  -4   65.84    3.35
   8   3  -3  237.13   11.61
   8   3  -3  237.03    9.84
   8   3  -3  244.71    6.94
   8   3  -2    5.30    1.86
   8   3  -2    5.18    1.68
   8   3  -2    3.60    0.84
   8   3  -1  366.96   13.34
   8   3  -1  353.90    9.13
   8   3   0   10.01    2.66
   8   3   0   12.43    1.74
   8   3   1  174.50   13.33
   8   3   1  191.52    6.83
   8   3   2   36.35    6.16
   8   3   2   24.35    2.45
   8   3   3   60.31    8.18
   8   3   3   62.90    4.19
   8   3   4   21.46    5.03
   8   3   5   18.26    5.17
   8   3   6  151.56   13.76
   8   3   7    2.51    1.70
   8   3   7    3.45    2.94
   8   3   8   16.45    4.84
   8   3   8    8.03    2.78
   8   3   9   34.09    6.73
  -8  -4  20  165.25   14.60
  -8  -4  19    3.74    3.23
  -8  -4  18  147.12   13.29
  -8  -4  17    8.03    3.80
  -8  -4  16  120.74   11.64
  -8  -4  15    5.37    2.85
  -8  -4  14  106.74   11.13
  -8  -4  13    9.22    3.33
  -8  -4  12   61.85    7.97
  -8  -4  11    8.05    3.19
  -8  -4  10   42.13    6.23
  -8  -4   9    0.71    1.37
   8   4  -8   30.79    2.46
  -8  -4   8   25.02    4.64
   8   4  -8   24.72    3.21
   8   4  -7    9.49    1.59
  -8  -4   7    4.24    2.15
   8   4  -7    9.36    1.94
   8   4  -7    6.63    1.03
   8   4  -6    2.79    1.05
   8   4  -6    0.37    0.67
   8   4  -6    2.50    0.64
   8   4  -5   67.70    6.26
   8   4  -5   74.06    4.98
   8   4  -5   74.84    5.46
   8   4  -5   68.20    2.98
   8   4  -4   18.13    3.27
   8   4  -4   19.41    2.75
   8   4  -4   16.66    2.58
   8   4  -4   20.30    1.58
   8   4  -3   82.03    6.57
   8   4  -3   77.95    5.77
   8   4  -2  141.59    8.39
   8   4  -2  134.02    8.12
   8   4  -1   21.40    3.19
   8   4   2  154.69    9.72
   8   4   2  168.93   13.74
   8   4   3    3.34    1.88
   8   4   3    1.73    2.02
   8   4   4  105.43   11.34
   8   4   4  110.55    8.61
   8   4   5  158.07   14.14
   8   4   5  156.82   10.63
   8   4   6    5.61    2.40
   8   4   6    0.12    1.86
   8   4   7   60.98    7.03
   8   4   7   54.03    8.44
   8   4   8    3.20    2.12
  -8  -5  20   28.72    6.38
  -8  -5  19   86.82   10.45
  -8  -5  18    8.24    3.63
  -8  -5  17  252.32   17.40
  -8  -5  16    2.23    2.82
  -8  -5  15  368.61   20.69
  -8  -5  14    9.18    4.02
  -8  -5  13  108.28   10.70
  -8  -5  12   15.42    4.36
  -8  -5  11   33.64    5.91
  -8  -5  10   16.78    4.32
  -8  -5   9   20.45    4.54
  -8  -5   8    0.88    1.68
   8   5  -8    1.91    1.10
  -8  -5   7   24.14    4.74
   8   5  -7   20.52    2.99
   8   5  -7   25.09    2.53
   8   5  -6   36.02    3.94
   8   5  -6   34.33    3.23
   8   5  -5    2.67    1.32
   8   5  -5    1.91    0.95
   8   5  -4   27.52    3.93
   8   5  -4   32.94    3.89
   8   5  -4   23.71    3.05
   8   5  -3   10.67    2.66
   8   5  -3    8.16    2.52
   8   5  -3    9.20    2.28
   8   5  -2   60.51    5.27
   8   5  -2   53.31    5.24
   8   5  -2   54.95    5.14
   8   5  -1   49.21    4.97
   8   5   0   94.79    7.16
   8   5   1   66.34    6.20
   8   5   2  102.02    7.97
   8   5   3   71.37    9.22
   8   5   3   82.97    7.37
   8   5   4   24.10    4.10
   8   5   4   17.76    4.79
   8   5   5   18.76    3.77
   8   5   5   14.57    4.67
   8   5   6    7.84    2.67
   8   5   6    9.26    3.94
   8   5   7    7.62    2.64
  -8  -6  19    1.20    2.18
  -8  -6  18   72.14    9.65
  -8  -6  17    7.54    3.30
  -8  -6  16  177.28   14.52
  -8  -6  15    1.19    2.04
  -8  -6  14  246.66   16.74
  -8  -6  13    8.85    4.51
  -8  -6  12  441.73   22.19
  -8  -6  11   44.02    6.82
  -8  -6  10   98.86   10.15
  -8  -6   9   98.44    9.88
   8   6  -9  109.69    7.47
  -8  -6   8    4.03    2.66
   8   6  -8    5.74    1.84
  -8  -6   7   18.53    4.24
   8   6  -7   13.93    2.64
   8   6  -7   18.76    2.24
   8   6  -6    0.29    0.96
   8   6  -6    0.53    0.77
   8   6  -5    0.43    1.22
   8   6  -5    1.41    0.95
   8   6  -4   10.22    2.32
   8   6  -4   13.55    2.71
   8   6  -4   15.15    2.49
   8   6  -3   15.21    3.44
   8   6  -3   16.00    3.36
   8   6  -3   24.23    3.40
   8   6  -2    0.91    1.12
   8   6  -2    3.51    1.45
   8   6  -1   41.86    4.69
   8   6   0    5.88    2.01
   8   6   1   96.47    7.54
   8   6   2   19.44    3.44
   8   6   3    8.59    2.26
   8   6   4   55.78    8.42
   8   6   4   56.58    6.38
   8   6   5   58.40    8.89
   8   6   5   60.19    6.75
   8   6   6   38.08    5.57
  -8  -7  18    1.78    1.61
  -8  -7  17    6.19    3.00
  -8  -7  16    1.66    2.24
  -8  -7  15   70.54    9.47
  -8  -7  14    6.16    3.34
  -8  -7  13  224.73   16.03
  -8  -7  12    5.82    3.19
  -8  -7  11  239.67   16.19
  -8  -7  10   19.30    4.99
  -8  -7   9  222.59   15.11
   8   7  -9  225.15   11.29
  -8  -7   8   82.47    9.01
   8   7  -8   78.39    6.52
  -8  -7   7   70.34    8.32
   8   7  -7   79.48    6.47
   8   7  -6  141.10    8.77
   8   7  -6  123.76    6.59
   8   7  -5   20.47    3.33
   8   7  -5   17.66    2.60
   8   7  -4    9.33    2.18
   8   7  -4   12.80    2.36
   8   7  -3   -0.09    1.37
   8   7  -3    0.59    0.85
   8   7  -2   -1.27    1.89
   8   7  -2    0.78    0.99
   8   7  -1   -0.50    0.87
   8   7   0    6.23    1.91
   8   7   1    0.03    0.95
   8   7   2   31.99    4.63
   8   7   3   19.32    3.71
   8   7   4   87.54    8.08
   8   7   5   11.02    3.04
  -8  -8  18    2.78    1.96
  -8  -8  17   -1.69    2.28
  -8  -8  16    2.41    2.78
  -8  -8  15    8.19    3.39
  -8  -8  14   24.42    5.22
  -8  -8  13    6.72    3.36
  -8  -8  12  107.86   11.26
  -8  -8  11   14.52    4.29
  -8  -8  10  168.21   13.52
   8   8 -10  170.63   10.26
  -8  -8   9    5.29    3.22
   8   8  -9   -0.13    1.78
  -8  -8   8  238.55   15.85
   8   8  -8  231.59   11.92
  -8  -8   7   43.36    6.75
   8   8  -7   38.66    4.72
   8   8  -6  106.41    7.92
   8   8  -5  102.86    7.83
   8   8  -5   92.65    6.13
   8   8  -4   34.89    4.58
   8   8  -4   42.51    4.40
   8   8  -3   91.80    7.64
   8   8  -3   90.16    6.63
   8   8  -2   49.60    5.81
   8   8  -2   48.16    5.07
   8   8  -1   50.36    5.32
   8   8   0    5.44    1.95
   8   8   1    2.35    1.39
   8   8   2   19.86    3.69
   8   8   3   19.85    3.82
   8   8   4   12.57    3.36
  -8  -9  17    9.45    3.79
  -8  -9  16    1.41    1.54
  -8  -9  15   -1.81    2.39
  -8  -9  14    5.07    2.77
  -8  -9  13    5.83    3.16
  -8  -9  12   26.54    6.11
  -8  -9  11   11.66    3.93
  -8  -9  10   46.68    7.26
   8   9 -10   29.94    4.41
  -8  -9   9   93.02   10.25
   8   9  -9  101.26    8.12
  -8  -9   8   16.93    4.54
   8   9  -8   18.34    3.62
  -8  -9   7  124.30   11.38
   8   9  -7   87.89    7.63
   8   9  -6    4.14    1.97
   8   9  -5   94.87    7.87
   8   9  -4   54.98    6.07
   8   9  -4   52.81    4.97
   8   9  -3   81.66    7.47
   8   9  -3   76.60    6.31
   8   9  -2  126.72    9.71
   8   9  -2  124.97    8.41
   8   9  -1   52.39    6.27
   8   9  -1   51.23    5.54
   8   9   0   45.20    5.41
   8   9   1   54.98    6.12
   8   9   2   31.98    4.81
   8   9   3    7.74    2.59
  -8 -10  16    1.34    1.90
  -8 -10  15    1.84    2.10
  -8 -10  14    4.25    1.84
  -8 -10  13    3.28    1.97
  -8 -10  12    5.47    3.27
  -8 -10  11    8.43    3.01
   8  10 -11    8.78    2.56
  -8 -10  10    9.05    3.55
   8  10 -10    4.73    1.80
  -8 -10   9   36.83    6.73
   8  10  -9   35.53    5.01
  -8 -10   8   39.57    6.78
   8  10  -8   34.44    5.06
   8  10  -7   70.94    6.95
   8  10  -6   55.13    6.31
   8  10  -5   29.22    4.63
   8  10  -4   39.58    5.38
   8  10  -3    2.03    1.62
   8  10  -2   57.28    6.72
   8  10  -2   46.69    5.26
   8  10  -1   23.10    4.54
   8  10  -1   23.67    3.95
   8  10   0   42.10    5.45
   8  10   1   61.29    6.64
   8  10   2   15.09    3.59
  -8 -11  14    0.08    1.96
  -8 -11  13    5.74    2.57
  -8 -11  12    1.84    1.70
  -8 -11  11    1.21    1.56
   8  11 -11    0.15    1.41
  -8 -11  10    0.65    2.68
   8  11 -10    1.89    1.54
  -8 -11   9    0.41    1.80
   8  11  -9   -1.17    1.82
  -8 -11   8   39.56    6.85
   8  11  -8   36.07    5.15
   8  11  -7    5.09    1.90
   8  11  -6   62.42    6.96
   8  11  -5   52.77    6.50
   8  11  -4   59.18    6.91
   8  11  -3   43.94    6.06
   8  11  -2   12.49    3.24
   8  11   0    4.30    2.12
  -8 -12  13   -2.94    3.17
  -8 -12  12    8.34    3.51
  -8 -12  11    7.79    3.51
   8  12 -11    6.80    2.52
  -8 -12  10    1.17    1.86
   8  12 -10    0.49    1.25
  -8 -12   9    2.87    2.66
   8  12  -9   -0.20    1.81
   8  12  -8    0.99    1.43
   8  12  -7   11.33    3.15
   8  12  -6    4.59    2.27
   8  12  -5   65.15    7.41
  -8 -13  11   42.30    8.02
  -8 -13  10   11.35    4.13
  -8 -13   9    0.28    1.73
   9 -18   1  100.63    9.23
   9 -18   2   40.11    5.77
   9 -18   3  105.27    8.78
   9 -18   3  119.27    9.67
   9 -18   4    0.81    1.43
   9 -18   4   -0.82    1.41
   9 -18   5  109.82    9.16
   9 -18   5  110.94    8.78
   9 -18   6   16.16    3.42
   9 -18   6   19.80    3.80
   9 -18   7   58.81    6.56
   9 -17  -3   29.29    5.22
   9 -17  -2   19.64    4.23
   9 -17  -1   51.30    6.68
   9 -17   0    5.31    2.58
   9 -17   1  198.34   12.74
   9 -17   2   62.58    7.06
   9 -17   3   24.12    4.14
   9 -17   3   25.25    4.54
   9 -17   4  118.26    9.43
   9 -17   4  118.39    8.97
   9 -17   5    8.02    2.86
   9 -17   5    3.76    1.88
   9 -17   6  158.66   10.73
   9 -17   6  175.44   10.77
   9 -17   7    5.23    2.33
   9 -17   7    4.99    2.66
   9 -17   8  200.51   11.62
   9 -16  -6   69.53    8.27
   9 -16  -5   23.56    5.05
   9 -16  -4   21.70    4.55
   9 -16  -3   14.91    3.90
   9 -16  -2    4.94    2.46
   9 -16  -1    9.58    3.14
   9 -16   0  230.27   13.83
   9 -16   1   15.44    3.60
   9 -16   2   35.01    5.18
   9 -16   3   12.18    2.77
   9 -16   3   22.81    4.15
   9 -16   4   17.87    3.49
   9 -16   4   21.45    3.98
   9 -16   5  127.87    9.47
   9 -16   5  114.85    8.60
   9 -16   6   33.74    4.73
   9 -16   6   26.42    4.21
   9 -16   7  213.16   12.07
   9 -16   7  216.43   11.90
   9 -16   8    2.73    2.04
   9 -16   8    3.56    2.01
   9 -16   9  251.65   12.85
   9 -15  -8   10.21    3.37
   9 -15  -7   58.98    7.72
   9 -15  -6   16.72    4.55
   9 -15  -5   99.94    9.63
   9 -15  -4    9.41    4.20
   9 -15  -3   94.73    9.09
   9 -15  -2    3.20    2.13
   9 -15  -1    5.76    2.56
   9 -15   0    4.89    2.73
   9 -15   1    3.79    1.93
   9 -15   2    9.90    2.90
   9 -15   3   26.51    4.06
   9 -15   3   24.37    4.15
   9 -15   4    8.40    2.45
   9 -15   4   10.64    2.82
   9 -15   5   67.76    6.68
   9 -15   5   50.56    5.58
   9 -15   6   80.10    7.34
   9 -15   6   72.78    6.82
   9 -15   7    6.21    2.17
   9 -15   7    3.94    2.14
   9 -15   8  178.66   10.70
   9 -15   8  182.17   10.61
   9 -15   9   -1.71    1.46
   9 -15  10  192.18   11.06
   9 -14 -10   37.25    6.39
   9 -14  -9   37.60    6.38
   9 -14  -8   10.30    3.86
   9 -14  -7   51.43    7.26
   9 -14  -6    4.48    2.74
   9 -14  -5   32.72    5.84
   9 -14  -4   85.98    8.78
   9 -14  -3   25.44    5.00
   9 -14  -2  176.53   11.99
   9 -14  -1   22.83    4.44
   9 -14   0  134.77   10.11
   9 -14   1   20.95    4.04
   9 -14   2    0.17    1.22
   9 -14   3   30.81    4.69
   9 -14   3   27.61    3.94
   9 -14   4   27.30    3.96
   9 -14   4   27.75    4.42
   9 -14   5    8.08    2.52
   9 -14   5    6.72    1.93
   9 -14   6   10.79    2.73
   9 -14   6   16.68    3.27
   9 -14   7    7.52    2.22
   9 -14   7   10.65    2.69
   9 -14   8    5.36    2.43
   9 -14   8    5.74    2.28
   9 -14   9   60.28    6.06
   9 -14  10    1.18    1.05
   9 -14  11  135.51    9.08
   9 -13 -11   67.66    8.82
   9 -13 -10   35.84    6.30
   9 -13  -9   60.12    7.96
   9 -13  -8   45.90    6.99
   9 -13  -7   80.44    8.87
   9 -13  -6  118.36   10.55
   9 -13  -5    9.18    3.33
   9 -13  -4  107.29    9.80
   9 -13  -3    8.29    2.82
   9 -13  -2   71.11    7.54
   9 -13  -1  129.84    9.97
   9 -13   0   40.80    5.58
   9 -13   1  104.48    8.58
   9 -13   2    3.42    1.87
   9 -13   3   24.03    4.14
   9 -13   3   22.87    3.58
   9 -13   4   47.46    5.62
   9 -13   4   44.43    4.95
   9 -13   5    4.01    1.81
   9 -13   5    5.53    1.86
   9 -13   6   23.96    3.72
   9 -13   6   25.10    3.72
   9 -13   7    7.49    2.26
   9 -13   7    8.88    2.60
   9 -13   8    2.15    1.62
   9 -13   8    2.51    1.54
   9 -13   9    9.83    2.45
   9 -13  10   18.99    3.22
   9 -13  11    6.24    2.18
   9 -13  12   54.46    5.82
   9 -12 -12   12.22    3.88
   9 -12 -11    2.14    1.48
   9 -12 -10   41.12    6.81
   9 -12  -9    9.46    3.31
   9 -12  -8  114.40   10.67
   9 -12  -7   60.94    7.59
   9 -12  -6   91.52    9.33
   9 -12  -5  107.33    9.85
   9 -12  -4   30.06    5.23
   9 -12  -3  254.11   14.71
   9 -12  -2    0.77    1.69
   9 -12  -1  212.43   12.81
   9 -12   0   20.09    4.02
   9 -12   1  226.77   12.62
   9 -12   2   84.17    6.75
   9 -12   2   85.29    7.54
   9 -12   3   53.54    5.93
   9 -12   3   46.61    4.94
   9 -12   4   13.63    3.00
   9 -12   4   18.53    3.16
   9 -12   5   36.01    4.65
   9 -12   5   44.46    4.88
   9 -12   6    3.37    1.46
   9 -12   6    2.54    1.50
   9 -12   7   70.70    6.27
   9 -12   7   66.67    5.97
   9 -12   8   12.08    2.74
   9 -12   8    9.41    2.50
   9 -12   9   17.75    3.11
   9 -12  10    3.93    1.55
   9 -12  11    2.26    1.56
   9 -12  12    0.14    1.33
   9 -11 -13   18.62    4.86
   9 -11 -12   -2.03    2.52
   9 -11 -11    1.38    1.83
   9 -11 -10   10.42    3.22
   9 -11  -9    6.16    2.88
   9 -11  -8    4.40    2.23
   9 -11  -7   24.45    4.89
   9 -11  -6   30.61    5.31
   9 -11  -5   91.04    8.87
   9 -11  -4   38.11    5.79
   9 -11  -3  104.24    9.06
   9 -11  -2  152.96   10.81
   9 -11  -1   26.03    4.35
   9 -11   0  395.71   17.20
   9 -11   1   11.04    3.56
   9 -11   2  636.44   22.31
   9 -11   2  651.60   19.99
   9 -11   3   55.13    5.96
   9 -11   3   62.83    5.95
   9 -11   4  205.11   11.20
   9 -11   4  195.98   10.09
   9 -11   5   15.66    3.94
   9 -11   5    9.74    2.64
   9 -11   6    0.59    0.83
   9 -11   6    3.43    1.70
   9 -11   7    4.29    1.76
   9 -11   7    4.80    1.79
   9 -11   8   10.41    2.27
   9 -11   8   18.83    3.19
   9 -11   9    0.47    1.24
   9 -11  10   43.61    4.94
   9 -11  11    2.23    1.30
   9 -11  12    6.52    2.02
   9 -10 -14   42.40    7.17
   9 -10 -13   23.26    5.23
   9 -10 -12   42.89    7.21
   9 -10 -11   19.54    5.73
   9 -10 -10   21.99    4.59
   9 -10  -9   -0.88    1.57
   9 -10  -8    4.36    2.79
   9 -10  -7   -1.28    2.01
   9 -10  -6    5.36    2.48
   9 -10  -5    6.64    2.56
   9 -10  -4   45.41    6.13
   9 -10  -3   12.00    3.15
   9 -10  -2   48.11    5.95
   9 -10  -1  104.36    8.67
   9 -10   0   18.11    3.58
   9 -10   1  554.16   20.09
   9 -10   2    3.50    2.00
   9 -10   2    2.24    2.01
   9 -10   3  495.21   18.04
   9 -10   3  482.76   16.32
   9 -10   4    4.78    2.65
   9 -10   4    5.88    2.07
   9 -10   5  453.18   16.55
   9 -10   5  450.99   15.65
   9 -10   6    7.74    2.24
   9 -10   6    7.15    2.29
   9 -10   7   95.56    6.86
   9 -10   7   90.79    6.77
   9 -10   8    9.50    2.22
   9 -10   8    7.74    2.10
   9 -10   9    2.93    1.36
   9 -10  10    2.75    1.66
   9 -10  11    2.44    1.24
   9 -10  12    7.90    2.26
   9 -10  13    1.29    1.47
   9  -9 -15    1.58    1.73
   9  -9 -14   43.81    7.13
   9  -9 -13   46.37    7.50
   9  -9 -12  111.28   11.24
   9  -9 -11   69.42    8.54
   9  -9 -10   35.70    6.53
   9  -9  -9   24.29    4.99
   9  -9  -8   13.87    3.53
   9  -9  -7   -1.08    1.71
   9  -9  -6   32.92    5.34
   9  -9  -5    0.15    1.61
   9  -9  -4    1.95    1.61
   9  -9  -3   -0.67    1.13
   9  -9  -2   21.27    3.88
   9  -9  -1   27.11    4.31
   9  -9   0   24.07    4.01
   9  -9   1    5.01    2.22
   9  -9   1    5.10    1.64
   9  -9   2  137.95    9.10
   9  -9   2  126.12    7.73
   9  -9   3    3.81    2.16
   9  -9   3    6.65    2.23
   9  -9   4  319.30   13.57
   9  -9   4  311.94   12.43
   9  -9   5    3.74    2.08
   9  -9   5    4.93    2.34
   9  -9   6  663.29   19.72
   9  -9   6  658.58   19.54
   9  -9   7    6.44    1.92
   9  -9   7    8.75    2.31
   9  -9   8  254.45   11.01
   9  -9   8  260.29   11.83
   9  -9   9   18.08    3.14
   9  -9  10   25.02    3.69
   9  -9  11   77.94    6.66
   9  -9  12    5.69    1.79
   9  -9  13    4.64    2.09
   9  -8 -16   81.39   10.11
   9  -8 -15    9.05    3.54
   9  -8 -14    4.45    3.26
   9  -8 -13   50.44    7.50
   9  -8 -12   49.98    7.46
   9  -8 -11  244.98   16.32
   9  -8 -10   39.53    6.56
   9  -8  -9  142.70   11.83
   9  -8  -8    2.55    2.35
   9  -8  -7    3.50    1.72
   9  -8  -6   21.51    4.26
   9  -8  -5   -0.64    1.36
   9  -8  -4    6.97    2.41
   9  -8  -3   29.86    4.74
   9  -8  -2    0.39    1.33
   9  -8  -1   12.20    3.01
   9  -8   0   11.30    2.74
   9  -8   1   31.46    4.24
   9  -8   1   27.04    3.43
   9  -8   2   12.89    2.87
   9  -8   2   10.02    2.37
   9  -8   3   45.05    4.94
   9  -8   3   50.05    4.70
   9  -8   4    4.65    2.03
   9  -8   4    5.06    1.76
   9  -8   5  247.70   11.33
   9  -8   5  236.78   10.66
   9  -8   6   43.37    4.54
   9  -8   6   31.97    4.05
   9  -8   7  363.38   13.25
   9  -8   7  379.01   14.05
   9  -8   8   61.30    5.05
   9  -8   8   66.17    5.78
   9  -8   9  261.65   11.92
   9  -8  10   53.64    5.63
   9  -8  11  114.91    8.10
   9  -8  12   58.89    5.93
   9  -8  13   57.24    5.98
   9  -7 -16   30.63    6.26
   9  -7 -15   76.71    9.60
   9  -7 -14   10.93    3.86
   9  -7 -13   57.44    8.46
   9  -7 -12   85.50    9.70
   9  -7 -11   13.06    4.34
   9  -7 -10  311.89   17.94
   9  -7  -9   33.24    5.77
   9  -7  -8  201.65   13.85
   9  -7  -7    6.21    2.76
   9  -7  -6   54.21    6.69
   9  -7  -5    0.21    0.98
   9  -7  -4    2.96    2.04
   9  -7  -3   16.16    3.43
   9  -7  -2   10.03    2.63
   9  -7  -1    9.34    2.55
   9  -7   0   30.50    3.62
   9  -7   0   32.33    4.40
   9  -7   1   -0.69    1.82
   9  -7   1    0.97    0.94
   9  -7   2    3.74    1.11
   9  -7   2    6.52    1.80
   9  -7   3    0.92    1.40
   9  -7   3    5.73    1.80
   9  -7   4   -0.60    1.08
   9  -7   4    0.17    1.16
   9  -7   5   23.96    3.38
   9  -7   5   26.31    3.39
   9  -7   6   78.00    5.77
   9  -7   6   78.99    5.96
   9  -7   7   35.47    3.77
   9  -7   7   38.48    4.29
   9  -7   8   99.34    7.05
   9  -7   9   31.50    4.16
   9  -7  10  176.99    9.83
   9  -7  11    4.29    1.78
   9  -7  12  102.74    7.98
   9  -7  13   45.22    5.59
   9  -6 -17   23.76    5.94
   9  -6 -16   28.49    6.13
   9  -6 -15    8.24    3.67
   9  -6 -14  153.02   13.20
   9  -6 -13   21.59    4.96
   9  -6 -12  163.58   13.22
   9  -6 -11   88.86    9.63
   9  -6 -10   34.27    6.13
   9  -6  -9  275.44   16.41
   9  -6  -8   62.84    7.56
   9  -6  -7  157.47   11.75
   9  -6  -6   10.13    3.20
   9  -6  -5   83.22    8.14
   9  -6  -4    0.96    1.51
   9  -6  -3   80.04    7.72
   9  -6  -2   -0.11    1.15
   9  -6  -1   27.51    4.27
   9  -6   0    3.38    1.36
   9  -6   0    0.17    1.23
   9  -6   1   -0.19    0.97
   9  -6   1    0.10    0.79
   9  -6   2    0.31    1.14
   9  -6   2    1.59    1.01
   9  -6   3   28.47    3.83
   9  -6   3   26.41    3.24
   9  -6   4    3.74    1.55
   9  -6   4    4.15    1.52
   9  -6   5   13.56    2.53
   9  -6   5   13.90    2.54
   9  -6   6   31.03    3.54
   9  -6   6   34.06    3.87
   9  -6   7    1.58    1.18
   9  -6   7    4.26    1.83
   9  -6   8   67.51    5.69
   9  -6   9   79.40    6.32
   9  -6  10   50.65    5.17
   9  -6  11   68.84    6.36
   9  -6  12   13.65    3.41
   9  -6  13   70.87    6.90
  -9   5  18    7.78    2.94
   9  -5 -17   32.78    6.25
  -9   5  17   32.39    5.66
   9  -5 -16   17.36    4.71
  -9   5  16   15.39    3.90
   9  -5 -15    3.53    2.72
  -9   5  15    1.80    1.44
   9  -5 -14    1.05    1.39
   9  -5 -13   50.22    7.46
   9  -5 -12    3.50    2.26
   9  -5 -11  189.40   13.85
   9  -5 -10   95.37    9.75
   9  -5  -9   55.15    7.22
   9  -5  -8  399.54   19.22
   9  -5  -7   30.16    5.32
   9  -5  -6  397.43   18.53
   9  -5  -5   13.01    3.56
   9  -5  -4  140.65   10.24
   9  -5  -3    5.35    2.11
   9  -5  -2  152.39   10.27
   9  -5  -1    8.65    1.99
   9  -5  -1    9.95    2.74
   9  -5   0   78.87    6.81
   9  -5   0   84.92    5.73
   9  -5   1   -0.35    0.99
   9  -5   1    0.17    0.87
   9  -5   2    7.21    2.00
   9  -5   2    9.84    2.08
   9  -5   3    2.78    1.25
   9  -5   3    4.21    1.36
   9  -5   4    8.40    1.87
   9  -5   4    8.68    1.95
   9  -5   5    8.96    2.06
   9  -5   5   11.04    2.13
   9  -5   6   28.50    3.23
   9  -5   6   27.02    3.46
   9  -5   7   19.66    3.40
   9  -5   8    2.61    1.42
   9  -5   9   19.96    3.17
   9  -5  10    7.19    2.00
   9  -5  11   69.07    6.33
   9  -5  12   42.57    5.23
   9  -5  13   53.63    6.09
  -9   4  19   15.81    4.48
   9  -4 -18   67.65    9.18
  -9   4  18   80.71    9.32
   9  -4 -17   57.57    8.27
  -9   4  17   61.73    8.05
   9  -4 -16   57.46    8.14
  -9   4  16   53.28    7.52
   9  -4 -15   10.28    3.74
  -9   4  15    8.32    2.85
   9  -4 -14   13.19    3.83
  -9   4  14   18.36    4.29
   9  -4 -13   18.13    4.42
  -9   4  13   22.83    4.69
   9  -4 -12   19.69    4.63
   9  -4 -11    4.28    1.68
   9  -4 -10   35.12    5.74
   9  -4  -9    0.93    1.27
   9  -4  -8  113.77   10.07
   9  -4  -7  204.32   13.05
   9  -4  -6   74.49    7.98
   9  -4  -5  451.05   17.53
   9  -4  -5  492.65   21.08
   9  -4  -4   37.17    5.05
   9  -4  -4   36.26    5.36
   9  -4  -3  329.79   15.44
   9  -4  -3  317.81   15.47
   9  -4  -2   20.03    3.92
   9  -4  -2   22.16    3.87
   9  -4  -1  223.67   13.29
   9  -4  -1  237.38   12.31
   9  -4  -1  205.92    8.97
   9  -4   0    0.60    0.85
   9  -4   0    1.21    1.40
   9  -4   0   -0.01    0.44
   9  -4   0    1.36    0.98
   9  -4   1  226.42   13.95
   9  -4   1  225.30   11.16
   9  -4   1  205.94    9.00
   9  -4   2    1.40    1.52
   9  -4   2    1.61    1.06
   9  -4   2   -0.29    1.10
   9  -4   3   58.82    7.34
   9  -4   3   45.75    4.52
   9  -4   3   52.29    4.49
   9  -4   4   17.27    3.95
   9  -4   4   17.62    2.78
   9  -4   4   17.31    2.69
   9  -4   5    2.11    1.00
   9  -4   5    0.85    0.73
   9  -4   6   27.88    5.39
   9  -4   6   31.56    3.73
   9  -4   7    9.68    2.27
   9  -4   8   15.52    2.84
   9  -4   9    6.72    1.90
   9  -4  10   22.54    3.44
   9  -4  11    3.07    1.67
   9  -4  12   30.59    4.45
   9  -4  13   34.33    4.93
  -9   3  20   21.34    5.47
  -9   3  19    8.76    3.72
   9  -3 -18   34.13    6.87
  -9   3  18   41.99    7.11
   9  -3 -17   45.59    7.49
  -9   3  17   62.50    8.31
   9  -3 -16   34.08    6.38
  -9   3  16   28.61    5.50
   9  -3 -15   64.43    8.36
  -9   3  15   64.71    8.06
   9  -3 -14    2.80    2.35
  -9   3  14    3.20    3.04
   9  -3 -13   53.26    7.38
  -9   3  13   49.77    6.78
   9  -3 -12    4.71    2.51
  -9   3  12    4.61    2.23
   9  -3 -11    4.16    2.19
   9  -3 -10   72.57    8.17
   9  -3  -9   28.96    5.20
   9  -3  -8   81.79    6.75
   9  -3  -8   91.69    8.97
   9  -3  -7  186.53   10.58
   9  -3  -7  224.31   13.61
   9  -3  -6   33.59    4.65
   9  -3  -6   45.75    6.14
   9  -3  -5   95.57    7.96
   9  -3  -5   93.45    8.58
   9  -3  -4  714.55   23.98
   9  -3  -4  744.25   24.63
   9  -3  -3   10.72    3.37
   9  -3  -3   10.23    3.25
   9  -3  -2  345.25   16.73
   9  -3  -2  321.08    7.52
   9  -3  -2  318.00   11.13
   9  -3  -1    2.50    1.54
   9  -3  -1    3.97    2.52
   9  -3  -1    2.81    0.70
   9  -3  -1    1.80    0.96
   9  -3   0  224.88   13.83
   9  -3   0  219.24   11.20
   9  -3   0  212.57    8.86
   9  -3   1    5.41    2.41
   9  -3   1    4.06    1.84
   9  -3   1    5.22    1.45
   9  -3   2  293.17   16.65
   9  -3   2  279.46   11.88
   9  -3   2  287.20   10.70
   9  -3   3    5.87    3.14
   9  -3   3    1.98    1.24
   9  -3   3    2.17    1.20
   9  -3   4  168.10   12.86
   9  -3   4  177.41    8.13
   9  -3   4  153.02    7.80
   9  -3   5   35.44    6.13
   9  -3   5   45.22    4.26
   9  -3   6   14.85    4.20
   9  -3   6   17.43    2.75
   9  -3   7   53.96    7.70
   9  -3   7   55.77    4.93
   9  -3   8    6.02    2.88
   9  -3   8    0.25    1.01
   9  -3   9   22.56    3.47
   9  -3  10    4.21    1.51
   9  -3  11    2.79    1.75
   9  -3  12   13.97    3.10
   9  -3  13   23.68    4.32
  -9   2  21   32.03    6.69
  -9   2  20   16.64    4.67
  -9   2  19   65.87    8.93
   9  -2 -18    8.59    3.78
  -9   2  18    3.32    2.45
   9  -2 -17   66.52    8.73
  -9   2  17  101.74   10.48
   9  -2 -16    4.34    3.43
  -9   2  16    5.00    3.11
   9  -2 -15   92.66   10.10
  -9   2  15  112.27   10.85
   9  -2 -14   39.86    6.48
  -9   2  14   32.42    6.01
   9  -2 -13   77.22    8.73
  -9   2  13   61.61    7.79
   9  -2 -12   49.24    7.06
  -9   2  12   39.25    6.10
   9  -2 -11    3.02    2.25
  -9   2  11    2.27    2.20
   9  -2 -11    0.45    1.05
   9  -2 -10   11.46    2.48
   9  -2 -10    7.71    2.89
   9  -2  -9   74.87    6.29
   9  -2  -9   83.47    8.45
   9  -2  -8   43.87    5.16
   9  -2  -8   59.20    6.94
   9  -2  -7   68.82    6.46
   9  -2  -7   77.08    8.20
   9  -2  -6  241.85   12.80
   9  -2  -6  255.30   14.20
   9  -2  -5   13.13    3.21
   9  -2  -5    9.03    3.10
   9  -2  -4   16.73    3.78
   9  -2  -4   16.99    3.56
   9  -2  -3  105.48    8.44
   9  -2  -3   93.76    8.63
   9  -2  -3   85.41    3.90
   9  -2  -3   85.58    5.36
   9  -2  -2   14.68    3.23
   9  -2  -2    9.53    3.30
   9  -2  -2    8.55    1.36
   9  -2  -2    8.76    1.74
   9  -2  -1  299.25   13.75
   9  -2  -1  328.78   16.91
   9  -2  -1  276.39    8.35
   9  -2  -1  288.93   10.12
   9  -2   0    7.54    3.14
   9  -2   0    8.85    2.52
   9  -2   0    5.75    1.58
   9  -2   1  360.86   18.72
   9  -2   1  340.78   13.65
   9  -2   1  325.27   11.20
   9  -2   2    8.41    3.36
   9  -2   2    2.85    1.62
   9  -2   2    6.73    1.76
   9  -2   3  311.80   17.90
   9  -2   3  280.06   10.73
   9  -2   3  280.19   10.56
   9  -2   4   10.40    4.48
   9  -2   4   21.59    3.17
   9  -2   5   92.35   10.05
   9  -2   5  108.71    6.50
   9  -2   6   25.49    5.57
   9  -2   6   25.93    3.34
   9  -2   7   26.00    5.48
   9  -2   7   36.82    4.09
   9  -2   8   61.38    8.58
   9  -2   8   61.60    5.42
   9  -2   9    1.21    1.61
   9  -2   9   -0.40    1.17
   9  -2  10   50.03    7.95
   9  -2  10   44.71    5.02
   9  -2  11    4.92    1.76
   9  -2  12    2.54    1.82
   9  -2  13    4.76    2.21
  -9   1  21   29.07    6.45
  -9   1  20   24.25    5.76
  -9   1  19   37.51    6.71
   9  -1 -18   45.83    7.34
  -9   1  18   50.79    7.71
   9  -1 -17   17.75    4.54
  -9   1  17   23.34    5.09
   9  -1 -16   85.07    9.49
  -9   1  16  104.44   10.60
   9  -1 -15    2.40    1.96
  -9   1  15    5.00    3.17
   9  -1 -14  155.86   12.61
  -9   1  14  186.21   13.88
   9  -1 -13   13.02    3.84
  -9   1  13   16.41    4.63
   9  -1 -12  187.48   13.38
  -9   1  12  204.49   14.10
   9  -1 -12  184.60    9.35
   9  -1 -11    2.58    2.82
  -9   1  11    3.16    2.51
   9  -1 -11    1.91    1.31
   9  -1 -10  133.62   11.32
  -9   1  10  128.45   11.74
   9  -1 -10  115.64    8.07
   9  -1  -9    4.69    2.23
   9  -1  -9    3.79    1.79
   9  -1  -8    4.43    2.31
   9  -1  -8    3.82    1.82
   9  -1  -7   82.89    7.99
   9  -1  -7   80.18    7.27
   9  -1  -6  176.68   11.61
   9  -1  -6  165.92   10.85
   9  -1  -5   97.44    8.36
   9  -1  -5  102.54    8.78
   9  -1  -4   96.39    8.08
   9  -1  -4   85.16    8.18
   9  -1  -4   90.40    4.51
   9  -1  -3   31.24    4.48
   9  -1  -3   35.66    5.36
   9  -1  -3   24.58    2.29
   9  -1  -3   24.20    2.67
   9  -1  -2   11.71    2.70
   9  -1  -2    7.60    2.81
   9  -1  -2   12.23    1.69
   9  -1  -2    9.95    1.83
   9  -1  -1   88.93    7.09
   9  -1  -1   95.11    9.26
   9  -1  -1   93.11    4.97
   9  -1  -1   97.20    5.46
   9  -1   0   92.03    9.30
   9  -1   0  102.26    7.30
   9  -1   0   96.60    5.49
   9  -1   1   15.00    4.13
   9  -1   1   12.26    2.51
   9  -1   1   12.96    2.22
   9  -1   2  195.39   14.38
   9  -1   2  192.89    9.13
   9  -1   2  198.88    8.40
   9  -1   3    6.71    3.40
   9  -1   3    8.05    2.01
   9  -1   4  386.99   20.93
   9  -1   4  383.63   12.52
   9  -1   5    6.92    3.44
   9  -1   5    8.02    2.06
   9  -1   6  201.04   15.31
   9  -1   6  193.47    9.11
   9  -1   7    7.23    3.59
   9  -1   7   11.51    2.39
   9  -1   8   39.38    6.81
   9  -1   8   38.35    4.34
   9  -1   9   36.91    6.72
   9  -1   9   41.55    4.69
   9  -1  10   26.97    3.94
   9  -1  11   45.98    5.48
  -9   0  21    0.27    2.77
  -9   0  20    3.23    2.61
  -9   0  19   11.80    3.86
   9   0 -18   11.22    3.78
  -9   0  18   11.08    3.87
   9   0 -17   35.31    6.05
  -9   0  17   33.25    6.16
   9   0 -16   49.12    7.14
  -9   0  16   55.48    7.84
   9   0 -15  113.71   10.79
  -9   0  15  125.97   11.68
   9   0 -14   26.19    5.22
  -9   0  14   29.28    5.82
   9   0 -13  243.06   15.49
  -9   0  13  284.25   17.20
   9   0 -12    6.47    3.04
  -9   0  12    3.69    3.04
   9   0 -12    4.10    1.82
   9   0 -11  298.98   16.51
  -9   0  11  328.58   18.21
   9   0 -11  297.42   13.26
   9   0 -10   12.34    3.60
  -9   0  10    5.23    3.22
   9   0 -10    7.45    2.46
   9   0  -9  171.59   12.23
   9   0  -9  156.82   10.04
   9   0  -8    7.58    3.10
   9   0  -8    6.92    2.38
   9   0  -7   16.40    3.58
   9   0  -7   18.82    3.69
   9   0  -6   26.09    4.45
   9   0  -6   22.80    4.18
   9   0  -5    0.53    1.80
   9   0  -5    0.33    0.64
   9   0  -5   -1.05    1.99
   9   0  -4    3.00    1.49
   9   0  -4    5.23    1.36
   9   0  -4    0.90    1.69
   9   0  -4    6.20    1.40
   9   0  -3   78.45    7.11
   9   0  -3   72.35    8.01
   9   0  -3   77.48    4.53
   9   0  -3   74.80    4.56
   9   0  -2    2.93    1.04
   9   0  -2    0.83    1.33
   9   0  -2    3.05    1.00
   9   0  -2    1.54    0.74
   9   0  -1   35.57    4.47
   9   0  -1   39.99    6.18
   9   0  -1   32.33    3.16
   9   0  -1   38.17    3.32
   9   0   0   81.02    9.00
   9   0   0   74.54    6.12
   9   0   0   77.89    4.79
   9   0   1   15.53    4.93
   9   0   1   14.91    3.17
   9   0   1   22.69    2.79
   9   0   2  145.92   12.58
   9   0   2  146.75    6.81
   9   0   3   68.60    8.93
   9   0   3   64.13    4.59
   9   0   4   16.87    4.83
   9   0   4   19.42    2.66
   9   0   5  145.72   12.99
   9   0   5  139.19    7.35
   9   0   6    8.54    3.36
   9   0   6   14.72    2.72
   9   0   7  115.84   12.02
   9   0   7  138.37    7.93
   9   0   8    0.52    1.84
   9   0   8    3.33    1.86
  -9  -1  20   -0.17    1.95
  -9  -1  19    2.15    2.56
   9   1 -18   -2.14    2.64
  -9  -1  18    1.79    1.75
   9   1 -17    5.35    2.76
  -9  -1  17    3.18    2.13
   9   1 -16   15.16    3.94
  -9  -1  16   14.30    4.32
   9   1 -15    5.69    3.05
  -9  -1  15   17.17    4.33
   9   1 -14   68.90    8.18
  -9  -1  14   73.78    8.81
   9   1 -13   10.99    3.39
  -9  -1  13   13.60    3.92
   9   1 -13    6.38    1.93
   9   1 -12  176.89   12.62
  -9  -1  12  186.96   13.73
   9   1 -12  167.71    9.86
   9   1 -11   14.43    4.28
  -9  -1  11   12.53    3.74
   9   1 -11    9.61    2.59
   9   1 -10  406.49   18.95
  -9  -1  10  367.22   19.86
   9   1 -10  343.98   15.37
   9   1  -9    5.52    2.73
  -9  -1   9    2.86    3.18
   9   1  -9    2.89    1.98
   9   1  -8  246.75   13.58
   9   1  -8  258.37   14.42
   9   1  -7   30.29    4.96
   9   1  -7   25.49    4.47
   9   1  -6  120.34    9.75
   9   1  -6  108.99    8.88
   9   1  -5   51.81    6.03
   9   1  -5   48.76    6.36
   9   1  -5   49.14    3.88
   9   1  -5   45.85    3.46
   9   1  -4   20.50    3.76
   9   1  -4   19.12    4.08
   9   1  -4   19.93    2.49
   9   1  -4   21.55    2.33
   9   1  -3   46.91    5.46
   9   1  -3   37.04    5.81
   9   1  -3   41.45    3.55
   9   1  -3   43.99    3.35
   9   1  -2    8.08    2.22
   9   1  -2    5.25    2.28
   9   1  -2    7.14    1.53
   9   1  -2   10.23    1.69
   9   1  -1   12.12    3.52
   9   1  -1    8.19    2.24
   9   1  -1   10.28    1.65
   9   1   0   46.69    6.85
   9   1   0   42.26    4.46
   9   1   0   43.15    3.36
   9   1   1   53.49    7.77
   9   1   1   60.61    4.18
   9   1   2    2.64    2.20
   9   1   2    0.72    0.93
   9   1   3   88.28   10.07
   9   1   3   61.84    4.39
   9   1   4    0.09    2.04
   9   1   4    2.65    1.27
   9   1   5   66.52    8.90
   9   1   6   27.69    5.97
   9   1   7   65.36    9.26
   9   1   8   75.12   10.03
  -9  -2  20    3.88    3.17
  -9  -2  19   16.60    4.89
   9   2 -18   -2.09    2.22
  -9  -2  18   -0.90    2.02
   9   2 -17    0.62    1.21
  -9  -2  17    0.02    1.46
   9   2 -16   -0.87    1.41
  -9  -2  16   -2.37    2.17
   9   2 -15   -1.88    1.71
  -9  -2  15    1.18    1.76
   9   2 -14    1.50    1.43
  -9  -2  14   -0.33    1.66
   9   2 -13    0.68    1.53
  -9  -2  13    1.32    1.61
   9   2 -13    0.60    0.87
   9   2 -12    2.77    1.67
  -9  -2  12    6.87    2.90
   9   2 -12    5.06    1.84
   9   2 -11   57.37    7.18
  -9  -2  11   58.86    7.96
   9   2 -11   57.77    6.17
   9   2 -10    2.63    1.92
  -9  -2  10    7.46    2.96
   9   2 -10    4.19    2.02
   9   2  -9  215.14   13.24
  -9  -2   9  225.66   14.91
   9   2  -9  225.48   12.90
   9   2  -8    1.80    1.88
   9   2  -8    6.85    2.87
   9   2  -7  441.25   19.32
   9   2  -7  422.00   18.27
   9   2  -6    4.84    2.41
   9   2  -6    2.61    2.13
   9   2  -6    0.52    1.04
   9   2  -6    1.22    0.79
   9   2  -5  256.81   13.45
   9   2  -5  264.73   15.36
   9   2  -5  255.88    9.82
   9   2  -5  255.35    8.10
   9   2  -4    7.72    2.32
   9   2  -4   12.28    3.41
   9   2  -4    6.55    1.65
   9   2  -4    4.79    1.01
   9   2  -3   61.15    6.15
   9   2  -3   65.70    7.88
   9   2  -3   58.93    4.57
   9   2  -3   63.72    3.75
   9   2  -2   76.49    6.56
   9   2  -2   70.97    8.42
   9   2  -2   69.87    5.22
   9   2  -2   78.51    4.21
   9   2  -1   10.60    3.53
   9   2  -1   12.18    2.47
   9   2  -1   17.33    2.02
   9   2   0   48.87    7.13
   9   2   1    2.17    2.11
   9   2   2   33.17    6.12
   9   2   3    4.09    2.68
   9   2   4   16.31    4.50
   9   2   5    3.32    2.25
   9   2   6  102.44   11.58
   9   2   7    1.96    2.61
  -9  -3  19   13.50    4.62
  -9  -3  18   -0.21    1.99
  -9  -3  17    1.72    1.58
  -9  -3  16    1.17    1.72
  -9  -3  15    7.16    2.84
  -9  -3  14    5.50    2.19
  -9  -3  13    4.25    2.75
  -9  -3  12   20.56    4.61
  -9  -3  11    0.49    2.10
   9   3 -10   14.43    3.54
  -9  -3  10   10.98    3.67
   9   3  -9    0.77    1.59
  -9  -3   9    1.25    1.69
   9   3  -8  150.87   10.69
   9   3  -7   11.19    3.34
   9   3  -7    4.14    1.54
   9   3  -6  283.89   14.33
   9   3  -6  272.43   10.76
   9   3  -5   31.10    4.60
   9   3  -5   23.42    3.00
   9   3  -4  250.31   12.63
   9   3  -4  230.65    9.89
   9   3  -3   26.43    4.05
   9   3  -3   19.49    2.84
   9   3  -3   24.82    4.87
   9   3  -2  160.19    9.33
   9   3  -2  138.64    7.85
   9   3  -2  156.27   12.66
   9   3  -1   66.12    8.41
   9   3   0   64.51    8.44
   9   3   1  100.77   10.69
   9   3   2   23.19    5.43
   9   3   3   57.27    8.48
   9   3   4    3.81    2.67
   9   3   5   17.08    5.35
   9   3   6    0.81    1.01
  -9  -4  18    4.49    2.74
  -9  -4  17    9.95    4.15
  -9  -4  16    6.15    3.51
  -9  -4  15   17.56    5.12
  -9  -4  14   -2.31    2.43
  -9  -4  13   10.68    3.74
  -9  -4  12    3.26    2.37
  -9  -4  11    1.22    1.43
  -9  -4  10   -0.20    2.01
  -9  -4   9    1.43    1.78
   9   4  -8   33.43    4.94
   9   4  -8   34.51    3.81
   9   4  -7   40.03    5.32
   9   4  -7   41.01    4.24
   9   4  -6   76.06    7.25
   9   4  -6   80.93    5.84
   9   4  -6   91.68    5.69
   9   4  -5   91.76    7.70
   9   4  -5   87.59    6.15
   9   4  -5  104.61    6.46
   9   4  -4   15.84    3.34
   9   4  -4   16.59    2.82
   9   4  -4   20.06    3.05
   9   4  -3  246.04   11.98
   9   4  -3  211.53   10.14
   9   4  -3  238.86   10.95
   9   4  -2    2.07    1.91
   9   4  -2    3.62    2.03
   9   4  -1  164.73    9.54
   9   4  -1  146.87   12.66
   9   4   0   16.71    3.12
   9   4   0   10.51    3.59
   9   4   1   86.97   10.14
   9   4   1   78.55    7.01
   9   4   2   92.87   10.79
   9   4   2   94.79    7.86
   9   4   3   28.52    4.45
   9   4   3   32.79    6.75
   9   4   4  189.75   15.93
   9   4   4  195.03   12.19
   9   4   5    8.24    2.74
   9   4   6   16.10    3.86
  -9  -5  18  133.54   13.51
  -9  -5  17    8.23    4.50
  -9  -5  16   70.42    9.78
  -9  -5  15   -1.89    2.00
  -9  -5  14   -2.71    2.50
  -9  -5  13    1.78    2.07
  -9  -5  12   -0.55    2.23
  -9  -5  11   -0.56    2.29
  -9  -5  10    7.64    2.86
  -9  -5   9   -1.75    2.17
   9   5  -8   -0.24    0.97
   9   5  -7   18.18    3.67
   9   5  -7   25.25    3.45
   9   5  -6   -0.15    1.30
   9   5  -6   -0.27    1.54
   9   5  -5   68.55    6.60
   9   5  -5   62.06    5.40
   9   5  -5   74.12    5.45
   9   5  -4  114.56    8.40
   9   5  -4  104.67    7.27
   9   5  -4  108.91    7.04
   9   5  -3   66.81    5.83
   9   5  -3   83.27    6.41
   9   5  -2  105.55    7.52
   9   5  -2  110.00    7.61
   9   5  -1   22.81    3.59
   9   5  -1   39.07    4.75
   9   5   0   90.58    7.49
   9   5   1    2.03    1.67
   9   5   1    0.47    1.47
   9   5   2   31.45    4.60
   9   5   2   33.97    6.59
   9   5   3   82.46   10.74
   9   5   3   75.49    7.35
   9   5   4    7.95    2.69
   9   5   5   55.96    6.67
  -9  -6  17  155.74   14.82
  -9  -6  16    2.55    3.23
  -9  -6  15   88.41   10.66
  -9  -6  14    4.54    3.29
  -9  -6  13   57.88    8.40
  -9  -6  12   25.05    5.45
  -9  -6  11    1.53    2.51
  -9  -6  10    4.32    2.26
  -9  -6   9    5.06    2.80
   9   6  -9    1.12    0.89
   9   6  -8    1.92    1.25
   9   6  -7   18.86    2.97
   9   6  -6    4.38    2.16
   9   6  -6    7.04    2.00
   9   6  -5    7.77    2.21
   9   6  -4   49.70    5.24
   9   6  -4   48.29    4.71
   9   6  -3    6.35    2.20
   9   6  -3    5.99    1.92
   9   6  -2   77.50    6.76
   9   6  -2   91.53    7.01
   9   6  -1   33.23    4.63
   9   6  -1   34.00    4.51
   9   6   0   47.55    5.44
   9   6   1   32.88    4.72
   9   6   2    1.61    1.60
   9   6   3   35.81    5.18
   9   6   4    4.21    2.18
  -9  -7  16  161.54   15.04
  -9  -7  15    4.38    2.76
  -9  -7  14  178.64   15.25
  -9  -7  13    9.64    3.97
  -9  -7  12   86.94   10.47
  -9  -7  11   15.48    4.65
  -9  -7  10   49.46    7.67
  -9  -7   9   15.09    4.35
   9   7  -9   13.99    2.88
   9   7  -8    5.39    1.81
   9   7  -7    0.38    1.00
   9   7  -6   -1.30    1.66
   9   7  -5    4.92    1.87
   9   7  -4    0.48    1.05
   9   7  -3   13.57    2.93
   9   7  -3   14.03    2.64
   9   7  -2    3.56    1.33
   9   7  -2    7.95    2.27
   9   7  -1   53.53    5.98
   9   7  -1   61.87    6.10
   9   7   0   15.18    3.13
   9   7   1   38.27    5.14
   9   7   2   13.85    3.26
   9   7   3   21.77    4.28
  -9  -8  15  104.55   12.28
  -9  -8  14    5.42    4.01
  -9  -8  13  219.28   17.13
  -9  -8  12   14.80    4.64
  -9  -8  11  147.55   13.63
  -9  -8  10   27.85    6.49
   9   8 -10   26.06    4.08
  -9  -8   9   80.22    9.83
   9   8  -9   86.24    7.34
   9   8  -8   35.17    4.72
   9   8  -7   11.08    2.62
   9   8  -6   29.12    4.29
   9   8  -5    0.96    1.11
   9   8  -4   33.88    4.72
   9   8  -3    0.42    1.10
   9   8  -2   -2.11    1.52
   9   8  -1   13.40    3.26
   9   8  -1   10.15    2.57
   9   8   0    3.64    2.09
   9   8   1   18.03    3.64
   9   8   2   26.55    4.55
  -9  -9  13   15.95    5.03
  -9  -9  12   97.35   11.50
  -9  -9  11    9.69    4.22
  -9  -9  10  134.72   13.06
   9   9 -10  125.38    9.37
  -9  -9   9   18.83    5.30
   9   9  -9   10.94    3.06
   9   9  -8   62.27    6.42
   9   9  -7   26.94    4.28
   9   9  -6   42.07    5.28
   9   9  -5   47.93    5.75
   9   9  -4   11.60    2.85
   9   9  -3   25.40    4.41
   9   9  -2    8.38    2.60
   9   9  -1   19.12    3.95
   9   9   0   13.62    3.58
   9   9   1   -1.89    1.91
  -9 -10  12   48.25    8.28
  -9 -10  11   98.32   11.42
   9  10 -11   74.77    7.53
  -9 -10  10   21.79    5.71
   9  10 -10   16.49    3.52
   9  10  -9   41.22    5.58
   9  10  -8    2.32    1.64
   9  10  -7   43.69    5.67
   9  10  -6    9.46    2.62
   9  10  -5   28.00    4.63
   9  10  -4   39.93    5.61
   9  10  -3   35.26    5.34
   9  10  -2   51.00    6.56
   9  11 -11   14.53    3.43
  -9 -11  10   19.05    5.63
   9  11 -10    4.95    2.50
   9  11  -9   49.90    6.29
   9  11  -8   18.18    3.95
   9  11  -7   14.03    3.36
   9  11  -6   36.48    5.47
   9  11  -5    0.33    1.53
  10 -17   3   96.26    8.82
  10 -17   4   17.78    3.85
  10 -17   5   60.71    6.84
  10 -17   6   31.41    4.97
  10 -16  -3   53.34    7.32
  10 -16  -2   20.18    4.40
  10 -16  -1  107.08    9.78
  10 -16   0   80.18    8.28
  10 -16   1   22.63    4.35
  10 -16   2   77.71    7.33
  10 -16   2   90.50    8.58
  10 -16   3   10.03    2.74
  10 -16   3   22.27    4.39
  10 -16   4  179.12   11.69
  10 -16   4  170.29   10.92
  10 -16   5    9.43    3.00
  10 -16   5    2.79    2.01
  10 -16   6  191.03   11.80
  10 -16   7   45.47    5.75
  10 -16   8   93.02    8.05
  10 -15  -5    2.83    3.07
  10 -15  -4    4.20    2.52
  10 -15  -3    2.75    1.68
  10 -15  -2   52.36    6.85
  10 -15  -1    1.54    1.82
  10 -15   0   25.24    4.81
  10 -15   1    7.90    2.80
  10 -15   2   62.87    6.35
  10 -15   2   55.30    6.62
  10 -15   3   84.46    7.99
  10 -15   3   91.32    7.81
  10 -15   4   10.05    3.11
  10 -15   4    7.04    2.39
  10 -15   5  219.41   12.83
  10 -15   5  206.74   11.73
  10 -15   6    8.08    2.64
  10 -15   6    4.56    2.72
  10 -15   7  249.64   13.18
  10 -15   7  238.32   12.55
  10 -15   8    6.97    2.51
  10 -14  -7   72.88    8.89
  10 -14  -6   16.69    4.42
  10 -14  -5   48.98    7.02
  10 -14  -4   -1.56    1.75
  10 -14  -3    1.93    1.28
  10 -14  -2   -0.53    1.54
  10 -14  -1   -0.61    1.41
  10 -14   0    1.48    1.25
  10 -14   1   -0.02    1.01
  10 -14   2   -0.06    1.02
  10 -14   2   -1.27    1.27
  10 -14   3   12.23    3.14
  10 -14   3   12.45    2.90
  10 -14   4   12.11    3.04
  10 -14   4   16.49    3.11
  10 -14   5   23.18    4.11
  10 -14   5   22.14    3.87
  10 -14   6  129.15    9.30
  10 -14   6  122.87    8.85
  10 -14   7    6.04    2.53
  10 -14   7    6.14    2.61
  10 -14   8  223.24   12.01
  10 -14   8  215.44   11.75
  10 -13  -9   23.91    5.08
  10 -13  -8    9.58    3.60
  10 -13  -7   50.06    7.60
  10 -13  -6   37.40    6.29
  10 -13  -5   26.58    5.26
  10 -13  -4   52.19    6.93
  10 -13  -3   31.21    5.41
  10 -13  -2   28.15    4.91
  10 -13  -1    1.10    1.80
  10 -13   0    8.95    2.45
  10 -13   1    6.99    2.37
  10 -13   2    0.07    1.04
  10 -13   2    0.89    1.18
  10 -13   3   10.34    2.93
  10 -13   3    9.56    2.46
  10 -13   4    7.13    2.42
  10 -13   4    6.62    2.14
  10 -13   5    2.80    1.77
  10 -13   5    3.25    2.13
  10 -13   6   17.13    3.66
  10 -13   6    7.17    2.49
  10 -13   7   35.95    4.75
  10 -13   7   31.92    4.47
  10 -13   8    4.95    1.86
  10 -13   8    3.34    2.00
  10 -13   9  111.64    8.23
  10 -12 -10   33.44    6.25
  10 -12  -9   40.12    6.74
  10 -12  -8   59.32    7.99
  10 -12  -7   22.41    4.98
  10 -12  -6  116.07   10.74
  10 -12  -5    7.82    3.31
  10 -12  -4  134.58   11.12
  10 -12  -3   63.93    7.53
  10 -12  -2   80.05    8.26
  10 -12  -1   61.78    7.04
  10 -12   0    1.92    2.02
  10 -12   1    7.11    2.37
  10 -12   2    7.02    2.46
  10 -12   2    7.55    2.10
  10 -12   3    1.03    0.84
  10 -12   3    1.98    1.12
  10 -12   4   24.32    4.04
  10 -12   4   21.40    3.49
  10 -12   5    3.31    1.64
  10 -12   5    2.24    1.18
  10 -12   6   26.57    4.06
  10 -12   6   28.04    3.99
  10 -12   7    4.90    1.95
  10 -12   7    2.67    1.82
  10 -12   8    1.54    1.52
  10 -12   8    2.16    1.43
  10 -12   9   14.91    3.08
  10 -12  10   32.69    4.54
  10 -11 -11   14.36    4.18
  10 -11 -10   55.52    7.83
  10 -11  -9    5.10    2.60
  10 -11  -8   85.86    9.54
  10 -11  -7   59.22    7.90
  10 -11  -6   62.80    7.88
  10 -11  -5  145.61   11.73
  10 -11  -4    4.33    2.65
  10 -11  -3  184.71   12.70
  10 -11  -2    3.52    2.92
  10 -11  -1  239.79   13.98
  10 -11   0   31.01    4.81
  10 -11   1  116.02    8.18
  10 -11   1  149.24   10.40
  10 -11   2   20.59    3.73
  10 -11   2   15.79    2.92
  10 -11   3    0.01    0.97
  10 -11   3    0.62    0.86
  10 -11   4    1.42    1.00
  10 -11   4    1.18    0.98
  10 -11   5    4.50    1.94
  10 -11   5   14.89    3.11
  10 -11   6    1.08    1.25
  10 -11   6    0.93    1.27
  10 -11   7   28.97    4.05
  10 -11   7   26.74    3.88
  10 -11   8    0.81    0.89
  10 -11   8    1.52    1.80
  10 -11   9   18.21    3.33
  10 -11  10    0.83    1.22
  10 -10 -12   23.20    5.28
  10 -10 -11    0.79    1.79
  10 -10 -10   -1.38    2.51
  10 -10  -9   34.67    6.20
  10 -10  -8   -1.23    1.65
  10 -10  -7   65.16    7.98
  10 -10  -6   25.74    4.90
  10 -10  -5   29.75    5.33
  10 -10  -4  107.96    9.80
  10 -10  -3   32.86    5.54
  10 -10  -2  271.30   15.14
  10 -10  -1    2.73    2.10
  10 -10   0  502.21   20.51
  10 -10   1   18.27    3.95
  10 -10   1   13.36    2.78
  10 -10   2  169.47   10.75
  10 -10   2  155.37    9.23
  10 -10   3    8.36    3.21
  10 -10   3    5.13    2.18
  10 -10   4   28.12    4.14
  10 -10   4   26.98    3.74
  10 -10   5    8.02    2.64
  10 -10   5    0.31    1.06
  10 -10   6   -0.04    0.94
  10 -10   6    1.65    1.10
  10 -10   7    2.20    1.58
  10 -10   7    1.20    1.32
  10 -10   8   57.09    5.36
  10 -10   8   53.53    5.42
  10 -10   9   19.74    3.40
  10 -10  10    8.34    2.43
  10 -10  11   12.48    3.37
  10  -9 -13   15.15    4.42
  10  -9 -12   53.38    8.09
  10  -9 -11   20.72    5.30
  10  -9 -10   17.09    4.57
  10  -9  -9   -1.70    1.69
  10  -9  -8    8.75    3.10
  10  -9  -7   -0.43    1.66
  10  -9  -6   12.21    3.40
  10  -9  -5    2.71    1.44
  10  -9  -4   45.03    6.18
  10  -9  -3   71.99    7.76
  10  -9  -2    9.54    3.24
  10  -9  -1  311.45   15.67
  10  -9   0    5.69    2.80
  10  -9   0    8.09    2.29
  10  -9   1  274.53   14.26
  10  -9   1  243.96   11.46
  10  -9   2    1.00    1.80
  10  -9   2    2.43    1.51
  10  -9   3  417.53   16.63
  10  -9   3  369.76   14.19
  10  -9   4    1.01    1.10
  10  -9   4    1.06    1.56
  10  -9   5  137.93    8.83
  10  -9   5  132.21    8.27
  10  -9   6    5.67    1.81
  10  -9   6    7.97    2.28
  10  -9   7    1.94    1.10
  10  -9   7    0.72    0.95
  10  -9   8   31.46    3.79
  10  -9   8   34.72    4.45
  10  -9   9    1.48    1.53
  10  -9  10   19.49    3.54
  10  -9  11    2.35    1.59
  10  -8 -14   32.22    6.72
  10  -8 -13   24.86    5.37
  10  -8 -12   11.11    3.97
  10  -8 -11   53.41    7.83
  10  -8 -10    6.02    2.31
  10  -8  -9   63.92    8.16
  10  -8  -8    2.01    1.93
  10  -8  -7   -0.20    1.47
  10  -8  -6    8.78    2.69
  10  -8  -5   16.20    3.78
  10  -8  -4    9.88    2.72
  10  -8  -3    4.54    1.94
  10  -8  -2   13.78    3.30
  10  -8  -1   24.21    4.32
  10  -8   0   50.85    6.02
  10  -8   0   57.05    5.22
  10  -8   1    0.15    1.09
  10  -8   1   -0.08    1.16
  10  -8   2  269.97   13.21
  10  -8   2  263.41   11.45
  10  -8   3    3.36    2.16
  10  -8   3    2.73    1.75
  10  -8   4  367.16   14.82
  10  -8   4  339.30   13.33
  10  -8   5    6.90    2.29
  10  -8   5    2.92    1.96
  10  -8   6  217.10   10.59
  10  -8   6  216.21   10.62
  10  -8   7    8.17    2.03
  10  -8   7    9.32    2.55
  10  -8   8   99.48    7.31
  10  -8   9    9.71    2.41
  10  -8  10    5.07    1.81
  10  -8  11   44.24    5.21
  10  -7 -15   18.31    4.87
  10  -7 -14    0.02    2.39
  10  -7 -13   75.86    9.42
  10  -7 -12    9.17    3.63
  10  -7 -11   42.47    7.02
  10  -7 -10   23.83    5.00
  10  -7  -9   22.14    5.06
  10  -7  -8   93.17    9.81
  10  -7  -7    1.32    1.91
  10  -7  -6   24.29    4.72
  10  -7  -5   29.70    4.93
  10  -7  -4   -0.02    1.74
  10  -7  -3   11.52    3.07
  10  -7  -2   -1.67    2.17
  10  -7  -1    1.86    1.12
  10  -7  -1    5.85    2.29
  10  -7   0    2.09    1.42
  10  -7   0    1.38    1.73
  10  -7   1   31.09    4.44
  10  -7   1   30.88    3.71
  10  -7   2    4.07    2.47
  10  -7   2    0.28    0.91
  10  -7   3   98.43    7.47
  10  -7   3   87.44    6.32
  10  -7   4   26.88    3.87
  10  -7   4   30.30    3.97
  10  -7   5  263.11   11.68
  10  -7   5  247.32   11.19
  10  -7   6    7.44    2.25
  10  -7   6   11.67    2.67
  10  -7   7  201.23   10.28
  10  -7   8   23.03    3.93
  10  -7   9   67.41    6.08
  10  -7  10   57.49    5.76
  10  -7  11   60.49    6.17
  10  -6 -15   47.25    7.64
  10  -6 -14   46.55    7.59
  10  -6 -13   14.27    4.52
  10  -6 -12  155.32   13.36
  10  -6 -11    0.25    1.79
  10  -6 -10   95.52   10.10
  10  -6  -9    5.76    2.89
  10  -6  -8   79.43    8.74
  10  -6  -7   85.49    8.92
  10  -6  -6   47.63    6.74
  10  -6  -5   50.98    6.59
  10  -6  -4   19.21    4.04
  10  -6  -3   -0.24    1.25
  10  -6  -2   17.75    3.57
  10  -6  -1    4.86    1.66
  10  -6  -1    3.52    1.33
  10  -6   0    2.37    1.37
  10  -6   0    2.31    1.02
  10  -6   1   -0.86    1.54
  10  -6   1   -0.30    0.74
  10  -6   2   -4.87    1.87
  10  -6   2    1.13    1.37
  10  -6   3   12.57    2.85
  10  -6   3   15.81    2.82
  10  -6   4   31.71    3.96
  10  -6   4   32.20    3.84
  10  -6   5   35.90    4.00
  10  -6   5   31.63    3.87
  10  -6   6   73.83    6.10
  10  -6   7   41.19    4.56
  10  -6   8  101.69    7.37
  10  -6   9    6.89    2.56
  10  -6  10  137.35    8.99
  10  -6  11   16.07    3.23
  10  -5 -16   34.28    6.43
  10  -5 -15    5.73    2.93
  10  -5 -14  104.57   11.22
  10  -5 -13   89.15   10.06
  10  -5 -12   39.44    6.64
  10  -5 -11  106.08   10.68
  10  -5 -10    1.89    1.75
  10  -5  -9  195.44   14.05
  10  -5  -8    4.40    2.25
  10  -5  -7  193.36   13.59
  10  -5  -6    7.76    3.16
  10  -5  -5  139.66   10.98
  10  -5  -4   14.22    3.61
  10  -5  -3    4.52    2.20
  10  -5  -2    4.34    1.54
  10  -5  -2    4.02    1.88
  10  -5  -1   10.79    2.20
  10  -5  -1    7.87    2.30
  10  -5   0   -0.20    1.22
  10  -5   0   -0.29    1.02
  10  -5   1    8.80    2.18
  10  -5   1    6.38    1.74
  10  -5   2    1.98    1.05
  10  -5   2    1.98    1.17
  10  -5   3    9.15    2.20
  10  -5   3    9.98    2.22
  10  -5   4    8.78    2.16
  10  -5   4    6.26    1.80
  10  -5   5    9.48    2.37
  10  -5   6   33.44    4.18
  10  -5   7   17.24    2.96
  10  -5   8   50.73    5.08
  10  -5   9   91.53    7.07
  10  -5  10   26.26    4.02
  10  -5  11   82.58    7.24
 -10   4  19   25.48    5.80
 -10   4  18    8.50    3.40
 -10   4  17    1.02    2.12
  10  -4 -16   -0.24    2.07
  10  -4 -15   20.43    4.95
  10  -4 -14    4.24    2.18
  10  -4 -13   38.53    6.67
  10  -4 -12    7.39    2.79
  10  -4 -11  109.96   10.74
  10  -4 -10   86.12    9.43
  10  -4  -9   12.22    3.65
  10  -4  -8  215.34   14.35
  10  -4  -7    6.37    3.16
  10  -4  -6  325.62   17.23
  10  -4  -5    3.42    2.16
  10  -4  -5    8.36    3.21
  10  -4  -4  362.88   16.99
  10  -4  -4  344.17   17.09
  10  -4  -3    7.36    2.67
  10  -4  -3    7.91    2.81
  10  -4  -2  112.46    9.72
  10  -4  -2  105.58    8.72
  10  -4  -2  102.63    6.48
  10  -4  -1   15.49    3.75
  10  -4  -1   18.60    3.64
  10  -4  -1   14.45    2.47
  10  -4   0    0.14    1.61
  10  -4   0    1.47    1.35
  10  -4   0    1.95    0.90
  10  -4   1   -0.23    1.29
  10  -4   1   -0.45    1.68
  10  -4   1    3.99    1.45
  10  -4   2   -0.24    1.09
  10  -4   2    0.21    0.61
  10  -4   3    2.19    1.93
  10  -4   3    0.16    0.86
  10  -4   3    1.88    1.06
  10  -4   4   26.18    5.43
  10  -4   4   28.02    3.48
  10  -4   5   11.37    4.10
  10  -4   5   16.60    3.17
  10  -4   6   13.80    2.71
  10  -4   7   22.05    3.38
  10  -4   8    3.58    1.62
  10  -4   9   26.52    3.80
  10  -4  10   33.20    4.47
  10  -4  11   58.45    6.21
 -10   3  20   29.33    6.48
 -10   3  19   21.55    5.92
 -10   3  18   31.86    6.25
 -10   3  17   -7.42    3.27
  10  -3 -16   15.00    4.43
 -10   3  16   10.36    3.25
  10  -3 -15    1.02    1.81
 -10   3  15    2.01    2.08
  10  -3 -14    3.82    2.56
  10  -3 -13   29.47    5.78
  10  -3 -12   22.29    4.77
  10  -3 -11    1.06    1.58
  10  -3 -10   39.01    6.17
  10  -3  -9   19.79    4.35
  10  -3  -8    6.52    2.34
  10  -3  -8   11.02    3.45
  10  -3  -7  247.26   13.17
  10  -3  -7  282.06   16.17
  10  -3  -6    1.80    2.20
  10  -3  -6    5.51    2.81
  10  -3  -5  307.94   15.69
  10  -3  -5  312.90   16.34
  10  -3  -4    2.17    1.84
  10  -3  -4    5.78    2.93
  10  -3  -3  331.58   16.91
  10  -3  -3  327.45   15.94
  10  -3  -3  282.00   10.88
  10  -3  -2    3.18    2.74
  10  -3  -2    1.60    1.32
  10  -3  -2    2.17    1.39
  10  -3  -1  266.31   15.89
  10  -3  -1  250.45   13.10
  10  -3  -1  228.63    9.62
  10  -3   0   30.56    5.46
  10  -3   0   28.23    4.25
  10  -3   0   27.70    3.31
  10  -3   1   74.31    8.68
  10  -3   1   69.80    6.28
  10  -3   1   64.33    4.99
  10  -3   2   45.99    6.98
  10  -3   2   38.99    4.43
  10  -3   2   41.14    4.07
  10  -3   3   -0.52    1.57
  10  -3   3    0.73    0.88
  10  -3   4    4.66    2.23
  10  -3   4    3.14    1.51
  10  -3   5    3.60    2.13
  10  -3   5    2.65    1.12
  10  -3   6   11.21    3.97
  10  -3   6   12.88    2.52
  10  -3   7    3.96    2.02
  10  -3   7    8.75    2.14
  10  -3   8    0.36    1.16
  10  -3   9    1.66    1.20
  10  -3  10   37.23    4.82
  10  -3  11   24.46    4.10
 -10   2  19   15.42    4.63
 -10   2  18   57.78    8.55
 -10   2  17   12.29    3.75
  10  -2 -16   24.46    5.47
 -10   2  16   30.52    5.96
  10  -2 -15   42.40    7.13
 -10   2  15   32.51    6.05
  10  -2 -14    3.92    2.63
 -10   2  14    6.32    2.18
  10  -2 -13    6.52    2.94
 -10   2  13    7.59    2.73
  10  -2 -12   12.86    3.66
  10  -2 -11    8.26    2.21
  10  -2 -11    9.87    3.40
  10  -2 -10   48.09    5.31
  10  -2 -10   46.80    6.76
  10  -2  -9    0.82    1.40
  10  -2  -9    2.28    2.38
  10  -2  -8    8.19    2.63
  10  -2  -8    5.77    2.91
  10  -2  -7   -0.75    1.30
  10  -2  -7    0.13    1.83
  10  -2  -6  118.85    9.58
  10  -2  -6  133.56   10.61
  10  -2  -5   13.27    3.50
  10  -2  -5   12.28    3.37
  10  -2  -4  274.20   15.47
  10  -2  -4  265.41   14.47
  10  -2  -4  259.69   10.03
  10  -2  -3    3.60    2.36
  10  -2  -3    0.41    1.32
  10  -2  -3    0.78    1.11
  10  -2  -2  253.57   15.56
  10  -2  -2  227.84   12.69
  10  -2  -2  217.61    9.02
  10  -2  -1    1.61    2.14
  10  -2  -1    2.03    1.80
  10  -2  -1    1.20    1.12
  10  -2   0  283.61   17.09
  10  -2   0  291.66   13.52
  10  -2   0  254.83   10.01
  10  -2   1   56.07    7.70
  10  -2   1   62.54    5.74
  10  -2   1   56.32    4.58
  10  -2   2   86.85    9.66
  10  -2   2   82.01    5.56
  10  -2   3   53.01    7.88
  10  -2   3   60.17    4.82
  10  -2   4   33.04    6.24
  10  -2   4   42.75    4.15
  10  -2   5   25.21    5.62
  10  -2   5   33.18    3.70
  10  -2   6   -0.63    2.40
  10  -2   6    2.33    1.27
  10  -2   7   18.80    5.01
  10  -2   7   18.13    3.10
  10  -2   8    2.84    1.74
 -10   1  19   46.36    7.86
 -10   1  18    2.04    2.99
  10  -1 -17   77.63    9.65
 -10   1  17   90.80   10.68
  10  -1 -16    8.25    3.29
 -10   1  16    8.08    4.08
  10  -1 -15   33.72    6.37
 -10   1  15   46.90    7.46
  10  -1 -14    9.35    3.21
 -10   1  14    4.12    2.43
  10  -1 -13   12.50    3.88
 -10   1  13   14.91    4.30
  10  -1 -12    4.93    2.54
 -10   1  12    7.22    2.90
  10  -1 -11    4.46    2.03
  10  -1 -11    7.93    2.87
  10  -1 -10    3.43    1.72
  10  -1 -10    4.16    2.45
  10  -1  -9   51.64    5.93
  10  -1  -9   62.03    7.56
  10  -1  -8   13.26    3.15
  10  -1  -8   14.08    3.63
  10  -1  -7   18.72    3.79
  10  -1  -7   21.38    4.28
  10  -1  -6    3.86    1.94
  10  -1  -6    4.53    1.99
  10  -1  -5   -0.03    1.44
  10  -1  -5   -0.62    1.01
  10  -1  -5    0.33    1.25
  10  -1  -4    3.39    1.93
  10  -1  -4    0.70    1.16
  10  -1  -4    3.31    1.27
  10  -1  -3  132.97   11.18
  10  -1  -3  139.15    9.92
  10  -1  -3  114.71    6.31
  10  -1  -2    5.07    2.65
  10  -1  -2    1.01    1.29
  10  -1  -2    2.85    1.41
  10  -1  -1  174.50   13.36
  10  -1  -1  192.07   11.01
  10  -1  -1  181.41    7.97
  10  -1   0   -0.92    1.62
  10  -1   0    0.55    1.39
  10  -1   0    1.18    1.38
  10  -1   1  234.16   16.38
  10  -1   1  222.02    9.25
  10  -1   2   18.34    5.03
  10  -1   2   11.07    2.46
  10  -1   3  144.91   13.16
  10  -1   3  147.97    7.53
  10  -1   4   47.38    7.62
  10  -1   4   38.71    3.86
  10  -1   5   82.51   10.23
  10  -1   5   76.19    5.70
  10  -1   6   52.92    8.29
 -10   0  18   58.54    8.67
  10   0 -17    3.91    2.07
 -10   0  17    3.18    2.28
  10   0 -16   94.60   10.31
 -10   0  16   81.43   10.01
  10   0 -15    1.83    2.31
 -10   0  15    8.41    3.70
  10   0 -14  148.50   12.49
 -10   0  14  153.56   13.55
  10   0 -13    7.09    3.23
 -10   0  13    2.94    2.06
  10   0 -12   86.73    9.58
  10   0 -12   83.07    7.18
  10   0 -11    5.70    1.92
  10   0 -11    5.97    2.70
  10   0 -10    7.21    2.46
  10   0 -10   10.35    3.37
  10   0  -9   15.23    3.36
  10   0  -9   14.17    3.53
  10   0  -8   20.78    4.18
  10   0  -8   26.23    4.75
  10   0  -7    0.83    1.10
  10   0  -7    2.48    1.81
  10   0  -6   26.79    4.92
  10   0  -6   38.94    5.64
  10   0  -5    0.07    1.45
  10   0  -5    4.07    1.82
  10   0  -5    4.10    1.27
  10   0  -4    6.21    2.40
  10   0  -4    7.62    2.51
  10   0  -4    6.49    1.51
  10   0  -3   29.81    5.46
  10   0  -3   32.03    4.77
  10   0  -3   25.14    2.86
  10   0  -2   13.28    3.80
  10   0  -2    4.97    1.83
  10   0  -2    9.52    1.82
  10   0  -1   57.04    8.05
  10   0  -1   47.80    5.30
  10   0  -1   53.15    4.10
  10   0   0   80.90    9.49
  10   0   0   83.35    5.16
  10   0   1   19.74    5.21
  10   0   1   15.12    2.49
  10   0   2   90.41   10.39
  10   0   3    6.61    3.70
  10   0   4   88.69   10.54
  10   0   5    6.36    3.29
 -10  -1  18   29.21    6.28
  10   1 -17   52.45    7.82
 -10  -1  17   74.50    9.95
  10   1 -16    7.01    3.13
 -10  -1  16    5.57    3.46
  10   1 -15  141.60   12.28
 -10  -1  15  147.13   13.55
  10   1 -14    5.02    3.18
 -10  -1  14    5.94    4.05
  10   1 -13  171.40   13.17
 -10  -1  13  188.43   14.88
  10   1 -12    3.12    2.24
 -10  -1  12    2.58    3.02
  10   1 -12    2.80    1.89
  10   1 -11  181.41   13.21
 -10  -1  11  172.81   13.81
  10   1 -11  148.93   10.32
  10   1 -10    0.67    2.08
  10   1 -10   -0.09    1.43
  10   1  -9   31.41    5.37
  10   1  -9   30.85    4.96
  10   1  -8    3.90    2.04
  10   1  -8    1.35    1.59
  10   1  -7   -0.92    1.80
  10   1  -7   -1.71    1.87
  10   1  -6   28.16    5.00
  10   1  -6   25.30    4.66
  10   1  -5    9.36    2.50
  10   1  -5    7.73    2.72
  10   1  -4    8.11    2.57
  10   1  -4    6.42    2.35
  10   1  -3   10.53    2.57
  10   1  -3    7.77    2.84
  10   1  -2   22.98    3.92
  10   1  -2   26.39    5.37
  10   1  -1    0.62    2.05
  10   1   0   85.12    9.98
  10   1   1   13.13    4.32
  10   1   2   56.85    8.35
  10   1   3   44.80    7.66
  10   1   4   25.29    5.71
  10   2 -17    4.34    2.52
 -10  -2  17    9.92    3.97
  10   2 -16    8.55    3.33
 -10  -2  16   18.36    5.20
  10   2 -15    8.91    3.28
 -10  -2  15   19.94    4.93
  10   2 -14   87.28    9.46
 -10  -2  14   99.43   11.28
  10   2 -13    3.01    2.15
 -10  -2  13    4.68    3.16
  10   2 -12  130.11   11.13
 -10  -2  12  154.89   13.62
  10   2 -12  128.23    9.61
  10   2 -11    6.82    2.86
 -10  -2  11   -0.37    1.72
  10   2 -11    3.99    2.20
  10   2 -10  130.61   10.76
  10   2 -10  129.33   10.14
  10   2  -9    1.48    1.99
  10   2  -9    2.40    2.23
  10   2  -8  169.91   12.01
  10   2  -8  181.83   12.61
  10   2  -7    2.94    2.19
  10   2  -7    7.13    2.98
  10   2  -6   76.03    7.63
  10   2  -6   70.80    8.25
  10   2  -5   18.18    3.63
  10   2  -5   17.32    4.27
  10   2  -4    1.30    1.58
  10   2  -4   -0.44    1.86
  10   2  -3   18.44    3.43
  10   2  -3   24.17    5.20
  10   2  -2    6.71    2.75
  10   2  -1   18.35    5.52
  10   2   0    4.00    2.82
  10   2   1   35.13    6.67
  10   2   2    2.63    2.12
  10   2   3   31.57    6.55
  10   3 -16    1.94    1.31
 -10  -3  16    4.24    1.93
  10   3 -15    5.86    2.59
 -10  -3  15   -0.93    3.08
  10   3 -14   -0.67    1.42
 -10  -3  14    2.02    2.32
  10   3 -13   24.13    4.90
 -10  -3  13   30.18    6.43
  10   3 -13   23.81    4.24
  10   3 -12    2.57    1.76
 -10  -3  12    1.40    2.36
  10   3 -12    1.78    1.59
  10   3 -11   91.33    9.01
 -10  -3  11  112.47   11.40
  10   3 -11   97.70    8.89
  10   3 -10    1.54    1.78
  10   3 -10    0.71    1.41
  10   3  -9  146.76   11.24
  10   3  -9  122.01   10.31
  10   3  -8    2.94    2.10
  10   3  -8    0.33    1.47
  10   3  -7  172.88   11.74
  10   3  -7  158.92   12.40
  10   3  -6    5.60    2.58
  10   3  -6    7.74    3.06
  10   3  -5  104.43    8.74
  10   3  -5  104.11   10.30
  10   3  -4   68.12    6.83
  10   3  -4   66.86    8.68
  10   3  -3   35.37    6.24
  10   3  -2   33.77    6.22
  10   3  -1    3.41    2.59
  10   3   0   14.86    4.20
  10   3   1   -0.78    2.24
  10   3   2    3.26    3.34
  10   3   4   81.87    8.13
 -10  -4  15   -2.39    3.03
  10   4 -14    4.09    2.25
 -10  -4  14    5.82    2.99
  10   4 -13    4.39    2.42
 -10  -4  13   -2.84    2.70
  10   4 -12    8.39    3.08
 -10  -4  12    6.15    2.98
  10   4 -11    2.39    2.04
 -10  -4  11    9.37    4.13
  10   4 -10   56.14    6.97
  10   4  -9    9.03    2.84
  10   4  -8  131.15   10.32
  10   4  -7    7.95    2.85
  10   4  -6  103.17    8.77
  10   4  -5    2.17    1.84
  10   4  -4  116.28   11.39
  10   4  -3   13.98    3.01
  10   4  -3   15.27    4.47
  10   4  -2   60.56    8.42
  10   4  -2   61.32    5.97
  10   4  -1   66.57    9.03
  10   4  -1   69.69    6.58
  10   4   0    6.96    2.02
  10   4   0   16.03    4.73
  10   4   1  111.50    8.83
  10   4   2    4.93    2.20
  10   4   3    5.04    2.56
  10   4   4    8.03    2.86
 -10  -5  14   -2.15    2.28
 -10  -5  13    3.41    2.66
 -10  -5  12    0.84    2.12
  10   5 -11    7.85    2.62
 -10  -5  11    6.00    2.23
  10   5 -10    2.11    1.60
  10   5  -9    8.25    2.75
  10   5  -8   27.81    4.77
  10   5  -7   35.91    5.31
  10   5  -3  113.32   11.53
  10   5  -2   -0.55    0.90
  10   5  -2   -1.35    2.36
  10   5  -1   66.63    9.25
  10   5  -1   59.97    6.12
  10   5   0   71.62    6.86
  10   5   1   13.24    3.00
  10   5   2   45.65    5.84
  10   5   3    3.34    1.87
 -10  -6  13   -0.35    1.81
 -10  -6  12    1.06    1.87
 -10  -6  11   -0.63    2.72
  10   6 -10    0.40    1.20
  10   6  -9    7.85    2.67
  10   6  -8    0.45    1.50
  10   6   0   26.48    4.31
  10   6   1    9.31    2.95
  10   6   2   12.12    3.03
 -10  -7  12   -1.57    2.82
 -10  -7  11   -5.34    3.06
  10   7  -9    6.18    2.45
  11 -15  -1   61.10    7.69
  11 -15   0   86.26    8.82
  11 -15   1    3.37    2.29
  11 -15   2  109.65    9.56
  11 -15   3    2.91    2.10
  11 -15   4  168.22   11.59
  11 -15   5   26.42    4.65
  11 -15   6  132.42    9.91
  11 -15   7    7.51    2.63
  11 -15   8   28.83    4.51
  11 -14  -4    8.25    2.38
  11 -14  -3    3.26    2.05
  11 -14  -2   15.51    3.86
  11 -14  -1    8.65    3.06
  11 -14   0    8.30    2.68
  11 -14   1   30.40    5.03
  11 -14   1   16.63    3.39
  11 -14   2    4.52    2.47
  11 -14   2    1.44    1.45
  11 -14   3  133.27   10.60
  11 -14   3  118.99    8.96
  11 -14   4    1.39    1.34
  11 -14   4    1.39    1.74
  11 -14   5  127.35    9.82
  11 -14   6    6.31    2.51
  11 -14   7  139.20    9.82
  11 -14   8    0.58    1.56
  11 -13  -6    4.07    3.31
  11 -13  -5   16.90    4.27
  11 -13  -4   -1.29    2.61
  11 -13  -3    1.14    1.23
  11 -13  -2    1.18    1.58
  11 -13  -1   -6.98    2.64
  11 -13   0    1.25    1.09
  11 -13   1   23.98    4.29
  11 -13   1   21.53    3.72
  11 -13   2    5.46    2.40
  11 -13   2    2.66    1.74
  11 -13   3    8.25    2.64
  11 -13   3    5.79    2.06
  11 -13   4   54.98    6.35
  11 -13   4   55.15    5.83
  11 -13   5    8.73    2.61
  11 -13   5    6.21    2.31
  11 -13   6   98.75    8.20
  11 -13   6  115.07    8.51
  11 -13   7    4.80    2.02
  11 -13   8  138.41    9.38
  11 -12  -8   12.84    4.64
  11 -12  -7   58.80    8.13
  11 -12  -6   39.05    6.61
  11 -12  -5   65.76    8.31
  11 -12  -4   40.18    6.40
  11 -12  -3    6.53    2.73
  11 -12  -2   13.25    3.51
  11 -12  -1    8.65    2.50
  11 -12   0    2.83    1.91
  11 -12   1   13.50    3.31
  11 -12   1   14.82    3.11
  11 -12   2    1.63    1.14
  11 -12   2    3.26    1.56
  11 -12   3    2.42    1.49
  11 -12   3    3.01    1.43
  11 -12   4    2.40    1.80
  11 -12   4    4.65    1.87
  11 -12   5   20.76    3.78
  11 -12   5   23.81    3.79
  11 -12   6    1.44    1.52
  11 -12   6    1.12    1.66
  11 -12   7   55.79    5.89
  11 -12   7   50.19    5.55
  11 -12   8    8.62    2.53
  11 -11  -9   47.92    7.46
  11 -11  -8   73.52    9.18
  11 -11  -7    3.77    2.55
  11 -11  -6  142.61   12.26
  11 -11  -5    4.65    2.54
  11 -11  -4   91.05    9.38
  11 -11  -3   37.47    5.94
  11 -11  -2   32.01    5.31
  11 -11  -1   22.13    4.41
  11 -11   0    2.97    1.67
  11 -11   0    1.27    1.56
  11 -11   1    1.97    1.24
  11 -11   1    0.87    1.13
  11 -11   2    4.44    2.09
  11 -11   2    4.48    1.86
  11 -11   3    2.73    1.50
  11 -11   3   -1.22    0.82
  11 -11   4   14.35    3.22
  11 -11   4   16.39    3.26
  11 -11   5    0.66    0.84
  11 -11   5    2.07    1.48
  11 -11   6    0.50    0.96
  11 -11   6    0.58    1.26
  11 -11   7    3.76    1.84
  11 -11   7    0.72    1.31
  11 -11   8    2.20    1.43
  11 -10 -10   85.57   10.29
  11 -10  -9   19.06    4.91
  11 -10  -8   34.55    6.30
  11 -10  -7   87.39    9.68
  11 -10  -6   16.32    4.24
  11 -10  -5  244.72   15.75
  11 -10  -4   13.78    4.12
  11 -10  -3  198.16   13.53
  11 -10  -2    5.84    2.61
  11 -10  -1  133.77   10.58
  11 -10   0    4.83    2.43
  11 -10   0    6.45    2.05
  11 -10   1   17.58    3.94
  11 -10   1   17.10    3.17
  11 -10   2    0.21    0.99
  11 -10   2    1.96    1.34
  11 -10   3   -0.69    1.15
  11 -10   3   -0.02    0.90
  11 -10   4   -0.48    1.23
  11 -10   4    1.88    1.40
  11 -10   5   23.88    3.95
  11 -10   5   26.51    3.88
  11 -10   6   -1.33    0.89
  11 -10   6    1.31    1.32
  11 -10   7   36.57    4.56
  11 -10   8    4.73    1.62
  11  -9 -11    9.35    3.33
  11  -9 -10   -2.68    2.06
  11  -9  -9    5.03    2.63
  11  -9  -8   11.78    3.62
  11  -9  -7   69.67    8.61
  11  -9  -6   68.22    8.29
  11  -9  -5   23.08    5.00
  11  -9  -4  164.10   12.40
  11  -9  -3    5.71    3.17
  11  -9  -2  252.71   15.06
  11  -9  -1   16.91    4.14
  11  -9  -1   11.56    2.94
  11  -9   0  204.47   12.70
  11  -9   0  158.32    9.42
  11  -9   1    4.80    2.43
  11  -9   1    2.02    1.75
  11  -9   2   79.80    7.60
  11  -9   2   89.96    6.83
  11  -9   3    0.69    1.16
  11  -9   3    0.16    0.94
  11  -9   4    5.52    2.12
  11  -9   4    7.19    2.07
  11  -9   5    3.65    1.60
  11  -9   5    6.58    2.07
  11  -9   6   18.75    3.25
  11  -9   7   24.86    3.80
  11  -9   8    1.10    1.37
  11  -8 -12   19.52    5.20
  11  -8 -11    1.89    1.48
  11  -8 -10    0.95    2.04
  11  -8  -9    0.61    2.39
  11  -8  -8   12.54    3.63
  11  -8  -7   -2.99    2.56
  11  -8  -6   24.19    4.79
  11  -8  -5    6.61    2.63
  11  -8  -4   23.38    4.81
  11  -8  -3  137.23   11.17
  11  -8  -2    7.77    2.66
  11  -8  -1  231.72   14.01
  11  -8  -1  183.63    9.93
  11  -8   0    4.72    2.73
  11  -8   0    3.92    1.86
  11  -8   1  180.98   11.42
  11  -8   1  182.91    9.66
  11  -8   2    6.22    2.33
  11  -8   2    2.19    1.34
  11  -8   3  171.75   10.58
  11  -8   3  152.00    8.87
  11  -8   4    4.61    2.29
  11  -8   4    4.85    1.87
  11  -8   5   19.90    3.21
  11  -8   6   12.59    2.67
  11  -8   7   19.87    3.40
  11  -8   8    4.82    1.90
  11  -8   9    3.33    1.91
  11  -7 -12   16.60    4.59
  11  -7 -11   55.38    8.15
  11  -7 -10    1.81    1.59
  11  -7  -9    0.52    2.11
  11  -7  -8   -1.16    2.28
  11  -7  -7    3.72    1.83
  11  -7  -6    3.82    2.81
  11  -7  -5    0.77    1.87
  11  -7  -4    1.06    1.65
  11  -7  -3    2.89    1.36
  11  -7  -2    7.01    1.88
  11  -7  -2    6.58    2.74
  11  -7  -1    3.36    1.36
  11  -7  -1    6.42    2.55
  11  -7   0  133.75    9.92
  11  -7   0  118.81    7.54
  11  -7   1    0.78    1.21
  11  -7   1    1.00    1.50
  11  -7   2  214.68   11.96
  11  -7   2  193.92    9.86
  11  -7   3    5.38    2.12
  11  -7   3    3.14    1.59
  11  -7   4  193.85   10.54
  11  -7   4  170.40    9.40
  11  -7   5    1.10    1.11
  11  -7   6   94.48    7.03
  11  -7   7   15.74    3.26
  11  -7   8   15.64    3.01
  11  -7   9   26.01    4.08
  11  -6 -13   68.00    9.43
  11  -6 -12    6.63    2.68
  11  -6 -11   32.49    6.19
  11  -6 -10   37.07    6.47
  11  -6  -9   12.18    3.77
  11  -6  -8   20.35    4.61
  11  -6  -7   -2.34    2.59
  11  -6  -6   -8.91    3.13
  11  -6  -5   11.84    3.56
  11  -6  -4    0.68    1.72
  11  -6  -3   33.04    5.22
  11  -6  -2    5.03    1.63
  11  -6  -2    6.10    2.55
  11  -6  -1    2.56    1.87
  11  -6  -1    1.36    1.20
  11  -6   0   -1.15    1.49
  11  -6   0    0.52    1.24
  11  -6   1   29.60    4.38
  11  -6   1   36.07    4.05
  11  -6   2    2.97    1.77
  11  -6   2    8.60    2.20
  11  -6   3  101.45    7.76
  11  -6   3  104.62    7.11
  11  -6   4   16.56    2.99
  11  -6   5  146.61    8.73
  11  -6   6   17.65    3.26
  11  -6   7  117.03    8.02
  11  -6   8   18.40    3.39
  11  -6   9   39.42    4.96
  11  -5 -14   66.36    9.18
  11  -5 -13   12.28    4.30
  11  -5 -12  127.47   12.38
  11  -5 -11    1.63    2.53
  11  -5 -10  141.26   12.65
  11  -5  -9   14.48    4.71
  11  -5  -8  111.48   10.80
  11  -5  -7   28.86    5.40
  11  -5  -6    4.17    2.88
  11  -5  -5   -0.90    2.20
  11  -5  -4    4.11    2.02
  11  -5  -3    1.09    1.23
  11  -5  -3    4.81    1.44
  11  -5  -2   15.69    2.62
  11  -5  -2   17.75    3.73
  11  -5  -1   -0.33    1.77
  11  -5  -1    0.44    0.80
  11  -5   0    7.93    2.54
  11  -5   0   10.04    2.17
  11  -5   1   10.55    2.56
  11  -5   1    8.33    2.10
  11  -5   2    9.45    2.42
  11  -5   2    8.71    2.09
  11  -5   3   33.39    4.00
  11  -5   4   27.69    3.76
  11  -5   5   20.37    3.30
  11  -5   6   57.88    5.43
  11  -5   7    6.47    2.06
  11  -5   8   94.59    7.31
  11  -5   9    1.62    1.52
  11  -4 -14   29.79    6.13
  11  -4 -13   83.16   10.30
  11  -4 -12   27.27    5.87
  11  -4 -11   94.45   10.28
  11  -4 -10    3.78    3.06
  11  -4  -9  199.88   14.54
  11  -4  -8    5.04    2.76
  11  -4  -7  300.04   17.84
  11  -4  -6    4.98    3.27
  11  -4  -5   61.90    7.46
  11  -4  -4    0.38    1.24
  11  -4  -4   -1.73    1.86
  11  -4  -4    2.10    1.43
  11  -4  -3    0.75    1.19
  11  -4  -3    2.54    1.42
  11  -4  -2    6.88    2.57
  11  -4  -2    3.22    1.68
  11  -4  -2    5.85    1.70
  11  -4  -1    1.24    1.71
  11  -4  -1    0.51    1.50
  11  -4  -1    0.67    0.97
  11  -4   0   -2.07    1.51
  11  -4   0    1.88    1.30
  11  -4   1   12.18    3.46
  11  -4   1    8.55    2.07
  11  -4   1   11.07    2.30
  11  -4   2   -2.23    1.89
  11  -4   2   -0.05    0.79
  11  -4   3   15.80    4.59
  11  -4   3   14.24    2.64
  11  -4   4   46.31    4.70
  11  -4   5    4.68    1.72
  11  -4   6   34.65    4.17
  11  -4   7   29.20    3.97
  11  -4   8   32.25    4.44
  11  -3 -14   -0.47    1.56
  11  -3 -13   50.70    7.84
  11  -3 -12   22.44    5.12
  11  -3 -11   31.50    5.87
  11  -3 -10  103.76   10.63
  11  -3  -9    5.71    3.72
  11  -3  -8  203.37   12.44
  11  -3  -8  238.44   15.54
  11  -3  -7    2.30    1.93
  11  -3  -7    6.85    3.75
  11  -3  -6  250.80   14.57
  11  -3  -6  285.03   16.35
  11  -3  -5   12.13    3.47
  11  -3  -5   10.51    3.47
  11  -3  -4  141.71   11.43
  11  -3  -4  139.15   10.84
  11  -3  -4  126.67    7.27
  11  -3  -3    0.47    1.18
  11  -3  -3    0.10    1.12
  11  -3  -3    1.37    1.14
  11  -3  -2   28.15    5.38
  11  -3  -2   27.08    4.39
  11  -3  -2   26.36    3.18
  11  -3  -1    7.59    2.96
  11  -3  -1   10.62    2.88
  11  -3  -1    5.18    1.74
  11  -3   0    3.76    2.00
  11  -3   0    0.03    1.37
  11  -3   0    4.07    1.43
  11  -3   1   30.02    5.74
  11  -3   1   19.92    2.96
  11  -3   2   13.10    4.02
  11  -3   2   12.31    2.20
  11  -3   3    0.45    2.13
  11  -3   3    6.75    2.11
  11  -3   4   -2.84    2.06
  11  -3   4    1.41    1.18
  11  -3   5   13.61    2.55
  11  -2 -14   -0.33    1.93
  11  -2 -13   14.31    3.98
  11  -2 -12   11.29    3.55
  11  -2 -11   12.95    4.17
  11  -2 -10    0.55    1.33
  11  -2 -10    1.79    1.38
  11  -2  -9   42.70    5.67
  11  -2  -9   45.96    6.87
  11  -2  -8    2.56    2.09
  11  -2  -8    4.11    2.59
  11  -2  -7  135.11   10.60
  11  -2  -7  150.86   11.94
  11  -2  -6    3.06    2.28
  11  -2  -6    4.23    2.48
  11  -2  -5  249.36   15.20
  11  -2  -5  245.14   14.75
  11  -2  -5  219.65    9.61
  11  -2  -4   16.48    4.26
  11  -2  -4   14.66    4.06
  11  -2  -4   12.16    2.37
  11  -2  -3  269.51   16.62
  11  -2  -3  271.38   14.82
  11  -2  -3  252.11   10.16
  11  -2  -2   10.18    3.76
  11  -2  -2   13.59    3.50
  11  -2  -2    8.44    1.86
  11  -2  -1  109.27   10.91
  11  -2  -1  104.14    8.43
  11  -2  -1   98.17    6.11
  11  -2   0   78.57    9.43
  11  -2   0   65.36    5.04
  11  -2   1    7.16    3.30
  11  -2   1    3.40    1.59
  11  -2   2   10.96    4.13
  11  -2   3    0.60    1.40
 -11   1  16    2.81    2.69
  11  -1 -15    3.85    2.64
  11  -1 -14    4.30    2.95
  11  -1 -13    2.63    1.74
  11  -1 -12   21.24    5.05
  11  -1 -11    3.53    2.17
  11  -1 -10    7.83    2.58
  11  -1 -10    9.84    3.72
  11  -1  -9   -0.93    1.79
  11  -1  -9   -1.25    1.77
  11  -1  -8    3.98    2.29
  11  -1  -8    2.72    1.95
  11  -1  -7    3.74    2.14
  11  -1  -7    0.74    1.63
  11  -1  -6   50.41    6.80
  11  -1  -6   58.29    7.20
  11  -1  -6   50.10    4.25
  11  -1  -5   15.25    3.50
  11  -1  -5   15.03    4.17
  11  -1  -4  141.63   10.78
  11  -1  -4  146.19   12.14
  11  -1  -3    1.08    2.06
  11  -1  -3    3.47    2.83
  11  -1  -2  195.36   11.90
  11  -1  -2  176.84   14.06
  11  -1  -1   35.95    6.48
  11  -1   0  101.06   10.95
  11  -1   1   37.59    6.84
  11  -1   2   56.63    8.49
  11  -1   3   35.63    7.02
  11   0 -15   36.92    6.74
 -11   0  15   45.62    7.95
  11   0 -14    1.83    1.95
  11   0 -13   16.84    5.34
  11   0 -12   10.05    3.47
  11   0 -11    7.42    2.55
  11   0 -11    5.48    2.24
  11   0 -10    3.33    1.71
  11   0 -10    0.46    1.81
  11   0  -9   43.45    6.53
  11   0  -9   33.56    5.34
  11   0  -8    9.27    2.80
  11   0  -8    8.49    2.81
  11   0  -7    8.23    2.83
  11   0  -7    9.66    3.06
  11   0  -6    8.42    3.03
  11   0  -6    5.00    2.74
  11   0  -5    2.87    2.00
  11   0  -5    8.46    3.26
  11   0  -4   21.15    4.26
  11   0  -4   15.47    4.02
  11   0  -3   58.20    6.55
  11   0  -3   63.47    8.35
  11   0  -2    7.65    3.42
  11   0  -1  107.58   11.34
  11   0   0   11.32    4.03
  11   0   1   87.23   10.53
  11   0   2   19.41    5.36
  11   1 -15    3.90    3.00
  11   1 -14  109.89   11.06
 -11  -1  14  121.81   12.82
  11   1 -13    3.93    2.76
  11   1 -12   49.18    7.28
  11   1 -11    0.66    1.40
  11   1 -11    3.68    2.81
  11   1 -10   -0.56    1.69
  11   1 -10   -1.47    2.27
  11   1  -9   -2.14    2.01
  11   1  -9    1.88    1.08
  11   1  -8   42.85    6.30
  11   1  -8   40.63    6.13
  11   1  -7   12.87    3.75
  11   1  -7   10.65    3.34
  11   1  -6   27.42    5.27
  11   1  -6   19.46    4.15
  11   1  -5    5.62    2.78
  11   1  -5    9.06    2.98
  11   1  -4    0.16    1.08
  11   1  -3   24.28    5.59
  11   1  -2   28.51    6.02
  11   1  -1   54.89    8.27
  11   1   0   45.31    7.78
  11   2 -15  106.15   10.94
  11   2 -14   -0.80    1.34
  11   2 -13  157.02   12.96
  11   2 -12    3.96    2.53
  11   2 -11   56.88    7.01
  11   2 -11   58.42    7.78
  11   2 -10    0.55    1.54
  11   2 -10    5.19    2.57
  11   2  -9   24.08    4.83
  11   2  -9   22.00    4.82
  11   2  -8    3.22    2.10
  11   2  -8    2.81    1.82
  11   2  -7   -0.65    1.47
  11   2  -7    0.65    1.16
  11   2  -6   27.80    5.43
  11   2  -6   33.08    5.17
  11   2  -5   12.47    3.60
  11   2  -4    2.30    1.96
  11   2  -3    0.86    1.51
  11   2  -2   50.72    7.94
  11   2  -1    4.71    3.50
  11   3 -14  149.61   12.79
  11   3 -13    3.37    2.46
  11   3 -12   76.29    8.08
  11   3 -12   85.39    9.39
  11   3 -11    2.48    1.77
  11   3 -11    4.37    2.83
  11   3 -10   95.08    9.41
  11   3 -10   94.67    9.37
  11   3  -9    9.82    3.02
  11   3  -9    9.65    3.20
  11   3  -8   46.51    6.78
  11   3  -8   52.90    6.79
  11   3  -7   37.58    6.30
  11   3  -7   29.10    4.99
  11   3  -6    6.94    3.08
  11   3  -5   22.84    5.24
  11   3  -4   -1.74    2.23
  11   3  -3   12.21    4.09
  11   3  -2   -0.17    1.47
  11   3   0   -0.95    0.94
  11   3   1   11.16    2.99
  11   3   2    4.54    1.91
  11   4 -14    4.87    2.86
  11   4 -13   34.50    5.99
  11   4 -12    0.98    1.76
  11   4 -12    1.47    2.10
  11   4 -11  100.24    9.82
  11   4 -11  120.05   10.77
  11   4 -10    9.28    3.47
  11   4 -10    7.88    3.09
  11   4  -9  101.88   10.34
  11   4  -9  105.56    9.81
  11   4  -8    6.88    3.35
  11   4  -8    4.26    2.04
  11   4  -7   72.23    9.00
  11   4  -6   18.00    4.83
  11   4  -5   39.39    6.81
  11   4  -4   37.62    6.87
  11   4   2   24.86    4.67
  11   5 -14    3.43    2.49
  11   5 -13    6.90    3.17
  11   5 -12   13.35    3.61
  11   5 -12   21.08    4.76
  11   5 -11    9.12    3.24
  11   5 -11    5.47    2.22
  11   5 -10   45.63    6.93
  11   5 -10   49.01    6.68
  11   5  -9    3.15    2.37
  11   5  -9   -0.71    1.15
  11   5  -8   81.96    9.58
  11   5  -7    7.32    3.33
  11   5  -6   83.61   10.03
  11   6 -13    0.29    1.63
  11   6 -12    2.57    1.61
  11   6 -11    0.65    2.88
  11   7 -13   -0.73    2.20
  11   7 -12    0.98    1.69
  12 -14   3   12.18    3.60
  12 -14   4  144.59   11.14
  12 -14   5    5.14    2.72
  12 -14   6   14.19    3.33
  12 -14   7    2.13    1.64
  12 -13  -2   23.77    4.83
  12 -13  -1    4.47    2.04
  12 -13   0    7.01    2.13
  12 -13   1   64.31    7.55
  12 -13   2    2.19    2.23
  12 -13   3  134.25   10.54
  12 -13   4    4.39    2.58
  12 -13   5  167.93   11.26
  12 -13   6    5.58    2.45
  12 -12  -4    1.10    1.78
  12 -12  -3    0.30    1.69
  12 -12  -2    8.03    3.12
  12 -12  -1    0.27    1.71
  12 -12  -1    8.08    2.42
  12 -12   0    8.66    2.99
  12 -12   0    2.81    1.27
  12 -12   1    6.10    2.68
  12 -12   1    8.85    2.64
  12 -12   2   30.89    5.08
  12 -12   2   27.27    4.15
  12 -12   3    2.80    2.22
  12 -12   4   69.44    7.29
  12 -12   5    3.00    2.36
  12 -12   6  115.55    9.00
  12 -11  -6   41.52    7.06
  12 -11  -5    5.72    2.69
  12 -11  -4   27.58    5.40
  12 -11  -3    7.75    3.22
  12 -11  -2   -0.87    2.08
  12 -11  -1   48.11    6.80
  12 -11  -1   46.71    5.31
  12 -11   0    0.09    1.51
  12 -11   0    1.99    1.32
  12 -11   1    3.27    2.04
  12 -11   1    1.82    1.87
  12 -11   2    0.67    1.34
  12 -11   2    1.96    1.60
  12 -11   3    1.93    1.66
  12 -11   3    0.32    1.47
  12 -11   4    1.03    1.31
  12 -11   4    3.25    1.97
  12 -11   5   24.31    4.13
  12 -10  -7    4.38    3.24
  12 -10  -6  122.64   11.77
  12 -10  -5   20.88    4.91
  12 -10  -4  101.22   10.15
  12 -10  -3   32.19    5.84
  12 -10  -2    2.83    2.42
  12 -10  -1    3.03    1.95
  12 -10  -1    3.50    1.66
  12 -10   0   13.36    3.42
  12 -10   0   12.66    2.95
  12 -10   1   -0.92    2.39
  12 -10   1   -0.35    0.91
  12 -10   2   17.37    3.70
  12 -10   2   18.40    3.28
  12 -10   3   -0.22    1.17
  12 -10   3   -0.80    1.30
  12 -10   4    6.17    2.11
  12 -10   4   13.29    2.96
  12 -10   5    4.31    2.08
  12  -9  -8   45.85    7.50
  12  -9  -7  136.02   12.52
  12  -9  -6    3.62    3.17
  12  -9  -5  278.95   17.33
  12  -9  -4    8.80    3.62
  12  -9  -3  153.31   12.19
  12  -9  -2   21.12    4.76
  12  -9  -2   21.34    3.81
  12  -9  -1   79.99    8.46
  12  -9  -1   66.93    6.23
  12  -9   0    3.42    2.50
  12  -9   0    2.95    1.83
  12  -9   1    3.09    1.58
  12  -9   1    5.62    1.81
  12  -9   2   -1.07    1.74
  12  -9   2    0.95    1.23
  12  -9   3   45.54    5.68
  12  -9   3   47.40    5.25
  12  -9   4    1.46    1.62
  12  -9   5   19.80    3.37
  12  -9   6   -0.44    1.28
  12  -8  -9   26.71    5.57
  12  -8  -8    8.39    3.10
  12  -8  -7   23.73    5.48
  12  -8  -6   91.98   10.00
  12  -8  -5   12.11    3.97
  12  -8  -4  195.20   14.24
  12  -8  -3    5.31    3.45
  12  -8  -2  318.71   17.24
  12  -8  -2  290.04   13.04
  12  -8  -1    7.45    3.33
  12  -8  -1    4.00    2.16
  12  -8   0  114.68    9.61
  12  -8   0  119.07    7.94
  12  -8   1    3.83    2.24
  12  -8   1    3.18    1.37
  12  -8   2    7.38    2.38
  12  -8   2   10.18    2.46
  12  -8   3    8.39    2.18
  12  -8   4    2.43    1.22
  12  -8   5   -0.09    1.72
  12  -8   6   -0.69    1.76
  12  -7 -10   -3.73    3.16
  12  -7  -9   -0.14    2.42
  12  -7  -8    1.89    1.92
  12  -7  -7   -3.16    3.03
  12  -7  -6    9.83    3.00
  12  -7  -5   21.28    4.46
  12  -7  -4    3.28    1.99
  12  -7  -3   90.95    9.29
  12  -7  -3   80.52    6.58
  12  -7  -2    2.94    1.72
  12  -7  -2    3.42    1.88
  12  -7  -1  140.04   10.80
  12  -7  -1  132.54    8.27
  12  -7   0    8.24    3.29
  12  -7   0    3.87    1.75
  12  -7   1  259.23   14.05
  12  -7   1  233.58   11.18
  12  -7   2    3.95    1.68
  12  -7   3   74.39    6.28
  12  -7   4   25.30    3.88
  12  -7   5   17.89    3.22
  12  -7   6   28.82    4.03
  12  -7   7    0.25    1.21
  12  -6 -11    8.27    3.43
  12  -6 -10   -7.42    3.30
  12  -6  -9   -3.39    2.72
  12  -6  -8    5.32    1.99
  12  -6  -7    1.21    1.92
  12  -6  -6    8.16    3.11
  12  -6  -5    7.14    2.39
  12  -6  -4    0.79    0.95
  12  -6  -4   -1.02    2.25
  12  -6  -3    0.34    0.89
  12  -6  -3    1.02    1.43
  12  -6  -2   29.91    5.05
  12  -6  -2   23.20    3.42
  12  -6  -1    3.51    2.33
  12  -6  -1    1.76    1.22
  12  -6   0  128.07    9.87
  12  -6   0  108.46    7.31
  12  -6   1   11.90    2.63
  12  -6   2  187.49    9.90
  12  -6   3    9.44    2.66
  12  -6   4  160.55    9.34
  12  -6   5   21.45    3.64
  12  -6   6   37.03    4.59
  12  -6   7   19.68    3.67
  12  -5 -11   41.85    7.06
  12  -5 -10   14.29    4.23
  12  -5  -9   25.14    5.80
  12  -5  -8    9.95    2.88
  12  -5  -7   -1.49    2.10
  12  -5  -6    4.57    2.33
  12  -5  -5   19.97    4.23
  12  -5  -4   -0.22    1.15
  12  -5  -4   -1.06    1.96
  12  -5  -3   17.25    3.71
  12  -5  -3   16.59    2.86
  12  -5  -2    3.88    1.97
  12  -5  -2    6.54    1.98
  12  -5  -1    0.72    2.01
  12  -5  -1   -1.20    1.02
  12  -5   0    7.09    2.06
  12  -5   1   35.85    4.16
  12  -5   2   27.98    3.70
  12  -5   3  130.07    8.12
  12  -5   4   17.45    3.44
  12  -5   5  106.82    7.56
  12  -4 -12  108.55   11.79
  12  -4 -11    7.54    3.71
  12  -4 -10  153.70   13.56
  12  -4  -9   32.02    6.29
  12  -4  -8   28.39    5.79
  12  -4  -7   30.11    5.63
  12  -4  -6   -1.39    1.87
  12  -4  -5    4.45    2.50
  12  -4  -5    2.85    1.23
  12  -4  -4    3.60    1.53
  12  -4  -4   10.08    2.13
  12  -4  -3    1.45    1.73
  12  -4  -3    3.95    1.38
  12  -4  -2   17.33    3.74
  12  -4  -2   17.99    2.76
  12  -4  -1    0.69    0.93
  12  -4   0    5.52    1.78
  12  -4   1   11.35    2.31
  12  -3 -12    3.10    2.83
  12  -3 -11  142.45   13.05
  12  -3 -10    5.75    3.25
  12  -3  -9  105.50   11.26
  12  -3  -8   36.48    6.31
  12  -3  -7  163.64   12.11
  12  -3  -7  170.60   13.36
  12  -3  -6   19.93    4.30
  12  -3  -6   24.36    5.24
  12  -3  -6   21.88    3.21
  12  -3  -5   18.59    4.33
  12  -3  -5   23.65    4.52
  12  -3  -4    3.16    1.95
  12  -3  -4    4.61    1.95
  12  -3  -3    0.40    1.43
  12  -3  -3   -0.19    1.26
  12  -3  -2   15.62    4.30
  12  -3  -1   12.07    3.71
  12  -3   0   -0.44    2.18
  12  -2 -12   33.35    6.43
  12  -2 -11    5.11    3.11
  12  -2 -10   26.21    5.77
  12  -2  -9   20.38    4.11
  12  -2  -9   26.11    5.36
  12  -2  -8  262.01   15.44
  12  -2  -8  291.52   17.68
  12  -2  -7   26.77    5.15
  12  -2  -7   25.73    5.31
  12  -2  -6  105.66   10.21
  12  -2  -6  143.83   11.80
  12  -2  -5    4.69    2.40
  12  -2  -5    5.19    2.78
  12  -2  -4   88.62    9.71
  12  -2  -4   82.52    8.47
  12  -2  -3   10.15    3.44
  12  -2  -2    6.86    3.02
  12  -2  -1   14.51    4.10
  12  -1 -12    0.73    1.60
  12  -1 -11   10.02    3.75
  12  -1 -10    2.37    1.92
  12  -1  -9   60.90    7.22
  12  -1  -9   76.57    9.07
  12  -1  -8    6.71    2.87
  12  -1  -8    4.76    2.77
  12  -1  -7   29.14    5.25
  12  -1  -7   41.03    6.34
  12  -1  -6    1.00    1.74
  12  -1  -6    5.34    2.88
  12  -1  -5  174.97   13.82
  12  -1  -5  181.11   12.85
  12  -1  -4    3.17    2.13
  12  -1  -3  118.09   11.81
  12  -1  -2    9.09    3.39
  12   0 -12    9.39    3.28
  12   0 -11    1.90    2.16
  12   0 -10    1.37    1.33
  12   0 -10    2.38    1.86
  12   0  -9    1.59    1.54
  12   0  -9    1.45    2.03
  12   0  -8    6.23    2.58
  12   0  -8    6.23    2.45
  12   0  -7   -0.10    1.53
  12   0  -7    3.96    2.71
  12   0  -6   55.82    7.78
  12   0  -6   49.69    6.81
  12   0  -5   19.46    4.77
  12   0  -4  105.36   11.09
  12   0  -3    6.75    3.28
  12   1 -12    4.31    2.45
  12   1 -11    6.35    2.49
  12   1 -10    0.13    1.07
  12   1 -10   -1.97    2.34
  12   1  -9   12.32    3.58
  12   1  -9    9.36    3.21
  12   1  -8    0.04    1.36
  12   1  -8    0.55    1.03
  12   1  -7    0.73    1.18
  12   1  -7    1.36    1.96
  12   1  -6    5.64    2.48
  12   1  -5   24.72    5.30
  12   1  -4   20.29    5.18
  12   2 -12   -0.72    1.48
  12   2 -11   -1.52    1.75
  12   2 -10    4.87    2.29
  12   2 -10    5.16    2.53
  12   2  -9   -0.23    1.07
  12   2  -9   -1.09    1.81
  12   2  -8    3.63    2.24
  12   2  -8    7.37    2.97
  12   2  -7    2.79    2.37
  12   2  -6   -1.28    1.22
  12   3 -12    0.51    1.67
  12   3 -11    9.55    3.11
  12   3 -11   11.25    3.25
  12   3 -10    5.23    2.78
  12   3 -10   10.78    3.58
  12   3  -9    0.31    1.26
  12   3  -8   11.96    3.88
  12   4 -12   69.78    8.70
  12   4 -11    3.15    1.65
  12   4 -11    8.51    3.59
  12   4 -10   40.11    6.77
  12   5 -12    1.86    2.67
  13 -12   3   77.36    8.18
  13 -11  -1    1.36    1.60
  13 -11   0   11.31    3.47
  13 -11   1    4.40    2.33
  13 -11   2   42.98    6.03
  13 -10  -3   35.75    6.38
  13 -10  -3   33.90    4.71
  13 -10  -2   -1.04    2.69
  13 -10  -2    1.47    1.26
  13 -10  -1    4.31    2.51
  13 -10   0   -0.43    2.33
  13 -10   1    3.52    1.70
  13 -10   2   -0.14    1.24
  13  -9  -4    0.17    1.53
  13  -9  -3   10.89    2.79
  13  -9  -3    9.90    3.39
  13  -9  -2   17.60    4.31
  13  -9  -2    9.49    2.76
  13  -9  -1    2.57    1.88
  13  -9  -1    0.47    1.03
  13  -9   0   19.70    4.08
  13  -9   0   20.63    3.68
  13  -9   1    3.48    2.25
  13  -9   1    2.88    1.44
  13  -8  -6    3.98    3.73
  13  -8  -5  182.27   14.61
  13  -8  -4   14.02    3.09
  13  -8  -4    6.09    3.48
  13  -8  -3   58.48    7.79
  13  -8  -3   64.85    6.19
  13  -8  -2    5.15    2.77
  13  -8  -2    1.99    2.02
  13  -8  -1    0.44    1.82
  13  -8  -1    2.61    1.20
  13  -8   0    2.02    1.64
  13  -8   0   -1.08    1.78
  13  -8   1   12.42    2.69
  13  -8   2    0.09    0.93
  13  -8   3    7.08    1.93
  13  -7  -7   15.27    4.52
  13  -7  -6  140.58   12.66
  13  -7  -5    8.07    3.88
  13  -7  -4  262.96   16.81
  13  -7  -4  222.80   11.47
  13  -7  -3    7.56    3.76
  13  -7  -3    6.27    2.24
  13  -7  -2  126.84   10.93
  13  -7  -2  118.23    8.01
  13  -7  -1    4.80    2.87
  13  -7  -1    1.16    1.17
  13  -7   0   17.28    3.18
  13  -7   1    6.67    1.82
  13  -7   2   -0.10    1.19
  13  -7   3    0.39    1.26
  13  -6  -7    5.09    2.74
  13  -6  -6    2.21    1.69
  13  -6  -5   55.00    7.50
  13  -6  -5   43.45    4.88
  13  -6  -4   -1.27    1.72
  13  -6  -4    6.00    3.38
  13  -6  -3  151.92   12.13
  13  -6  -3  124.65    8.10
  13  -6  -2    6.76    3.29
  13  -6  -2    3.21    1.87
  13  -6  -1  185.03    9.86
  13  -6   0    8.46    2.38
  13  -5  -8    7.00    2.22
  13  -5  -7   -2.70    2.63
  13  -5  -6    0.18    2.12
  13  -5  -5    0.35    1.33
  13  -5  -4    5.33    2.54
  13  -5  -3    3.30    2.20
  13  -4  -9    1.39    1.78
  13  -4  -8   -1.24    2.63
  13  -4  -7    1.62    1.74
  13  -4  -6   -1.32    2.68
  13  -4  -5    9.73    3.17
  13  -4  -4   -0.09    1.61
  13  -3  -9    4.41    2.83
  13  -3  -8   -0.47    2.32
  13  -3  -7   -2.20    2.45
  13  -3  -6   -3.82    2.44
  13  -3  -6    0.39    2.14
  13  -3  -5    1.78    1.73
  13  -3  -5   -0.74    1.61
  13  -3  -4    4.43    2.78
  13  -2  -9   24.58    5.37
  13  -2  -8    1.70    1.85
  13  -2  -8    5.13    3.07
  13  -2  -7    7.42    2.82
  13  -2  -7    3.55    2.37
  13  -2  -6   -0.62    1.51
  13  -2  -6    0.79    1.75
  13  -2  -5   -2.21    1.85
  13  -1 -10  161.15   13.77
  13  -1  -9    0.32    2.05
  13  -1  -8   94.71   10.01
  13  -1  -8  105.09   10.70
  13  -1  -7    8.66    3.44
  13  -1  -6   13.41    4.05
  13   0 -10    7.14    3.69
  13   0  -9   94.60   10.14
  13   0  -9  108.27   10.95
  13   0  -8    8.16    3.66
  13   1 -10    0.76    2.20
  13   1  -9    1.86    2.27
   0   0   0    0.00    0.00



TITL Q219 in P-1
REM P-1 (#2 in standard setting)
CELL 0.71073  10.391142  17.257637  19.139282 108.1846 100.9710 107.2343
ZERR   42.00   0.000377   0.000659   0.000711   0.0034   0.0031   0.0033
LATT  1
SFAC C H N O Cd
UNIT 42.00 42.00 42.00 42.00 42.00
TREF
HKLF 4
END
_computing_structure_solution     'SHELXT 2014/5 (Sheldrick, 2014)'
_computing_structure_solution     'SHELXT 2014/5 (Sheldrick, 2014)'
;
_shelx_hkl_checksum              7618
_olex2_submission_special_instructions 'No special instructions were received'
_oxdiff_exptl_absorpt_empirical_details
;
Empirical correction (ABSPACK) includes:
- Absorption correction using spherical harmonics
- Frame scaling
;
_oxdiff_exptl_absorpt_empirical_full_max 1.539
_oxdiff_exptl_absorpt_empirical_full_min 0.585
loop_
_space_group_symop_operation_xyz
'x, y, z'
'-x, -y, -z'
loop_
_atom_site_label
_atom_site_type_symbol
_atom_site_fract_x
_atom_site_fract_y
_atom_site_fract_z
_atom_site_U_iso_or_equiv
_atom_site_adp_type
_atom_site_occupancy
_atom_site_site_symmetry_order
_atom_site_calc_flag
_atom_site_refinement_flags_posn
_atom_site_refinement_flags_adp
_atom_site_refinement_flags_occupancy
_atom_site_disorder_assembly
_atom_site_disorder_group
Cd1 Cd 0.66756(4) 0.35834(2) 0.53619(2) 0.02266(9) Uani 1 1 d . . . . .
Cd2 Cd 0.5000 0.5000 0.5000 0.01970(11) Uani 1 2 d S T P . .
Cd3 Cd 0.0000 0.0000 0.0000 0.02239(12) Uani 1 2 d S T P . .
Cd4 Cd 0.81117(4) 0.11012(2) -0.06065(2) 0.02297(9) Uani 1 1 d . . . . .
O1 O 0.7909(5) 0.4762(2) 0.6740(2) 0.0409(10) Uani 1 1 d . . . . .
O2 O 0.7085(4) 0.5034(2) 0.5741(2) 0.0305(8) Uani 1 1 d . . . . .
O3 O 1.0207(5) 0.7312(3) 0.9373(2) 0.0468(11) Uani 1 1 d . . . . .
O4 O 1.0383(4) 0.8645(2) 0.9459(2) 0.0342(9) Uani 1 1 d . . . . .
O5 O 0.8537(5) 0.8249(2) 0.6648(2) 0.0444(11) Uani 1 1 d . . . . .
O6 O 0.4696(4) 0.2888(3) 0.5555(2) 0.0407(10) Uani 1 1 d . . . . .
O7 O 0.3820(4) 0.3783(2) 0.5190(2) 0.0370(9) Uani 1 1 d . . . . .
O8 O -0.1009(4) 0.3638(3) 0.5310(2) 0.0384(9) Uani 1 1 d . . . . .
O9 O -0.2252(4) 0.2657(2) 0.5672(3) 0.0401(10) Uani 1 1 d . . . . .
O10 O 0.0869(5) 0.1163(3) 0.6398(3) 0.0493(11) Uani 1 1 d . . . . .
O11 O 0.5767(4) 0.2966(3) 0.4072(2) 0.0408(10) Uani 1 1 d . . . . .
O12 O 0.5590(4) 0.4220(2) 0.4041(2) 0.0400(10) Uani 1 1 d . . . . .
O13 O 0.3223(4) 0.0241(2) 0.1626(2) 0.0377(9) Uani 1 1 d . . . . .
O14 O 0.2313(3) 0.0376(2) 0.05504(19) 0.0281(8) Uani 1 1 d . . . . .
O15 O 0.3954(5) 0.3704(2) 0.1293(2) 0.0414(10) Uani 1 1 d . . . . .
O16 O 0.0555(4) 0.0439(2) -0.0914(2) 0.0338(9) Uani 1 1 d . . . . .
O17 O -0.0189(4) 0.1445(2) -0.1150(2) 0.0361(9) Uani 1 1 d . . . . .
O18 O 0.5770(5) 0.1038(3) -0.0437(3) 0.0561(13) Uani 1 1 d . . . . .
O19 O 0.6862(4) 0.1821(2) -0.1008(2) 0.0354(9) Uani 1 1 d . . . . .
O20 O 0.3562(4) 0.3144(3) -0.1980(3) 0.0416(10) Uani 1 1 d . . . . .
C1 C 0.8273(5) 0.6264(3) 0.6962(3) 0.0211(10) Uani 1 1 d . . . . .
C2 C 0.8847(5) 0.6575(3) 0.7766(3) 0.0247(11) Uani 1 1 d . . . . .
H2 H 0.8905 0.6185 0.8002 0.030 Uiso 1 1 calc R . . . .
C3 C 0.9327(5) 0.7471(3) 0.8206(3) 0.0232(10) Uani 1 1 d . . . . .
C4 C 0.9241(5) 0.8064(3) 0.7860(3) 0.0261(11) Uani 1 1 d . . . . .
H4 H 0.9558 0.8663 0.8161 0.031 Uiso 1 1 calc R . . . .
C5 C 0.8678(5) 0.7747(3) 0.7064(3) 0.0265(11) Uani 1 1 d . . . . .
C6 C 0.8205(5) 0.6851(3) 0.6611(3) 0.0249(11) Uani 1 1 d . . . . .
H6 H 0.7843 0.6646 0.6076 0.030 Uiso 1 1 calc R . . . .
C7 C 0.7735(5) 0.5298(3) 0.6469(3) 0.0253(11) Uani 1 1 d . . . . .
C8 C 0.9996(5) 0.7814(3) 0.9070(3) 0.0275(11) Uani 1 1 d . . . . .
C9 C 0.8824(7) 0.9156(4) 0.7057(4) 0.0453(16) Uani 1 1 d . . . . .
H9A H 0.9828 0.9478 0.7335 0.054 Uiso 1 1 calc R . . . .
H9B H 0.8299 0.9224 0.7425 0.054 Uiso 1 1 calc R . . . .
C10 C 0.8364(8) 0.9492(5) 0.6455(5) 0.067(2) Uani 1 1 d . . . . .
H10A H 0.8964 0.9481 0.6131 0.100 Uiso 1 1 calc GR . . . .
H10B H 0.8433 1.0086 0.6705 0.100 Uiso 1 1 calc GR . . . .
H10C H 0.7399 0.9123 0.6144 0.100 Uiso 1 1 calc GR . . . .
C11 C 0.2362(5) 0.2759(3) 0.5571(3) 0.0257(11) Uani 1 1 d . . . . .
C12 C 0.1267(5) 0.3050(3) 0.5456(3) 0.0283(11) Uani 1 1 d . . . . .
H12 H 0.1336 0.3477 0.5249 0.034 Uiso 1 1 calc R . . . .
C13 C 0.0061(5) 0.2703(3) 0.5648(3) 0.0266(11) Uani 1 1 d . . . . .
C14 C -0.0030(6) 0.2072(3) 0.5964(3) 0.0326(12) Uani 1 1 d . . . . .
H14 H -0.0829 0.1847 0.6102 0.039 Uiso 1 1 calc R . . . .
C15 C 0.1069(6) 0.1777(3) 0.6075(3) 0.0312(12) Uani 1 1 d . . . . .
C16 C 0.2264(5) 0.2113(3) 0.5873(3) 0.0323(12) Uani 1 1 d . . . . .
H16 H 0.2994 0.1908 0.5938 0.039 Uiso 1 1 calc R . . . .
C17 C 0.3729(5) 0.3175(3) 0.5422(3) 0.0279(11) Uani 1 1 d . . . . .
C18 C -0.1145(5) 0.3016(3) 0.5538(3) 0.0293(12) Uani 1 1 d . . . . .
C19 C 0.1886(7) 0.0764(4) 0.6471(4) 0.0455(16) Uani 1 1 d . . . . .
H19A H 0.1787 0.0502 0.6848 0.055 Uiso 1 1 calc R . . . .
H19B H 0.2833 0.1216 0.6660 0.055 Uiso 1 1 calc R . . . .
C20 C 0.1707(8) 0.0074(5) 0.5721(5) 0.064(2) Uani 1 1 d . . . . .
H20A H 0.1953 0.0346 0.5372 0.096 Uiso 1 1 calc GR . . . .
H20B H 0.0738 -0.0336 0.5501 0.096 Uiso 1 1 calc GR . . . .
H20C H 0.2315 -0.0234 0.5806 0.096 Uiso 1 1 calc GR . . . .
C21 C 0.4801(5) 0.2992(3) 0.2851(3) 0.0262(11) Uani 1 1 d . . . . .
C22 C 0.4329(5) 0.2084(3) 0.2462(3) 0.0251(11) Uani 1 1 d . . . . .
H22 H 0.4447 0.1734 0.2733 0.030 Uiso 1 1 calc R . . . .
C23 C 0.3684(5) 0.1703(3) 0.1670(3) 0.0238(10) Uani 1 1 d . . . . .
C24 C 0.3557(5) 0.2222(3) 0.1250(3) 0.0263(11) Uani 1 1 d . . . . .
H24 H 0.3156 0.1962 0.0715 0.032 Uiso 1 1 calc R . . . .
C25 C 0.4031(6) 0.3128(3) 0.1637(3) 0.0291(11) Uani 1 1 d . . . . .
C26 C 0.4650(5) 0.3513(3) 0.2441(3) 0.0277(11) Uani 1 1 d . . . . .
H26 H 0.4961 0.4121 0.2702 0.033 Uiso 1 1 calc R . . . .
C27 C 0.5422(5) 0.3426(3) 0.3726(3) 0.0292(12) Uani 1 1 d . . . . .
C28 C 0.3055(5) 0.0723(3) 0.1267(3) 0.0246(11) Uani 1 1 d . . . . .
C29 C 0.3383(7) 0.3358(4) 0.0470(3) 0.0391(14) Uani 1 1 d . . . . .
H29A H 0.2390 0.2978 0.0301 0.047 Uiso 1 1 calc R . . . .
H29B H 0.3892 0.3020 0.0229 0.047 Uiso 1 1 calc R . . . .
C30 C 0.3557(8) 0.4146(4) 0.0253(4) 0.0573(19) Uani 1 1 d . . . . .
H30A H 0.3100 0.3946 -0.0292 0.086 Uiso 1 1 calc GR . . . .
H30B H 0.4547 0.4484 0.0376 0.086 Uiso 1 1 calc GR . . . .
H30C H 0.3133 0.4507 0.0538 0.086 Uiso 1 1 calc GR . . . .
C31 C 0.2077(5) 0.1505(3) -0.1232(3) 0.0233(10) Uani 1 1 d . . . . .
C32 C 0.3228(5) 0.1294(3) -0.0986(3) 0.0263(11) Uani 1 1 d . . . . .
H32 H 0.3135 0.0880 -0.0765 0.032 Uiso 1 1 calc R . . . .
C33 C 0.4523(5) 0.1711(3) -0.1074(3) 0.0259(11) Uani 1 1 d . . . . .
C34 C 0.4657(6) 0.2323(3) -0.1410(3) 0.0305(12) Uani 1 1 d . . . . .
H34 H 0.5522 0.2595 -0.1471 0.037 Uiso 1 1 calc R . . . .
C35 C 0.3515(5) 0.2534(3) -0.1656(3) 0.0281(11) Uani 1 1 d . . . . .
C36 C 0.2223(5) 0.2123(3) -0.1567(3) 0.0269(11) Uani 1 1 d . . . . .
H36 H 0.1451 0.2261 -0.1731 0.032 Uiso 1 1 calc R . . . .
C37 C 0.0711(5) 0.1099(3) -0.1091(3) 0.0247(10) Uani 1 1 d . . . . .
C38 C 0.5800(6) 0.1508(4) -0.0812(3) 0.0315(12) Uani 1 1 d . . . . .
C39 C 0.4844(6) 0.3499(4) -0.2157(4) 0.0426(15) Uani 1 1 d . . . . .
H39A H 0.4993 0.3027 -0.2524 0.051 Uiso 1 1 calc R . . . .
H39B H 0.5652 0.3781 -0.1690 0.051 Uiso 1 1 calc R . . . .
C40 C 0.4710(7) 0.4153(4) -0.2490(4) 0.0481(16) Uani 1 1 d . . . . .
H40A H 0.3841 0.3892 -0.2910 0.072 Uiso 1 1 calc GR . . . .
H40B H 0.5496 0.4330 -0.2678 0.072 Uiso 1 1 calc GR . . . .
H40C H 0.4706 0.4660 -0.2098 0.072 Uiso 1 1 calc GR . . . .
O21 O 0.1215(7) 0.5209(4) 0.5682(5) 0.106(2) Uani 1 1 d . . . . .
H21A H 0.0834 0.4670 0.5610 0.158 Uiso 1 1 d G . . . .
H21B H 0.0572 0.5409 0.5595 0.158 Uiso 1 1 d G . . . .
N1 N 0.1765(6) 0.6399(4) 0.7135(4) 0.0568(16) Uani 1 1 d . . . . .
H1 H 0.1417 0.6032 0.6659 0.068 Uiso 1 1 calc R . . . .
C41 C 0.2031(6) 0.7272(4) 0.7287(4) 0.0477(17) Uani 1 1 d . . . . .
C42 C 0.1740(8) 0.7552(6) 0.6690(5) 0.067(2) Uani 1 1 d . . . . .
H42 H 0.1355 0.7151 0.6177 0.080 Uiso 1 1 calc R . . . .
C43 C 0.2031(9) 0.8423(6) 0.6871(6) 0.080(3) Uani 1 1 d . . . . .
H43 H 0.1819 0.8615 0.6476 0.096 Uiso 1 1 calc R . . . .
C44 C 0.2644(10) 0.9045(6) 0.7641(7) 0.090(3) Uani 1 1 d . . . . .
H44 H 0.2850 0.9640 0.7745 0.108 Uiso 1 1 calc R . . . .
C45 C 0.2935(8) 0.8789(5) 0.8226(6) 0.076(3) Uani 1 1 d . . . . .
H45 H 0.3334 0.9204 0.8734 0.091 Uiso 1 1 calc R . . . .
C46 C 0.2636(7) 0.7888(5) 0.8070(4) 0.0553(19) Uani 1 1 d . . . . .
C47 C 0.2876(7) 0.7570(5) 0.8627(4) 0.060(2) Uani 1 1 d . . . . .
H47 H 0.3258 0.7966 0.9142 0.072 Uiso 1 1 calc R . . . .
C48 C 0.2583(7) 0.6695(6) 0.8467(5) 0.064(2) Uani 1 1 d . . . . .
C49 C 0.2833(9) 0.6371(8) 0.9043(7) 0.092(3) Uani 1 1 d . . . . .
H49 H 0.3165 0.6755 0.9561 0.110 Uiso 1 1 calc R . . . .
C50 C 0.2602(10) 0.5516(10) 0.8858(8) 0.103(4) Uani 1 1 d . . . . .
H50 H 0.2794 0.5317 0.9250 0.123 Uiso 1 1 calc R . . . .
C51 C 0.2073(10) 0.4911(8) 0.8077(9) 0.104(4) Uani 1 1 d . . . . .
H51 H 0.1932 0.4322 0.7964 0.125 Uiso 1 1 calc R . . . .
C52 C 0.1763(9) 0.5179(6) 0.7486(7) 0.079(3) Uani 1 1 d . . . . .
H52 H 0.1399 0.4780 0.6972 0.095 Uiso 1 1 calc R . . . .
C53 C 0.2018(7) 0.6081(5) 0.7686(5) 0.0555(18) Uani 1 1 d . . . . .
N2 N 0.9788(6) 0.5618(4) 0.9732(4) 0.0590(16) Uani 1 1 d . . . . .
H2A H 0.9663 0.6006 0.9563 0.071 Uiso 1 1 calc R . . . .
C54 C 0.9467(7) 0.4773(4) 0.9199(4) 0.0486(16) Uani 1 1 d . . . . .
C55 C 1.0296(7) 0.5857(4) 1.0517(4) 0.0458(15) Uani 1 1 d . . . . .
C56 C 1.0530(7) 0.6698(5) 1.1040(5) 0.0586(19) Uani 1 1 d . . . . .
H56 H 1.0356 0.7108 1.0856 0.070 Uiso 1 1 calc R . . . .
C57 C 1.1009(8) 0.6917(5) 1.1810(5) 0.068(2) Uani 1 1 d . . . . .
H57 H 1.1148 0.7475 1.2152 0.082 Uiso 1 1 calc R . . . .
C58 C 1.1301(8) 0.6307(6) 1.2101(5) 0.072(2) Uani 1 1 d . . . . .
H58 H 1.1647 0.6470 1.2633 0.086 Uiso 1 1 calc R . . . .
C59 C 1.1079(8) 0.5488(6) 1.1610(5) 0.065(2) Uani 1 1 d . . . . .
H59 H 1.1288 0.5094 1.1805 0.078 Uiso 1 1 calc R . . . .
N3 N -0.4446(6) 0.0880(4) 0.5148(3) 0.0533(14) Uani 1 1 d . . . . .
H3 H -0.4091 0.1433 0.5240 0.064 Uiso 1 1 calc R . . . .
C60 C -0.4933(6) 0.0278(4) 0.4395(3) 0.0389(14) Uani 1 1 d . . . . .
C61 C -0.4507(7) 0.0627(4) 0.5758(3) 0.0416(14) Uani 1 1 d . . . . .
C62 C -0.4013(8) 0.1253(5) 0.6522(4) 0.062(2) Uani 1 1 d . . . . .
H62 H -0.3643 0.1852 0.6624 0.075 Uiso 1 1 calc R . . . .
C63 C -0.4080(9) 0.0979(7) 0.7110(4) 0.077(3) Uani 1 1 d . . . . .
H63 H -0.3745 0.1392 0.7617 0.092 Uiso 1 1 calc R . . . .
C64 C -0.4649(8) 0.0078(7) 0.6959(4) 0.069(2) Uani 1 1 d . . . . .
H64 H -0.4685 -0.0094 0.7371 0.083 Uiso 1 1 calc R . . . .
C65 C -0.5149(8) -0.0552(6) 0.6229(4) 0.060(2) Uani 1 1 d . . . . .
H65 H -0.5535 -0.1147 0.6139 0.072 Uiso 1 1 calc R . . . .
loop_
_atom_site_aniso_label
_atom_site_aniso_U_11
_atom_site_aniso_U_22
_atom_site_aniso_U_33
_atom_site_aniso_U_23
_atom_site_aniso_U_13
_atom_site_aniso_U_12
Cd1 0.02138(18) 0.01948(17) 0.02521(19) 0.00690(14) 0.00578(15) 0.00814(14)
Cd2 0.0217(2) 0.0169(2) 0.0204(2) 0.00728(19) 0.0057(2) 0.00774(19)
Cd3 0.0205(2) 0.0245(2) 0.0249(3) 0.0143(2) 0.0043(2) 0.0091(2)
Cd4 0.02076(18) 0.02245(18) 0.02677(19) 0.01054(15) 0.00499(15) 0.01029(14)
O1 0.063(3) 0.0220(18) 0.036(2) 0.0092(17) 0.011(2) 0.0193(19)
O2 0.0302(19) 0.0229(17) 0.0282(19) 0.0023(15) -0.0007(16) 0.0108(15)
O3 0.062(3) 0.041(2) 0.032(2) 0.0075(19) -0.003(2) 0.030(2)
O4 0.038(2) 0.0242(18) 0.0247(19) -0.0004(15) 0.0022(17) 0.0061(16)
O5 0.071(3) 0.030(2) 0.034(2) 0.0164(18) 0.010(2) 0.021(2)
O6 0.0239(19) 0.051(2) 0.060(3) 0.034(2) 0.0175(19) 0.0156(18)
O7 0.035(2) 0.032(2) 0.045(2) 0.0225(18) 0.0144(19) 0.0047(17)
O8 0.032(2) 0.042(2) 0.059(3) 0.032(2) 0.018(2) 0.0221(18)
O9 0.0251(19) 0.039(2) 0.069(3) 0.029(2) 0.023(2) 0.0169(17)
O10 0.051(3) 0.050(3) 0.082(3) 0.049(3) 0.039(3) 0.032(2)
O11 0.041(2) 0.045(2) 0.024(2) 0.0025(18) 0.0027(17) 0.0154(19)
O12 0.051(2) 0.028(2) 0.030(2) -0.0008(17) 0.0178(19) 0.0090(18)
O13 0.047(2) 0.032(2) 0.027(2) 0.0085(17) -0.0017(18) 0.0183(18)
O14 0.0211(17) 0.0275(18) 0.0227(17) 0.0014(15) -0.0011(14) 0.0058(14)
O15 0.063(3) 0.0255(19) 0.030(2) 0.0105(17) 0.011(2) 0.0132(19)
O16 0.041(2) 0.035(2) 0.038(2) 0.0230(18) 0.0203(18) 0.0156(17)
O17 0.0271(19) 0.042(2) 0.055(3) 0.027(2) 0.0201(19) 0.0203(17)
O18 0.052(3) 0.084(3) 0.081(3) 0.065(3) 0.035(3) 0.048(3)
O19 0.0263(19) 0.042(2) 0.050(2) 0.0249(19) 0.0146(18) 0.0199(17)
O20 0.036(2) 0.053(2) 0.064(3) 0.045(2) 0.026(2) 0.0241(19)
C1 0.019(2) 0.020(2) 0.022(2) 0.0063(19) 0.0050(19) 0.0075(19)
C2 0.021(2) 0.020(2) 0.031(3) 0.010(2) 0.005(2) 0.008(2)
C3 0.019(2) 0.023(2) 0.022(2) 0.005(2) 0.003(2) 0.0067(19)
C4 0.024(2) 0.016(2) 0.028(3) 0.001(2) 0.005(2) 0.0050(19)
C5 0.031(3) 0.024(2) 0.028(3) 0.014(2) 0.010(2) 0.010(2)
C6 0.025(2) 0.025(2) 0.020(2) 0.006(2) 0.004(2) 0.008(2)
C7 0.022(2) 0.023(2) 0.026(3) 0.004(2) 0.008(2) 0.006(2)
C8 0.021(2) 0.031(3) 0.024(3) 0.003(2) 0.003(2) 0.012(2)
C9 0.057(4) 0.028(3) 0.059(4) 0.020(3) 0.023(3) 0.021(3)
C10 0.069(5) 0.063(5) 0.106(7) 0.061(5) 0.038(5) 0.039(4)
C11 0.020(2) 0.025(2) 0.033(3) 0.013(2) 0.009(2) 0.009(2)
C12 0.029(3) 0.027(3) 0.034(3) 0.015(2) 0.012(2) 0.013(2)
C13 0.022(2) 0.027(3) 0.033(3) 0.012(2) 0.011(2) 0.010(2)
C14 0.026(3) 0.034(3) 0.047(3) 0.022(3) 0.019(3) 0.013(2)
C15 0.031(3) 0.030(3) 0.044(3) 0.024(3) 0.018(3) 0.013(2)
C16 0.025(3) 0.028(3) 0.046(3) 0.016(2) 0.009(2) 0.012(2)
C17 0.022(2) 0.027(3) 0.030(3) 0.008(2) 0.010(2) 0.005(2)
C18 0.026(3) 0.023(2) 0.029(3) 0.002(2) 0.002(2) 0.010(2)
C19 0.043(3) 0.045(3) 0.063(4) 0.036(3) 0.016(3) 0.022(3)
C20 0.061(5) 0.062(5) 0.084(6) 0.035(4) 0.025(4) 0.037(4)
C21 0.017(2) 0.028(3) 0.025(3) 0.003(2) 0.007(2) 0.005(2)
C22 0.022(2) 0.026(2) 0.024(2) 0.007(2) 0.005(2) 0.008(2)
C23 0.018(2) 0.025(2) 0.026(2) 0.007(2) 0.007(2) 0.0071(19)
C24 0.027(3) 0.028(3) 0.021(2) 0.007(2) 0.008(2) 0.008(2)
C25 0.031(3) 0.025(3) 0.031(3) 0.010(2) 0.011(2) 0.009(2)
C26 0.029(3) 0.020(2) 0.027(3) 0.003(2) 0.008(2) 0.006(2)
C27 0.022(2) 0.035(3) 0.023(3) 0.005(2) 0.009(2) 0.007(2)
C28 0.018(2) 0.025(2) 0.025(3) 0.003(2) 0.005(2) 0.009(2)
C29 0.048(3) 0.037(3) 0.030(3) 0.015(3) 0.009(3) 0.014(3)
C30 0.070(5) 0.052(4) 0.052(4) 0.031(3) 0.008(4) 0.022(4)
C31 0.025(2) 0.027(2) 0.023(2) 0.011(2) 0.011(2) 0.012(2)
C32 0.033(3) 0.029(3) 0.028(3) 0.015(2) 0.013(2) 0.020(2)
C33 0.026(3) 0.028(3) 0.028(3) 0.012(2) 0.012(2) 0.014(2)
C34 0.026(3) 0.036(3) 0.038(3) 0.021(2) 0.014(2) 0.014(2)
C35 0.028(3) 0.032(3) 0.033(3) 0.020(2) 0.014(2) 0.013(2)
C36 0.023(2) 0.034(3) 0.032(3) 0.017(2) 0.010(2) 0.016(2)
C37 0.026(3) 0.029(3) 0.020(2) 0.010(2) 0.008(2) 0.011(2)
C38 0.032(3) 0.037(3) 0.033(3) 0.014(2) 0.013(2) 0.021(2)
C39 0.039(3) 0.038(3) 0.055(4) 0.025(3) 0.019(3) 0.011(3)
C40 0.061(4) 0.040(3) 0.049(4) 0.026(3) 0.023(3) 0.015(3)
O21 0.120(6) 0.058(4) 0.110(6) 0.017(4) 0.045(5) 0.005(4)
N1 0.037(3) 0.056(4) 0.058(4) 0.001(3) 0.023(3) 0.010(3)
C41 0.026(3) 0.049(4) 0.051(4) 0.002(3) 0.019(3) 0.005(3)
C42 0.047(4) 0.080(6) 0.067(5) 0.020(4) 0.033(4) 0.015(4)
C43 0.063(5) 0.089(7) 0.106(8) 0.052(6) 0.049(5) 0.023(5)
C44 0.072(6) 0.059(5) 0.138(10) 0.027(6) 0.066(7) 0.017(5)
C45 0.051(5) 0.051(5) 0.092(7) -0.008(5) 0.035(5) 0.005(4)
C46 0.028(3) 0.062(4) 0.056(4) 0.000(4) 0.023(3) 0.009(3)
C47 0.029(3) 0.074(5) 0.051(4) 0.000(4) 0.012(3) 0.013(3)
C48 0.034(4) 0.109(7) 0.061(5) 0.035(5) 0.024(4) 0.036(4)
C49 0.057(5) 0.133(10) 0.102(8) 0.055(8) 0.026(5) 0.046(6)
C50 0.054(6) 0.171(13) 0.125(10) 0.092(10) 0.036(6) 0.059(7)
C51 0.064(6) 0.107(9) 0.189(13) 0.086(10) 0.067(8) 0.051(6)
C52 0.052(5) 0.072(6) 0.121(8) 0.036(6) 0.043(5) 0.025(4)
C53 0.030(3) 0.071(5) 0.070(5) 0.026(4) 0.024(3) 0.021(3)
N2 0.056(4) 0.067(4) 0.088(5) 0.057(4) 0.032(3) 0.034(3)
C54 0.043(4) 0.051(4) 0.066(4) 0.036(4) 0.020(3) 0.021(3)
C55 0.037(3) 0.054(4) 0.064(4) 0.040(4) 0.023(3) 0.020(3)
C56 0.049(4) 0.057(4) 0.073(5) 0.035(4) 0.016(4) 0.017(3)
C57 0.048(4) 0.063(5) 0.084(6) 0.025(5) 0.019(4) 0.012(4)
C58 0.052(5) 0.089(6) 0.069(5) 0.044(5) 0.008(4) 0.014(4)
C59 0.055(5) 0.078(6) 0.080(6) 0.056(5) 0.022(4) 0.022(4)
N3 0.067(4) 0.045(3) 0.050(3) 0.023(3) 0.020(3) 0.017(3)
C60 0.037(3) 0.051(4) 0.037(3) 0.026(3) 0.014(3) 0.017(3)
C61 0.044(3) 0.052(4) 0.031(3) 0.018(3) 0.015(3) 0.017(3)
C62 0.067(5) 0.067(5) 0.038(4) 0.007(3) 0.016(4) 0.018(4)
C63 0.061(5) 0.125(8) 0.032(4) 0.018(5) 0.013(4) 0.032(5)
C64 0.047(4) 0.137(8) 0.049(4) 0.060(5) 0.023(4) 0.041(5)
C65 0.059(4) 0.097(6) 0.058(5) 0.059(5) 0.028(4) 0.040(4)
loop_
_atom_type_symbol
_atom_type_description
_atom_type_scat_dispersion_real
_atom_type_scat_dispersion_imag
_atom_type_scat_source
C C 0.0033 0.0016 'International Tables Vol C Tables 4.2.6.8 and 6.1.1.4'
H H 0.0000 0.0000 'International Tables Vol C Tables 4.2.6.8 and 6.1.1.4'
Cd Cd -0.8075 1.2024 'International Tables Vol C Tables 4.2.6.8 and 6.1.1.4'
N N 0.0061 0.0033 'International Tables Vol C Tables 4.2.6.8 and 6.1.1.4'
O O 0.0106 0.0060 'International Tables Vol C Tables 4.2.6.8 and 6.1.1.4'
loop_
_geom_angle_atom_site_label_1
_geom_angle_atom_site_label_2
_geom_angle_atom_site_label_3
_geom_angle
_geom_angle_site_symmetry_1
_geom_angle_site_symmetry_3
_geom_angle_publ_flag
O1 Cd1 C18 88.51(14) . 1_655 ?
O2 Cd1 O1 53.55(12) . . ?
O2 Cd1 O8 99.33(13) . 1_655 ?
O2 Cd1 O9 139.25(13) . 1_655 ?
O2 Cd1 C18 121.14(14) . 1_655 ?
O6 Cd1 O1 97.20(15) . . ?
O6 Cd1 O2 109.81(14) . . ?
O6 Cd1 O8 146.56(13) . 1_655 ?
O6 Cd1 O9 91.89(13) . 1_655 ?
O6 Cd1 O11 94.39(15) . . ?
O6 Cd1 C18 119.12(15) . 1_655 ?
O8 Cd1 O1 86.92(14) 1_655 . ?
O8 Cd1 C18 27.52(14) 1_655 1_655 ?
O9 Cd1 O1 90.83(14) 1_655 . ?
O9 Cd1 O8 54.77(12) 1_655 1_655 ?
O9 Cd1 C18 27.25(14) 1_655 1_655 ?
O11 Cd1 O1 160.48(14) . . ?
O11 Cd1 O2 107.60(14) . . ?
O11 Cd1 O8 92.02(15) . 1_655 ?
O11 Cd1 O9 104.46(15) . 1_655 ?
O11 Cd1 C18 99.50(15) . 1_655 ?
O2 Cd2 O2 180.0 2_666 . ?
O7 Cd2 O2 92.26(13) . 2_666 ?
O7 Cd2 O2 92.27(13) 2_666 . ?
O7 Cd2 O2 87.74(13) . . ?
O7 Cd2 O2 87.74(13) 2_666 2_666 ?
O7 Cd2 O7 180.0 . 2_666 ?
O12 Cd2 O2 82.00(14) . . ?
O12 Cd2 O2 81.99(14) 2_666 2_666 ?
O12 Cd2 O2 98.00(14) . 2_666 ?
O12 Cd2 O2 98.00(14) 2_666 . ?
O12 Cd2 O7 92.53(14) 2_666 2_666 ?
O12 Cd2 O7 87.47(14) 2_666 . ?
O12 Cd2 O7 87.47(14) . 2_666 ?
O12 Cd2 O7 92.53(14) . . ?
O12 Cd2 O12 180.0 2_666 . ?
Cd4 Cd3 Cd4 180.000(12) 1_455 2_655 ?
O4 Cd3 Cd4 138.13(8) 1_444 1_455 ?
O4 Cd3 Cd4 41.87(8) 1_444 2_655 ?
O4 Cd3 Cd4 41.87(8) 2_666 1_455 ?
O4 Cd3 Cd4 138.13(8) 2_666 2_655 ?
O4 Cd3 O4 180.0(2) 2_666 1_444 ?
O14 Cd3 Cd4 47.30(9) 2 1_455 ?
O14 Cd3 Cd4 132.70(9) . 1_455 ?
O14 Cd3 Cd4 132.70(9) 2 2_655 ?
O14 Cd3 Cd4 47.30(9) . 2_655 ?
O14 Cd3 O4 103.95(12) 2 1_444 ?
O14 Cd3 O4 103.95(12) . 2_666 ?
O14 Cd3 O4 76.05(12) 2 2_666 ?
O14 Cd3 O4 76.05(12) . 1_444 ?
O14 Cd3 O14 180.0 . 2 ?
O16 Cd3 Cd4 115.48(10) . 2_655 ?
O16 Cd3 Cd4 64.52(10) . 1_455 ?
O16 Cd3 Cd4 64.52(10) 2 2_655 ?
O16 Cd3 Cd4 115.48(10) 2 1_455 ?
O16 Cd3 O4 87.80(13) . 2_666 ?
O16 Cd3 O4 92.20(13) . 1_444 ?
O16 Cd3 O4 92.20(13) 2 2_666 ?
O16 Cd3 O4 87.80(13) 2 1_444 ?
O16 Cd3 O14 92.04(13) 2 . ?
O16 Cd3 O14 87.96(13) . . ?
O16 Cd3 O14 92.04(13) . 2 ?
O16 Cd3 O14 87.96(13) 2 2 ?
O16 Cd3 O16 180.0 2 . ?
O4 Cd4 Cd3 45.59(9) 2_766 1_655 ?
O4 Cd4 O13 127.63(13) 2_766 2_655 ?
O4 Cd4 O14 74.08(11) 2_766 2_655 ?
O4 Cd4 O18 108.86(15) 2_766 . ?
O4 Cd4 C38 126.57(15) 2_766 . ?
O13 Cd4 Cd3 84.91(9) 2_655 1_655 ?
O13 Cd4 O14 54.54(12) 2_655 2_655 ?
O13 Cd4 O18 83.71(16) 2_655 . ?
O13 Cd4 C38 87.58(15) 2_655 . ?
O14 Cd4 Cd3 41.13(7) 2_655 1_655 ?
O14 Cd4 C38 114.80(14) 2_655 . ?
O17 Cd4 Cd3 82.86(9) 1_655 1_655 ?
O17 Cd4 O4 95.19(14) 1_655 2_766 ?
O17 Cd4 O13 93.85(14) 1_655 2_655 ?
O17 Cd4 O14 110.56(12) 1_655 2_655 ?
O17 Cd4 O18 151.43(14) 1_655 . ?
O17 Cd4 C38 124.42(15) 1_655 . ?
O18 Cd4 Cd3 125.01(9) . 1_655 ?
O18 Cd4 O14 91.19(13) . 2_655 ?
O18 Cd4 C38 27.27(14) . . ?
O19 Cd4 Cd3 179.78(11) . 1_655 ?
O19 Cd4 O4 134.56(14) . 2_766 ?
O19 Cd4 O13 94.90(13) . 2_655 ?
O19 Cd4 O14 138.65(12) . 2_655 ?
O19 Cd4 O17 97.26(14) . 1_655 ?
O19 Cd4 O18 54.85(13) . . ?
O19 Cd4 C38 27.67(15) . . ?
C38 Cd4 Cd3 152.18(12) . 1_655 ?
C7 O1 Cd1 86.8(3) . . ?
Cd1 O2 Cd2 101.55(13) . . ?
C7 O2 Cd1 99.5(3) . . ?
C7 O2 Cd2 136.5(3) . . ?
Cd4 O4 Cd3 92.54(12) 2_766 1_666 ?
C8 O4 Cd3 154.9(3) . 1_666 ?
C8 O4 Cd4 103.9(3) . 2_766 ?
C5 O5 C9 118.5(4) . . ?
C17 O6 Cd1 114.1(3) . . ?
C17 O7 Cd2 154.6(4) . . ?
C18 O8 Cd1 90.7(3) . 1_455 ?
C18 O9 Cd1 93.2(3) . 1_455 ?
C15 O10 C19 118.8(4) . . ?
C27 O11 Cd1 118.3(3) . . ?
C27 O12 Cd2 135.7(4) . . ?
C28 O13 Cd4 97.1(3) . 2_655 ?
Cd3 O14 Cd4 91.57(11) . 2_655 ?
C28 O14 Cd3 130.3(3) . . ?
C28 O14 Cd4 87.9(3) . 2_655 ?
C25 O15 C29 118.2(4) . . ?
C37 O16 Cd3 139.0(3) . . ?
C37 O17 Cd4 116.6(3) . 1_455 ?
C38 O18 Cd4 85.3(3) . . ?
C38 O19 Cd4 96.8(3) . . ?
C35 O20 C39 116.5(4) . . ?
C2 C1 C7 120.6(4) . . ?
C6 C1 C2 120.1(4) . . ?
C6 C1 C7 119.3(4) . . ?
C1 C2 H2 120.4 . . ?
C3 C2 C1 119.2(5) . . ?
C3 C2 H2 120.4 . . ?
C2 C3 C4 121.0(4) . . ?
C2 C3 C8 119.4(4) . . ?
C4 C3 C8 119.6(4) . . ?
C3 C4 H4 120.4 . . ?
C5 C4 C3 119.1(4) . . ?
C5 C4 H4 120.4 . . ?
O5 C5 C4 125.4(4) . . ?
O5 C5 C6 113.9(4) . . ?
C4 C5 C6 120.7(5) . . ?
C1 C6 C5 119.8(4) . . ?
C1 C6 H6 120.1 . . ?
C5 C6 H6 120.1 . . ?
O1 C7 O2 120.1(4) . . ?
O1 C7 C1 121.8(5) . . ?
O2 C7 C1 118.2(4) . . ?
O3 C8 O4 122.3(5) . . ?
O3 C8 C3 120.2(4) . . ?
O4 C8 C3 117.3(5) . . ?
O5 C9 H9A 110.5 . . ?
O5 C9 H9B 110.5 . . ?
O5 C9 C10 106.1(5) . . ?
H9A C9 H9B 108.7 . . ?
C10 C9 H9A 110.5 . . ?
C10 C9 H9B 110.5 . . ?
C9 C10 H10A 109.5 . . ?
C9 C10 H10B 109.5 . . ?
C9 C10 H10C 109.5 . . ?
H10A C10 H10B 109.5 . . ?
H10A C10 H10C 109.5 . . ?
H10B C10 H10C 109.5 . . ?
C12 C11 C16 120.5(5) . . ?
C12 C11 C17 120.8(5) . . ?
C16 C11 C17 118.5(4) . . ?
C11 C12 H12 120.0 . . ?
C11 C12 C13 119.9(5) . . ?
C13 C12 H12 120.0 . . ?
C12 C13 C14 119.8(5) . . ?
C12 C13 C18 121.1(5) . . ?
C14 C13 C18 119.1(5) . . ?
C13 C14 H14 119.9 . . ?
C15 C14 C13 120.2(5) . . ?
C15 C14 H14 119.9 . . ?
O10 C15 C14 115.0(5) . . ?
O10 C15 C16 124.9(5) . . ?
C16 C15 C14 120.1(5) . . ?
C11 C16 H16 120.3 . . ?
C15 C16 C11 119.5(5) . . ?
C15 C16 H16 120.3 . . ?
O6 C17 C11 117.4(5) . . ?
O7 C17 O6 125.2(5) . . ?
O7 C17 C11 117.4(5) . . ?
O8 C18 Cd1 61.8(3) . 1_455 ?
O8 C18 C13 118.8(5) . . ?
O9 C18 Cd1 59.6(3) . 1_455 ?
O9 C18 O8 121.3(5) . . ?
O9 C18 C13 119.9(5) . . ?
C13 C18 Cd1 179.1(4) . 1_455 ?
O10 C19 H19A 109.2 . . ?
O10 C19 H19B 109.2 . . ?
O10 C19 C20 112.0(5) . . ?
H19A C19 H19B 107.9 . . ?
C20 C19 H19A 109.2 . . ?
C20 C19 H19B 109.2 . . ?
C19 C20 H20A 109.5 . . ?
C19 C20 H20B 109.5 . . ?
C19 C20 H20C 109.5 . . ?
H20A C20 H20B 109.5 . . ?
H20A C20 H20C 109.5 . . ?
H20B C20 H20C 109.5 . . ?
C22 C21 C27 121.1(5) . . ?
C26 C21 C22 119.9(5) . . ?
C26 C21 C27 118.9(4) . . ?
C21 C22 H22 120.1 . . ?
C23 C22 C21 119.7(5) . . ?
C23 C22 H22 120.1 . . ?
C22 C23 C24 120.8(4) . . ?
C22 C23 C28 119.4(5) . . ?
C24 C23 C28 119.7(4) . . ?
C23 C24 H24 120.3 . . ?
C25 C24 C23 119.4(5) . . ?
C25 C24 H24 120.3 . . ?
O15 C25 C24 125.0(5) . . ?
O15 C25 C26 115.2(4) . . ?
C24 C25 C26 119.8(5) . . ?
C21 C26 C25 120.2(4) . . ?
C21 C26 H26 119.9 . . ?
C25 C26 H26 119.9 . . ?
O11 C27 C21 117.3(5) . . ?
O12 C27 O11 125.7(5) . . ?
O12 C27 C21 116.9(5) . . ?
O13 C28 O14 120.5(4) . . ?
O13 C28 C23 120.9(4) . . ?
O14 C28 C23 118.7(5) . . ?
O15 C29 H29A 110.5 . . ?
O15 C29 H29B 110.5 . . ?
O15 C29 C30 106.3(5) . . ?
H29A C29 H29B 108.7 . . ?
C30 C29 H29A 110.5 . . ?
C30 C29 H29B 110.5 . . ?
C29 C30 H30A 109.5 . . ?
C29 C30 H30B 109.5 . . ?
C29 C30 H30C 109.5 . . ?
H30A C30 H30B 109.5 . . ?
H30A C30 H30C 109.5 . . ?
H30B C30 H30C 109.5 . . ?
C32 C31 C37 119.2(4) . . ?
C36 C31 C32 120.0(5) . . ?
C36 C31 C37 120.7(4) . . ?
C31 C32 H32 120.3 . . ?
C31 C32 C33 119.4(5) . . ?
C33 C32 H32 120.3 . . ?
C32 C33 C38 121.3(5) . . ?
C34 C33 C32 120.3(5) . . ?
C34 C33 C38 118.5(5) . . ?
C33 C34 H34 119.7 . . ?
C35 C34 C33 120.5(5) . . ?
C35 C34 H34 119.7 . . ?
O20 C35 C34 124.3(5) . . ?
O20 C35 C36 116.3(4) . . ?
C34 C35 C36 119.4(5) . . ?
C31 C36 C35 120.5(5) . . ?
C31 C36 H36 119.7 . . ?
C35 C36 H36 119.7 . . ?
O16 C37 C31 117.6(4) . . ?
O17 C37 O16 124.6(5) . . ?
O17 C37 C31 117.7(4) . . ?
O18 C38 Cd4 67.4(3) . . ?
O18 C38 O19 122.7(5) . . ?
O18 C38 C33 120.5(5) . . ?
O19 C38 Cd4 55.6(3) . . ?
O19 C38 C33 116.8(5) . . ?
C33 C38 Cd4 169.5(4) . . ?
O20 C39 H39A 109.9 . . ?
O20 C39 H39B 109.9 . . ?
O20 C39 C40 108.9(5) . . ?
H39A C39 H39B 108.3 . . ?
C40 C39 H39A 109.9 . . ?
C40 C39 H39B 109.9 . . ?
C39 C40 H40A 109.5 . . ?
C39 C40 H40B 109.5 . . ?
C39 C40 H40C 109.5 . . ?
H40A C40 H40B 109.5 . . ?
H40A C40 H40C 109.5 . . ?
H40B C40 H40C 109.5 . . ?
H21A O21 H21B 109.5 . . ?
C41 N1 H1 118.0 . . ?
C53 N1 H1 118.0 . . ?
C53 N1 C41 124.0(6) . . ?
N1 C41 C42 120.8(6) . . ?
N1 C41 C46 118.5(7) . . ?
C42 C41 C46 120.7(7) . . ?
C41 C42 H42 120.7 . . ?
C43 C42 C41 118.5(8) . . ?
C43 C42 H42 120.7 . . ?
C42 C43 H43 119.1 . . ?
C42 C43 C44 121.7(10) . . ?
C44 C43 H43 119.1 . . ?
C43 C44 H44 119.7 . . ?
C45 C44 C43 120.7(9) . . ?
C45 C44 H44 119.7 . . ?
C44 C45 H45 120.1 . . ?
C44 C45 C46 119.8(8) . . ?
C46 C45 H45 120.1 . . ?
C45 C46 C41 118.5(8) . . ?
C47 C46 C41 117.7(7) . . ?
C47 C46 C45 123.8(8) . . ?
C46 C47 H47 118.5 . . ?
C46 C47 C48 123.1(7) . . ?
C48 C47 H47 118.5 . . ?
C47 C48 C49 122.9(9) . . ?
C47 C48 C53 119.4(8) . . ?
C49 C48 C53 117.7(9) . . ?
C48 C49 H49 119.6 . . ?
C50 C49 C48 120.9(11) . . ?
C50 C49 H49 119.6 . . ?
C49 C50 H50 119.4 . . ?
C49 C50 C51 121.1(12) . . ?
C51 C50 H50 119.4 . . ?
C50 C51 H51 119.5 . . ?
C52 C51 C50 121.1(11) . . ?
C52 C51 H51 119.5 . . ?
C51 C52 H52 121.3 . . ?
C51 C52 C53 117.4(10) . . ?
C53 C52 H52 121.3 . . ?
N1 C53 C48 117.3(7) . . ?
N1 C53 C52 121.0(8) . . ?
C52 C53 C48 121.8(9) . . ?
C54 N2 H2A 118.7 . . ?
C55 N2 H2A 118.7 . . ?
C55 N2 C54 122.5(6) . . ?
N2 C54 C55 118.2(6) . 2_767 ?
N2 C54 C59 123.2(6) . 2_767 ?
C59 C54 C55 118.6(7) 2_767 2_767 ?
N2 C55 C54 119.2(6) . 2_767 ?
N2 C55 C56 121.2(6) . . ?
C56 C55 C54 119.5(7) . 2_767 ?
C55 C56 H56 119.8 . . ?
C57 C56 C55 120.4(7) . . ?
C57 C56 H56 119.8 . . ?
C56 C57 H57 119.7 . . ?
C56 C57 C58 120.7(8) . . ?
C58 C57 H57 119.7 . . ?
C57 C58 H58 119.9 . . ?
C59 C58 C57 120.2(8) . . ?
C59 C58 H58 119.9 . . ?
C54 C59 H59 119.8 2_767 . ?
C58 C59 C54 120.5(7) . 2_767 ?
C58 C59 H59 119.8 . . ?
C60 N3 H3 118.9 . . ?
C60 N3 C61 122.2(5) . . ?
C61 N3 H3 118.9 . . ?
N3 C60 C61 119.2(5) . 2_456 ?
N3 C60 C65 121.4(6) . 2_456 ?
C61 C60 C65 119.5(6) 2_456 2_456 ?
N3 C61 C60 118.7(5) . 2_456 ?
N3 C61 C62 121.2(6) . . ?
C62 C61 C60 120.1(6) . 2_456 ?
C61 C62 H62 120.2 . . ?
C63 C62 C61 119.6(8) . . ?
C63 C62 H62 120.2 . . ?
C62 C63 H63 119.8 . . ?
C62 C63 C64 120.5(7) . . ?
C64 C63 H63 119.8 . . ?
C63 C64 H64 118.9 . . ?
C65 C64 C63 122.1(7) . . ?
C65 C64 H64 118.9 . . ?
C60 C65 H65 120.9 2_456 . ?
C64 C65 C60 118.2(7) . 2_456 ?
C64 C65 H65 120.9 . . ?
loop_
_geom_bond_atom_site_label_1
_geom_bond_atom_site_label_2
_geom_bond_distance
_geom_bond_site_symmetry_2
_geom_bond_publ_flag
Cd1 O1 2.560(4) . ?
Cd1 O2 2.257(3) . ?
Cd1 O6 2.216(4) . ?
Cd1 O8 2.402(4) 1_655 ?
Cd1 O9 2.354(4) 1_655 ?
Cd1 O11 2.235(4) . ?
Cd1 C18 2.726(5) 1_655 ?
Cd2 O2 2.326(3) . ?
Cd2 O2 2.326(3) 2_666 ?
Cd2 O7 2.273(3) . ?
Cd2 O7 2.273(3) 2_666 ?
Cd2 O12 2.220(4) 2_666 ?
Cd2 O12 2.220(4) . ?
Cd3 Cd4 3.3955(4) 1_455 ?
Cd3 Cd4 3.3955(4) 2_655 ?
Cd3 O4 2.428(4) 2_666 ?
Cd3 O4 2.428(4) 1_444 ?
Cd3 O14 2.234(3) . ?
Cd3 O14 2.234(3) 2 ?
Cd3 O16 2.218(3) . ?
Cd3 O16 2.218(3) 2 ?
Cd4 Cd3 3.3955(4) 1_655 ?
Cd4 O4 2.269(4) 2_766 ?
Cd4 O13 2.311(4) 2_655 ?
Cd4 O14 2.496(3) 2_655 ?
Cd4 O17 2.240(4) 1_655 ?
Cd4 O18 2.491(4) . ?
Cd4 O19 2.233(4) . ?
Cd4 C38 2.689(5) . ?
O1 C7 1.233(6) . ?
O2 C7 1.291(6) . ?
O3 C8 1.229(6) . ?
O4 Cd3 2.428(4) 1_666 ?
O4 Cd4 2.269(4) 2_766 ?
O4 C8 1.286(6) . ?
O5 C5 1.367(6) . ?
O5 C9 1.421(6) . ?
O6 C17 1.263(6) . ?
O7 C17 1.247(6) . ?
O8 Cd1 2.402(4) 1_455 ?
O8 C18 1.259(6) . ?
O9 Cd1 2.354(4) 1_455 ?
O9 C18 1.250(6) . ?
O10 C15 1.370(6) . ?
O10 C19 1.429(7) . ?
O11 C27 1.267(7) . ?
O12 C27 1.254(6) . ?
O13 Cd4 2.311(4) 2_655 ?
O13 C28 1.261(6) . ?
O14 Cd4 2.496(3) 2_655 ?
O14 C28 1.284(6) . ?
O15 C25 1.366(6) . ?
O15 C29 1.428(6) . ?
O16 C37 1.261(6) . ?
O17 Cd4 2.240(4) 1_455 ?
O17 C37 1.256(6) . ?
O18 C38 1.236(7) . ?
O19 C38 1.257(6) . ?
O20 C35 1.372(6) . ?
O20 C39 1.443(7) . ?
C1 C2 1.398(7) . ?
C1 C6 1.389(7) . ?
C1 C7 1.499(6) . ?
C2 H2 0.9300 . ?
C2 C3 1.385(6) . ?
C3 C4 1.394(7) . ?
C3 C8 1.508(7) . ?
C4 H4 0.9300 . ?
C4 C5 1.384(7) . ?
C5 C6 1.390(7) . ?
C6 H6 0.9300 . ?
C9 H9A 0.9700 . ?
C9 H9B 0.9700 . ?
C9 C10 1.505(9) . ?
C10 H10A 0.9600 . ?
C10 H10B 0.9600 . ?
C10 H10C 0.9600 . ?
C11 C12 1.380(7) . ?
C11 C16 1.396(7) . ?
C11 C17 1.514(7) . ?
C12 H12 0.9300 . ?
C12 C13 1.390(7) . ?
C13 C14 1.390(7) . ?
C13 C18 1.509(7) . ?
C14 H14 0.9300 . ?
C14 C15 1.389(7) . ?
C15 C16 1.387(7) . ?
C16 H16 0.9300 . ?
C18 Cd1 2.726(5) 1_455 ?
C19 H19A 0.9700 . ?
C19 H19B 0.9700 . ?
C19 C20 1.488(9) . ?
C20 H20A 0.9600 . ?
C20 H20B 0.9600 . ?
C20 H20C 0.9600 . ?
C21 C22 1.389(7) . ?
C21 C26 1.387(7) . ?
C21 C27 1.517(7) . ?
C22 H22 0.9300 . ?
C22 C23 1.381(7) . ?
C23 C24 1.394(7) . ?
C23 C28 1.491(6) . ?
C24 H24 0.9300 . ?
C24 C25 1.384(7) . ?
C25 C26 1.398(7) . ?
C26 H26 0.9300 . ?
C29 H29A 0.9700 . ?
C29 H29B 0.9700 . ?
C29 C30 1.512(8) . ?
C30 H30A 0.9600 . ?
C30 H30B 0.9600 . ?
C30 H30C 0.9600 . ?
C31 C32 1.391(7) . ?
C31 C36 1.391(7) . ?
C31 C37 1.501(7) . ?
C32 H32 0.9300 . ?
C32 C33 1.394(7) . ?
C33 C34 1.387(7) . ?
C33 C38 1.506(7) . ?
C34 H34 0.9300 . ?
C34 C35 1.383(7) . ?
C35 C36 1.391(7) . ?
C36 H36 0.9300 . ?
C39 H39A 0.9700 . ?
C39 H39B 0.9700 . ?
C39 C40 1.487(8) . ?
C40 H40A 0.9600 . ?
C40 H40B 0.9600 . ?
C40 H40C 0.9600 . ?
O21 H21A 0.8503 . ?
O21 H21B 0.8499 . ?
N1 H1 0.8600 . ?
N1 C41 1.371(9) . ?
N1 C53 1.351(9) . ?
C41 C42 1.390(10) . ?
C41 C46 1.422(9) . ?
C42 H42 0.9300 . ?
C42 C43 1.355(11) . ?
C43 H43 0.9300 . ?
C43 C44 1.407(13) . ?
C44 H44 0.9300 . ?
C44 C45 1.343(13) . ?
C45 H45 0.9300 . ?
C45 C46 1.411(11) . ?
C46 C47 1.358(11) . ?
C47 H47 0.9300 . ?
C47 C48 1.367(11) . ?
C48 C49 1.399(12) . ?
C48 C53 1.418(10) . ?
C49 H49 0.9300 . ?
C49 C50 1.338(15) . ?
C50 H50 0.9300 . ?
C50 C51 1.414(15) . ?
C51 H51 0.9300 . ?
C51 C52 1.368(14) . ?
C52 H52 0.9300 . ?
C52 C53 1.410(11) . ?
N2 H2A 0.8600 . ?
N2 C54 1.389(9) . ?
N2 C55 1.375(9) . ?
C54 C55 1.419(8) 2_767 ?
C54 C59 1.414(10) 2_767 ?
C55 C54 1.419(8) 2_767 ?
C55 C56 1.400(10) . ?
C56 H56 0.9300 . ?
C56 C57 1.350(10) . ?
C57 H57 0.9300 . ?
C57 C58 1.415(11) . ?
C58 H58 0.9300 . ?
C58 C59 1.353(11) . ?
C59 C54 1.414(10) 2_767 ?
C59 H59 0.9300 . ?
N3 H3 0.8600 . ?
N3 C60 1.374(8) . ?
N3 C61 1.375(8) . ?
C60 C61 1.405(8) 2_456 ?
C60 C65 1.423(8) 2_456 ?
C61 C60 1.405(8) 2_456 ?
C61 C62 1.403(8) . ?
C62 H62 0.9300 . ?
C62 C63 1.355(11) . ?
C63 H63 0.9300 . ?
C63 C64 1.400(12) . ?
C64 H64 0.9300 . ?
C64 C65 1.358(11) . ?
C65 C60 1.423(8) 2_456 ?
C65 H65 0.9300 . ?
