#------------------------------------------------------------------------------
#$Date: 2022-07-29 01:54:34 +0300 (Fri, 29 Jul 2022) $
#$Revision: 276988 $
#$URL: file:///home/coder/svn-repositories/cod/cif/7/71/08/7710843.cif $
#------------------------------------------------------------------------------
#
# This file is available in the Crystallography Open Database (COD),
# http://www.crystallography.net/
#
# All data on this site have been placed in the public domain by the
# contributors.
#
data_7710843
loop_
_publ_author_name
'Yan, Yong'
'Zhang, Ningning'
'B\"orner, Martin'
'Kersting, Berthold'
'Krautscheid, Harald'
_publ_section_title
;
 Hydroxamate based transition metal-organic coordination polymers with
 semiconductive properties
;
_journal_name_full               'Dalton Transactions'
_journal_paper_doi               10.1039/D2DT01359B
_journal_year                    2022
_chemical_formula_sum            'C28 H16 Mn2 N4 O16'
_chemical_formula_weight         774.33
_space_group_crystal_system      triclinic
_space_group_IT_number           2
_space_group_name_Hall           '-P 1'
_space_group_name_H-M_alt        'P -1'
_atom_sites_solution_hydrogens   mixed
_atom_sites_solution_primary     direct
_atom_sites_solution_secondary   difmap
_audit_creation_method           SHELXL-2014/7
_audit_update_record
;
2022-07-07 deposited with the CCDC.	2022-07-28 downloaded from the CCDC.
;
_cell_angle_alpha                76.213(3)
_cell_angle_beta                 80.550(3)
_cell_angle_gamma                68.314(3)
_cell_formula_units_Z            1
_cell_length_a                   7.0493(3)
_cell_length_b                   9.1088(4)
_cell_length_c                   11.3580(4)
_cell_measurement_reflns_used    13333
_cell_measurement_temperature    180(2)
_cell_measurement_theta_max      70.87
_cell_measurement_theta_min      4.02
_cell_volume                     655.82(5)
_computing_cell_refinement       'STOE X-AREA'
_computing_data_collection       'STOE X-AREA'
_computing_data_reduction        'STOE X-AREA'
_computing_molecular_graphics    'Olex2 (Dolomanov et al., 2009)'
_computing_publication_material  'Olex2 (Dolomanov et al., 2009)'
_computing_structure_refinement  'SHELXL-2014/7 (Sheldrick, 2014)'
_computing_structure_solution    SHELXS
_diffrn_ambient_temperature      180(2)
_diffrn_measured_fraction_theta_full 0.993
_diffrn_measured_fraction_theta_max 0.976
_diffrn_measurement_device_type  'STOE STADIVARI'
_diffrn_measurement_method       'rotation method, \w scans'
_diffrn_radiation_type           CuK\a
_diffrn_radiation_wavelength     1.54186
_diffrn_reflns_av_R_equivalents  0.0296
_diffrn_reflns_av_unetI/netI     0.0172
_diffrn_reflns_Laue_measured_fraction_full 0.993
_diffrn_reflns_Laue_measured_fraction_max 0.976
_diffrn_reflns_limit_h_max       7
_diffrn_reflns_limit_h_min       -8
_diffrn_reflns_limit_k_max       4
_diffrn_reflns_limit_k_min       -10
_diffrn_reflns_limit_l_max       12
_diffrn_reflns_limit_l_min       -13
_diffrn_reflns_number            12606
_diffrn_reflns_point_group_measured_fraction_full 0.993
_diffrn_reflns_point_group_measured_fraction_max 0.976
_diffrn_reflns_theta_full        67.686
_diffrn_reflns_theta_max         70.835
_diffrn_reflns_theta_min         4.022
_diffrn_source                   'GeniX 3D HF Cu'
_exptl_absorpt_coefficient_mu    8.735
_exptl_absorpt_correction_T_max  0.5517
_exptl_absorpt_correction_T_min  0.1973
_exptl_absorpt_correction_type   multi-scan
_exptl_absorpt_process_details
;
STOE X-Red32, absorption correction by Gaussian integration, analogous to
P. Coppens, "The Evaluation of Absorption and Extinction in Single-Crystal
Structure Analysis", published in: F. R. Ahmed (Editor), "Crystallographic
Computing", Munksgaard, Copenhagen (1970), 255 - 270. Afterwards scaling of
reflection intensities was performed within STOE LANA. J. Koziskova, F. Hahn,
J. Richter, J. Kozisek, Acta Chimica Slovaca, vol. 9, no. 2, 2016, pp. 136-140.
;
_exptl_crystal_colour            brown
_exptl_crystal_density_diffrn    1.961
_exptl_crystal_description       block
_exptl_crystal_F_000             390
_exptl_crystal_size_max          0.100
_exptl_crystal_size_mid          0.060
_exptl_crystal_size_min          0.030
_refine_diff_density_max         0.483
_refine_diff_density_min         -0.560
_refine_diff_density_rms         0.071
_refine_ls_extinction_method     none
_refine_ls_goodness_of_fit_ref   1.064
_refine_ls_hydrogen_treatment    constr
_refine_ls_matrix_type           full
_refine_ls_number_parameters     227
_refine_ls_number_reflns         2474
_refine_ls_number_restraints     0
_refine_ls_restrained_S_all      1.064
_refine_ls_R_factor_all          0.0356
_refine_ls_R_factor_gt           0.0320
_refine_ls_shift/su_max          0.001
_refine_ls_shift/su_mean         0.000
_refine_ls_structure_factor_coef Fsqd
_refine_ls_weighting_details
'w=1/[\s^2^(Fo^2^)+(0.0647P)^2^+0.1879P] where P=(Fo^2^+2Fc^2^)/3'
_refine_ls_weighting_scheme      calc
_refine_ls_wR_factor_gt          0.0883
_refine_ls_wR_factor_ref         0.0924
_reflns_Friedel_coverage         0.000
_reflns_number_gt                2277
_reflns_number_total             2474
_reflns_threshold_expression     'I > 2\s(I)'
_cod_data_source_file            d2dt01359b2.cif
_cod_data_source_block           Mn-ONDI-2
_cod_database_code               7710843
_shelx_shelxl_version_number     2014/7
_shelx_space_group_comment
;
The symmetry employed for this shelxl refinement is uniquely defined
by the following loop, which should always be used as a source of
symmetry information in preference to the above space-group names.
They are only intended as comments.
;
_shelx_estimated_absorpt_t_min   0.475
_shelx_estimated_absorpt_t_max   0.780
_shelx_res_file
;

    Mn-ONDI-2.res created by SHELXL-2014/7


TITL Mn-ONDI-2 in P-1: [Mn(ONDI)(H2O)]*H2O
CELL 1.54186  7.0493  9.1088  11.358  76.213  80.55  68.314
ZERR 1        0.0003  0.0004   0.0004  0.003  0.003   0.003
LATT 1
SFAC C H Mn N O
UNIT 28 16 2 4 16
SIZE 0.03 0.06 0.1
TEMP -93.15
OMIT 0 -3 12

L.S. 6
PLAN  -5
CONF
BOND $H
list 4
MORE -1
fmap 2 53
acta

WGHT    0.064700    0.187900
FVAR       0.48079
MN1   3    0.242472    0.363423    0.505751    11.00000    0.02886    0.02183 =
         0.01278    0.00011   -0.00903   -0.00612
C1    1    0.077400    0.411918    0.274910    11.00000    0.02165    0.02254 =
         0.01571    0.00071   -0.00631   -0.00628
C2    1    0.062928    0.690069    0.179255    11.00000    0.02045    0.02145 =
         0.01525   -0.00127   -0.00397   -0.00613
C3    1    0.030432    0.662040    0.061730    11.00000    0.01928    0.02021 =
         0.01607   -0.00283   -0.00549   -0.00541
C4    1    0.005627    0.783363   -0.040054    11.00000    0.02422    0.01835 =
         0.01861   -0.00209   -0.00375   -0.00763
AFIX  43
H4    2    0.011860    0.884023   -0.034861    11.00000   -1.20000
AFIX   0
C5    1   -0.028785    0.759468   -0.151385    11.00000    0.02482    0.02221 =
         0.01398    0.00234   -0.00541   -0.00747
AFIX  43
H5    2   -0.043662    0.843133   -0.221321    11.00000   -1.20000
AFIX   0
C6    1   -0.040928    0.614031   -0.158893    11.00000    0.02023    0.02081 =
         0.01368   -0.00176   -0.00407   -0.00548
C7    1   -0.018014    0.487957   -0.055548    11.00000    0.01890    0.02059 =
         0.01420   -0.00084   -0.00363   -0.00528
N1    4    0.073828    0.562412    0.278421    11.00000    0.02523    0.02129 =
         0.01252   -0.00333   -0.00545   -0.00615
O1    5    0.075120    0.815131    0.191896    11.00000    0.03366    0.02297 =
         0.01827   -0.00382   -0.00574   -0.01017
O2    5    0.083231    0.589380    0.390836    11.00000    0.03272    0.02384 =
         0.01090   -0.00209   -0.00821   -0.00740
O3    5    0.110147    0.304780    0.367058    11.00000    0.03338    0.02256 =
         0.01386    0.00171   -0.00889   -0.00942

C8    1    0.458831    0.339882    0.839886    11.00000    0.02017    0.01819 =
         0.01754   -0.00295   -0.00543   -0.00408
C9    1    0.398429    0.157033    0.731470    11.00000    0.02149    0.01885 =
         0.01657   -0.00219   -0.00540   -0.00569
C10   1    0.445384    0.027297    0.839398    11.00000    0.02155    0.01666 =
         0.01496   -0.00067   -0.00556   -0.00603
C11   1    0.441491   -0.122700    0.837299    11.00000    0.02361    0.02062 =
         0.01664   -0.00414   -0.00687   -0.00663
AFIX  43
H11   2    0.416681   -0.144420    0.764595    11.00000   -1.20000
AFIX   0
C12   1    0.474430   -0.243042    0.943299    11.00000    0.02244    0.01638 =
         0.01915   -0.00292   -0.00540   -0.00709
AFIX  43
H12   2    0.473469   -0.346516    0.941547    11.00000   -1.20000
AFIX   0
C13   1    0.508088   -0.212178    1.049680    11.00000    0.01944    0.01672 =
         0.01523   -0.00072   -0.00521   -0.00573
C14   1    0.515250   -0.060458    1.053216    11.00000    0.01921    0.01701 =
         0.01529   -0.00137   -0.00455   -0.00542
N2    4    0.402143    0.304989    0.740109    11.00000    0.02660    0.01710 =
         0.01383    0.00186   -0.00761   -0.00786
O4    5    0.348345    0.140884    0.637637    11.00000    0.03323    0.02107 =
         0.01423    0.00021   -0.00901   -0.01005
O5    5    0.349355    0.427099    0.643028    11.00000    0.03542    0.01886 =
         0.01367    0.00464   -0.01069   -0.00997
O6    5    0.473238    0.470882    0.832651    11.00000    0.03583    0.01770 =
         0.01972    0.00056   -0.00872   -0.01142

O1W   5    0.539331    0.300938    0.403552    11.00000    0.03428    0.02541 =
         0.02010    0.00122   -0.00340   -0.01217
AFIX   7
H1WA  2    0.564931    0.388710    0.367421    11.00000   -1.50000
H1WB  2    0.635583    0.249912    0.453534    11.00000   -1.50000
AFIX   0

O2W   5    0.847205    0.127785    0.561172    11.00000    0.06192    0.04543 =
         0.05722   -0.01644   -0.02525   -0.00989
AFIX   3
H2WB  2    0.963695    0.134045    0.525362    11.00000   -1.50000
H2WA  2    0.825095    0.174705    0.622942    11.00000   -1.50000

AFIX   0
HKLF 4

REM  Mn-ONDI-2 in P-1: [Mn(ONDI)(H2O)]*H2O
REM R1 =  0.0320 for    2277 Fo > 4sig(Fo)  and  0.0356 for all    2474 data
REM    227 parameters refined using      0 restraints

END

WGHT      0.0639      0.1995

REM Highest difference peak  0.483,  deepest hole -0.560,  1-sigma level  0.071
Q1    1   0.1176  0.4557  0.4646  11.00000  0.05    0.48
Q2    1   0.3764  0.2819  0.5419  11.00000  0.05    0.45
Q3    1   0.0220  0.6819  0.1186  11.00000  0.05    0.29
Q4    1   0.4256  0.0853  0.7978  11.00000  0.05    0.29
Q5    1  -0.0125  0.4571  0.1175  11.00000  0.05    0.28
;
_shelx_res_checksum              62897
_shelx_hkl_file
;
   2  -5  -9   14.46    1.23
   2   1  -8    2.10    0.99
   1  -2 -12   33.56    1.32
   2  -4 -10   41.97    1.64
   3  -2  -7  337.27    3.97
   3  -1  -7   15.13    1.20
   0  -5 -13   12.08    0.97
   1  -4 -12    0.09    0.88
   2  -1 -10   53.55    1.88
   3  -2  -6   62.26    1.85
   0  -3 -13    5.58    0.84
   1  -3 -12   28.85    1.30
   2  -5  -8   10.89    1.29
   2   0  -9   41.68    1.55
   0  -7 -11   29.33    1.25
   0  -4 -13   48.14    1.25
   1  -6 -10   39.28    1.43
   2  -5  -7   35.08    1.58
   2  -5  -6   53.65    1.91
   2  -3 -10    7.70    1.01
   2  -2 -10    0.94    1.24
   1  -5 -11   42.68    1.53
   1  -1 -11    7.30    1.32
   2  -4  -9   58.57    1.93
   0  -6 -12    5.34    1.04
   1   0 -10   74.10    2.00
   2   0  -8   86.91    2.14
   1  -6  -9   17.01    1.16
   1  -2 -11    3.56    1.25
   2  -3  -9   30.60    1.52
   2  -2  -9   -0.14    1.42
   1  -4 -11   -1.34    1.02
  -1  -3 -13   71.11    1.79
   0  -7 -10   75.08    1.75
   0  -5 -12    1.84    0.87
   0  -2 -12   37.67    1.54
   1  -5 -10   12.54    1.31
   1  -3 -11    6.48    1.33
   2  -4  -7   90.38    2.34
   2  -4  -6   69.13    2.06
   2  -1  -8   23.58    1.50
  -1  -5 -13   41.12    1.27
   1  -6  -8  213.74    3.05
   2  -3  -8    2.89    1.32
  -1  -8 -10    1.36    0.87
  -1  -4 -13    0.61    0.80
   0  -3 -12   26.62    1.47
   1  -6  -7  236.40    3.15
   1  -1 -10   33.87    1.48
   1   0  -9   53.69    1.85
   2  -2  -8    0.10    1.01
   0  -4 -12   92.08    1.91
   0  -1 -11   13.38    1.25
   2  -3  -7   60.18    1.93
   0  -7  -9   44.20    1.57
   1  -5  -9    4.71    1.51
   1  -4 -10    1.65    1.20
  -2  -3 -13   12.76    1.14
   1  -3 -10    5.42    1.45
  -2  -6 -13    1.70    0.95
  -1  -2 -12  125.69    2.34
   0  -7  -8  136.71    2.50
  -1  -7 -11    3.53    1.00
  -1  -6 -12   47.41    1.50
   0  -5 -11   26.59    1.54
   1  -5  -8   16.02    1.44
   1  -1  -9   84.18    2.35
  -2  -8 -11  102.92    1.96
  -2  -4 -13   92.20    1.83
   0  -6 -10    2.97    1.24
   0  -2 -11   -0.37    1.19
   1  -4  -9   14.92    1.51
  -2  -5 -13   38.37    1.22
   0  -4 -11   21.36    1.46
   1  -5  -7   26.61    1.66
  -2  -7 -12   18.29    1.22
  -1  -5 -12   75.79    1.92
  -1  -3 -12   68.79    1.98
   0  -3 -11   35.66    1.54
   1  -3  -9    4.97    1.43
   1  -2  -9   41.89    1.63
  -1  -4 -12   -0.07    1.05
   0  -1 -10  186.42    2.97
   1  -5  -6   84.77    1.98
  -3  -6 -13   31.44    1.08
  -3  -4 -13    6.74    0.86
   0  -6  -9   20.38    1.49
   1  -4  -8    5.51    1.06
  -3  -5 -13    2.45    0.81
  -1  -7 -10   66.90    1.90
  -1  -6 -11   93.44    2.14
   0  -5 -10   44.27    1.70
   0  -2 -10   14.32    1.58
   1  -4  -7    0.70    1.18
   1  -3  -8   84.77    2.28
  -2  -8 -10  108.31    1.97
  -2  -6 -12    3.87    0.86
   0  -6  -8    3.14    1.41
   0  -4 -10   41.23    1.82
  -2  -3 -12   32.32    1.66
  -1  -2 -11  202.98    3.00
   0  -3 -10   17.91    1.60
  -1  -7  -9   26.08    1.48
  -1  -5 -11    8.59    1.30
   0  -5  -9   41.97    1.93
   0  -1  -9  225.89    3.13
  -3  -8 -11    1.22    0.98
  -2  -5 -12   39.15    1.58
  -2  -4 -12  150.40    2.68
  -1  -3 -11  148.90    2.86
   0  -6  -7   18.54    1.42
  -2  -8  -9   38.02    1.68
  -1  -6 -10  138.47    2.67
  -1  -4 -11    1.44    1.32
  -1  -1 -10    2.38    1.25
  -3  -3 -12   60.47    1.79
   0  -4  -9   55.62    2.05
   0  -2  -9    3.19    1.10
  -1  -7  -8    8.59    1.34
   0  -5  -8   59.87    2.14
   0  -3  -9   16.29    1.59
  -4  -7 -12    4.43    1.05
  -3  -6 -12    7.80    1.04
  -2  -2 -11   60.28    1.80
  -3  -4 -12    1.54    1.02
  -2  -8  -8   12.80    1.19
  -2  -7 -10   83.28    2.18
  -2  -6 -11    2.97    0.84
  -1  -5 -10  104.36    2.51
  -1  -2 -10   60.76    2.06
  -3  -8 -10   18.15    1.20
  -3  -5 -12   15.83    1.20
  -1  -7  -7    7.86    1.34
  -1  -6  -9  174.76    3.18
   0  -5  -7   28.18    1.65
  -4  -4 -12   41.22    1.48
  -3  -7 -11   18.78    1.26
  -2  -3 -11   67.39    1.98
  -1  -4 -10    0.53    1.33
   0  -4  -8  144.12    2.64
  -4  -9  -9    5.66    0.92
  -4  -6 -12    0.80    0.92
  -2  -5 -11    0.55    0.90
  -1  -1  -9   15.72    1.28
  -4  -5 -12   20.91    1.21
  -2  -4 -11  321.75    3.76
  -1  -6  -8  263.90    3.58
  -2  -7  -9  164.73    2.74
  -2  -6 -10   17.86    1.60
  -1  -5  -9  135.89    2.79
  -3  -8  -9    4.71    1.22
  -3  -6 -11   34.08    1.53
  -4  -8 -10   56.13    1.59
  -4  -7 -11    3.96    0.93
  -3  -3 -11   22.69    1.44
  -2  -2 -10   -1.14    1.23
  -1  -4  -9   -0.75    1.25
  -1  -2  -9   52.08    1.65
  -3  -7 -10    1.11    1.15
  -3  -5 -11   57.27    1.98
  -3  -4 -11    6.07    1.38
  -2  -5 -10   22.58    1.59
  -1  -6  -7  355.49    3.92
  -1  -3  -9   20.06    1.44
  -5  -7 -11   11.93    0.94
  -4  -3 -11   45.19    1.51
  -2  -7  -8  209.69    3.26
  -3  -8  -8    1.03    1.10
  -2  -4 -10    4.53    1.43
  -2  -3 -10   67.33    1.95
  -1  -5  -8   75.53    2.00
  -6  -6 -11    0.95    0.37
  -5  -8 -10    1.66    0.97
  -4  -6 -11    3.49    1.05
  -2  -6  -9    0.84    1.29
  -5  -4 -11   -0.77    1.00
  -4  -4 -11  103.16    2.25
  -3  -2 -10  221.31    3.08
  -5  -9  -8    6.71    1.03
  -5  -6 -11   11.46    1.11
  -4  -8  -9  112.99    2.32
  -3  -6 -10   54.21    1.93
  -2  -7  -7  268.22    3.49
  -5  -5 -11   23.38    1.34
  -4  -7 -10    9.62    1.30
  -3  -8  -7   34.15    1.58
  -2  -5  -9   43.10    1.92
  -2  -2  -9    6.80    1.34
  -3  -5 -10    4.25    1.45
  -3  -3 -10  118.92    2.55
  -5  -9  -7   25.22    1.24
  -5  -7 -10   26.18    1.31
  -2  -4  -9   18.80    1.59
  -2  -3  -9   13.91    1.37
  -6  -7 -10    3.31    0.85
  -4  -6 -10   18.91    1.40
  -6  -8  -9   10.81    1.18
  -5  -3 -10    6.89    1.14
  -4  -8  -8   64.23    1.79
  -4  -3 -10  139.62    2.59
  -3  -7  -8   33.21    1.84
  -3  -6  -9   79.83    2.27
  -6  -9  -7   -0.19    0.88
  -6  -4 -10    5.14    1.07
  -4  -7  -9   73.47    2.10
  -6  -6 -10    0.54    0.83
  -5  -6 -10   39.80    1.59
  -4  -5 -10    3.96    1.25
  -4  -4 -10  533.69    4.93
  -3  -2  -9  169.47    2.77
  -2  -6  -7   41.33    1.73
  -2  -5  -8   10.13    1.36
  -7  -7  -9   11.48    1.02
  -6  -5 -10   41.38    1.46
  -5  -4 -10   13.60    1.34
  -4  -8  -7   57.22    1.79
  -3  -5  -9   37.76    1.76
  -6  -9  -6    3.15    0.89
  -5  -8  -8   50.40    1.74
  -3  -7  -7   18.18    1.56
  -3  -4  -9   -2.43    1.31
  -3  -3  -9   20.09    1.57
  -7  -6  -9   14.95    0.96
  -6  -7  -9    7.41    0.98
  -5  -7  -9    1.37    1.01
  -4  -6  -9   -0.04    1.24
  -4  -2  -9    1.19    1.20
  -3  -6  -8  149.14    2.84
  -7  -5  -9   57.02    1.51
  -4  -8  -6   34.84    1.52
  -4  -5  -9    6.12    1.44
  -3  -7  -6    0.24    1.14
  -6  -6  -9    4.26    1.11
  -5  -8  -7    1.69    1.13
  -5  -6  -9   58.21    1.89
  -4  -3  -9  186.63    3.01
  -7  -7  -8    2.35    0.82
  -6  -4  -9  260.76    3.17
  -5  -3  -9   75.48    2.05
  -3  -5  -8  151.41    2.64
  -6  -8  -7   25.69    1.34
  -5  -7  -8    3.61    1.21
  -5  -5  -9   15.04    1.40
  -6  -7  -8    5.87    1.11
  -5  -4  -9   21.56    1.55
  -4  -7  -7  586.10    5.08
  -4  -6  -8    6.59    1.39
  -3  -7  -5    9.69    1.14
  -3  -4  -8   15.49    1.25
  -7  -6  -8   35.50    1.35
  -7  -4  -8   58.61    1.62
  -5  -8  -6   31.32    1.46
  -7  -8  -6   14.05    1.02
  -7  -5  -8   59.53    1.61
  -4  -2  -8   -0.65    1.19
  -6  -8  -6   28.87    1.30
  -5  -6  -8   39.65    1.73
  -4  -5  -8   43.14    1.71
  -3  -5  -7  227.15    3.10
  -7  -7  -7   -0.69    0.86
  -6  -6  -8    0.13    1.05
  -6  -3  -8  114.26    2.28
  -4  -7  -6   48.18    1.82
  -3  -6  -6  185.09    2.68
  -5  -8  -5   17.53    1.30
  -4  -6  -7  172.09    2.90
  -4  -4  -8  104.53    2.23
  -4  -3  -8  119.51    2.29
  -7  -8  -5   72.38    1.64
  -6  -7  -7   36.08    1.40
  -6  -5  -8    2.28    1.26
  -6  -4  -8   47.11    1.70
  -5  -5  -8    4.18    1.31
  -5  -3  -8   10.14    1.38
  -7  -3  -7    5.07    1.05
  -5  -4  -8    0.35    1.33
  -8  -7  -5  133.98    1.93
  -8  -4  -6    9.47    0.90
  -7  -6  -7   31.03    1.42
  -6  -8  -5   38.94    1.49
  -5  -7  -6    8.81    1.39
  -5  -6  -7   20.26    1.59
  -4  -7  -5    9.84    1.27
  -7  -8  -4    2.35    0.81
  -7  -7  -6    5.18    0.78
  -7  -5  -7   20.44    1.24
  -7  -4  -7   13.84    1.10
  -6  -6  -7   -0.21    1.08
  -4  -5  -7    1.46    1.12
  -6  -8  -4    5.38    1.04
  -6  -7  -6  461.80    4.22
  -7  -8  -3   16.79    1.12
  -4  -4  -7   47.14    1.67
  -8  -7  -4   15.24    1.03
  -6  -5  -7   24.68    1.61
  -5  -5  -7   16.45    1.56
  -5  -2  -7   99.62    2.24
  -4  -7  -4   30.00    1.43
  -4  -3  -7    3.56    1.10
  -8  -6  -5   22.29    1.06
  -7  -6  -6    8.85    1.04
  -6  -8  -3    6.45    1.02
  -6  -3  -7  168.57    2.81
  -5  -7  -5   -0.78    1.05
  -7  -7  -5   13.76    1.15
  -6  -4  -7   82.30    2.24
  -5  -3  -7   11.97    1.37
  -8  -7  -3    5.91    0.86
  -8  -5  -5    4.80    0.81
  -8  -4  -5   25.29    1.08
  -6  -7  -5   10.01    1.28
  -5  -6  -6  791.40    5.79
  -7  -5  -6    5.82    1.11
  -7  -3  -6    5.68    1.14
  -6  -6  -6  174.23    2.88
  -4  -6  -5   92.91    2.09
  -4  -5  -6   42.46    1.44
  -8  -7  -2    2.10    1.02
  -7  -4  -6   23.52    1.42
  -8  -6  -4   87.43    1.66
  -5  -7  -4    8.49    1.38
  -7  -6  -5  508.20    4.20
  -6  -5  -6    5.76    1.31
  -6  -2  -6    8.37    1.15
  -5  -5  -6  107.34    2.30
  -8  -3  -4   29.43    1.11
  -7  -2  -5   22.14    1.28
  -6  -7  -4   16.53    1.32
  -8  -5  -4    5.84    0.95
  -6  -3  -6   71.82    2.03
  -8  -6  -3    1.14    0.82
  -7  -7  -3    8.07    1.16
  -6  -6  -5  110.61    2.22
  -5  -7  -3    0.20    1.09
  -5  -4  -6   22.61    1.45
  -5  -2  -6  125.43    2.30
  -8  -2  -3    4.00    0.75
  -7  -5  -5   61.66    1.86
  -5  -3  -6    0.09    1.25
  -7  -6  -4    7.78    1.18
  -7  -3  -5    4.10    1.08
  -6  -7  -3   23.85    1.44
  -8  -6  -2    4.03    0.86
  -7  -7  -2    4.70    0.97
  -8  -5  -3    0.93    0.84
  -6  -5  -5   14.27    1.27
  -5  -7  -2    0.95    1.12
  -5  -6  -4   19.49    1.39
  -5  -5  -5   56.22    1.91
  -8  -3  -3    7.68    0.95
  -7  -7  -1    0.42    0.94
  -6  -7  -2   27.49    1.32
  -6  -6  -4    6.88    1.20
  -5  -5 -11   17.19    1.03
  -4   1 -10   74.70    1.85
  -3  -3 -11   18.46    1.27
  -2   0 -10   16.25    1.19
  -5  -1 -11   36.17    1.23
  -3  -2 -11   75.90    1.82
  -2  -2 -10   -0.05    1.26
  -2  -1 -10    5.35    1.29
  -2   3  -7  192.82    2.66
  -4  -4 -11  101.47    1.95
  -4  -1 -11   83.69    1.90
  -1   1  -8  505.18    4.18
  -6  -4 -11    5.30    1.06
  -2   1  -9   40.61    1.72
  -6  -3 -11    2.93    0.88
  -4  -3 -11   46.70    1.67
  -4  -2 -11   16.13    1.24
  -3  -4 -10    2.04    1.05
  -3   0 -10    7.05    1.37
  -2   2  -8   19.43    1.21
  -5  -4 -11   -0.28    0.96
  -5  -2 -11   50.14    1.44
  -5   1  -9   35.13    1.27
  -6  -1 -10   33.66    1.11
  -4   0 -10  202.69    2.81
  -2  -3  -9   16.96    1.23
  -4   2  -8   14.79    1.22
  -3  -1 -10   44.89    1.73
  -3   2  -8   31.40    1.65
  -2   0  -9  358.62    3.70
  -6   0  -9  120.88    1.82
  -4   1  -9   59.90    1.83
  -3  -3 -10  118.86    2.30
  -3  -2 -10  227.88    3.06
  -2  -2  -9    7.44    0.99
  -2  -1  -9   42.45    1.55
  -5  -1 -10   25.92    1.32
  -4  -1 -10   42.99    1.65
  -2   2  -7    0.51    1.09
  -6  -5 -10   40.35    1.23
  -6  -2 -10   17.39    0.95
  -5  -5 -10   84.42    1.75
  -4  -4 -10  529.83    4.29
  -3  -4  -9    0.05    1.03
  -3   0  -9   17.25    1.51
  -7  -2  -9   24.64    1.11
  -4  -3 -10  141.20    2.58
  -4  -2 -10   10.94    1.43
  -6  -4 -10    6.51    0.93
  -6  -3 -10    2.74    0.96
  -5  -4 -10   14.47    1.13
  -5  -2 -10   33.00    1.40
  -5   1  -8  208.52    2.70
  -4   0  -9  197.05    2.94
  -3   1  -8  200.27    3.01
  -3   2  -7   56.93    1.78
  -6   1  -7    2.51    0.73
  -5  -3 -10    6.23    1.16
  -4   2  -7   11.00    1.22
  -3  -3  -9   18.60    1.35
  -3  -1  -9   17.82    1.41
  -6  -1  -9   28.59    1.31
  -4   1  -8   69.81    1.95
  -3  -2  -9  166.86    2.70
  -7  -5  -9   59.10    1.44
  -7  -3  -9    2.12    0.97
  -6   0  -8  406.24    3.51
  -5  -1  -9   13.16    1.29
  -4  -4  -9   71.01    1.86
  -4  -1  -9    6.90    1.00
  -6  -2  -9   -0.41    0.94
  -5  -5  -9   12.37    1.14
  -3   0  -8   73.77    1.84
  -7  -6  -8   11.83    0.93
  -6  -5  -9    0.77    1.03
  -4  -3  -9  185.08    2.86
  -4  -2  -9    1.04    1.16
  -3   2  -6   42.31    1.64
  -7  -2  -8   62.57    1.51
  -5  -2  -9  103.86    2.19
  -5   1  -7  157.44    2.48
  -4   0  -8  356.00    3.86
  -4   2  -6    3.43    1.15
  -3   1  -7  273.37    3.23
  -7   0  -6    9.38    0.86
  -6  -4  -9  265.64    3.06
  -6  -3  -9   51.34    1.49
  -6   1  -6    7.61    0.99
  -5  -4  -9   18.37    1.36
  -3  -1  -8   21.43    1.33
  -6  -1  -8   10.00    1.15
  -5  -3  -9   75.67    1.84
  -4   1  -7    1.44    0.94
  -3  -2  -8  192.10    2.66
  -6   0  -7   58.86    1.78
  -8  -4  -7    8.09    0.82
  -7  -5  -8   54.46    1.48
  -7  -3  -8   41.54    1.39
  -4  -1  -8   19.17    1.44
  -5  -1  -8    4.71    1.28
  -6  -2  -8    6.58    1.14
  -5  -5  -8    4.17    1.01
  -4  -4  -8  108.20    2.12
  -6  -5  -8   -0.24    0.90
  -5   1  -6   91.49    2.07
  -4  -3  -8  113.25    2.26
  -4  -2  -8   -0.50    1.16
  -4   2  -5    4.10    0.97
  -7  -6  -7   25.30    1.15
  -7  -2  -7   35.66    1.45
  -5  -2  -8   74.85    2.05
  -4   0  -7  149.73    2.53
  -7   0  -5   15.29    1.02
  -6  -4  -8   45.71    1.67
  -6  -3  -8  113.67    2.28
  -6   1  -5    9.46    1.04
  -5  -4  -8    1.01    1.04
  -4   1  -6   73.97    1.89
  -8  -3  -6   35.69    1.09
  -6  -1  -7   27.35    1.46
  -5  -3  -8    6.78    1.33
  -6   0  -6   49.04    1.62
  -8  -5  -6   24.56    1.02
  -8  -4  -6   12.59    1.03
  -8  -2  -5   13.98    0.83
  -7  -5  -7   18.59    1.12
  -7  -3  -7    3.26    0.90
  -7  -4  -7   14.38    1.12
  -5  -1  -7    5.16    1.27
  -4  -1  -7   10.52    1.03
  -6  -2  -7   19.75    1.34
  -4  -4  -7   45.77    1.58
  -8  -6  -5   11.73    0.97
  -6  -5  -7   26.72    1.36
  -5  -5  -7   14.69    1.15
  -5   0  -6   16.24    1.47
  -5   1  -5   76.74    1.90
  -4  -2  -7   14.68    1.15
  -8  -1  -3   24.84    0.98
  -7  -6  -6    8.26    0.90
  -7  -2  -6   41.75    1.55
  -7   0  -4    1.46    1.02
  -6   1  -4   11.59    1.15
  -5  -2  -7  107.24    2.30
  -4  -3  -7    5.00    1.05
  -8  -3  -5   43.32    1.22
  -6  -4  -7   83.31    2.05
  -6  -3  -7  171.99    2.79
  -6  -1  -6    6.10    1.18
  -4   1  -5   91.17    1.96
  -8  -2  -4    9.20    0.82
  -6   0  -5   76.63    2.00
  -5  -4  -7    8.73    1.21
  -5  -3  -7   11.54    1.28
  -8  -5  -5    1.80    0.81
  -8  -4  -5   26.71    1.15
  -7  -3  -6    5.72    1.01
  -7  -5  -6    3.85    1.04
  -8  -1  -2    4.80    0.71
  -7  -4  -6   27.27    1.32
  -5  -1  -6  105.91    2.27
  -8  -6  -4   78.48    1.49
  -7   0  -3    3.64    1.08
  -6  -2  -6   10.12    1.25
  -6   1  -3   21.42    1.40
  -5   1  -4   31.04    1.44
  -8  -3  -4   29.07    1.13
  -7  -2  -5   28.10    1.42
  -6  -5  -6    5.87    1.21
  -5  -5  -6  102.47    2.00
  -5   0  -5    7.00    1.20
  -8  -2  -3    6.95    1.01
  -7  -6  -5  492.59    3.72
  -7  -1  -4   85.84    1.99
  -6  -3  -6   66.87    2.02
  -5  -2  -6  130.10    2.39
  -8  -4  -4   20.33    1.08
  -6  -1  -5   29.52    1.51
  -6   0  -4   37.92    1.55
  -8  -1  -1    0.58    0.56
  -7  -3  -5    4.47    1.04
  -5  -4  -6   20.08    1.36
  -5  -3  -6    0.82    1.05
  -8  -6  -3    0.80    0.74
  -7  -5  -5   63.72    1.66
  -6  -6  -5  102.79    1.91
  -7  -4  -5    3.73    1.07
  -7   0  -2    1.78    0.97
  -8  -3  -3    8.79    0.87
  -8  -1   0    1.12    0.52
  -7  -2  -4  122.16    2.37
  -6  -2  -5    0.62    1.12
  -6   1  -2   60.47    1.66
  -5  -1  -5  307.25    3.32
  -7  -6  -4    6.66    0.91
  -7  -1  -3   13.31    1.31
  -5   1  -3   41.92    1.49
  -8  -4  -3    9.69    0.89
  -6  -5  -5   14.45    1.23
  -5   0  -4    0.11    0.90
  -8  -6  -2    2.00    0.78
  -6  -3  -5   27.86    1.57
  -6  -1  -4   63.56    1.94
  -6   0  -3   56.03    1.78
  -5  -5  -5   58.61    1.63
  -5  -2  -5  240.58    2.93
  -7  -3  -4    1.01    1.03
  -7   0  -1   19.68    1.13
  -8  -3  -2    9.45    0.78
  -7  -5  -4   21.34    1.27
  -7  -4  -4    1.78    1.00
  -5  -4  -5   -0.89    0.95
  -5  -3  -5    1.06    0.89
  -6   1  -1   30.34    1.29
  -8  -6  -1   16.91    1.02
  -8  -4  -2   25.42    1.12
  -7  -6  -3    4.66    1.02
  -7  -2  -3   20.87    1.19
  -7  -1  -2   27.23    1.34
  -6  -2  -4    0.04    1.21
  -7   0   0   33.81    1.25
  -5  -1  -4   47.46    1.41
  -5   1  -2   46.25    1.56
  -8  -3  -1   15.13    0.99
  -6   0  -2   65.67    1.83
  -5   0  -3    2.50    0.97
  -8  -6   0    2.27    0.79
  -8  -2   1    0.44    0.63
  -7  -3  -3    7.02    1.09
  -6  -5  -4    1.45    1.05
  -6  -3  -4    4.52    1.27
  -8  -4  -1   33.51    1.19
  -7  -5  -3    7.59    1.10
  -7  -4  -3    8.04    1.10
  -5  -5  -4   74.81    1.66
  -8  -3   0   25.65    1.06
  -8  -2   2    0.95    0.49
  -7  -2  -2   60.20    1.78
  -7  -1  -1  140.51    2.30
  -7   0   1    1.80    0.81
  -7  -6  -2   27.91    1.24
  -6  -6  -3    3.61    0.85
  -8  -4   0    0.96    0.68
  -6  -2  -3    4.45    1.20
  -8  -3   1   31.67    1.03
  -7   0   2    3.99    0.75
  -6   0  -1   30.44    1.48
  -5   1  -1   13.06    1.08
  -8  -5   1    2.13    0.78
  -8  -3   2   10.09    0.73
  -7  -5  -2    4.88    1.07
  -7  -3  -2   -0.51    0.78
  -7  -1   0  113.03    2.02
  -8  -5   2    0.84    0.63
  -8  -4   1   68.62    1.39
  -7  -4  -2    3.68    1.06
  -7  -2  -1   75.20    1.86
  -7   0   3   11.39    0.84
  -6  -5  -3    6.27    1.13
  -6  -3  -3    7.91    1.28
  -8  -4   2    2.03    0.73
  -7  -6  -1    6.90    1.00
  -6  -6  -2   11.01    0.94
  -7  -1   1   21.00    1.12
  -7  -5  -1   21.60    1.24
  -7  -3  -1    8.82    0.88
  -6  -2  -2    1.98    1.08
  -6   0   0   48.12    1.63
  -7  -6   0    5.36    0.99
  -7  -4  -1    4.34    1.12
  -7  -2   0   38.63    1.46
  -5   1   0    5.72    0.95
  -7  -1   2    1.88    0.89
  -6  -5  -2    0.66    0.91
  -6  -3  -2   32.56    1.28
  -7  -6   1   31.04    1.19
  -7  -5   0  160.02    2.32
  -7  -3   0    2.65    0.95
  -7  -1   3    2.94    0.78
  -6  -6  -1    3.97    0.85
  -7  -4   0   83.72    1.88
  -7  -2   1   34.82    1.23
  -7  -1   4   12.10    0.86
  -7  -1   5   38.19    1.00
  -6   0   1  268.74    3.10
  -7  -6   2   14.85    0.92
  -6  -2  -1   22.36    1.38
  -7  -6   3    9.52    0.74
  -5   1   1  106.61    1.91
  -7  -3   1    2.37    0.91
  -7  -2   2   16.92    0.99
  -6  -5  -1    2.05    0.92
  -7  -4   1   98.96    1.93
  -6  -6   0    9.65    1.00
  -6  -3  -1  128.47    2.32
  -6   0   2  200.17    2.63
  -7  -2   3    2.43    0.81
  -7  -4   2    5.11    0.91
  -7  -3   2    3.72    0.71
  -7  -3   6    0.63    0.59
  -7  -2   4    4.34    0.85
  -7  -3   3    2.98    0.78
  -6  -2   0    1.17    0.82
  -6  -1   1    6.78    1.25
  -6   0   3  147.42    2.26
  -7  -4   3    3.30    0.77
  -7  -4   5    1.13    0.68
  -7  -3   4    2.85    0.73
  -7  -3   5    3.89    0.69
  -6  -6   1    6.25    1.11
  -6  -5   0    0.14    0.97
  -6   0   7   12.71    0.71
  -5   1   2   42.91    1.46
  -7  -4   4    1.34    0.69
  -6  -3   0  119.44    2.19
  -6  -4   0  183.03    2.59
  -6   0   4   95.61    1.83
  -6   0   6    7.14    0.84
  -6  -2   1   18.30    1.32
  -6  -1   2   20.92    1.33
  -6   0   5    8.49    0.84
  -6  -6   2    2.06    0.83
  -5   1   3  116.80    2.06
  -6  -6   5    5.64    0.62
  -6  -5   1    1.25    0.95
  -6  -6   3  104.83    1.77
  -6  -6   4   54.38    1.32
  -6  -4   1    4.69    1.09
  -6  -3   1   59.18    1.71
  -6  -1   3    3.13    1.12
  -6  -2   2    8.85    1.16
  -6  -1   7    6.75    0.72
  -6  -5   2    5.03    1.09
  -6  -3   8   11.58    0.71
  -6  -1   4    2.78    1.01
  -5  -5   0    8.42    1.03
  -5   1   4   17.95    1.17
  -6  -3   2   82.02    1.87
  -6  -1   5    3.06    0.86
  -6  -1   6    1.47    0.84
  -5   0   2    1.75    0.87
  -6  -5   3    2.21    0.97
  -6  -5   6    0.72    0.66
  -6  -4   2   17.81    1.22
  -6  -2   3   64.49    1.72
  -5   1   5   13.92    0.97
  -1   0  10   84.44    2.22
  -3  -5   7   80.56    1.96
  -1  -3  11   -0.59    0.89
  -1  -2  11   13.49    1.01
   1   0  12   50.92    1.46
  -3  -4   7    0.51    1.21
  -2  -5   9    0.09    1.02
  -3  -3   6    0.19    1.13
  -2  -6   8   42.99    1.42
  -2  -2   9    4.40    0.99
  -2  -1   8    3.39    1.23
  -1  -5  10   76.75    1.61
   0   0  11    5.95    1.10
   0   1  10  177.24    2.73
  -3  -5   6   71.15    1.86
  -2  -4   9  121.63    2.29
  -2  -3   9   42.84    1.79
   1  -1  12  102.70    1.79
   1   1  11   32.93    1.43
  -3  -4   6    7.29    1.27
  -1  -6   9   32.38    1.28
  -1  -1  10    7.21    1.00
  -1   0   9   51.78    1.88
   0  -4  11   20.67    0.94
   1  -2  12  116.64    1.71
  -3  -5   5   91.11    2.12
  -2  -2   8   53.85    1.86
  -1  -4  10   83.21    1.83
  -1  -2  10   61.82    1.92
   0  -1  11    0.70    1.12
  -2  -5   8    0.75    1.14
  -1  -3  10   29.70    1.43
   0  -3  11   59.38    1.60
   0   1   9  214.08    2.89
   2  -1  12    0.15    0.75
  -2  -3   8   32.41    1.70
   0  -2  11   14.70    1.24
   0   0  10   51.11    1.82
  -2  -6   7   25.26    1.27
  -1  -1   9  874.29    5.98
   0  -5  10    1.25    1.02
   1  -4  11    5.24    0.91
   1   0  11    1.57    1.11
  -2  -2   7    1.16    1.02
   1   1  10    1.86    1.12
  -1  -7   7   -0.58    0.89
   0  -6   9    5.05    0.86
  -2  -5   7    2.36    1.09
  -1  -6   8   13.14    1.14
  -1  -2   9   91.41    2.31
  -2  -3   7   24.26    1.43
  -1  -4   9  104.48    2.26
   1  -5  10   11.33    1.00
   1  -3  11    1.69    0.91
   1  -1  11   40.94    1.55
  -2  -6   6   17.95    1.27
  -2  -4   7   35.49    1.51
  -1  -3   9    0.18    1.15
  -1  -1   8  291.32    3.39
   0  -4  10   90.20    1.83
   0   0   9 1294.73    6.93
   0  -2  10   16.89    1.44
   2   0  11   66.45    1.74
   0  -3  10  109.83    2.09
  -2  -5   6    0.26    1.24
   1   0  10    9.61    1.28
   1   1   9   15.20    1.25
  -2  -6   5  105.92    2.13
  -2  -4   6   40.51    1.64
  -1  -7   6    0.25    0.89
  -1  -2   8  191.48    2.90
   0  -7   7    3.97    0.72
   0  -5   9    1.96    1.01
   2  -2  11   18.74    1.23
   2  -1  11   57.25    1.68
  -1  -6   7    6.33    1.07
   1  -4  10   12.88    1.03
   3  -2  11  109.12    1.70
   3  -1  11   95.97    1.82
  -1  -4   8   30.18    1.36
  -1  -3   8    9.17    1.12
   0  -6   8    8.72    1.05
  -2  -5   5    0.34    1.12
   0  -4   9   23.30    1.40
   1  -1  10    6.65    1.36
   0  -2   9   24.89    1.72
   1  -7   7    0.93    0.83
   1  -3  10    1.82    1.15
   2  -4  10    6.27    0.89
  -1  -5   7   11.21    1.42
   0  -3   9  180.28    2.90
   1  -5   9   23.29    1.18
   2   0  10   18.12    1.32
   1   0   9   89.10    2.13
  -1  -6   6   18.96    1.34
  -1  -3   7   22.01    1.38
   0  -5   8   -1.22    1.13
   2  -6   8   10.55    0.89
   2  -5   9    6.56    1.00
   0  -7   6   42.14    1.40
   2  -3  10   27.69    1.42
   0  -6   7   26.11    1.37
   2  -2  10    3.69    1.30
   2  -1  10   11.21    1.04
   3   0  10    6.93    1.32
   0  -4   8  165.20    2.89
   0  -2   8    4.31    1.25
   1  -4   9   27.55    1.27
   1  -1   9  182.28    2.91
   4  -2  10   17.64    1.00
  -1  -5   6   49.61    1.77
   0  -3   8  104.97    2.40
   3  -2  10  147.52    2.39
   4  -1  10   66.15    1.80
  -1  -6   5   88.12    2.05
   1  -7   6    0.66    0.84
   1  -3   9   60.50    1.97
   1  -2   9   14.58    1.53
   3  -1  10  106.60    2.17
  -1  -4   6    3.64    0.89
   1  -5   8   90.55    2.06
   2  -7   6    4.80    1.05
   2  -4   9  100.54    2.02
   0  -7   5   85.78    1.84
   1  -6   7   77.19    1.92
   2   0   9  345.78    3.68
   3  -4   9   14.63    1.07
  -1  -5   5   53.51    1.81
   0  -6   6    6.34    1.12
   2  -5   8   10.58    1.11
   3  -5   8   11.70    0.92
  -1  -6   4   64.68    1.89
   0  -4   7    9.73    1.37
   1  -4   8   57.43    1.87
   2  -3   9   63.54    1.79
   2  -1   9   43.51    1.76
   4  -3   9   12.23    0.99
   0  -3   7   48.25    1.74
   3  -3   9    3.56    1.06
   1  -7   5    7.08    1.25
   1  -3   8   23.06    1.60
   1  -2   8   46.14    1.78
   3   0   9   17.90    1.33
   0  -7   4   88.43    1.92
   4  -4   8   17.00    1.03
   0  -5   6    6.97    1.21
   1  -5   7  421.77    4.07
   2  -7   5    8.56    0.95
   2  -4   8   74.92    1.99
   3  -2   9   91.08    2.23
   3  -1   9  129.90    2.65
   4  -5   7    8.05    0.91
   4  -2   9    0.96    1.06
   5  -3   8    3.49    0.68
   0  -6   5    2.75    1.24
   1  -6   6    3.49    0.97
   4  -1   9   58.89    1.76
   0  -4   6    5.92    1.09
   3  -4   8   14.16    1.22
   1  -4   7   46.21    1.84
   2  -5   7    6.83    1.28
   3  -6   6   59.72    1.51
   2  -3   8  222.08    3.16
   2  -1   8  115.27    2.39
   3  -5   7    6.64    1.03
   1  -7   4   -0.43    1.08
   3  -7   4    0.78    1.04
   5  -2   8  108.46    1.93
   0  -5   5    0.32    1.19
   1  -3   7   37.72    1.46
   3  -3   8   49.71    1.84
   0  -6   4   39.47    1.61
   1  -6   5   11.96    1.31
   2  -7   4   21.57    1.26
   3   0   8   66.28    1.89
   2  -4   7  326.19    3.79
   3  -2   8   33.93    1.80
   5  -1   8  207.29    2.73
   3  -1   8  199.61    3.08
   4  -5   6   19.20    1.06
   4  -4   7   15.76    1.12
   4  -2   8   15.80    1.42
   4   0   8  330.81    3.58
   3  -4   7   24.70    1.52
   4  -1   8   68.04    2.00
   5  -3   7   28.79    1.27
   1  -7   3    8.55    1.17
   1  -4   6   11.33    1.11
   2  -6   5    8.40    1.03
   2  -5   6    7.96    1.35
   2  -3   7  210.31    3.19
   5  -4   6    7.38    0.93
   6  -1   7    1.52    0.83
   0  -6   3  202.09    2.73
   3  -7   3    0.19    0.85
   3  -5   6  239.84    3.10
   1  -5   5   93.25    2.24
   2  -2   7    0.58    1.05
   1  -6   4   75.43    2.06
   2  -7   3   17.64    1.18
   3  -3   7   30.96    1.70
   4  -3   7   59.97    1.88
   5  -2   7   33.12    1.50
   2  -4   6   90.38    2.34
   6  -2   6    7.51    1.04
   2  -6   4    2.13    1.21
   4  -5   5   28.84    1.33
   4  -4   6  221.38    2.97
   5  -5   4   18.46    1.14
   2  -5   5   10.83    1.36
   3  -7   2    8.26    1.01
   3  -4   6   16.78    1.42
   3  -1   7  265.44    3.18
   4  -2   7   13.99    1.49
   5  -1   7  159.60    2.65
   6  -3   5   16.05    0.92
   2  -7   2   21.73    1.44
   2  -3   6  179.74    2.83
   3  -5   5   14.34    1.57
   4  -1   7    2.94    1.33
   4   0   7  143.68    2.54
   1  -6   3   38.39    1.61
   1  -5   4  140.40    2.53
   5  -4   5    3.40    0.95
   6  -1   6    7.58    1.16
   3  -3   6   32.15    1.72
   4  -3   6   71.55    2.10
   2  -4   5   23.67    1.60
   3  -7   1   15.17    1.09
   2  -6   3    2.70    1.10
   3  -6   3   42.71    1.68
   4  -5   4   35.77    1.50
   4  -4   5  149.57    2.68
   5  -5   3    5.98    0.92
   5  -2   6   92.71    2.18
   6  -4   3   40.92    1.34
   2  -7   1 1003.75    5.68
   3  -4   5    9.55    1.38
   6  -2   5    2.01    0.96
   1  -6   2  452.27    4.11
   3  -5   4   31.38    1.75
   4  -6   2    0.34    1.00
   4  -2   6    3.54    1.48
   7  -1   4   21.13    1.09
   5  -4   4    8.47    1.18
   5  -3   5   43.19    1.69
   5  -1   6   93.41    2.27
   3  -7   0   21.78    1.22
   4  -1   6   70.90    2.05
   5   0   6   14.43    1.44
   7  -2   3   21.92    0.94
   7  -2   3    8.93    0.73
   2  -6   2   44.56    1.90
   3  -6   2   20.89    1.52
   3  -3   5   87.81    2.26
   4  -3   5   89.00    2.30
   5  -5   2    7.52    1.04
   6  -4   2   37.58    1.24
   6  -1   5   10.74    1.17
   2  -4   4    9.94    1.16
   4  -5   3    1.74    0.94
   1  -6   1    2.19    1.00
   2  -5   3   30.85    1.62
   3  -7  -1    7.95    0.94
   4  -6   1    9.74    1.18
   4  -4   4  109.03    2.43
   5  -2   5   72.76    2.23
   6   0   5   66.36    1.80
   3  -5   3   78.38    2.16
   3  -4   4    0.10    1.31
   6  -3   3    1.94    1.05
   6  -2   4    0.90    1.27
   5  -4   3    0.92    1.01
   5  -3   4   56.75    2.00
   7  -2   2  114.56    1.85
   7  -1   3    4.26    0.91
   5  -1   5   76.12    2.20
   2  -6   1   -0.40    1.15
   3  -6   1  384.39    3.90
   5  -5   1   15.83    1.15
   6  -4   1   15.18    1.05
   4  -6   0    1.48    1.05
   4  -5   2   24.33    1.49
   4  -1   5   84.27    2.06
   5   0   5    6.43    1.25
   3  -3   4   62.13    1.86
   4  -3   4   50.58    2.00
   6  -1   4   14.57    1.29
   7   0   3    3.56    1.13
   2  -5   2   11.97    1.29
   4  -4   3   34.51    1.49
   3  -4   3   -1.39    1.26
   5  -4   2    1.21    1.13
   6  -3   2   79.96    1.96
   6  -2   3    4.95    1.32
   7  -2   1    2.65    0.71
   3  -6   0   29.31    1.54
   4  -6  -1    2.38    1.23
   5  -5   0   21.00    1.23
   5  -3   3   66.50    2.13
   6  -4   0   23.68    1.13
   6   0   4   32.48    1.49
   7  -1   2    7.73    0.96
   2  -6   0    2.17    1.06
   4  -5   1    9.03    1.09
   4  -2   4   20.58    1.46
   4  -6  -2   -0.31    1.14
   5  -1   4   31.64    1.63
   4  -4   2    9.16    1.35
   4  -3   3  174.08    2.95
   6  -4  -1    8.26    0.89
   6  -3   1    8.88    1.12
   6  -1   3   25.69    1.48
   2  -5   1   15.38    1.07
   3  -6  -1   10.89    1.31
   3  -5   1  100.09    2.35
   5  -4   1    7.05    1.16
   7   0   2   -0.07    0.89
   2  -6  -1   11.73    1.19
   3  -4   2   19.45    1.36
   4  -6  -3    2.11    0.87
   5   0   4   -0.20    1.14
   7  -1   1   19.53    1.17
   5  -3   2    3.25    1.37
   4  -6  -4    2.76    0.73
   6   0   3   54.12    1.77
   3  -6  -2    4.39    1.08
   6  -4  -3    3.23    0.94
   6  -3   0   50.74    1.60
   4  -2   3    1.36    1.05
   5  -5  -3    2.05    0.82
   5  -4   0    0.85    1.09
   3  -5   0  124.37    2.35
   4  -4   1   10.30    1.14
   5  -5  -5    1.21    0.77
   5  -5  -4   97.23    1.71
   5  -1   3   47.54    2.00
   6  -1   2   68.62    2.00
   7  -2  -2    5.88    0.72
   7  -1   0    2.01    0.84
   7   0   1   18.78    1.19
   4  -5  -1    1.06    1.24
   4  -3   2    5.84    0.96
   6  -2   1    0.08    1.15
   3  -6  -3   31.81    1.38
   3  -4   1    3.64    0.96
   5  -3   1    7.16    1.31
   5  -2   2   53.44    1.95
   7  -2  -3    1.05    0.48
   7  -2  -3    0.22    0.35
   6  -3  -1   30.36    1.20
   0  -5   6   10.26    1.30
   3  -5   7    3.52    1.10
   3  -2   8   36.98    1.56
   1  -6   6    4.27    1.05
   1  -3   7   38.17    1.69
   2  -5   7    5.75    1.00
   3  -6   6   62.33    1.58
   4  -4   7   16.27    1.29
   5  -4   6    7.43    0.89
   5  -2   7   31.35    1.50
   5  -1   7  148.52    2.54
   0  -4   6    6.75    1.13
   1  -7   5    3.85    1.08
   4   0   7  141.14    2.49
   2  -7   5    8.10    0.99
   2  -6   6   43.23    1.66
   4  -6   5   31.11    1.12
   4  -5   6   19.84    1.15
   0  -6   5    1.50    1.06
   2  -4   7  337.95    3.98
   3  -4   7   24.71    1.50
   2  -2   7   -0.89    1.19
   4  -3   7   53.96    1.91
   1  -5   6   21.40    1.58
   2  -3   7  208.14    3.20
   3  -1   7  267.38    3.33
   4  -2   7   11.38    1.58
   4  -1   7    2.67    0.93
   2  -8   3    2.06    0.85
   3  -3   7   30.32    1.76
   3  -2   7   60.04    2.06
   5  -3   6   33.74    1.57
   0  -5   5   -0.28    1.01
   1  -8   3    9.70    0.92
   3  -5   6  245.80    3.18
   2  -5   6    5.71    1.33
   3  -6   5   12.06    1.12
   4  -4   6  225.19    3.19
   5  -2   6   84.77    2.08
   5  -1   6   84.86    2.14
   1  -6   5   11.08    1.35
   5  -5   4   15.19    0.91
   5  -4   5    1.97    1.08
   6  -3   4    8.06    0.87
   1  -7   4   -0.01    1.04
   2  -7   4   19.85    1.36
   4  -6   4   18.83    1.10
   0  -6   4   40.28    1.58
   2  -4   6   95.55    2.38
   3  -4   6   19.34    1.45
   4  -5   5   27.31    1.25
   4  -3   6   69.43    2.10
   4  -1   6   72.12    2.07
   6  -2   4    0.36    0.90
   1  -5   5   93.35    2.22
   2  -3   6  168.62    2.79
   4  -2   6    5.27    1.32
   5  -3   5   40.17    1.67
   2  -8   2   20.17    1.00
   3  -3   6   28.67    1.75
   3  -2   6   46.31    1.71
   1  -8   2    6.95    0.98
   3  -5   5   17.86    1.41
   2  -5   5   11.03    1.38
   3  -6   4    5.82    1.18
   4  -4   5  150.89    2.84
   5  -5   3    5.08    0.96
   5  -4   4    9.53    1.32
   5  -2   5   69.90    2.00
   5  -1   5   69.51    1.96
   6  -3   3    1.13    0.84
   1  -6   4   73.78    2.07
   4  -6   3    5.49    0.87
   1  -7   3    8.81    1.14
   2  -7   3   19.56    1.43
   4  -5   4   37.85    1.52
   2  -4   5   29.16    1.60
   3  -4   5    9.75    1.35
   4  -7   1   30.56    1.20
   0  -6   3  208.77    2.80
   4  -1   5   84.44    1.99
   2  -8   1  191.11    2.46
   3  -8   0   19.56    1.15
   4  -2   5    4.94    1.16
   5  -3   4   58.15    1.86
   6  -4   1   10.30    0.76
   1  -5   4  135.64    2.52
   3  -7   2    8.34    1.17
   3  -3   5   88.80    2.30
   6  -3   2   67.40    1.60
   1  -8   1   25.62    1.19
   3  -5   4   29.61    1.63
   5  -5   2    8.50    1.05
   5  -4   3   -0.26    1.12
   5  -2   4  138.26    2.57
   5  -1   4   30.15    1.46
   2  -5   4    2.99    1.30
   3  -6   3   43.94    1.61
   4  -6   2    1.44    0.89
   4  -4   4  110.94    2.37
   5  -6   0  106.23    1.71
   1  -6   3   37.43    1.66
   2  -7   2   23.01    1.39
   4  -7   0  370.32    3.13
   4  -5   3   -0.42    1.07
   1  -7   2    8.82    1.19
   6  -4   0   21.33    0.93
   3  -4   4   -1.33    1.25
   2  -8   0   66.73    1.64
   2  -4   4    8.97    1.14
   3  -7   1   17.05    1.16
   5  -6  -1   28.89    1.11
   5  -3   3   64.94    1.97
   6  -3   1    6.41    0.95
   4  -2   4   20.99    1.49
   5  -5   1   18.09    1.20
   1  -8   0    3.64    0.99
   3  -5   3   82.45    2.23
   3  -3   4   61.87    1.80
   4  -7  -1    1.92    0.89
   4  -6   1   10.70    1.13
   5  -4   2   -0.38    1.18
   5  -2   3  136.79    2.49
   6  -4  -1    5.03    0.77
   3  -6   2   20.67    1.34
   4  -4   3   29.67    1.73
   5  -1   3   39.76    1.65
   2  -7   1 1039.71    6.20
   2  -5   3   33.82    1.61
   4  -5   2   22.98    1.47
   1  -7   1   10.82    1.28
   1  -6   2  474.28    4.21
   6  -3   0   43.30    1.41
   2  -8  -1   13.91    1.30
   3  -7   0   23.90    1.27
   4  -7  -2    1.65    0.88
   5  -5   0   16.69    1.25
   5  -3   2    4.28    1.19
   3  -8  -3    2.99    0.79
   3  -4   3    0.01    1.17
   1  -8  -1    1.11    1.19
   4  -6   0    0.34    1.00
   5  -4   1    6.37    1.24
   3  -6   1  398.60    4.11
   3  -5   2  102.06    2.39
   4  -2   3    2.02    1.20
   3  -8  -4    6.07    0.77
   4  -7  -3   31.35    1.21
   4  -5   1   10.95    1.38
   4  -4   2    8.13    1.44
   5  -2   2   49.41    1.60
   6  -3  -1   20.71    1.24
   2  -8  -2    8.61    1.18
   2  -7   0   14.14    1.39
   1  -7   0    3.14    1.15
   2  -5   2   11.86    1.24
   3  -7  -1    7.30    0.88
   4  -7  -4   14.82    0.90
   1  -6   1    5.06    1.07
   4  -6  -1    3.23    1.00
   5  -4   0    1.33    1.16
   5  -3   1    6.69    1.16
   6  -3  -2    6.58    0.89
   1  -8  -2    0.64    1.16
   3  -6   0   32.02    1.65
   3  -4   2   17.63    1.38
   2  -8  -3   11.41    1.06
   3  -7  -2    2.84    0.98
   3  -5   1  105.07    2.42
   4  -5   0   12.16    1.50
   4  -4   1   11.01    1.47
   5  -2   1   42.24    1.68
   6  -3  -3    7.59    0.84
   2  -7  -1   11.36    1.44
   4  -6  -2    0.62    0.84
   5  -4  -1    0.89    1.06
   1  -7  -1    3.40    1.11
   2  -8  -4   46.56    1.43
   5  -3   0   23.01    1.42
   1  -8  -3   73.61    1.78
   2  -5   1   17.43    1.23
   3  -7  -3    1.74    0.97
   1  -6   0   17.69    1.33
   3  -6  -1   11.10    1.52
   4  -6  -3    0.29    0.83
   4  -5  -1    2.43    1.23
   4  -3   1  149.28    2.61
   5  -5  -5    1.41    0.58
   2  -8  -5    7.55    0.95
   3  -4   1    1.35    1.07
   5  -4  -2    0.74    1.00
   2  -7  -2   59.00    1.73
   3  -5   0  128.24    2.57
   4  -4   0    2.43    1.40
   5  -2   0   57.81    1.81
   1  -8  -4   30.42    1.45
   2  -8  -6   16.82    0.95
   3  -7  -4    2.33    0.90
   4  -6  -4    2.43    0.89
   5  -3  -1   30.21    1.68
   1  -7  -2    1.31    1.08
   3  -7  -5    4.53    0.88
   3  -6  -2    4.59    1.27
   4  -6  -7    4.70    0.71
   4  -6  -5    0.88    0.78
   4  -5  -2   12.05    1.39
   5  -4  -3    5.68    1.22
   2  -7  -3    5.57    1.27
   4  -6  -6    0.08    0.67
   1  -8  -5    0.41    0.92
   3  -7  -7   25.28    1.13
   3  -7  -6    9.42    0.92
   4  -3   0   42.92    1.64
   3  -5  -1   22.94    1.55
   4  -4  -1   71.57    1.96
   5  -4  -7   -0.35    0.50
   5  -4  -4    9.69    1.08
   5  -3  -2   85.78    2.10
   5  -2  -1   13.58    1.30
   3  -4   0    1.26    0.80
   4  -5  -3   35.17    1.62
   5  -4  -5    0.26    0.85
   1  -8  -6   14.32    1.07
   3  -6  -3   32.94    1.56
   5  -4  -6    0.81    0.67
   1  -8  -8    5.92    0.85
   1  -8  -7    9.28    0.92
   1  -7  -3    7.07    1.21
   2  -7  -4    5.96    1.23
   4  -5  -4   25.29    1.42
   5  -3  -3  114.47    2.23
   3  -6  -4   36.13    1.57
   4  -4  -2   50.53    1.67
   5  -2  -2   51.35    1.77
   2  -7  -5   40.37    1.62
   3  -5  -2    6.71    1.32
   4  -3  -1   41.81    1.50
   3  -4  -1   -0.82    1.04
   4  -5  -8   21.08    0.92
   4  -5  -5   13.65    1.20
   5  -3  -4   47.25    1.51
   1  -7  -4   14.07    1.30
   2  -7  -6    7.20    1.12
   3  -6  -5   22.56    1.31
   4  -5  -7   25.79    1.10
   4  -5  -6    3.40    1.01
   3  -6  -9   16.33    0.97
   4  -4  -3  255.38    3.39
   5  -3  -7    2.36    0.71
   5  -3  -6    3.10    0.93
   5  -3  -5    3.59    0.86
   5  -2  -3  116.82    2.22
   2  -7  -8  241.52    2.52
   2  -7  -7    0.65    0.98
   3  -6  -6   52.20    1.56
   3  -6  -8  292.98    2.76
   3  -6  -7   46.54    1.42
   3  -5  -3  213.29    2.99
   4  -3  -2   40.56    1.63
   1  -7  -5   31.93    1.59
   5  -2  -8   20.04    1.03
   5  -2  -4   38.78    1.49
   1  -6  -3  154.72    2.46
   2  -6  -4    7.78    1.26
   4  -4  -4   20.78    1.41
   3  -4  -2    0.16    0.81
   0  -7  -5   63.21    1.77
   1  -7 -10    2.26    1.02
   1  -7  -6   44.03    1.62
   3  -5  -4   16.80    1.31
   4  -4  -5   45.73    1.72
   5  -2  -7   24.76    1.09
   5  -2  -5   60.70    1.68
   4  -3  -3   17.47    1.45
   5  -2  -6   83.65    1.78
   1  -7  -7   38.29    1.38
   2  -6  -5   -0.61    1.11
   3  -5 -10    5.36    0.74
   4  -4  -7   37.99    1.38
   4  -4  -6   19.83    1.30
   1  -7  -9    9.10    0.99
   1  -7  -8    7.55    1.03
   2  -5  -3   14.24    1.14
   3  -5  -5    2.99    1.12
   0  -7  -6   79.71    1.96
   1  -6  -4  128.08    2.28
   2  -6 -10    4.79    0.87
   3  -4  -3    2.94    1.11
   2  -6  -6    7.40    1.04
   3  -5  -9   19.02    1.00
   3  -5  -6   37.27    1.58
   4  -3  -4   24.77    1.51
   2  -6  -9    1.91    0.88
   2  -6  -7    4.77    1.09
   3  -5  -8   18.69    1.15
   3  -5  -7   35.88    1.48
   3  -4 -11    3.76    0.70
   0  -7 -10   63.36    1.55
   0  -7  -7  314.59    3.22
   2  -6  -8    9.11    1.04
   4  -3  -9    1.12    0.73
   1  -6  -5  165.71    2.67
   2  -5  -4    6.25    1.14
   3  -4  -4    1.22    1.22
   4  -3  -5    9.47    1.27
   4  -2  -3   35.60    1.29
   0  -7  -9   38.63    1.34
   0  -7  -8  121.63    2.10
   1  -6 -11   48.11    1.27
   4  -3  -8   39.56    1.47
   4  -3  -7    1.85    1.04
   4  -3  -6   39.60    1.70
   4  -2 -10    4.69    0.68
   3  -4 -10    6.53    0.87
   1  -6  -6   99.06    2.12
   2  -5  -5    7.41    1.22
   3  -4  -5    1.50    0.92
   4  -2  -4    4.77    1.19
   0  -6 -12    2.40    0.73
   1  -6 -10   34.10    1.34
   1  -6  -7  242.61    3.19
   3  -4  -9   -0.86    1.06
   3  -4  -6   -0.52    1.20
   4  -2  -9   11.03    1.09
   1  -6  -9   16.83    1.29
   1  -6  -8  210.16    2.94
   2  -5 -10   34.96    1.17
   2  -5  -6   51.03    1.82
   2  -4 -12    6.57    0.78
   3  -4  -8    4.66    1.18
   3  -4  -7    3.26    1.25
   3  -3 -11   23.46    0.98
   4  -2  -5    0.69    1.07
   4  -1 -10    8.87    0.79
   2  -5  -9   15.62    1.24
   2  -5  -7   34.56    1.63
   4  -2  -8   15.41    1.13
   4  -2  -6   -0.75    1.05
   0  -6  -6   85.15    1.93
   2  -5  -8    9.06    1.30
   4  -2  -7   10.38    1.13
   0  -6 -11   20.84    1.09
   3  -3 -10   30.95    1.35
   4  -1  -9   36.83    1.41
   0  -6  -7   17.95    1.26
   2  -4 -11   78.30    1.60
   3  -3  -5    3.26    1.02
   0  -6 -10    2.55    0.83
   1  -5 -11   40.63    1.40
   4  -1  -5   17.36    1.32
   2  -5 -10   35.95    1.28
   2  -3 -12   14.27    0.87
   2  -1 -12   23.20    1.06
   3  -2 -10   55.86    1.54
   1  -6 -11   41.03    1.24
   3  -3  -9  111.49    2.10
   2  -4 -11   77.95    1.64
   3  -3  -5    2.80    1.01
   2  -5  -9   15.75    1.11
   3  -3  -8  185.73    2.87
   3  -3  -6    4.90    1.25
   3   0  -9    1.62    1.12
   3   1  -8    6.50    1.17
   1  -3 -13   43.18    1.08
   1  -2 -13   37.26    1.01
   2  -5  -8    9.58    1.17
   2   0 -11    3.76    0.98
   3  -2  -9   30.55    1.32
   3  -1  -9    5.13    1.18
   1  -6 -10   34.33    1.26
   2  -5  -7   30.97    1.48
   2  -3 -11    4.91    0.92
   3  -2  -8  115.05    2.33
   3   0  -8   -0.44    1.28
   3   1  -7    3.36    1.15
   2  -4 -10   37.27    1.49
   2  -1 -11  147.70    2.40
   3  -2  -7  334.26    3.81
   3  -2  -6   65.19    1.84
   3  -1  -8    7.88    1.31
   0  -5 -13   12.21    0.86
   1  -6  -9   15.05    1.16
   2  -2 -11   15.81    1.23
   0  -6 -12    2.57    0.90
   1  -6  -8  185.62    2.67
   1  -4 -12    1.76    0.81
   3  -1  -7   14.52    1.37
   0  -1 -13   19.08    0.91
   2   0 -10  649.38    4.81
   1  -1 -12    8.31    1.01
   2  -3 -10    7.44    1.16
   2   1  -9    4.55    0.96
   1  -3 -12   32.22    1.31
   2  -4  -8   43.79    1.62
   2  -4  -7   83.74    2.20
   2  -4  -6   69.77    1.99
   0  -4 -13   48.89    1.24
   2  -2 -10    0.83    1.25
   0  -2 -13   10.60    0.93
   1  -5 -10   10.79    1.34
   2  -3  -9   29.94    1.75
   0  -6 -11   20.19    1.22
   0  -3 -13    8.04    0.92
   1  -4 -11    0.44    1.01
   1   0 -11    3.19    1.03
   2   0  -9   48.71    1.74
   2   1  -8    1.62    1.07
  -1  -7 -11    5.51    0.91
   0  -5 -12    1.77    0.89
   2  -3  -8    2.51    1.31
   2  -2  -9    0.63    1.29
   1  -5  -9    5.54    1.26
   1  -3 -11    7.15    1.17
   1  -1 -11    9.71    1.15
   2  -3  -7   63.26    1.87
   0  -6 -10    2.69    1.02
   1  -5  -8   12.86    1.44
   1  -2 -11    4.55    1.15
   2  -2  -8    0.82    1.16
   2   0  -8   89.17    2.09
  -1  -6 -12   50.49    1.46
   1  -5  -7   22.20    1.40
   1  -4 -10    2.35    1.22
   2  -1  -8   20.34    1.41
  -2  -7 -12   14.95    1.12
  -1  -7 -10   59.44    1.54
   0  -4 -12  105.48    2.04
   0  -1 -12    5.85    1.20
   1   0 -10   81.87    2.02
  -1  -2 -13   51.93    1.38
   0  -6  -9   15.89    1.40
   0  -5 -11   29.34    1.39
  -1  -4 -13    0.44    0.86
   0  -3 -12   28.71    1.50
   0  -2 -12   44.41    1.64
   1  -4  -9   14.99    1.66
   1  -3 -10    8.37    1.28
   0  -6  -8    5.11    1.14
   0   0 -11    7.93    1.03
   1  -1 -10   35.51    1.72
   1  -2 -10   15.97    1.52
   1  -4  -8    6.48    1.02
  -1  -6 -11   85.60    2.06
  -1  -5 -12   70.96    1.76
   0  -4 -11   19.72    1.40
   1  -4  -7    0.69    1.22
   1  -3  -9    6.90    1.38
   1   0  -9   56.05    1.79
  -2  -7 -11   30.94    1.32
  -2  -5 -13   37.85    1.25
  -2  -2 -13    1.46    0.93
  -3  -7 -12   24.18    1.36
  -3  -6 -13   33.21    1.12
  -1  -1 -12   13.50    1.14
   0  -3 -11   37.98    1.72
   0  -1 -11   13.98    1.06
   1  -2  -9   42.65    1.83
   1  -1  -9   83.28    2.16
   0  -5  -9   40.08    1.79
   1  -3  -8   83.91    2.15
  -2  -4 -13   86.15    1.74
  -2  -3 -13   19.66    1.16
  -1  -6 -10  136.21    2.44
  -1  -4 -12   -1.30    0.99
  -3  -2 -13   44.30    1.13
  -3  -2 -13   18.73    0.88
  -1  -3 -12   71.71    1.93
  -1  -2 -12  128.66    2.45
   0  -4 -10   47.88    1.89
   0   0 -10   51.63    1.72
  -2  -7 -10   84.09    1.91
  -1  -5 -11    9.14    1.40
   0  -5  -8   59.79    1.97
  -3  -5 -13    1.55    0.78
  -4  -7 -12   10.74    1.05
  -2  -1 -12   53.58    1.58
  -1  -6  -9  179.96    2.86
   0  -3 -10   15.81    1.51
   0  -1 -10  194.19    3.00
  -3  -4 -13    9.02    0.93
  -3  -3 -13    7.75    0.83
  -2  -5 -12   40.69    1.51
   0  -4  -9   56.70    1.97
   0  -2 -10   14.59    1.54
  -4  -5 -13    5.17    0.88
  -3  -7 -11   18.03    1.13
  -2  -7  -9  162.31    2.51
  -2  -6 -11    1.99    1.19
  -1  -4 -11    0.55    1.15
  -1  -1 -11   37.81    1.62
  -3  -6 -12    7.07    1.07
  -1  -6  -8  256.87    3.25
   0   0  -9 1284.48    6.91
  -4  -4 -13   13.97    0.80
  -2  -4 -12  150.28    2.47
  -2  -2 -12    1.15    1.08
  -1  -3 -11  149.08    2.79
  -2  -3 -12   35.79    1.64
  -1  -2 -11  204.92    3.07
   0  -3  -9   17.60    1.25
  -1   0 -10   10.75    1.26
   0  -2  -9    0.72    1.19
   0  -1  -9  227.49    3.19
  -2  -6 -10   19.86    1.51
  -2  -5 -11    2.62    1.26
  -4  -7 -11    3.91    0.92
  -4  -6 -12    0.76    0.90
  -3  -7 -10   -0.29    0.95
  -3  -5 -12   18.43    1.22
  -1  -5  -9  130.40    2.50
  -1  -4 -10    0.96    1.31
  -3  -2 -12   42.20    1.49
  -5  -6 -12   56.40    1.43
  -3  -4 -12    2.14    1.04
  -2  -1 -11    9.15    1.29
  -1  -1 -10    1.74    1.46
  -4  -2 -12    0.74    0.81
  -2  -4 -11  352.64    3.98
  -1  -5  -8   74.93    2.06
  -1  -3 -10   12.74    1.28
  -5  -7 -11   10.81    1.11
  -4  -5 -12   22.32    1.10
  -3  -7  -9   22.06    1.37
  -2  -6  -9    0.90    1.21
  -2  -2 -11   59.88    2.02
  -5  -3 -12    5.65    0.88
  -2  -5 -10   24.43    1.54
  -2  -3 -11   67.16    2.09
  -1  -4  -9   -0.42    1.27
  -5  -5 -12   14.46    1.01
  -4  -4 -12   35.53    1.37
  -4  -3 -12    9.67    1.11
  -1   0  -9   89.02    2.04
  -5  -4 -12    0.12    0.73
  -4  -7 -10   10.49    1.25
  -3  -5 -11   64.29    1.99
  -3  -1 -11   21.43    1.33
  -4  -6 -11    2.96    1.08
  -4  -1 -11   71.49    1.85
  -3  -6 -10   51.02    1.91
  -2  -6  -8   37.35    1.61
  -1  -3  -9   20.77    1.39
  -1  -1  -9   14.69    1.34
  -6  -6 -11    4.16    0.97
  -3  -4 -11    8.78    1.20
  -3  -2 -11   75.80    2.00
  -2  -4 -10    3.36    1.07
  -2  -1 -10    4.50    1.29
  -1  -2  -9   53.45    1.63
  -5  -7 -10   25.88    1.26
  -5  -6 -11   14.49    1.08
  -3  -3 -11   20.61    1.48
  -2  -6  -7   40.73    1.57
  -6  -7 -10    3.24    1.05
  -4  -7  -9   75.22    1.86
  -4  -5 -11   41.87    1.56
  -2  -3 -10   69.90    2.19
  -2  -2 -10   -0.58    1.42
  -5  -2 -11   50.46    1.50
  -3  -6  -9   72.42    2.05
  -6  -5 -11   15.59    1.02
  -4  -2 -11   14.74    1.22
  -3  -5 -10    4.32    1.04
  -6  -4 -11    8.55    0.79
  -5  -5 -11   23.61    1.18
  -4  -4 -11  103.80    2.20
  -2  -4  -9   17.14    1.50
  -2   0  -9  341.86    3.62
  -3  -1 -10   46.60    1.69
  -2  -5  -8   10.35    1.16
  -5  -7  -9   -1.52    1.04
  -5  -4 -11    1.32    1.03
  -5  -3 -11   65.49    1.76
  -4  -7  -8  205.97    2.79
  -3  -4 -10    2.14    1.18
  -3  -6  -8  151.27    2.68
  -2  -3  -9   14.57    1.45
  -2  -1  -9   41.94    1.63
  -6  -7  -9    4.74    0.88
  -6  -6 -10    0.30    0.94
  -5  -1 -10   23.54    1.27
  -3  -3 -10  119.14    2.60
  -3  -2 -10  236.36    3.35
  -6  -2 -10   12.23    1.10
  -4  -5 -10    1.92    1.05
  -4  -1 -10   46.47    1.62
  -3  -5  -9   33.50    1.78
  -4  -6  -9    1.09    1.27
  -7  -7  -8    1.67    0.89
  -6  -5 -10   43.46    1.43
  -5  -7  -8    2.67    1.17
  -5  -5 -10   89.59    2.04
  -4  -4 -10  533.79    4.74
  -4  -2 -10   16.89    1.52
  -3  -6  -7  728.88    5.24
  -6  -3 -10    1.70    1.01
  -5  -2 -10   35.52    1.65
  -4  -3 -10  143.05    2.66
  -3  -4  -9    1.07    1.20
  -6  -7  -8    5.17    1.07
  -6  -4 -10    6.84    0.95
  -6  -1  -9   24.67    1.17
  -5  -6  -9   58.52    1.85
  -5  -4 -10   13.73    1.25
  -3  -1  -9   15.27    1.40
  -4  -6  -8    7.66    1.30
  -4  -5  -9    5.64    1.34
  -3  -5  -8  150.01    2.49
  -3  -3  -9   20.47    1.50
  -3  -2  -9  164.67    2.80
  -7  -5  -9   68.87    1.52
  -7  -3  -9    0.85    0.69
  -5  -7  -7   32.40    1.48
  -7  -7  -7    1.88    0.80
  -7  -4  -9   10.79    0.86
  -4  -1  -9    7.32    1.22
  -5  -5  -9   14.75    1.45
  -5  -1  -9   12.25    1.25
  -4  -4  -9   74.04    2.08
  -3   0  -8   72.54    1.76
  -6  -7  -7   37.00    1.38
  -6  -5  -9    0.15    1.02
  -6  -2  -9    0.88    1.05
  -5  -6  -8   42.85    1.70
  -3  -4  -8   13.00    1.06
  -4  -6  -7  167.83    2.69
  -4  -3  -9  184.78    3.04
  -4  -2  -9    1.93    1.32
  -6  -6  -8    0.58    1.16
  -6  -4  -9  266.40    3.14
  -6  -3  -9   48.53    1.64
  -5  -4  -9   19.59    1.40
  -5  -2  -9  103.46    2.24
  -7  -7  -6    4.75    0.86
  -7  -2  -8   61.98    1.44
  -5  -3  -9   75.34    2.08
  -3  -3  -8   26.29    1.41
  -3  -1  -8   20.82    1.40
  -8  -5  -7    1.43    0.83
  -7  -5  -8   55.04    1.55
  -6  -7  -6  441.13    3.84
  -8  -6  -6    8.11    0.93
  -6  -1  -8   12.16    1.17
  -8  -4  -7    9.20    0.92
  -7  -6  -7   33.47    1.31
  -7  -3  -8   42.01    1.40
  -5  -6  -7   21.14    1.48
  -5  -5  -8    3.91    1.20
  -4  -6  -6    0.90    1.14
  -4  -4  -8  111.10    2.36
  -7  -4  -8   62.85    1.48
  -7  -1  -7    6.34    0.93
  -6  -5  -8    2.51    1.13
  -4  -1  -8   20.19    1.47
  -6  -6  -7    1.84    1.12
  -5  -1  -8    4.29    1.13
  -4  -5  -7    0.04    1.02
  -6  -2  -8    8.12    1.15
  -4  -3  -8  117.63    2.28
  -8  -6  -5   22.49    1.31
  -6  -4  -8   46.90    1.70
  -5  -4  -8    0.25    0.89
  -8  -5  -6   24.24    1.19
  -7  -5  -7   21.34    1.23
  -6  -3  -8  115.79    2.35
  -5  -3  -8    7.12    1.33
  -5  -2  -8   75.75    2.08
  -7  -6  -6    7.46    1.07
  -7  -2  -7   33.99    1.42
  -5  -6  -6  783.04    5.31
  -8  -4  -6   12.72    0.95
  -8  -3  -6   33.69    1.13
  -5   0  -7   25.43    1.36
  -4  -4  -7   47.04    1.63
  -4   0  -7  147.97    2.45
  -7  -4  -7   15.41    1.10
  -7  -3  -7    5.64    1.06
  -6  -6  -6  175.71    2.64
  -6  -5  -7   25.50    1.32
  -8  -6  -4   79.48    1.64
  -6  -1  -7   28.60    1.36
  -7  -1  -6   10.15    1.08
  -4  -3  -7    2.11    1.05
  -4  -1  -7   12.26    1.18
  -7  -6  -5  508.41    3.97
  -7  -5  -6    3.22    1.02
  -6  -4  -7   84.09    2.11
  -5  -6  -5   74.50    1.84
  -5  -4  -7    9.55    1.34
  -5  -1  -7    5.72    1.21
  -8  -6  -3    0.21    0.82
  -7   0  -5   14.62    1.10
  -6  -3  -7  174.74    2.86
  -6   0  -6   44.65    1.55
   4  -6  -5    0.47    0.73
   4  -4   0    3.97    1.20
   4  -3   1  152.94    2.65
   6  -3  -3   10.08    1.06
   6  -2  -1    3.25    1.12
   6  -1   0   80.17    2.02
   6   2   0    2.14    1.08
   5  -4  -2    0.99    1.12
   6  -3  -4    4.77    0.79
   6   1   0    9.81    1.33
   4  -5  -2   11.91    1.17
   5  -1   1   12.16    1.35
   6  -3  -5    0.51    0.78
   3  -5  -1   24.39    1.38
   6  -2  -2   21.69    1.20
   6  -1  -1  166.63    2.88
   5  -3  -1   31.02    1.69
   5  -2   0   65.98    2.12
   6  -2  -3    0.00    0.88
   6   0  -1  257.36    3.45
   4  -5  -3   29.74    1.47
   4  -4  -1   70.08    1.95
   6   1  -1    7.80    1.33
   6  -2  -4    4.70    0.96
   6  -1  -2    3.88    1.18
   5  -3  -2   90.78    2.33
   5  -1   0    3.34    1.33
   6  -2  -6   -0.71    0.77
   6  -2  -5    5.18    0.92
   5  -4  -7    0.41    0.82
   5  -4  -5    0.51    0.88
   5  -2  -1   15.97    1.49
   6   0  -2  196.45    3.06
   3  -5  -2    6.62    1.21
   4  -5  -4   22.98    1.31
   5  -4  -6    0.91    0.81
   6  -1  -7    2.22    0.61
   6  -1  -3    2.38    1.12
   6   1  -2   21.49    1.38
   4  -4  -2   53.38    1.90
   5  -3  -3  123.53    2.55
   6  -1  -6    2.04    0.89
   6  -1  -4   51.43    1.69
   6   0  -7   16.17    0.88
   6   0  -3  154.13    2.73
   6   1  -3    3.18    0.98
   3  -6  -5   19.98    1.24
   4  -5  -5   12.58    1.17
   5  -1  -1  119.40    2.51
   4  -5  -8   20.98    1.05
   5  -2  -2   56.66    1.88
   6   0  -6    8.97    0.95
   6   0  -4   98.27    2.14
   6   1  -6   -0.01    0.79
   6   1  -4    1.65    1.04
   3  -6  -6   50.93    1.47
   4  -5  -7   27.34    1.11
   4  -5  -6    2.79    1.03
   5  -3  -4   46.22    1.75
   6   0  -5    7.37    1.07
   6   1  -5    1.43    0.89
   3  -6  -8  218.89    2.62
   3  -6  -7   42.51    1.40
   3  -5  -3  207.45    3.00
   4  -4  -3  257.20    3.54
   5  -3  -8    0.98    0.75
   5  -3  -5    5.55    1.11
   5  -3  -7    2.04    0.76
   5  -3  -6    5.62    0.92
   5  -2  -9   21.22    0.87
   5  -2  -3  122.83    2.51
   5  -1  -2   45.48    1.86
   4  -3  -2   42.22    1.60
   3  -5  -4   18.30    1.40
   5  -2  -4   40.94    1.71
   5   0  -2    1.87    1.05
   4  -4  -9   15.69    1.13
   5  -2  -8   32.77    1.22
   5  -1  -9    0.66    0.60
   5  -1  -3  138.43    2.64
   5   0  -9   -0.18    0.73
   4  -3  -3   16.18    1.49
   5  -2  -7   27.26    1.33
   5  -2  -5   62.42    1.89
   3  -5 -10    2.11    0.90
   4  -4  -8   44.07    1.43
   4  -4  -6   19.94    1.38
   5  -2  -6   93.27    2.10
   2  -6 -10    1.14    0.94
   3  -5  -5    1.30    1.26
   4  -4  -7   39.00    1.49
   4  -3 -10    1.35    0.76
   5  -1  -8    2.25    0.91
   5  -1  -4   18.89    1.50
   5   0  -3   47.49    1.67
   5   1  -3  137.67    2.38
   3  -4  -3    1.74    1.13
   3  -5  -9   16.72    1.09
   3  -5  -6   37.31    1.57
   4  -3  -4   21.94    1.60
   5  -1  -5   15.41    1.39
   5   0  -8    1.96    0.96
   2  -6  -9   -1.31    0.95
   5   0  -4   92.60    2.07
   5   1  -4  208.60    2.97
   2  -6  -8    7.56    1.13
   2  -6  -7    3.26    1.05
   3  -5  -8   17.95    1.37
   3  -5  -7   36.29    1.51
   3  -4 -11    1.41    0.76
   4  -3  -9    1.20    0.75
   4  -2  -3   33.56    1.50
   5   0  -7    3.45    0.97
   5   0  -5   50.54    1.76
   5   1  -7   60.58    1.60
   4  -3  -5    6.99    1.35
   5   0  -6    9.09    1.20
   5   1  -6   16.47    1.28
   5   1  -5   46.82    1.67
   2  -5  -4    6.93    1.15
   3  -4  -4    1.10    1.27
   4  -3  -8   39.40    1.46
   4  -2 -10    5.01    0.88
   4  -3  -7    0.19    1.16
   4  -3  -6   42.39    1.59
   4  -2  -4    8.87    1.12
   2  -5 -11   41.60    1.41
   3  -4 -10    6.21    0.90
   3  -4  -5   -1.55    1.34
   4  -1 -10   12.72    0.96
   1  -6 -11   28.90    1.27
   4  -2  -9    9.29    1.07
   4   0 -10   55.70    1.45
   2  -5  -5    8.03    1.13
   3  -3 -11   24.16    1.06
   4  -2  -5    0.07    1.21
   3  -4  -9   -0.67    0.73
   4  -2  -8   16.34    1.33
   4  -2  -6   -0.47    1.20
   2  -5 -10   35.99    1.40
   2  -4 -12    5.79    0.83
   3  -4  -8    6.85    1.19
   4  -2  -7    9.35    1.05
   4  -1  -4  107.39    2.27
   1  -6 -10   29.88    1.25
   2  -5  -6   52.01    1.84
   4   1  -9    3.26    0.84
   2  -5  -9   15.58    1.20
   4  -1  -5   15.97    1.35
   4   0  -9  127.24    2.23
   1  -6  -9   12.50    1.15
   1  -6  -8  198.07    2.79
   2  -5  -8    9.56    1.20
   2  -5  -7   33.76    1.67
   3  -3 -10   36.09    1.36
   3  -2 -11   45.19    1.36
   1  -5 -12    1.39    0.90
   3  -3  -5    1.73    1.14
   4  -1  -7   77.39    2.12
   4  -1  -6   39.38    1.57
   2  -4 -11   77.15    1.72
   4   0  -8   62.47    1.78
   4   0  -5   74.55    2.04
   4   1  -8    7.96    1.09
   3  -3  -9  114.59    2.20
   3  -3  -6    6.16    1.39
   3  -1 -11   36.52    1.37
   4   0  -7    8.20    1.22
   4   0  -6   86.65    2.23
   2  -3 -12   13.41    0.86
   3  -3  -8  179.79    2.99
   3  -3  -7   58.18    2.05
   3   0 -11   95.12    1.75
   4   1  -7    0.63    1.04
   4   1  -6   12.90    1.15
   3  -2 -10   59.69    1.73
   0  -6 -11   16.18    1.09
   1  -5 -11   36.06    1.38
   2  -4 -10   37.35    1.54
   2  -4  -9   56.30    1.84
   2  -4  -6   71.14    2.10
   2  -2 -12    1.44    0.83
   3  -2  -9   33.01    1.63
   0  -6 -10    1.78    0.99
   1  -5 -10   11.32    1.14
   1  -5  -6   87.14    2.11
   1  -3 -13   41.97    1.20
   2  -4  -7   80.59    2.27
   2  -3 -11    4.56    1.02
   3   1 -10  463.71    3.76
   1  -4 -12    1.20    0.91
   2  -1 -12   26.77    1.27
   2   0 -12    1.47    0.83
   3  -2  -8  112.85    2.39
   3  -2  -7  318.28    3.91
   3  -2  -6   59.77    1.76
   3   0 -10   49.37    1.62
   1  -5  -9    5.56    1.26
   1  -5  -7   24.99    1.52
   0  -5 -12    0.93    0.92
   1  -5  -8    9.65    1.56
   1  -2 -13   41.92    1.25
   2  -3 -10    8.08    1.20
   0  -4 -13   46.62    1.45
   1  -1 -13    0.97    0.69
   2  -2 -11   14.63    1.27
   3  -1  -8    9.21    1.36
   3   0  -9    1.72    1.16
   3   1  -9   23.74    1.41
  -1  -5 -13   34.69    1.25
   1  -4 -11    0.09    1.01
   2  -3  -9   30.40    1.70
   3  -1  -7   12.77    1.13
   1  -3 -12   31.69    1.35
   3   0  -8   -0.03    1.06
   0  -5 -11   23.79    1.44
   2  -3  -8    3.39    1.25
   2  -3  -7   60.45    1.94
   2   1 -11    0.89    0.83
   3   1  -8    7.30    1.24
   2  -2 -10    0.45    1.35
   2   0 -11    4.41    1.07
   3   0  -7    1.50    1.19
   3   1  -7    7.29    1.23
   0  -3 -13    7.29    0.96
   0  -5 -10   38.40    1.71
   1  -3 -11    6.01    1.14
   1  -2 -12   36.39    1.30
   1   1 -12    2.47    0.83
   2  -2  -9    0.37    1.22
  -2  -5 -13   32.77    1.21
  -1  -5 -12   67.15    1.72
   1  -4  -8    7.43    1.23
   1  -4  -7    1.87    1.13
   2  -1 -10   56.63    1.89
   0  -5  -9   38.68    1.72
   1   0 -12    9.52    1.05
   2  -2  -8    0.37    1.22
   2   0 -10  643.82    5.09
   2   1 -10   42.49    1.55
   0  -5  -8   55.49    1.60
   0  -2 -13    8.44    1.01
   0   0 -13   53.15    1.34
   0  -1 -13   25.30    1.21
   1  -3 -10    7.93    1.39
   2  -1  -9   30.80    1.72
   1  -2 -11    3.55    1.24
  -1  -5 -11    6.00    1.20
   0  -3 -12   27.63    1.43
   1  -3  -9    7.51    1.34
   2  -1  -8   22.00    1.26
   2   0  -9   48.82    1.65
   2   1  -9    5.12    1.27
  -1  -3 -13   96.91    1.81
   1  -1 -11    7.50    1.32
  -2  -5 -12   37.66    1.47
   0  -4 -10   40.19    1.65
   1  -3  -8   81.93    2.10
   1  -2 -10   18.51    1.53
   1   0 -11    4.49    1.13
   1   1 -11    0.85    0.99
  -2  -4 -13   90.27    1.71
  -1  -5 -10  102.92    2.26
   0  -2 -12   41.49    1.55
   2   0  -8   87.60    2.07
   0  -4  -9   49.69    1.85
   0  -3 -11   37.97    1.75
   0   1 -12   52.17    1.49
   2   1  -8    1.60    1.12
  -1  -5  -9  124.25    2.43
  -1  -2 -13   51.02    1.47
  -1   0 -13    7.63    0.79
  -1  -1 -13   22.67    1.15
   0  -4  -8  143.49    2.58
   0  -1 -12    4.46    1.20
   0   0 -12   40.39    1.59
   1  -2  -9   41.39    1.77
   1  -1 -10   36.22    1.69
  -1  -5  -8   69.12    1.86
  -3  -5 -12   13.74    1.05
  -3  -4 -13    6.29    1.05
  -2  -5 -11    2.25    1.11
  -2  -3 -13   20.86    1.11
  -1  -4 -11   -0.39    1.31
  -1  -3 -12   68.15    1.89
   1   0 -10   82.73    2.17
   1   1 -10    6.82    1.24
   0  -3 -10   14.19    1.32
   0  -2 -11    0.83    1.13
  -2  -4 -12  133.26    2.34
   1  -1  -9   75.65    2.13
  -4  -5 -12   18.38    1.04
  -2   0 -13   87.13    1.44
  -2  -5 -10   21.99    1.45
  -2  -2 -13    0.20    0.73
  -1  -4 -10    1.41    1.28
  -1  -2 -12  123.03    2.32
   0  -3  -9   16.37    1.45
   0  -1 -11   12.37    1.38
  -3  -3 -13    9.12    0.99
  -2  -1 -13  119.42    1.87
  -1   1 -12   96.86    1.79
   0   1 -11    1.81    0.98
   1   0  -9   53.05    1.79
  -3  -5 -11   52.67    1.62
  -1  -3 -11  135.85    2.60
   0  -2 -10   14.14    1.35
   0   0 -11    5.68    1.08
   1   1  -9  836.12    5.66
  -2  -5  -9   39.67    1.61
  -1  -1 -12   12.92    1.25
  -1   0 -12   52.30    1.70
  -3  -4 -12    0.98    1.09
  -3  -2 -13   75.07    1.53
  -2  -4 -11  315.48    3.61
  -2  -3 -12   37.43    1.64
  -1  -4  -9    0.78    0.93
   0   2 -10   15.33    1.37
  -4  -2 -13    1.57    0.62
  -1   2 -11   31.78    1.29
   0  -2  -9    0.83    1.12
   0  -1 -10  185.11    2.99
  -5  -4 -12    0.05    0.77
  -4  -5 -11   34.85    1.31
  -2   1 -12    2.30    0.80
  -1  -3 -10   13.98    1.41
  -1  -2 -11  206.24    3.05
  -4  -4 -12   34.67    1.25
  -3  -5 -10    2.57    1.04
  -2  -2 -12    1.32    1.00
   0   1 -10    2.68    1.21
  -2  -4 -10    3.72    1.26
  -3  -3 -12   64.05    1.69
  -3   1 -12   53.95    1.20
  -2  -1 -12   53.41    1.63
  -1  -1 -11   34.78    1.71
  -1   1 -11   37.29    1.50
  -2  -3 -11   59.73    1.70
  -5  -2 -12   47.20    1.37
  -4  -3 -12   10.69    1.05
  -4  -2 -12    3.28    0.93
  -3  -4 -11    6.24    1.20
  -5   1 -10   21.45    1.04
  -2   3  -8  207.96    2.77
  -3   0 -11   22.36    1.47
  -1   1  -9  179.57    2.78
  -1   3  -7   35.56    1.46
  -4   0 -11  198.80    2.63
  -2   2  -9   19.74    1.45
  -1  -2  -9   56.43    1.78
  -1   2  -8   48.67    1.76
  -5  -5 -11   19.26    1.06
  -3  -3 -11   19.49    1.46
  -2  -3 -10   70.37    2.03
  -1  -1  -9   17.85    1.31
  -1   0  -9   88.92    2.13
  -4   2  -9    0.32    0.90
  -3  -1 -11   20.81    1.40
  -3   1 -10  106.64    2.35
  -2   0 -10   16.93    1.53
  -4  -4 -11   98.94    1.96
  -4   1 -10   73.33    1.89
  -3  -2 -11   74.78    1.88
  -3   2  -9   87.68    2.00
  -5  -1 -11   36.05    1.27
  -4  -1 -11   78.98    1.93
  -2  -1 -10    6.26    1.02
  -6  -4 -11    7.61    1.11
  -3  -4 -10   -1.07    1.11
  -6  -3 -11    1.83    0.96
  -5  -4 -11   -1.00    1.05
  -4  -3 -11   48.77    1.75
  -4  -2 -11   11.43    1.33
  -5  -2 -11   50.21    1.54
  -3   0 -10    9.02    1.41
  -2   2  -8   20.00    1.45
  -2  -3  -9   16.64    1.14
  -6  -1 -10   34.58    1.22
  -5   1  -9   33.43    1.31
  -4   0 -10  196.66    2.94
  -3  -3 -10  117.18    2.44
  -2   0  -9  364.15    3.98
  -3  -2 -10  227.87    3.23
  -3  -1 -10   43.27    1.56
  -3   1  -9  129.45    2.60
  -6  -5 -10   34.23    1.38
  -6   0  -9  130.03    1.91
  -5  -5 -10   84.91    1.78
  -4   1  -9   59.56    1.79
  -4   2  -8   12.82    1.23
  -3   2  -8   32.53    1.38
  -2  -1  -9   39.33    1.69
  -4  -4 -10  522.50    4.49
  -5  -1 -10   27.90    1.48
  -4  -1 -10   43.81    1.69
  -3  -4  -9   -0.33    1.06
  -6  -2 -10   14.97    1.00
  -2   2  -7   -0.45    1.06
  -6  -4 -10    5.64    1.01
  -5  -4 -10   14.72    1.15
  -4  -3 -10  143.36    2.50
  -4  -2 -10   15.05    1.49
  -3   0  -9   16.30    1.27
  -7  -2  -9   26.73    1.21
  -6  -3 -10    2.52    0.91
  -5  -2 -10   38.13    1.57
  -7  -5  -9   46.62    1.39
  -5  -3 -10    6.00    1.18
  -4   0  -9  192.94    2.99
  -3  -3  -9   19.04    1.43
  -3  -1  -9   13.94    1.41
  -5   1  -8  197.27    2.80
  -3  -2  -9  166.93    2.83
  -3   1  -8  199.65    2.96
  -3   2  -7   59.40    1.83
  -7  -3  -9   -0.17    1.05
  -6  -1  -9   28.46    1.35
  -4   1  -8   69.45    1.95
  -4   2  -7   10.28    1.24
  -7  -4  -9   11.63    1.04
  -6   1  -7    1.47    0.86
  -5  -5  -9   13.22    1.16
  -4  -4  -9   74.12    1.98
  -6  -5  -9    1.83    0.92
  -6   0  -8  403.53    3.62
  -4  -1  -9    5.94    1.35
  -5  -1  -9   10.99    1.04
  -3   0  -8   70.36    1.97
  -6  -2  -9    1.67    1.00
  -4  -3  -9  185.80    2.83
  -4  -2  -9    0.77    1.26
  -6  -4  -9  266.64    3.18
  -6  -3  -9   52.66    1.76
  -5  -4  -9   20.18    1.39
  -5  -2  -9   98.53    2.21
  -5   2  -6   78.58    1.78
  -7  -2  -8   63.60    1.58
  -5  -3  -9   74.34    2.02
  -4   0  -8  362.00    3.97
  -3  -1  -8   22.29    1.29
  -3   1  -7  267.85    3.29
  -7  -5  -8   54.89    1.42
  -5   1  -7  157.32    2.52
  -3  -2  -8  201.15    2.79
  -3   2  -6   41.63    1.57
  -6  -1  -8   12.25    1.36
  -4   1  -7    1.93    1.20
  -4   2  -6    2.31    1.13
  -7  -3  -8   42.89    1.41
  -7  -1  -7    6.31    1.00
  -7   0  -6   11.61    0.96
  -6   1  -6    6.30    1.11
  -5  -5  -8    5.89    0.99
  -4  -4  -8  110.58    2.20
  -6  -5  -8    0.19    0.94
  -6   0  -7   57.64    1.89
  -4  -1  -8   21.63    1.45
  -8  -2  -6    5.12    0.81
  -5  -1  -8    1.72    1.35
  -6  -2  -8    7.01    1.17
  -4  -3  -8  116.65    2.29
  -4  -2  -8    0.66    1.19
  -6  -4  -8   44.04    1.62
  -5  -4  -8   -1.06    1.31
  -5  -2  -8   73.18    2.11
  -7  -2  -7   37.01    1.40
  -6  -3  -8  116.67    2.26
  -5  -3  -8    7.88    1.39
  -4   0  -7  151.41    2.66
  -8  -5  -6   24.76    1.24
  -8  -3  -6   36.39    1.26
  -5   1  -6   91.96    2.19
  -7  -5  -7   17.71    1.16
  -6  -1  -7   28.72    1.59
  -4   1  -6   74.48    1.96
  -4   2  -5    4.31    1.06
  -8  -4  -6   12.02    1.06
  -7  -3  -7    2.85    1.16
  -7  -1  -6   10.05    1.12
  -7   0  -5   16.55    1.18
  -6   1  -5   10.64    1.07
  -5  -5  -7   16.38    1.27
  -8  -2  -5   13.56    0.92
  -8  -1  -4    2.52    0.63
  -6  -5  -7   24.83    1.38
  -6   0  -6   47.15    1.72
  -4  -4  -7   45.03    1.39
  -4  -1  -7    9.46    1.41
  -5  -1  -7    2.02    1.30
  -6  -2  -7   19.24    1.41
  -4  -3  -7    4.33    1.09
  -4  -2  -7   12.94    1.18
  -6  -4  -7   84.60    2.16
  -6  -3  -7  171.11    2.84
  -5  -4  -7    8.80    1.24
  -5  -2  -7  105.60    2.36
  -8  -5  -5    4.41    0.95
  -8  -3  -5   43.76    1.26
  -7  -2  -6   43.98    1.54
  -7  -5  -6    4.77    1.06
  -5   1  -5   75.78    1.87
  -8  -4  -5   26.60    1.15
  -8  -1  -3   33.30    1.02
  -7  -3  -6    6.79    1.12
  -7  -1  -5    3.74    1.18
  -7   0  -4    2.37    0.98
  -6  -1  -6    6.12    1.08
  -6   1  -4   14.92    1.26
  -4   1  -5   87.71    2.06
  -8  -2  -4    9.53    0.92
  -7  -6  -5  457.23    3.77
  -7   1  -2    4.50    0.79
  -6   0  -5   73.43    2.07
  -6  -5  -6    5.26    1.10
  -5  -5  -6  102.27    2.15
  -6  -2  -6   11.53    1.33
  -5  -1  -6  106.15    2.22
  -8  -5  -4    5.84    0.89
  -8  -3  -4   31.48    1.19
  -8  -6  -3    0.45    0.72
  -8  -1  -2    4.54    0.71
  -7  -2  -5   24.54    1.40
  -6  -4  -6   95.63    2.22
  -6  -3  -6   78.11    2.14
  -5  -4  -6   23.07    1.40
  -8  -4  -4   22.25    1.14
  -7  -5  -5   59.82    1.63
  -7   0  -3    4.67    1.16
  -5  -2  -6  131.87    2.39
  -5   0  -5    7.09    1.10
  -5   1  -4   31.55    1.59
  -8  -2  -3    9.18    0.93
  -7  -3  -5    5.53    1.10
  -7  -1  -4   83.50    2.01
  -6  -1  -5   27.40    1.59
  -6   1  -3   24.19    1.43
  -7  -6  -4    5.37    0.99
  -6   0  -4   36.79    1.68
  -8  -5  -3    1.13    0.76
  -8  -3  -3    7.55    0.94
  -8  -1  -1   -0.21    0.58
  -6  -5  -5   12.93    1.19
  -5  -5  -5   60.83    1.65
  -8  -4  -3    9.13    0.92
  -7  -2  -4  125.50    2.39
  -6  -2  -5   -0.40    1.13
  -5  -1  -5  317.08    3.48
  -8  -2  -2    1.58    0.80
  -7   0  -2    2.02    1.02
  -6  -4  -5   43.86    1.73
  -8  -6  -1   13.20    0.97
  -8  -1   0    1.46    0.68
  -7  -5  -4   23.59    1.23
  -6  -3  -5   29.77    1.41
  -7  -6  -3    4.92    0.89
  -7  -3  -4    0.65    1.07
  -6  -1  -4   59.85    2.06
  -6   1  -2   68.53    1.83
  -5  -4  -5    0.77    1.04
  -5  -2  -5  244.48    3.00
  -5   0  -4    0.26    0.80
  -5   1  -3   48.76    1.60
  -8  -5  -2    0.16    0.73
  -8  -3  -2   10.63    0.90
  -6   0  -3   57.40    1.92
  -8  -4  -2   24.98    1.17
  -8  -2  -1    1.50    0.77
  -8  -1   1    0.37    0.53
  -7   0  -1   18.20    1.19
  -6  -5  -4    1.34    1.00
  -7  -2  -3   21.80    1.15
  -6  -2  -4   -0.04    1.13
  -8  -5  -1    0.51    0.69
  -8  -3  -1   15.37    0.93
  -7  -5  -3    7.51    1.01
  -5  -1  -4   50.23    1.51
  -8  -4  -1   33.34    1.21
  -8  -2   0   14.15    0.92
  -7  -6  -2   24.14    1.14
  -7  -3  -3    7.23    1.24
  -6  -4  -4   22.67    1.56
  -6  -3  -4    0.71    1.25
  -6   1  -1   34.79    1.50
  -6  -1  -3   20.54    1.58
  -5   0  -3    3.19    1.17
  -5   1  -2   45.68    1.54
  -8  -5   0    0.84    0.78
  -8  -2   1    0.79    0.66
  -7   0   0   33.28    1.37
  -6   0  -2   68.75    2.01
  -8  -3   0   25.67    1.03
  -7  -2  -2   64.74    1.81
  -8  -5   1    2.50    0.83
  -8  -4   0    0.70    0.77
  -8  -2   2   -0.01    0.57
  -7  -5  -2    4.53    1.01
  -6  -5  -3    5.70    1.06
  -7  -6  -1    5.73    0.85
  -6  -2  -3    3.33    1.23
  -6   1   0   74.78    2.01
  -8  -4   1   72.43    1.46
  -8  -3   1   29.39    1.03
  -7  -3  -2    1.45    1.09
  -7   0   1    3.09    0.92
  -8  -3   2    9.22    0.74
  -6  -4  -3   53.31    1.72
  -6  -3  -3    7.79    1.24
  -8  -4   2    1.53    0.80
  -8  -3   3    8.40    0.72
  -7  -2  -1   81.37    1.95
  -6  -1  -2   12.09    1.38
  -6   0  -1   29.70    1.48
  -7  -6   0    4.76    0.83
  -7  -5  -1   21.46    1.19
  -7   0   2    3.70    0.88
  -5   1  -1   11.73    1.22
  -6   1   1  157.73    2.58
  -7  -3  -1    9.31    1.13
  -7   0   3   10.75    0.90
  -6  -5  -2    1.36    1.05
  -7  -6   1   28.57    1.14
  -7   0   4    0.37    0.61
  -6  -2  -2    0.20    0.89
  -7  -6   2   16.27    0.97
  -7  -2   0   37.57    1.52
  -6  -4  -2   57.20    1.78
  -6  -3  -2   31.54    1.56
  -7  -6   3    4.61    0.56
  -7  -6   3    0.23    0.35
  -7  -5   0  161.64    2.37
  -6  -1  -1   17.75    1.43
  -6   0   0   45.31    1.65
  -7  -3   0    2.21    1.02
  -6   1   2    2.97    0.98
  -7  -4   0   76.36    1.72
  -5   1   0    4.19    1.04
  -7  -5   1   39.80    1.38
  -7  -2   1   33.91    1.45
  -6  -5  -1    0.98    1.08
  -6  -2  -1   22.68    1.42
  -6   1   3    1.82    0.95
  -7  -5   2   16.28    1.04
  -7  -4   1   96.20    1.95
  -7  -3   1    2.25    0.92
  -7  -1   5   37.26    1.09
  -6  -4  -1    5.27    1.12
  -6   0   1  261.87    3.25
  -7  -2   2   18.37    1.20
  -6  -3  -1  130.38    2.28
  -6  -1   0    9.16    1.08
  -6   1   4   49.12    1.49
  -7  -5   3   25.55    1.08
  -7  -5   4   24.22    0.97
  -7  -2   6   15.30    0.79
  -6   1   5   36.79    1.41
  -6   1   6    3.18    0.69
  -7  -4   2    5.16    0.94
  -7  -3   2    4.72    0.93
  -7  -3   6    2.52    0.68
  -7  -2   3    4.44    0.87
  -6  -5   0    0.51    1.00
  -5   1   1  113.35    2.10
  -7  -4   5    0.25    0.83
  -7  -2   4    4.24    0.86
  -7  -2   5   41.49    1.14
  -6  -2   0    1.07    1.09
  -6   0   2  198.55    2.78
  -7  -4   3    3.59    0.66
  -7  -4   4    2.23    0.80
  -7  -3   3    2.24    0.79
  -7  -3   5    3.27    0.75
  -6  -1   1    7.57    1.27
  -7  -3   4    3.32    0.78
  -6  -4   0  182.69    2.72
  -6  -3   0  116.81    2.27
  -2  -3 -12   41.74    1.57
  -2   0 -11   73.41    1.98
  -2   1 -10   12.62    1.27
  -1   2  -8   43.27    1.55
  -4   0 -11  179.96    2.29
  -1   0 -10   13.80    1.46
   0  -1  -9  230.62    3.11
  -4  -6 -12    0.30    0.99
  -3  -5 -12   17.23    1.18
  -3   0 -11   24.68    1.38
  -3   1 -10  102.96    1.97
  -2  -5 -11    1.78    1.07
  -1  -4 -10   -0.79    1.14
  -1   1  -9  182.90    2.87
  -3  -2 -12   43.97    1.54
  -2  -1 -11    8.93    1.41
  -5  -1 -11   31.33    1.17
  -4  -2 -12    1.22    0.99
  -3  -6 -11   33.82    1.31
  -3  -3 -12   67.84    1.75
  -1  -3 -10   14.50    1.49
  -1  -1 -10    1.59    1.26
  -2  -4 -11  347.27    3.75
  -1  -2 -10   64.05    2.02
  -5  -3 -12    5.46    0.83
  -4  -5 -12   20.55    1.12
  -2  -2 -11   59.28    1.90
  -2   0 -10   17.62    1.45
  -4  -3 -12    8.06    1.00
  -2  -3 -11   67.10    1.84
  -2   1  -9   40.74    1.44
  -1  -4  -9    1.78    1.05
  -1   0  -9   84.63    2.13
  -5  -5 -12   12.65    1.11
  -4  -4 -12   38.95    1.41
  -4  -1 -11   84.78    2.00
  -2  -5 -10   22.96    1.35
  -5  -4 -12    0.36    0.77
  -4   0 -10  192.98    2.61
  -3   0 -10    8.02    1.15
  -3   1  -9  126.81    2.27
  -3  -5 -11   60.90    1.75
  -1  -1  -9   14.03    1.24
  -4  -6 -11    3.97    1.04
  -3  -2 -11   75.97    1.99
  -2  -1 -10    2.77    1.37
  -1  -3  -9   21.44    1.27
  -1  -2  -9   54.84    1.72
  -5  -2 -11   46.58    1.48
  -3  -6 -10   54.83    1.64
  -2  -4 -10    4.15    1.18
  -4  -2 -11   15.94    1.29
  -3  -3 -11   21.02    1.40
  -2  -2 -10    0.70    1.17
  -2   0  -9  359.65    3.88
  -2   1  -8  118.53    2.17
  -2  -3 -10   69.92    2.09
  -5  -6 -11   13.66    0.99
  -5  -1 -10   27.68    1.39
  -4  -5 -11   40.88    1.57
  -2  -5  -9   42.84    1.56
  -6  -5 -11   17.15    1.28
  -6  -4 -11    6.47    0.84
  -5  -3 -11   71.63    1.77
  -4  -3 -11   43.59    1.62
  -6  -2 -10   15.53    0.96
  -5  -7 -10   23.19    1.19
  -4  -4 -11   96.84    2.16
  -4  -1 -10   49.86    1.76
  -3   0  -9   18.79    1.42
  -3   1  -8  197.48    2.77
  -6  -7 -10    2.47    0.91
  -6  -1  -9   22.20    1.19
  -5  -5 -11   22.56    1.24
  -5  -4 -11    1.48    0.85
  -4   0  -9  199.32    2.85
  -3  -5 -10    4.06    0.97
  -2  -1  -9   41.11    1.67
  -3  -2 -10  231.15    3.25
  -2  -4  -9   18.71    1.38
  -4  -6 -10   19.35    1.30
  -3  -3 -10  120.79    2.48
  -2  -2  -9    9.17    1.24
  -2  -3  -9   17.56    1.27
  -6  -3 -10    1.43    0.99
  -4  -2 -10   14.36    1.42
  -7  -3  -9    2.11    0.71
  -5  -6 -10   38.41    1.49
  -5  -1  -9    8.80    1.18
  -5   0  -8   19.05    1.26
  -4  -5 -10    1.91    1.23
  -4  -3 -10  142.57    2.61
  -6  -4 -10    5.43    0.94
  -5  -3 -10    5.48    1.28
  -4  -4 -10  529.92    4.67
  -4  -1  -9    8.18    1.35
  -3  -5  -9   35.09    1.71
  -3   0  -8   70.88    1.99
  -7  -2  -8   53.50    1.37
  -6  -5 -10   45.74    1.44
  -6  -2  -9    0.93    0.87
  -5  -7  -9   -0.27    0.90
  -4   0  -8  345.82    3.68
  -6  -1  -8    7.85    1.05
  -5  -5 -10   85.43    1.86
  -5  -4 -10   15.58    1.25
  -3  -2  -9  172.81    2.68
  -6  -7  -9    5.65    0.88
  -4  -6  -9   -0.90    0.98
  -3  -3  -9   19.22    1.43
  -7  -6  -9   13.48    1.07
  -7  -4  -9   11.75    0.94
  -7  -5  -9   63.74    1.43
  -4  -2  -9    0.59    1.26
  -6  -3  -9   52.15    1.63
  -5  -6  -9   59.46    1.70
  -5   0  -7   26.21    1.47
  -4  -5  -9    6.33    1.12
  -4  -3  -9  180.32    2.84
  -3  -5  -8  147.87    2.40
  -7  -7  -8    1.22    0.95
  -7  -3  -8   43.05    1.38
  -5  -1  -8    2.47    1.24
  -4  -4  -9   73.68    2.06
  -4  -1  -8   17.54    1.37
  -6  -5  -9    0.89    1.11
  -6  -4  -9  267.82    3.12
  -5  -7  -8    2.08    0.90
  -5  -3  -9   69.68    1.89
  -3  -2  -8  200.90    2.78
  -7  -2  -7   33.85    1.48
  -6  -2  -8    6.66    1.18
  -5  -5  -9   12.95    1.28
  -5  -4  -9   17.15    1.34
  -4  -6  -8    6.97    1.08
  -4   0  -7  143.12    2.36
  -3  -4  -8   12.48    1.24
  -6  -7  -8    5.52    1.02
  -6  -1  -7   27.07    1.40
  -3  -3  -8   25.19    1.30
  -8  -5  -7   -0.08    0.74
  -7  -6  -8   38.97    1.30
  -7  -4  -8   64.13    1.60
  -7  -5  -8   55.04    1.44
  -4  -2  -8   -1.27    1.15
  -7  -8  -6    5.27    0.93
  -4  -5  -8   40.72    1.61
  -6  -3  -8  114.51    2.30
  -5  -6  -8   37.40    1.49
  -4  -3  -8  116.81    2.28
  -7  -7  -7    1.10    0.84
  -5  -7  -7   28.42    1.45
  -5  -1  -7    2.18    1.25
  -4  -4  -8  106.56    2.26
  -7  -3  -7    4.38    1.10
  -6  -5  -8   -0.34    1.15
  -6  -4  -8   44.68    1.64
  -5  -3  -8    7.15    1.31
  -4  -1  -7    9.61    1.22
  -6  -7  -7   36.27    1.29
  -6  -2  -7   19.35    1.41
  -5  -5  -8    4.15    0.90
  -5  -4  -8    0.90    1.18
  -4  -6  -7  163.08    2.41
  -8  -6  -6   14.76    1.07
  -7  -2  -6   41.93    1.58
  -6  -1  -6    4.83    1.40
  -8  -5  -6   28.48    1.03
  -8  -3  -5   38.52    1.20
  -7  -6  -7   31.19    1.29
  -7  -4  -7   15.04    1.30
  -8  -7  -5  108.35    1.70
  -7  -8  -5   65.54    1.38
  -7  -5  -7   19.92    1.20
  -4  -2  -7   15.35    1.14
  -5  -6  -7   20.52    1.35
  -4  -5  -7    1.56    1.10
  -7  -7  -6    3.87    0.86
  -6  -6  -7    0.45    1.11
  -6  -3  -7  169.63    2.65
  -7  -3  -6    5.67    1.20
  -5  -7  -6    9.10    1.00
  -5  -1  -6  104.76    2.26
  -4  -4  -7   47.54    1.55
  -4  -3  -7    4.30    0.78
  -8  -6  -5   25.02    1.21
  -8  -2  -3    4.18    0.70
  -6  -7  -6  456.04    3.77
  -6  -5  -7   29.31    1.56
  -6  -4  -7   87.36    2.09
  -5  -3  -7   11.67    1.34
  -8  -5  -5    3.89    0.77
  -7  -2  -5   24.49    1.20
  -6  -2  -6   10.67    1.35
  -5  -4  -7    9.80    1.32
  -4  -6  -6    1.72    0.93
  -8  -7  -4   13.75    0.87
  -8  -3  -4   30.68    1.14
  -7  -8  -4    0.88    0.72
  -7  -6  -6    6.48    1.00
  -7  -4  -6   26.08    1.40
  -7  -5  -6    5.10    0.97
  -6  -1  -5   25.26    1.40
  -7  -7  -5   12.30    1.03
  -6  -6  -6  177.54    2.76
  -6  -3  -6   69.82    1.98
  -5  -6  -6  787.82    5.31
  -8  -6  -4   89.72    1.58
  -8  -4  -4   21.87    1.12
  -8  -2  -2    1.07    0.59
  -7  -8  -3   15.19    0.94
  -5  -7  -5    0.49    0.92
  -8  -7  -3    5.44    0.76
  -8  -5  -4    4.86    0.82
  -7  -1  -3   12.35    1.04
  -6  -7  -5    8.04    1.13
  -6  -5  -6    4.89    1.23
  -6  -4  -6   98.10    2.19
  -8  -3  -3    7.31    0.95
  -7  -6  -5  515.13    4.01
  -7  -2  -4  124.90    2.21
  -5  -3  -6    2.16    1.13
  -5  -1  -5  322.53    3.42
  -7  -4  -5    2.58    1.16
  -6  -2  -5    1.99    1.10
  -5  -4  -6   22.95    1.44
  -7  -7  -4   -0.35    0.89
  -7  -5  -5   63.13    1.71
  -6  -1  -4   60.93    1.79
  -8  -7  -2    4.27    0.79
  -8  -6  -3    2.90    0.73
  -8  -2  -1    0.38    0.63
  -8  -4  -3    8.39    0.99
  -6  -6  -5  107.07    2.21
  -5  -6  -5   74.25    1.87
  -8  -5  -3    0.71    0.76
  -8  -3  -2    8.63    0.93
  -6  -7  -4   12.34    1.12
  -6  -3  -5   28.51    1.57
  -7  -6  -4    7.17    1.04
  -7  -1  -2   22.33    1.20
  -6  -5  -5   13.66    1.29
  -8  -6  -2    2.46    0.75
  -8  -2   0    9.87    0.73
  -7  -7  -3   11.03    1.02
  -7  -2  -3   22.13    1.27
  -6  -4  -5   45.09    1.50
  -8  -4  -2   24.49    1.10
  -7  -5  -4   19.83    1.26
  -7  -4  -4    2.36    1.14
  -5  -3  -5    2.07    0.98
  -8  -5  -2    0.36    0.67
  -6  -2  -4   -0.25    0.88
  -5  -4  -5    1.81    0.96
  -8  -3  -1   17.02    0.93
  -6  -6  -4    7.56    1.18
  -6  -1  -3   20.43    1.46
  -8  -6  -1   20.77    1.02
  -6  -7  -3   25.08    1.27
  -7  -7  -2    4.29    0.91
  -7  -6  -3    3.96    1.02
  -7  -1  -1  135.21    2.11
  -6  -3  -4    3.35    1.23
  -5  -6  -4   19.41    1.07
  -8  -5  -1    0.26    0.67
  -8  -4  -1   33.15    1.18
  -8  -3   0   23.40    0.94
  -7  -2  -2   59.98    1.66
  -6  -5  -4    1.22    1.13
  -8  -6   0    6.09    0.84
  -7  -5  -3    8.45    1.08
  -7  -4  -3    5.69    1.15
  -6  -4  -4   25.37    1.23
  -8  -6   1   12.74    0.79
  -5  -5  -4   80.33    1.80
  -8  -5   0    1.66    0.64
  -8  -4   0    0.48    0.78
  -8  -3   1   31.37    1.01
  -7  -7  -1    1.09    0.82
  -6  -2  -3    3.65    1.10
  -7  -6  -2   25.89    1.32
  -7  -1   0  102.38    1.91
  -6  -7  -2   26.98    1.24
  -6  -6  -3    4.79    1.08
  -6  -1  -2   12.73    1.22
  -8  -5   1    1.10    0.56
  -8  -3   2    7.96    0.69
  -8  -5   2    0.31    0.64
  -8  -4   1   67.64    1.42
  -7  -7   0   -0.41    0.80
  -7  -5  -2    4.86    0.98
  -7  -4  -2    3.74    1.11
  -7  -2  -1   72.23    1.77
  -6  -3  -3    7.86    1.23
  -5  -6  -3   52.76    1.54
  -8  -4   2    1.41    0.56
  -6  -5  -3    7.17    0.96
  -6  -4  -3   53.60    1.63
  -7  -7   1    1.04    0.67
  -7  -7   2   10.37    0.93
  -6  -7  -1   27.02    1.25
  -7  -1   1   18.62    1.08
  -6  -6  -2   11.99    1.15
  -6  -2  -2    0.64    1.05
  -5  -5  -3   78.09    1.80
  -7  -5  -1   22.74    1.26
  -7  -4  -1    6.21    1.08
  -7  -2   0   36.87    1.38
  -6  -1  -1   15.96    1.25
  -7  -1   2    1.46    0.75
  -6  -7   0   42.86    1.42
  -5  -6  -2   30.38    1.24
  -6  -5  -2    0.21    1.09
  -6  -3  -2   35.55    1.57
  -6  -4  -2   56.89    1.74
  -7  -5   0  173.19    2.38
  -7  -4   0   85.74    1.89
  -7  -2   1   35.60    1.32
  -7  -1   3    4.18    0.78
  -6  -7   1   27.58    1.18
  -6  -6  -1    3.39    0.84
  -7  -6   4  110.01    1.59
  -7  -1   4    8.45    0.82
  -6  -2  -1   21.77    1.46
  -7  -6   3   10.04    0.85
  -6  -7   2   12.14    0.92
  -6  -1   0   12.82    1.20
  -7  -5   1   43.64    1.46
  -7  -3   1    1.59    1.08
  -7  -2   2   19.29    1.13
  -6  -7   3  246.33    2.49
  -6  -5  -1    0.88    1.12
  -7  -4   1   98.70    1.96
  -6  -6   0   13.94    1.15
  -6  -3  -1  133.74    2.39
  -5  -6  -1   55.51    1.41
  -6  -4  -1    3.51    0.92
   2  -3 -12   16.03    1.13
   3  -3  -6    3.61    1.32
   3  -1 -11   34.98    1.34
   3   2 -10   25.42    1.31
   4   0  -7    9.08    1.38
   4   0  -6   90.18    2.29
   4   1  -7    2.12    1.20
   3  -3  -8  177.56    2.83
   3  -3  -7   52.76    1.97
   3  -2 -10   56.25    1.69
   4   1  -6   13.27    1.37
   2   1 -12    0.71    0.65
   1  -5 -11   37.07    1.24
   2  -4 -10   39.93    1.48
   3  -2  -9   30.80    1.70
   2  -4  -9   55.55    1.77
   2  -4  -6   68.58    1.91
   2  -2 -12    0.02    0.76
   3  -1 -10    6.37    0.88
   3   1 -10  481.01    4.09
   1  -3 -13   43.27    1.31
   2  -4  -7   84.44    2.12
   2  -3 -11    6.27    1.17
   2   0 -12    1.52    0.85
   3  -2  -8  118.31    2.55
   3  -2  -6   62.09    1.91
   3   0 -10   49.11    1.68
   3   2  -9   42.74    1.63
   1  -5 -10   11.30    1.15
   1  -4 -12    0.59    0.82
   2  -4  -8   42.69    1.75
   2  -1 -12   25.77    1.17
   3  -2  -7  321.30    3.91
   3  -1  -9    4.24    1.20
   1  -5  -9    5.16    1.12
   1  -2 -13   41.42    1.22
   3   0  -9    3.03    1.23
   3   1  -9   26.59    1.47
   3   2  -8   14.88    1.25
   0  -5 -12    1.77    0.97
   1  -1 -13    1.85    0.66
   2  -3 -10    5.46    1.28
   2  -2 -11   15.48    1.21
   3  -1  -8    6.71    1.31
   2   1 -11    1.67    1.03
   3  -1  -7   13.64    1.37
   0  -4 -13   50.10    1.41
   1  -4 -11   -0.48    1.09
   3   0  -8   -0.62    1.31
   3   1  -8    8.46    1.25
   3   2  -7    6.72    1.12
   1  -3 -12   31.80    1.31
   2  -1 -11  141.52    2.51
   2   2 -10    9.79    1.13
   3   0  -7    1.86    1.13
  -1  -5 -13   38.68    1.30
   1   1 -12    2.99    0.88
   2  -3  -8   -0.54    1.41
   3   1  -7    4.10    1.32
   2  -3  -7   64.76    2.01
   2  -2 -10    3.93    1.15
   0  -5 -11   27.48    1.32
   1  -4 -10    2.65    1.12
   0  -3 -13    7.47    0.96
   1  -2 -12   36.24    1.47
   2  -1 -10   54.74    1.98
   2   1 -10   38.15    1.61
   0   0 -13   57.88    1.33
   1  -1 -12    9.55    1.18
   1   0 -12   12.12    1.17
   2  -2  -9   -0.43    1.34
   2   2  -9    3.17    1.11
   0  -4 -12  106.89    2.09
   1  -4  -9   14.89    1.56
   1  -3 -11    7.05    1.22
   0  -5 -10   37.80    1.59
   0  -2 -13   10.41    0.98
   0  -1 -13   23.34    1.14
   1  -4  -8    6.06    1.27
   2  -2  -8    1.34    1.27
   2  -1  -9   30.13    1.75
  -1  -5 -12   65.18    1.70
  -1  -4 -13    1.16    0.85
   1   1 -11    2.49    0.91
   2   0  -9   48.57    1.97
   2   1  -9    5.10    1.06
   2   2  -8   44.92    1.67
  -2  -5 -13   37.86    1.29
   0  -5  -9   38.08    1.59
   0   1 -12   54.01    1.44
   1  -3 -10    8.00    1.34
   1  -2 -11    2.48    0.95
   2  -1  -8   24.25    1.51
   0  -3 -12   24.68    1.48
   1   2 -10   58.16    1.71
   0  -4 -11   21.38    1.44
   1  -1 -11    8.32    1.16
   2   0  -8   83.77    2.15
   2   1  -8    0.98    1.23
  -1   0 -13    8.04    0.81
  -1  -3 -13   93.60    1.84
   0   0 -12   37.17    1.55
   1  -2 -10   18.42    1.58
  -1  -5 -11   10.03    1.19
   0  -2 -12   43.43    1.59
   1  -3  -8   84.48    2.21
   1   1 -10    8.37    1.38
  -1  -2 -13   54.22    1.53
  -1  -1 -13   21.78    1.15
   0  -4 -10   44.10    1.74
   0  -1 -12    4.73    1.19
  -3  -5 -13    2.92    0.99
  -1  -4 -12    1.20    0.86
   0  -3 -11   38.89    1.80
   1  -1 -10   36.07    1.62
   1   2  -9   87.09    2.02
  -2  -5 -12   38.61    1.61
  -2   0 -13   49.24    1.16
  -2   0 -13   25.40    0.87
  -1   1 -12   96.93    1.77
   1  -2  -9   42.73    1.83
  -1  -5 -10  101.38    2.22
   0  -4  -9   54.33    1.95
   0   1 -11    3.45    1.13
  -2  -3 -13   21.46    1.20
  -1  -3 -12   72.34    1.99
   0  -2 -11    2.01    1.23
   0   2 -10   17.03    1.18
   1  -1  -9   81.44    2.23
   1   1  -9  850.99    5.91
  -2  -1 -13  122.77    1.96
  -1  -4 -11   -0.49    1.30
   0  -4  -8  142.29    2.39
   0  -3 -10   18.16    1.56
   0  -1 -11   13.05    1.54
   0   0 -11    6.86    1.42
   1   2  -8  178.36    2.69
  -2  -2 -13   -1.84    0.91
  -2   1 -12   -0.17    0.87
  -1  -5  -9  130.72    2.44
  -1   0 -12   55.00    1.81
  -1  -2 -12  129.36    2.46
  -1  -1 -12   12.49    1.28
  -2  -5 -11    3.72    1.13
  -2  -4 -12  140.41    2.41
  -3  -5 -12   16.62    1.17
   0  -2 -10   16.81    1.61
   0   1 -10    4.53    1.45
  -3  -3 -13    6.85    0.95
  -1  -4 -10    0.32    1.13
  -1   1 -11   42.64    1.62
  -3  -2 -13   78.39    1.61
  -1  -3 -11  141.73    2.60
   0  -1 -10  200.96    3.26
   0   2  -9   22.54    1.48
  -2   0 -12  108.98    2.13
  -4  -3 -13    0.56    1.03
  -2  -5 -10   23.47    1.43
  -2  -3 -12   38.15    1.50
   0  -2  -9    1.37    1.23
  -4  -5 -12   22.07    1.12
  -2  -1 -12   56.76    1.75
  -1  -2 -11  211.39    3.11
  -1   0 -11    1.38    1.36
  -2  -4 -11  340.29    3.91
  -2  -2 -12    1.36    0.82
  -1  -4  -9    0.32    1.26
  -1  -1 -11   39.01    1.83
   0   1  -9  156.38    2.69
  -3  -5 -11   58.28    1.74
  -3   0 -12    4.13    0.91
  -2   1 -11   59.08    1.81
  -1  -3 -10   13.75    1.50
   0  -1  -9  229.86    3.24
   0   2  -8    2.79    1.15
  -2  -5  -9   40.78    1.66
  -1   1 -10    8.58    1.39
  -3  -3 -12   71.39    1.91
  -3  -1 -12   36.03    1.50
  -2  -3 -11   66.64    2.10
  -3  -2 -12   41.96    1.52
  -3   1 -11   93.15    1.90
  -1  -2 -10   62.10    1.90
  -4  -1 -12   95.49    1.75
  -2  -4 -10    6.03    1.30
  -2   0 -11   74.05    2.05
  -1  -1 -10    3.73    1.34
  -1   0 -10    9.77    1.59
  -1   2  -9   15.00    1.29
  -4  -5 -11   38.82    1.64
  -3  -5 -10    3.03    1.22
  -2  -2 -11   63.20    2.02
  -2  -1 -11   11.02    1.44
  -5  -3 -12    7.09    1.17
  -5  -2 -12   46.11    1.35
  -4  -3 -12    7.84    1.11
  -4  -2 -12    0.69    0.93
  -3  -4 -11    6.33    1.03
  -5  -5 -11   20.63    1.20
  -2   1 -10    8.52    1.35
  -1  -2  -9   55.49    1.87
  -1   1  -9  175.94    2.87
  -3  -3 -11   22.65    1.58
  -3   0 -11   23.51    1.56
  -2  -4  -9   19.68    1.47
  -2  -3 -10   68.86    2.18
  -4   0 -11  200.07    2.62
  -1  -1  -9   16.28    1.43
  -4  -4 -11  100.65    2.24
  -3  -5  -9   30.57    1.60
  -3  -2 -11   75.95    2.06
  -3  -1 -11   23.38    1.64
  -2   2  -9   16.74    1.27
  -4  -5 -10    1.04    1.24
  -3  -4 -10    0.76    1.30
  -2  -2 -10    0.10    1.21
  -2   0 -10   17.67    1.58
  -3   1 -10  111.48    2.26
  -2  -1 -10    3.52    1.41
  -5  -1 -11   35.27    1.31
  -4  -3 -11   45.73    1.89
  -4  -1 -11   85.75    2.06
  -4   1 -10   74.22    1.76
  -4  -2 -11   12.92    1.25
  -6  -5 -10   39.76    1.37
  -5  -5 -10   89.94    2.05
  -5  -3 -11   69.95    1.77
  -5  -2 -11   45.78    1.56
  -2   1  -9   38.27    1.82
  -3  -3 -10  115.97    2.42
  -3   0 -10    8.86    1.42
  -4  -4 -10  530.51    4.76
  -3  -4  -9    0.44    1.23
  -2  -2  -9    8.97    1.31
  -5   0 -10    1.23    0.92
  -4  -5  -9    5.11    1.27
  -3  -2 -10  230.33    3.32
  -3  -1 -10   41.25    1.85
  -2   0  -9  336.43    3.86
  -2   2  -8   17.05    1.45
  -7  -5  -9   53.65    1.49
  -6  -1 -10   34.58    1.15
  -4   0 -10  200.08    3.04
  -2  -1  -9   37.75    1.72
  -6  -4 -10    4.98    1.02
  -5  -4 -10   16.47    1.37
  -5   1  -9   34.55    1.33
  -4  -3 -10  139.83    2.72
  -3   1  -9  126.76    2.56
  -6  -3 -10    1.73    1.01
  -6  -2 -10   15.12    1.06
  -5  -5  -9   15.84    1.35
  -5  -1 -10   24.59    1.38
  -4  -2 -10   12.58    1.40
  -4  -1 -10   42.47    1.86
  -3  -3  -9   21.45    1.51
  -6  -5  -9    0.16    1.04
  -6   0  -9  119.89    1.90
  -5  -3 -10    7.74    1.32
  -4   1  -9   60.20    1.80
  -3   2  -8   30.71    1.43
  -2   1  -8  112.82    2.34
  -7  -4  -9    8.83    0.99
  -5  -2 -10   34.53    1.53
  -4  -5  -8   42.28    1.64
  -4  -4  -9   71.87    2.10
  -3  -4  -8   11.55    1.25
  -7  -2  -9   25.12    1.12
  -6   1  -8  142.26    2.00
  -4   2  -8   13.44    1.15
  -3  -2  -9  170.50    2.91
  -3   0  -9   14.61    1.35
  -7  -3  -9    1.34    1.05
  -3  -1  -9   15.87    1.46
  -7  -5  -8   54.71    1.47
  -6  -4  -9  263.26    3.24
  -6  -1  -9   28.54    1.40
  -5  -4  -9   19.79    1.57
  -5   0  -9    4.09    1.35
  -4  -3  -9  187.76    3.06
  -4   0  -9  190.08    3.06
  -5  -5  -8    3.58    1.12
  -3   1  -8  198.88    3.04
  -7  -1  -8   26.05    1.10
  -6  -5  -8    2.00    1.00
  -6  -3  -9   49.03    1.70
  -4  -2  -9    2.14    1.39
  -4  -1  -9    8.44    1.43
  -6  -2  -9    0.94    0.96
  -5  -3  -9   75.28    2.14
  -5  -1  -9   11.60    1.43
  -5   1  -8  210.80    2.89
  -4  -4  -8  108.94    2.37
  -7  -4  -8   62.34    1.60
  -5  -2  -9   97.32    2.28
  -5   2  -7   29.54    1.36
  -4   1  -8   67.34    2.11
  -3  -2  -8  202.71    2.92
  -3   2  -7   55.06    1.88
  -7   0  -7   21.60    0.94
  -6   0  -8  399.04    3.72
  -7  -5  -7   18.90    1.11
  -7  -3  -8   42.00    1.39
  -7  -2  -8   59.96    1.53
  -4   2  -7   12.58    1.20
  -3  -1  -8   21.60    1.24
  -6  -4  -8   43.86    1.68
  -6   1  -7    1.27    1.03
  -5  -5  -7   13.24    1.37
  -5  -4  -8    0.71    1.10
  -6  -5  -7   26.25    1.35
  -6  -1  -8   10.98    1.42
  -8  -4  -6   13.72    1.07
  -6  -3  -8  118.18    2.45
  -5  -3  -8    7.43    1.39
  -4  -4  -7   48.71    1.75
  -4  -2  -8   -2.14    1.22
  -4  -1  -8   20.17    1.55
  -3   1  -7  272.85    3.36
  -8  -2  -6    4.85    0.90
  -7  -4  -7   13.83    1.29
  -7  -1  -7    6.48    1.03
  -6  -2  -8    6.56    1.22
  -5  -1  -8    1.14    1.39
  -5  -2  -8   73.16    2.20
  -5   1  -7  159.47    2.70
  -7  -5  -6    4.59    0.97
  -5   2  -6   84.54    1.98
  -4   1  -7    2.02    1.20
  -7  -3  -7    3.89    1.12
  -7  -2  -7   31.73    1.24
  -7   1  -5   13.27    0.92
  -5  -4  -7    8.21    1.44
  -3   2  -6   45.53    1.54
  -6  -5  -6    3.60    1.10
  -6  -4  -7   88.28    2.17
   4  -5   1    7.74    1.61
   5  -2   2   59.32    2.26
   6  -3  -1   27.23    1.58
   6   0   0   47.84    1.82
   5  -5  -1   40.88    1.70
   5  -1   2   49.92    1.98
   6  -1   0   79.66    2.22
   2  -5   2   12.11    1.35
   3  -7  -1   10.28    1.14
   4  -6  -1    2.43    1.21
   5  -4   0    0.74    1.24
   5  -3   1    7.36    1.13
   6  -2  -1    4.73    1.25
   6   0  -1  242.46    3.34
   4  -3   2    5.44    1.56
   5  -5  -2   29.44    1.38
   6  -3  -3   10.32    1.07
   3  -4   2   17.72    1.62
   5  -2   1   44.89    2.03
   6  -3  -4    3.56    0.85
   6  -1  -1  162.48    2.73
   3  -6   0   31.04    1.74
   4  -4   1    8.84    1.63
   6  -2  -2   23.98    1.37
   3  -5   1  111.23    2.60
   5  -5  -3    2.36    0.78
   5  -4  -1   -2.16    1.15
   6  -2  -5    2.35    0.87
   6  -1  -2    1.36    1.17
   3  -7  -2    4.20    1.20
   5  -3   0   26.11    1.73
   6  -2  -4    3.65    0.99
   6  -2  -3   -1.25    0.96
   5  -5  -4  105.80    1.94
   6  -1  -3    2.13    1.01
   5  -5  -5    1.61    0.80
   4  -3   1  150.75    2.94
   5  -4  -2    0.29    1.09
   5  -2   0   67.72    2.16
   2  -6   0   -0.23    1.19
   4  -6  -3    1.39    1.03
   4  -5  -1    0.50    1.30
   5  -3  -1   32.81    1.79
   5  -1   0    5.04    1.34
   2  -8  -4   36.36    1.42
   3  -7  -3    1.42    1.07
   3  -6  -1    8.91    1.34
   3  -4   1    2.17    1.28
   4  -4   0    4.32    1.15
   3  -5   0  134.10    2.70
   5  -4  -7   -0.01    0.56
   5  -4  -3    4.29    1.33
   4  -6  -4    2.95    1.00
   2  -7  -2   55.36    1.75
   3  -7  -4    2.66    1.06
   4  -6  -7    4.84    0.78
   4  -6  -5   -0.03    0.89
   4  -5  -2   11.31    1.49
   5  -4  -4    9.86    1.26
   5  -3  -2   85.47    2.28
   2  -8  -5    6.80    0.91
   4  -6  -6    0.33    0.86
   4  -3   0   44.18    1.79
   5  -4  -6   -0.45    0.76
   5  -4  -5    0.86    0.97
   5  -1  -1  113.16    2.23
   3  -6  -2    6.31    1.34
   4  -4  -1   69.64    2.28
   2  -8  -6   18.19    1.12
   3  -7  -5    6.20    1.01
   5  -3  -3  113.33    2.46
   5  -2  -2   52.02    2.08
   5   0  -2    0.30    0.82
   2  -8  -7   21.44    1.12
   2  -6  -1    9.95    1.41
   4  -5  -3   32.34    1.67
   5  -3  -7    0.15    0.76
   5  -1  -2   41.33    1.72
   3  -7  -7   26.32    1.19
   3  -5  -1   26.87    1.79
   2  -7  -3    2.88    1.35
   5  -3  -6    3.98    1.01
   5  -3  -5    3.39    1.17
   5  -2  -3  119.47    2.50
   4  -5  -8   19.44    0.92
   4  -5  -4   22.78    1.41
   4  -4  -2   48.96    1.78
   4  -3  -1   43.81    1.81
   5  -2  -7   19.89    1.15
   5  -1  -3  122.38    2.41
   5  -2  -4   38.08    1.76
   4  -5  -7   24.05    1.22
   4  -5  -5   11.59    1.17
   5  -2  -6   88.03    1.98
   5  -2  -5   62.19    1.91
   5  -1  -4   18.95    1.35
   4  -5  -6    3.04    0.99
   4  -4  -9   12.81    0.93
   5  -1  -5   13.64    1.17
   1  -8  -5    1.57    0.90
   2  -7  -4    5.71    1.18
   2  -6  -2   28.10    1.68
   3  -6  -4   35.71    1.50
   3  -4  -1    2.26    1.08
   4  -4  -3  242.36    3.42
   3  -6  -9   16.97    1.04
   4  -3  -2   42.39    1.65
   3  -6  -5   26.58    1.53
   4  -4  -4   21.11    1.63
   1  -8  -6   14.23    1.12
   1  -7  -3    4.15    1.30
   2  -7  -5   36.28    1.57
   4  -4  -8   44.71    1.45
   1  -8  -9    1.12    0.97
   3  -6  -8  278.50    2.90
   3  -6  -7   48.86    1.56
   3  -6  -6   52.28    1.76
   3  -5  -3  212.94    3.40
   4  -4  -5   48.58    1.90
   4  -3  -9    1.52    0.87
   4  -3  -3   15.49    1.54
   1  -8  -7    8.62    1.08
   2  -7  -9   33.33    1.30
   2  -6  -3    5.82    1.31
   4  -4  -6   19.87    1.44
   1  -8  -8    5.67    0.87
   2  -7  -6    7.94    1.25
   3  -4  -2    0.14    1.10
   2  -7  -8  250.32    2.81
   4  -3  -4   19.13    1.59
   3  -5  -4   18.22    1.52
   4  -3  -8   37.36    1.47
   4  -2  -3   32.42    1.55
   1  -7  -4   17.45    1.32
   2  -6  -4    5.66    1.44
   3  -5  -9   20.96    1.19
   3  -5  -5    3.06    1.32
   4  -3  -7    0.28    1.06
   4  -3  -6   40.86    1.81
   3  -4  -3    3.29    1.26
   4  -2  -8   12.71    1.16
   4  -2  -4    5.55    1.41
   3  -5  -8   18.34    1.37
   3  -5  -6   35.13    1.78
   0  -8 -10    0.97    1.10
   1  -7  -5   30.63    1.68
   2  -6 -10    2.11    0.79
   3  -5  -7   38.40    1.63
   3  -4 -10    6.40    0.85
   4  -2  -7   10.90    1.15
   4  -2  -5   -0.12    1.20
   1  -6  -3  162.09    2.76
   2  -5  -3   13.94    1.42
   4  -2  -6   -2.42    1.24
   0  -8  -9    0.69    1.02
   0  -8  -7   27.53    1.39
   3  -4  -4    1.91    0.86
   4  -1  -6   35.98    1.61
   4  -1  -5   15.27    1.40
   0  -8  -8    8.06    1.03
   1  -7 -10    3.90    0.90
   1  -7  -6   46.14    1.81
   2  -6  -9    0.74    0.82
   2  -6  -6    7.75    1.38
   2  -6  -8    6.19    1.20
   2  -6  -7    4.77    1.25
   2  -5 -11   41.57    1.27
   3  -4  -5    0.59    1.37
   3  -3 -10   35.27    1.37
   1  -7  -7   38.24    1.66
   1  -7  -8    8.62    0.98
   2  -5  -4    7.88    1.24
   3  -4  -8    7.97    1.03
   3  -4  -7    1.85    1.32
   3  -4  -6   -0.43    1.29
   1  -6  -4  137.21    2.63
   2  -3 -12    0.68    0.63
   2  -3 -12    0.30    0.52
   3  -2 -10   50.59    1.51
   2  -5 -10   36.38    1.51
   3  -3  -9  115.10    2.26
   0  -7  -5   67.88    2.04
   1  -6 -11   47.24    1.39
   2  -5  -5    7.74    1.53
  -1  -8 -10    1.08    0.76
   2  -4 -11   76.24    1.78
   3  -3  -5    1.86    1.13
  -1  -8  -9    4.07    1.01
  -1  -8  -8   16.62    1.25
   1  -6  -5  169.10    3.07
   2  -5  -9   13.60    1.30
   2  -5  -6   49.17    2.05
   3  -3  -8  187.90    3.07
   0  -7  -6   82.85    2.26
   1  -5 -12    2.53    0.80
   2  -5  -8   10.21    1.34
   2  -5  -7   33.44    1.79
   3  -3  -7   57.89    1.89
   3  -2  -9   29.69    1.56
   1  -6 -10   36.21    1.50
   1  -6  -6   99.91    2.64
   3  -2  -8  117.37    2.46
   0  -7  -9   45.28    1.81
   0  -7  -7  339.81    4.04
   0  -6 -12    2.56    0.90
   1  -6  -9   12.32    1.48
   2  -3 -11    4.97    1.12
  -2  -8 -10   83.19    1.82
   0  -7  -8  131.60    2.60
   0  -5 -13   13.19    0.88
   1  -6  -8  202.56    3.13
   3  -2  -7  319.76    3.95
   3  -2  -6   64.02    1.93
   1  -5 -11   40.54    1.58
   2  -2 -11   11.44    1.29
   3  -1  -8    6.21    1.26
   2  -4  -9   56.85    1.81
   3  -1  -7   14.43    1.35
   2  -4  -8   45.07    2.03
   2  -4  -7   83.78    2.39
   2  -4  -6   71.21    2.13
  -1  -7 -11    3.75    1.03
   0  -6 -11   22.71    1.32
   2  -3 -10    7.75    1.23
   1  -5 -10    9.83    1.30
  -2  -7 -12   16.26    1.29
   1  -3 -12   28.71    1.36
  -1  -7 -10   60.75    1.92
   1  -5  -9    5.63    1.28
   1  -5  -6   83.68    2.25
   2  -3  -9   30.64    1.82
   2  -2 -10    1.74    1.11
  -1  -7  -9   23.57    1.46
  -1  -7  -7    8.39    1.29
   0  -6 -10    2.03    1.29
   0  -6  -6   91.45    2.42
   0  -5 -12    1.47    0.92
   1  -5  -8   16.85    1.64
   1  -5  -7   26.28    1.78
   1  -4 -11   -1.25    1.09
  -1  -7  -8   10.13    1.41
  -1  -6 -12   53.50    1.57
   1  -2 -12   34.07    1.36
  -2  -6 -13   -0.18    0.88
   0  -6  -9   17.65    1.32
   0  -6  -7   18.39    1.51
   0  -3 -13    7.56    1.01
   2  -3  -7   61.24    1.98
  -3  -7 -12   20.24    1.32
  -2  -7 -11   34.74    1.49
  -1  -5 -13   43.57    1.32
   2  -2  -9    0.79    1.28
   0  -2 -13    9.21    1.00
   1  -4 -10    2.22    1.02
   0  -5 -11   26.57    1.30
   1  -3 -11    5.59    1.27
  -2  -7 -10   82.32    1.93
  -1  -6 -11   87.04    2.19
   0  -4 -12  104.62    2.15
   1  -4  -9   13.39    1.56
   2  -2  -8    2.48    1.27
   2  -1  -9   28.53    1.63
  -2  -7  -9  161.59    2.76
  -2  -7  -8  185.79    2.93
   0  -5 -10   43.52    1.90
   1  -4  -8    5.97    1.39
   1  -4  -7    2.91    1.13
   1  -2 -11    3.29    1.19
  -3  -7 -11   16.03    1.22
  -2  -6 -12    5.51    1.07
  -1  -5 -12   71.39    1.82
  -1  -4 -13    0.71    0.95
   2  -1  -8   23.18    1.57
   0  -5  -9   38.29    1.95
   1  -1 -11   10.76    1.24
  -2  -5 -13   38.74    1.32
  -1  -6  -9  180.16    3.20
   0  -4 -11   20.35    1.63
   0  -3 -12   25.51    1.54
  -3  -7 -10    0.79    1.03
  -1  -6  -8  258.41    3.65
  -1  -6  -7  360.45    4.13
   0  -5  -8   59.61    2.17
   1  -2 -10   18.65    1.57
  -3  -7  -9   20.19    1.39
  -1  -5 -11   10.17    1.29
   0  -2 -12   41.48    1.70
  -3  -6 -12    7.72    1.04
  -1  -2 -13   52.84    1.58
  -1  -1 -13   18.37    1.08
   0  -4 -10   42.67    2.01
   0  -1 -12    6.69    1.08
   1  -3  -8   85.36    2.09
  -3  -5 -13    2.08    1.31
  -1  -4 -12    0.97    1.11
   1  -1 -10   38.27    1.64
  -2  -6 -10   18.09    1.59
  -2  -5 -12   36.77    1.59
  -2  -4 -13   88.03    1.88
   1  -2  -9   43.69    1.94
  -4  -6 -12    1.34    1.04
  -1  -5 -10  105.20    2.70
   0  -4  -9   51.69    2.05
  -3  -6 -11   35.00    1.69
  -2  -6  -9   -1.27    1.37
   0  -4  -8  146.12    2.75
  -2  -6  -8   37.89    1.79
  -2  -6  -7   41.70    1.72
  -2  -3 -13   22.87    1.23
  -1  -5  -9  134.76    2.83
  -1  -4 -11    0.68    1.22
  -1  -3 -12   74.50    2.00
   0  -3 -10   15.78    1.61
   0  -2 -11    1.10    1.29
   1  -1  -9   80.75    2.09
  -3  -4 -13    8.76    0.94
  -5  -6 -11    9.46    1.03
  -3  -5 -12   16.83    1.22
  -2  -5 -11    3.23    1.03
   0  -1 -11   14.84    1.30
  -4  -6 -11    2.09    1.11
  -3  -6 -10   51.69    1.78
  -2  -4 -12  145.30    2.50
  -2  -2 -13    1.00    0.86
  -2  -1 -13  123.00    1.84
  -1  -2 -12  129.82    2.52
  -4  -4 -13   14.23    1.14
  -1   0 -12   49.10    1.66
   0  -3  -9   17.91    1.52
  -5  -5 -12   11.91    1.12
  -3  -3 -13    8.19    0.95
  -1  -4 -10    1.16    0.92
  -1  -1 -12   12.86    1.34
   0  -2 -10   13.94    1.58
  -3  -6  -9   75.19    1.92
  -2  -5 -10   21.37    1.39
   2  -6   6   43.27    1.59
   2  -2   8   17.43    1.49
   4   1   8   17.35    1.34
   6  -2   7    4.24    0.89
   1  -3   7   36.59    1.69
   4  -3   8    5.45    1.18
   3  -3   8   49.62    1.90
   3   0   8   67.78    1.97
   5  -1   8  210.51    3.03
   5   0   8   21.04    1.58
   0  -5   5    0.41    1.01
   1  -5   6   22.40    1.61
   1  -6   5   10.90    1.42
   2  -4   7  326.03    3.95
   3  -2   8   36.45    1.86
   3  -1   8  200.14    3.14
   4  -4   7   16.91    1.30
   4  -2   8   13.32    1.50
   4   0   8  347.78    3.87
   6  -1   7    0.47    1.04
   6   0   7   51.64    1.56
   2  -7   4   19.32    1.19
   4  -5   6   17.77    1.28
   4  -1   8   65.40    2.24
   5  -3   7   26.98    1.41
   3  -4   7   26.37    1.70
   1  -4   6   11.13    1.47
   2  -5   6    9.09    1.41
   2  -3   7  217.03    3.35
   5  -4   6    5.54    1.01
   2  -6   5    8.80    1.22
   2  -2   7   -0.31    1.09
   3  -6   5   11.74    1.10
   4   1   7   10.74    1.25
   4  -3   7   58.52    1.95
   6  -2   6    6.75    1.15
   3  -3   7   29.05    1.73
   5   0   7   27.33    1.51
   1  -5   5   97.24    2.37
   3  -7   3    0.29    0.91
   4  -6   4   18.34    1.23
   5  -1   7  152.58    2.80
   1  -6   4   73.21    2.02
   3  -2   7   60.72    2.13
   3  -1   7  259.38    3.38
   4  -4   6  223.17    3.16
   4  -2   7   12.52    1.71
   4   0   7  146.25    2.84
   6  -1   6    6.97    1.30
   2  -7   3   15.85    1.22
   4  -5   5   27.25    1.46
   4  -1   7    0.00    1.55
   5  -3   6   36.05    1.64
   6   0   6   41.83    1.56
   3  -4   6   15.21    1.79
   5  -5   4   14.76    1.26
   2  -5   5    8.99    1.45
   2  -3   6  176.61    2.98
   3  -6   4    5.27    1.28
   5  -4   5    2.72    1.03
   2  -6   4    1.26    1.25
   4  -3   6   74.85    2.24
   6  -2   5   -0.19    1.16
   3  -7   2    8.17    1.14
   3  -3   6   31.86    1.87
   4  -6   3    5.78    1.01
   5   0   6   13.64    1.52
   1  -5   4  146.86    2.56
   5  -1   6   92.20    2.41
   6  -4   3   39.64    1.30
   1  -6   3   38.33    1.70
   3  -2   6   44.29    1.92
   4  -4   5  153.90    2.84
   4  -2   6    3.49    1.46
   4   0   6  117.07    2.50
   6  -1   5    7.61    1.18
   2  -7   2   18.18    1.21
   4  -5   4   34.49    1.66
   4  -1   6   76.20    2.30
   5  -5   3    3.45    1.00
   5  -3   5   45.75    1.89
   6   0   5   63.77    1.93
   3  -4   5    9.34    1.52
   5  -4   4    7.80    1.21
   7  -1   3    4.32    0.98
   2  -5   4    0.04    1.25
   3  -6   3   44.26    1.67
   2  -6   3    1.69    0.94
   7  -2   2   85.13    1.73
   3  -7   1   16.26    1.17
   4  -6   2    2.01    1.03
   4  -3   5   87.14    2.54
   6  -4   2   36.67    1.32
   6  -2   4   -1.70    1.36
   3  -3   5   87.71    2.37
   5  -5   2    6.45    1.10
   5  -1   5   75.57    2.18
   5   0   5    5.95    1.29
   2  -7   1  979.18    5.93
   4  -7  -1   -0.68    0.85
   4  -5   3    1.92    1.29
   4  -4   4  119.70    2.65
   4  -2   5    4.02    1.41
   5  -3   4   64.44    2.21
   6  -1   4   16.37    1.44
   4  -1   5   90.68    2.30
   5  -4   3    0.79    1.09
   6   0   4   31.91    1.52
   7  -1   2    6.57    0.96
   3  -6   2   24.09    1.54
   3  -4   4   -0.14    1.47
   7  -2   1    2.71    0.70
   2  -6   2   46.35    1.85
   2  -5   3   32.03    1.73
   3  -7   0   21.20    1.29
   4  -6   1   11.34    1.22
   6  -4   1   15.70    1.07
   6  -2   3    6.01    1.34
   4  -3   4   55.47    2.16
   5  -5   1   17.42    1.29
   6  -3   2   82.96    2.06
   2  -7   0   11.38    1.20
   3  -3   4   62.77    1.98
   7  -2   0   10.50    0.99
   7  -1   1   16.82    1.27
   4  -5   2   24.36    1.63
   4  -4   3   33.32    1.85
   5  -3   3   73.40    2.36
   5  -1   4   33.84    1.78
   5   0   4   -0.33    1.35
   6  -1   3   25.05    1.66
   4  -2   4   21.48    1.56
   5  -4   2   -0.12    1.15
   6  -4   0   23.55    1.18
   6   0   3   50.04    1.77
   3  -7  -1    5.23    1.15
   3  -6   1  399.35    4.15
   4  -6   0    2.27    1.10
   2  -6   1    1.27    1.25
   3  -4   3    0.40    0.97
   6  -2   2    1.89    1.28
   2  -5   2   11.61    1.38
   5  -5   0   21.58    1.36
   6  -3   1    5.54    1.25
   7  -1   0    4.64    1.05
   2  -7  -1    8.97    1.34
   4  -3   3  177.44    3.21
   6  -4  -1    6.49    0.96
   4  -5   1   11.67    1.58
   3  -7  -2    1.92    1.02
   4  -6  -1    1.74    1.09
   4  -4   2   10.28    1.54
   5  -4   1    5.63    1.29
   5  -3   2    1.94    1.50
   5  -1   3   45.00    1.92
   6  -1   2   64.71    2.11
   3  -6   0   29.54    1.60
   5  -5  -1   42.01    1.52
   5   0   3    1.93    1.12
   6  -4  -2   22.39    1.09
   6   0   2   59.28    1.84
   7  -1  -1    0.47    0.96
   4  -2   3    2.16    1.06
   6  -3   0   50.66    1.74
   6  -2   1   -1.40    1.23
   2  -6   0    3.90    1.16
   3  -4   2   20.34    1.46
   3  -7  -3    1.19    0.88
   4  -6  -2   -0.41    1.18
   4  -5   0   12.72    1.41
   5  -5  -2   30.29    1.35
   5  -4   0    2.48    1.20
   7  -1  -2   60.20    1.57
   4  -3   2    4.86    1.38
   5  -3   1    7.22    1.52
   6  -3  -1   29.76    1.38
   6  -1   1   36.98    1.86
   7  -1  -3   16.77    1.00
   3  -7  -4    2.38    0.83
   3  -6  -1   10.26    1.26
   4  -4   1   12.19    1.27
   4  -6  -3    1.55    1.06
   5  -5  -3    1.06    0.89
   5  -1   2   47.01    1.93
   6  -2   0    1.46    0.93
   6   0   1   27.42    1.43
   3  -7  -5    5.08    0.84
   2  -6  -1   13.47    1.34
   3  -7  -6    6.50    0.83
   3  -5   0  125.37    2.62
   4  -5  -1   -0.08    1.22
   5  -4  -1    1.34    1.22
   6  -3  -2    6.21    1.12
   3  -4   1    2.81    1.10
   4  -6  -4    2.01    0.99
   5  -5  -4  104.98    1.88
   3  -6  -2    3.35    1.09
   5  -5  -5    1.63    1.00
   5  -3   0   25.88    1.84
   6  -2  -1    4.26    1.23
   6  -1   0   74.92    2.17
   4  -6  -5    1.41    0.85
   4  -4   0    4.55    1.45
   4  -3   1  152.28    2.83
   6  -3  -3   11.39    1.09
   4  -6  -6   -1.51    0.95
   5  -4  -2    0.95    1.10
   6   0   0   41.73    1.62
   4  -5  -2   13.05    1.50
   5  -1   1   14.59    1.41
   6  -3  -5    1.80    0.67
   6  -3  -4    5.15    0.89
   2  -6  -2   26.30    1.53
   3  -5  -1   23.85    1.69
   6  -2  -2   24.77    1.42
   3  -6  -3   30.67    1.33
   5  -3  -1   29.44    1.80
   6  -1  -1  168.62    2.84
   3  -4   0    0.79    1.05
   5  -4  -3    5.22    1.12
   4  -5  -3   33.14    1.59
   4  -4  -1   73.21    2.28
   6  -2  -3    0.16    1.04
   3  -6  -4   35.12    1.54
   4  -3   0   41.62    1.80
   6   0  -1  246.08    3.26
   5  -4  -4    9.40    1.06
   6  -1  -2    1.88    1.08
   2  -6  -3    4.85    1.29
   3  -5  -2    6.98    1.47
   4  -5  -4   23.62    1.45
   5  -4  -7   -0.71    0.83
   5  -4  -5    0.42    0.88
   5  -3  -2   87.25    2.36
   5  -1   0    5.22    1.27
   6  -2  -4    5.76    1.10
   3  -6  -5   22.00    1.32
   5  -4  -6    0.82    0.73
   6  -2  -6    0.41    0.62
   6  -2  -5    5.11    0.92
   4  -4  -2   49.12    1.93
   3  -6  -8  270.52    2.68
   3  -6  -6   53.30    1.66
   3  -4  -1    0.08    0.97
   4  -5  -5   11.96    1.22
   6  -1  -3    4.28    1.00
   6   0  -2  183.43    2.78
   3  -6  -7   47.25    1.48
   4  -5  -7   26.71    1.20
   4  -5  -6    3.57    1.05
   4  -3  -1   43.91    1.76
   5  -3  -3  120.25    2.58
   6  -1  -7    1.44    0.68
   2  -6  -4    4.99    1.21
   3  -5  -3  213.31    3.22
   6  -1  -4   55.18    1.66
   4  -4  -3  253.72    3.52
   5  -2  -2   53.79    1.97
   5  -1  -1  116.78    2.47
   6  -1  -6    2.44    0.84
   6  -1  -5   49.23    1.56
   6   0  -3  140.42    2.48
   5  -3  -4   47.49    1.78
   5  -3  -8    0.97    0.75
   6   0  -7    9.86    0.89
   2  -6  -5    1.19    1.00
   3  -5  -4   17.41    1.46
   3  -4  -2    1.05    1.03
   5  -3  -5    3.22    1.10
   6   0  -4   95.82    2.09
   4  -4  -4   21.97    1.56
   4  -3  -2   41.16    1.59
   5  -3  -7    1.00    0.73
   5  -3  -6    5.10    1.00
   5  -2  -3  116.44    2.56
   6   0  -6    7.90    0.88
   6   0  -5    7.32    1.01
   3  -5 -10    3.77    0.87
   2  -6  -9    0.11    0.76
   2  -6  -6    8.82    1.22
   4  -4  -9   14.69    1.10
   4  -4  -5   47.74    1.86
   5  -2  -9   20.54    0.83
   5  -1  -2   48.71    1.84
   2  -6  -7    3.11    1.12
   3  -5  -5    0.82    1.00
   2  -6  -8    6.00    1.04
   3  -5  -9   17.25    1.07
   4  -4  -8   44.63    1.45
   4  -4  -6   21.54    1.50
   4  -3  -3   14.50    1.44
   5  -2  -4   38.94    1.54
   3  -5  -6   35.05    1.73
   3  -4  -3    3.33    1.10
   4  -4  -7   37.97    1.49
   5  -2  -8   37.32    1.26
   3  -5  -8   19.71    1.34
   3  -5  -7   34.61    1.57
   5  -2  -5   62.66    1.89
   5  -1  -3  126.88    2.55
   5   0  -2    0.09    1.12
   2  -5  -4    7.11    0.92
   4  -3 -10    1.93    0.83
   5  -2  -7   25.05    1.22
   5  -2  -6   88.97    2.04
   2  -5 -11   33.67    1.32
   4  -3  -4   19.61    1.52
   5  -1  -9    0.48    0.60
   3  -4  -4    2.68    1.16
   5  -1  -4   20.76    1.48
   2  -5  -5    5.02    1.26
   4  -3  -9    0.99    0.76
   4  -3  -5    7.79    1.22
   5  -1  -8    1.08    0.94
   5   0  -3   44.66    1.67
   3  -4 -10    6.12    0.94
   4  -2  -3   33.93    1.38
   5  -1  -5   13.02    1.22
   5   0  -9    1.45    0.66
   2  -5 -10   37.20    1.38
   3  -4  -5    0.95    0.98
   4  -3  -8   35.85    1.45
   4  -3  -7    0.43    1.05
   4  -3  -6   41.42    1.55
   5  -1  -7   -0.71    1.08
   5  -1  -6    5.04    1.29
   5   1  -9    0.95    0.65
   2  -5  -6   47.49    1.77
   5   0  -4   96.54    2.28
   2  -5  -9   15.18    1.17
   3  -4  -9   -1.04    1.06
   3  -4  -6    0.08    1.25
   4  -2 -10    5.71    0.83
   5   0  -8    2.53    0.90
   2  -5  -8    6.49    1.26
   2  -5  -7   32.69    1.44
   3  -4  -8    5.09    1.22
   3  -4  -7    3.32    1.26
   4  -2  -4    5.67    1.05
   5   0  -5   51.26    1.88
   2  -5   2    9.65    1.27
   2  -6   1    1.06    1.26
   4  -6  -1    3.22    1.24
   5  -4   0    1.64    1.20
   5  -3   1    6.94    1.17
   6  -3  -2    7.31    1.24
   4  -3   2    5.83    1.50
   5  -5  -2   30.10    1.41
   6  -2  -1    4.62    1.17
   3  -4   2   18.01    1.54
   6  -3  -4    4.61    0.79
   6  -3  -3    9.70    1.05
   6  -1  -1  163.31    2.76
   3  -6   0   27.69    1.75
   4  -5   0    8.89    1.59
   4  -4   1   12.57    1.69
   5  -2   1   40.65    1.79
   6  -2  -2   23.21    1.37
   3  -7  -2    2.39    1.17
   3  -5   1  105.02    2.53
   5  -5  -3    2.16    0.83
   5  -1   1   12.87    1.40
   2  -7  -1    8.99    1.20
   5  -4  -1    0.56    0.89
   5  -3   0   24.11    1.74
   6  -2  -5    3.21    0.97
   6  -2  -3   -0.15    1.20
   6  -1  -2    3.40    1.23
   5  -5  -4  104.29    1.89
   6  -2  -4    4.12    0.93
   5  -5  -5    2.18    0.74
   6  -1  -3    0.61    1.00
   2  -6   0    1.97    1.23
   4  -6  -3    0.35    1.04
   4  -5  -1    0.96    1.36
   4  -3   1  155.38    2.97
   5  -4  -2    1.87    1.11
   5  -2   0   64.73    2.15
   2  -8  -4   40.62    1.35
   3  -7  -3    0.87    1.16
   3  -6  -1   12.18    1.47
   4  -4   0    3.22    1.58
   5  -3  -1   31.93    1.80
   5  -1   0    6.20    1.27
   3  -5   0  132.24    2.83
   4  -6  -4    4.21    0.92
   5  -4  -3    3.92    1.24
   2  -7  -2   55.50    1.79
   5  -4  -7    0.22    0.58
   2  -8  -5    6.92    0.90
   3  -7  -4    3.44    1.00
   4  -6  -7    2.90    0.89
   4  -6  -5    2.39    0.90
   4  -5  -2   15.76    1.51
   5  -4  -4    8.04    1.15
   5  -3  -2   88.48    2.31
   4  -6  -6   -0.41    0.84
   4  -3   0   47.16    1.83
   5  -1  -1  111.51    2.37
   2  -8  -6   17.02    0.98
   3  -7  -5    6.10    0.99
   3  -6  -2    4.19    1.10
   4  -4  -1   70.11    2.32
   5  -4  -5   -1.15    1.03
   2  -6  -1   11.63    1.38
   3  -4   0    0.81    1.14
   4  -5  -3   34.66    1.63
   5  -2  -2   56.05    2.05
   2  -7  -3    4.34    1.22
   5  -3  -7    1.82    0.72
   5  -1  -2   43.29    1.69
   4  -5  -4   22.24    1.46
   4  -4  -2   48.77    1.75
   4  -3  -1   42.66    1.88
   5  -3  -6    4.25    1.11
   5  -3  -5    2.35    1.07
   5  -2  -3  119.58    2.51
   4  -5  -8   20.37    1.00
   4  -5  -5   12.27    1.19
   5  -2  -7   21.19    1.22
   5  -2  -4   40.26    1.77
   5  -1  -3  127.51    2.50
   2  -7  -4    5.93    1.23
   2  -6  -2   27.05    1.67
   3  -5  -2    9.53    1.45
   4  -5  -7   24.98    1.22
   4  -5  -6    4.26    0.99
   5  -2  -6   87.33    1.91
   5  -2  -5   61.07    1.86
   3  -4  -1   -0.38    1.12
   4  -4  -3  252.33    3.46
   5  -1  -4   19.11    1.43
   1  -8  -6   12.30    1.09
   3  -6  -9   15.73    1.01
   4  -4  -9   13.75    0.87
   4  -3  -2   43.50    1.89
   5  -1  -5   13.17    1.15
   2  -7  -5   39.61    1.55
   3  -6  -5   27.11    1.51
   1  -8  -7    9.08    0.93
   4  -4  -4   19.97    1.64
   1  -8  -8    7.59    0.85
   2  -7  -9   29.84    1.36
   2  -6  -3    7.62    1.33
   3  -6  -8  267.47    2.95
   3  -6  -7   47.85    1.59
   3  -6  -6   52.02    1.78
   3  -5  -3  218.03    3.30
   2  -7  -6    6.24    1.26
   4  -4  -5   46.90    1.89
   4  -3  -3   16.29    1.56
   2  -7  -7    0.74    1.10
   3  -4  -2   -0.28    1.15
   4  -4  -7   36.60    1.48
   4  -4  -6   22.21    1.45
   4  -3  -9    0.46    0.95
   1  -7  -4   13.51    1.38
   3  -5 -10    5.86    0.70
   3  -5  -4   16.36    1.51
   4  -3  -4   22.55    1.70
   2  -6  -4    5.80    1.51
   4  -2  -3   26.93    1.58
   3  -5  -5    4.77    1.34
   4  -3  -8   35.12    1.50
   4  -2  -9    5.38    0.97
   1  -7  -5   27.98    1.55
   3  -5  -9   17.28    0.97
   3  -4  -3    2.83    1.00
   4  -3  -7    0.59    1.06
   4  -3  -6   41.46    1.87
   1  -6  -3  151.73    2.71
   3  -5  -8   19.24    1.21
   3  -5  -6   37.65    1.74
   4  -2  -4    5.66    1.33
   0  -8  -9    3.43    0.81
   0  -8  -8    7.89    1.21
   2  -6 -10    0.84    0.78
   2  -5  -3   12.31    1.38
   3  -5  -7   33.73    1.55
   3  -3 -11   11.43    1.05
   4  -2  -8   13.53    1.24
   3  -4 -10    6.01    0.96
   4  -2  -5   -0.92    1.28
   1  -7  -6   44.47    1.86
   2  -6  -6   12.04    1.46
   3  -4  -4    1.49    0.88
   4  -2  -7    7.90    1.36
   4  -2  -6    0.63    1.21
   2  -6  -9    1.56    0.69
   2  -6  -7    3.60    1.24
   1  -7  -9    9.12    1.13
   1  -7  -8    9.81    1.29
   1  -7  -7   36.58    1.55
   2  -6  -8    7.37    1.01
   2  -5 -11   42.82    1.27
   3  -4  -5   -0.34    1.33
   4  -1  -7   70.78    1.84
   4  -1  -5   16.68    1.42
   1  -6  -4  135.79    2.64
   3  -4  -9    0.72    0.78
   4  -1  -6   33.57    1.56
   3  -4  -8    8.32    1.26
   3  -4  -6   -0.82    1.26
   3  -3 -10   34.64    1.41
  -1  -8 -10    1.61    0.72
   3  -4  -7    0.53    1.38
   0  -7 -11   27.26    1.33
   1  -6 -11   46.99    1.36
   1  -6  -5  170.95    2.94
   2  -5 -10   32.80    1.44
   2  -5  -5    7.79    1.13
   2  -3 -12   13.31    0.93
   0  -7  -6   82.37    2.15
   3  -3  -9  113.07    2.31
   3  -2 -10   47.94    1.66
   2  -5  -9   16.35    1.40
   2  -5  -6   48.38    2.04
   3  -3  -5    2.36    0.90
   0  -7 -10   71.58    1.77
   1  -6 -10   35.99    1.50
   1  -6  -6   99.54    2.52
   1  -5 -12    2.07    0.77
   2  -5  -8    7.85    1.32
   2  -5  -7   31.07    1.75
   2  -2 -12    0.48    0.69
   3  -3  -8  187.06    3.09
   3  -3  -6    3.46    1.37
  -1  -7 -12    9.19    1.03
   0  -7  -7  336.63    3.83
   0  -7  -9   43.72    1.67
   0  -7  -8  131.91    2.55
   1  -6  -9   15.85    1.40
   3  -2  -9   30.90    1.51
   0  -6 -12    1.51    1.13
   1  -6  -8  211.69    3.23
   2  -4 -10   38.73    1.63
   3  -2  -8  115.81    2.53
   3  -1  -9    3.53    1.08
   0  -5 -13   13.79    0.99
   2  -3 -11    4.76    1.16
   3  -2  -7  329.64    3.94
   3  -2  -6   62.36    1.94
  -1  -7 -11    4.11    1.07
   1  -5 -11   35.48    1.27
   2  -4  -9   57.55    2.02
   1  -4 -12    0.83    0.92
   2  -4  -6   71.27    2.07
   3  -1  -8    8.16    1.20
  -2  -7 -12   18.88    1.14
   0  -6 -11   21.94    1.30
   2  -4  -8   40.67    1.73
   2  -4  -7   80.28    2.34
   2  -2 -11   15.24    1.33
  -1  -7 -10   58.52    1.80
  -1  -7  -7    6.11    1.36
   1  -5 -10   10.78    1.30
   2  -3 -10    6.87    1.34
   3  -1  -7   15.78    1.48
  -1  -7  -9   23.69    1.46
  -1  -7  -8    9.52    1.35
   0  -6  -6   91.92    2.35
   0  -6 -10    3.11    1.17
   1  -5  -9    5.17    1.26
  -1  -6 -12   48.74    1.50
   0  -6  -7   19.42    1.60
   0  -5 -12    1.80    0.88
   0  -4 -13   46.78    1.34
   1  -5  -8   13.65    1.61
   1  -5  -7   24.82    1.66
   1  -4 -11    0.58    1.12
   1  -3 -12   29.61    1.41
  -2  -7 -11   31.97    1.43
  -2  -6 -13    1.24    0.89
   0  -6  -8    5.96    1.48
   2  -2 -10    1.43    1.11
   2  -3  -8    2.33    1.36
   2  -3  -7   60.15    2.02
  -1  -5 -13   41.32    1.34
  -2  -7 -10   83.21    2.03
   0  -3 -13    8.70    0.87
   1  -4 -10    0.75    1.38
   1  -2 -12   36.52    1.43
   2  -1 -10   55.11    1.81
  -2  -7  -9  156.58    2.71
   0  -5 -11   27.74    1.28
   1  -1 -12    4.14    1.06
   2  -2  -9   -0.39    1.30
  -3  -7 -11   14.16    1.02
   0  -4 -12  104.62    2.20
   0  -2 -13   11.38    0.93
   1  -4  -9   15.10    1.31
   2  -2  -8    1.81    1.38
  -2  -6 -12    1.80    1.05
  -1  -6 -10  137.47    2.80
   0  -5 -10   44.16    1.94
   1  -4  -8    4.92    1.39
   1  -4  -7    1.32    1.21
   2  -1  -9   26.88    1.61
  -1  -5 -12   74.57    1.89
  -1  -4 -13    0.76    0.87
  -2  -5 -13   38.39    1.45
  -1  -6  -9  175.33    3.05
  -1  -6  -8  256.42    3.63
  -1  -6  -7  353.31    3.94
   0  -5  -9   40.15    1.92
   1  -3 -10    8.88    1.36
   1  -2 -11    1.86    1.18
   0  -5  -8   62.80    2.10
   2  -1  -8   21.30    1.47
  -2  -6 -11    3.13    1.31
   0  -4 -11   21.08    1.45
   0  -3 -12   25.23    1.52
  -3  -6 -12    7.55    1.09
   1  -3  -9    4.35    1.45
   1  -1 -11    9.36    1.31
  -1  -5 -11    8.64    1.42
  -1  -3 -13   97.87    1.94
  -4  -6 -12    0.42    0.98
   0  -4 -10   43.15    1.82
   1  -3  -8   87.97    2.28
   1  -2 -10   16.33    1.59
  -2  -6 -10   18.60    1.40
  -1  -4 -12    4.29    1.01
   0  -2 -12   42.05    1.69
  -2  -5 -12   38.29    1.56
  -2  -4 -13   89.23    1.81
  -1  -5 -10   99.52    2.48
  -1  -2 -13   49.66    1.61
  -3  -6 -11   32.05    1.54
  -2  -6  -9    0.18    1.30
  -1  -1 -13   22.54    1.18
   0  -4  -9   51.00    2.01
   0  -3 -11   39.45    1.66
   0  -1 -12    6.95    1.24
   0   0 -12   35.48    1.38
  -2  -6  -8   36.95    1.69
   1  -2  -9   43.03    1.87
   1  -1 -10   35.49    1.76
   0  -4  -8  143.83    2.74
  -4  -6 -11    2.37    0.94
  -1  -5  -8   75.60    2.13
  -1  -4 -11   -0.15    1.22
   1   0 -10   80.97    2.01
  -3  -6 -10   54.99    1.83
  -3  -4 -13    9.47    0.95
  -2  -5 -11    1.00    1.25
  -2  -3 -13   21.30    1.16
  -1  -3 -12   71.17    2.04
   0  -3 -10   15.71    1.62
   0  -2 -11    2.09    1.41
   1  -1  -9   84.19    2.24
   0  -5   7    3.05    1.11
   0  -4   7    9.36    1.48
   1  -8   5    4.39    0.88
   1  -7   6    0.59    1.07
   1  -5   7  433.72    4.62
   2  -4   7  337.11    4.23
   2  -3   7  211.75    3.35
   3  -5   6  235.35    3.17
  -2  -7   5   57.18    1.90
  -1  -9   4   72.19    1.65
  -1  -8   5    2.86    1.11
   0  -9   4   -0.65    1.11
   0  -7   6   47.58    1.72
   1  -3   7   36.98    1.77
  -1  -4   6    2.29    1.11
   1  -4   7   45.06    2.05
   2  -6   6   38.46    1.75
   3  -6   5   10.63    1.25
   3  -2   6   43.10    1.64
  -2  -6   5  107.84    2.46
  -2  -5   5    0.61    1.28
   0  -8   5   21.08    1.28
   3  -4   6   20.10    1.57
  -2  -8   4   61.81    1.76
   3  -3   6   28.88    1.52
  -2  -9   3    4.45    0.91
   0  -6   6    6.08    1.51
   1  -6   6    9.16    1.38
   1  -9   3   11.49    1.00
   2  -5   6    7.67    1.59
  -1  -7   5   -0.72    1.36
   0  -5   6   10.36    1.23
   0  -4   6    8.45    1.29
   1  -7   5    6.00    1.15
   2  -4   6   89.47    2.56
   2  -3   6  168.87    2.91
   3  -5   5   17.35    1.47
  -2  -7   4  179.96    2.89
   0  -7   5   84.11    2.25
   1  -8   4    0.44    1.02
   1  -5   6   23.69    1.45
   3  -7   3    0.32    0.77
  -2 -10   1   24.14    1.15
  -1  -9   3   79.89    1.84
  -1  -8   4   68.86    2.07
  -1  -6   5   85.02    2.45
   0  -9   3    2.36    0.97
   1  -4   6    7.57    1.53
   3  -6   4    2.09    1.34
  -2  -6   4  138.65    2.61
  -1  -5   5   51.73    1.78
   0  -8   4    7.82    1.22
   3  -4   5   10.17    1.46
  -2  -8   3   60.31    1.85
   3  -3   5   79.78    2.13
  -2  -9   2    9.63    1.15
   0  -6   5    3.79    1.45
   1  -6   5   11.53    1.54
  -1 -10   1    1.35    1.02
   1  -9   2   53.20    1.40
   2  -5   5   10.32    1.60
  -1  -7   4    3.63    1.47
   0  -5   5    0.34    1.01
   1  -7   4   -0.01    1.21
   2  -4   5   26.49    1.78
   3  -5   4   27.45    1.71
  -2 -10   0   49.14    1.47
  -2  -7   3  240.34    3.34
  -1  -9   2   12.17    1.20
  -1  -8   3   63.97    2.04
   0  -7   4   88.10    2.41
   1  -8   3   10.32    1.21
   1  -5   5   95.37    2.36
   3  -7   2    8.35    1.10
  -1  -6   4   64.14    2.13
   0  -9   2   10.30    1.16
   2  -6   4    3.45    1.60
   3  -6   3   41.12    1.65
  -2  -6   3   37.28    1.64
   0 -10   0    3.55    1.04
   0  -8   3   72.16    2.05
   3  -4   4    2.36    1.20
  -2  -8   2    4.89    1.21
  -2  -9   1    0.69    0.99
  -1 -10   0   55.78    1.45
   0  -6   4   44.74    1.97
   1  -9   1    7.92    1.01
   1  -6   4   79.02    2.33
   2  -5   4    2.63    1.52
  -1  -7   3   -0.05    1.48
   3  -7   1   14.30    1.52
   3  -5   3   75.88    2.24
  -2 -10  -1  107.96    1.93
   1  -8   2    8.59    1.15
   1  -7   3    8.25    1.44
  -2  -7   2  597.26    4.96
  -1  -9   1   51.20    1.85
  -1  -8   2   64.06    2.14
   0 -10  -1    5.24    1.14
   0  -9   1    5.67    1.16
   0  -7   3  226.23    3.47
   1  -5   4  138.62    2.77
   2  -4   4   10.61    1.15
   3  -6   2   23.33    1.64
   0  -8   2  169.39    2.96
   2  -6   3    0.82    1.16
  -1 -10  -1   13.92    1.10
  -1  -6   3  509.29    4.54
   1  -9   0   25.64    1.30
   3  -4   3   -0.39    1.28
  -2  -9   0    3.78    1.11
  -2  -8   1   11.62    1.37
   2  -9  -2    0.13    0.57
   1  -6   3   38.23    1.89
  -2 -10  -2   19.84    1.11
   0  -6   3  210.31    3.18
   2  -5   3   30.99    1.67
   3  -7   0   23.15    1.40
  -1  -9   0   48.76    1.79
  -1  -7   2    2.96    1.37
   0 -10  -2   40.75    1.44
   0  -9   0    3.72    1.27
   1  -8   1   27.28    1.54
   1  -7   2    8.40    1.56
   3  -5   2  101.29    2.51
  -1 -10  -2   34.64    1.45
  -1  -8   1   21.50    1.62
   3  -6   1  407.93    4.31
  -2  -7   1   93.86    2.24
   0  -8   1   15.93    1.55
   0  -7   2  962.20    6.64
   1  -9  -1   60.93    1.68
   2  -6   2   49.01    2.11
  -2  -9  -1   -0.97    1.30
  -2 -10  -3    2.65    0.84
  -2  -8   0   30.90    1.68
   0 -10  -3   18.71    1.25
   3  -7  -1    9.13    1.24
   3  -4   2   18.06    1.45
  -1 -10  -3   35.89    1.37
   0  -9  -1    5.59    1.26
   1  -8   0    4.27    1.19
   1  -6   2  473.02    4.86
  -1  -9  -1    5.07    1.31
   0  -6   2    3.45    1.17
   1  -9  -2   15.66    1.18
   1  -7   1   12.10    1.56
   2  -5   2   10.82    1.52
   3  -6   0   30.25    1.63
   3  -5   1  102.12    2.49
  -1  -7   1   -0.36    1.17
   0 -10  -4   12.57    1.20
  -2 -10  -4    5.22    0.95
  -1  -8   0    3.88    1.08
   0  -8   0    5.01    1.45
   0  -7   1  300.93    3.85
   2  -6   1    2.35    1.57
   3  -7  -2    5.05    1.17
  -2  -9  -2    2.68    1.20
  -2  -7   0  102.86    2.27
  -1 -10  -4    4.81    1.08
   0 -10  -5   11.93    1.26
   0  -9  -2    7.56    1.28
   1  -9  -3   12.99    1.13
  -2  -8  -1   74.88    2.10
  -1  -9  -2   29.02    1.60
   1  -8  -1   -0.51    1.20
  -2 -10  -5    1.49    0.82
   3  -7  -3    1.83    1.22
   3  -6  -1   11.63    1.33
  -1 -10  -5    1.19    0.81
   1  -7   0    2.65    1.54
   1  -6   1    4.83    1.32
  -2 -10  -6    2.19    0.95
  -1  -8  -1   12.44    1.60
  -1  -7   0    1.35    1.31
   0  -8  -1   10.36    1.48
   1  -9  -4  192.60    2.65
   2  -5   1   22.32    1.63
   3  -5   0  130.59    2.55
  -2  -9  -3    0.65    1.16
  -1 -10  -6    0.47    0.95
   0  -9  -3    9.64    1.32
   0  -7   0    3.52    1.42
   2  -6   0    2.85    1.49
  -2 -10  -7    6.58    0.83
  -1 -10  -7   19.10    1.12
   1  -8  -2    0.65    1.15
   3  -7  -4    2.56    1.02
  -1  -9  -3  147.03    2.66
   1  -9  -5   11.69    1.10
  -2  -8  -2  102.24    2.32
   3  -7  -5    4.32    0.85
   3  -6  -2    4.32    1.30
   0  -9  -4    5.08    1.21
   1  -9  -7   19.76    1.04
   1  -9  -6    4.47    0.84
   1  -7  -1    4.35    1.47
   3  -7  -6    7.26    0.85
  -2  -9  -4    0.11    1.12
   0  -8  -2   37.28    1.88
   1  -6   0   23.33    1.54
   3  -5  -1   23.50    1.53
  -1  -9  -4   46.18    1.76
  -1  -8  -2  132.55    2.76
   1  -8  -3   75.89    2.16
   2  -8  -6   16.03    1.05
  -1  -7  -1    0.29    1.21
   0  -7  -1   30.70    1.72
   2  -8  -7   29.24    1.03
   2  -6  -1   14.10    1.63
   0  -9  -5   -0.79    1.06
   3  -6  -3   33.04    1.67
  -2  -9  -5    9.45    1.29
  -2  -8  -3    5.31    1.39
  -1  -9  -5   48.69    1.78
   0  -9  -6    2.68    1.09
   0  -8  -3  115.68    2.60
   1  -8  -4   29.93    1.57
   1  -7  -2   -1.97    1.45
  -1  -8  -3    7.08    1.55
   3  -5  -2   10.72    1.34
  -2  -9  -6    5.46    1.09
   0  -9  -8    7.08    1.07
   0  -9  -7    2.15    0.89
   1  -6  -1   49.09    1.79
   3  -6  -4   37.03    1.64
  -1  -9  -6   79.57    1.99
   2  -6  -2   28.71    1.79
  -1  -7  -2    5.39    1.31
   0  -7  -2    4.44    1.35
   1  -8  -5   -0.57    0.81
  -2  -9  -7    7.05    1.10
  -2  -8  -4   62.80    1.94
  -1  -9  -7   35.21    1.56
   0  -8  -4   27.28    1.70
   3  -6  -5   23.32    1.39
  -2  -9  -9   10.47    0.94
  -2  -9  -8    7.38    1.09
  -1  -9  -9   85.86    1.70
  -1  -9  -8   55.32    1.54
   1  -8  -6   15.10    1.29
   1  -7  -3    7.22    1.50
  -1  -8  -4    2.84    1.10
   3  -6  -7   40.48    1.43
   3  -6  -6   52.33    1.68
   3  -5  -3  206.98    3.20
   1  -8  -8    5.57    0.99
   1  -8  -7    9.37    0.90
   2  -7  -9   35.18    1.07
   2  -7  -6    6.19    1.27
   2  -6  -3    6.14    1.59
   0  -8  -5   79.06    2.23
   1  -6  -2  178.55    2.96
  -2  -8  -5   41.85    1.77
   0  -7  -3   63.13    2.15
   1  -7  -4   18.09    1.55
   2  -7  -8  241.69    2.83
   2  -7  -7    1.61    1.14
  -1  -8  -5   49.82    2.03
  -1  -7  -3   40.76    1.78
   3  -5  -4   17.12    1.40
   0  -8  -6   82.26    2.22
   0  -8 -10    4.72    1.13
   2  -6  -4    7.11    1.49
  -2  -8  -6    4.59    1.17
  -1  -8 -11   14.18    1.02
  -1  -8  -6   13.31    1.53
   0  -8  -7   32.18    1.62
   1  -7  -5   29.39    1.93
   0  -8  -9    2.55    1.00
   0  -8  -8   10.93    1.16
   0  -7  -4  179.68    3.06
   1  -6  -3  158.73    2.82
   3  -5  -5    1.13    1.17
  -1  -7  -4   56.28    1.92
   2  -6  -5   -0.34    1.40
   3  -5  -9   18.94    1.04
   3  -4  -3    1.60    1.14
  -2  -8  -7    5.41    1.18
  -1  -8 -10    0.37    0.90
  -1  -8  -7    9.41    1.53
   1  -7 -10    1.76    0.80
   1  -7  -6   45.21    1.95
   2  -5  -3   13.37    1.49
   3  -5  -6   35.80    1.67
  -2  -8 -10   96.07    1.91
  -2  -8  -8   13.33    1.30
   2  -6 -10    2.63    0.74
   3  -5  -8   18.82    1.20
   3  -5  -7   34.88    1.69
  -2  -8  -9   35.58    1.60
   0  -7  -5   72.95    2.20
   1  -7  -9   10.07    1.09
   1  -7  -7   35.64    1.74
   2  -6  -6    8.50    1.63
  -2  -7  -5   93.24    2.23
   1  -7  -8    7.51    1.26
   1  -6  -4  130.28    2.70
   2  -6  -9    0.26    0.97
  -1  -7  -5   48.38    1.82
   2  -6  -8    8.02    1.25
   2  -6  -7    2.17    1.30
   3  -4  -4   -0.88    1.23
  -1  -7 -12    6.70    0.97
   0  -7 -11   27.70    1.20
   0  -7  -6   83.07    2.34
   2  -5  -4    4.83    1.40
  -2  -7 -12   14.83    1.11
   3  -4 -10    6.25    0.83
   1  -6  -5  166.99    3.04
  -2  -7  -6   79.46    1.95
  -1  -7  -6   34.94    1.81
   0  -7 -10   70.81    1.82
   0  -7  -7  341.09    4.13
   2  -5 -11   40.09    1.15
   3  -4  -5    1.31    1.15
   0  -7  -9   42.89    1.64
   0  -7  -8  135.94    2.73
   1  -6 -11   45.63    1.36
   2  -5  -5    9.43    1.35
   1  -6  -6   98.31    2.51
   3  -4  -9    0.80    0.91
   3  -4  -6    1.61    1.12
  -2  -7 -11   32.61    1.32
  -2  -7  -7  263.24    3.44
   1  -4   6   10.83    1.30
   3  -6   5   12.56    1.27
   4  -4   6  224.84    3.24
   5  -2   6   88.22    2.23
   5  -1   6   85.20    2.11
   1  -6   5    9.64    1.40
   5  -5   4   15.42    0.97
   6  -3   4    7.89    0.84
   1  -7   4    1.78    1.03
   2  -7   4   20.52    1.34
   2  -6   5    8.23    1.34
   4  -6   4   18.94    1.21
   2  -4   6   93.63    2.43
   4  -5   5   26.42    1.21
   3  -4   6   18.23    1.32
   4  -3   6   73.50    2.26
   4  -1   6   72.62    2.18
   6  -2   4    0.63    0.98
   2  -3   6  172.89    2.96
   5  -3   5   42.66    1.86
   1  -5   5   94.33    2.19
   2  -8   2   16.71    1.19
   3  -3   6   31.68    1.81
   3  -2   6   47.25    1.87
   3  -5   5   17.48    1.68
   5  -2   5   69.83    2.04
   5  -1   5   73.97    2.07
   6  -4   2   28.20    1.10
   6  -3   3    1.19    0.89
   1  -8   2    7.89    0.97
   3  -6   4    3.35    1.17
   4  -4   5  149.51    2.90
   5  -5   3    5.03    1.02
   1  -6   4   79.26    2.23
   4  -6   3    4.85    1.01
   1  -7   3    6.72    1.32
   2  -7   3   17.04    1.39
   2  -6   4   -0.15    1.38
   4  -5   4   35.58    1.64
   3  -4   5   11.78    1.40
   4  -7   1   31.47    1.38
   4  -3   5   84.36    2.39
   6  -2   3    5.65    1.04
   2  -4   5   24.65    1.41
   4  -1   5   90.58    2.22
   5  -3   4   59.99    1.98
   6  -4   1   11.06    0.92
   4  -2   5    3.76    1.45
   6  -3   2   65.20    1.77
   1  -5   4  145.53    2.65
   2  -8   1  179.31    2.47
   3  -8   0   18.48    1.19
   3  -3   5   91.06    2.37
   5  -5   2    9.00    1.08
   3  -5   4   29.99    1.78
   4  -4   4  111.27    2.68
   5  -2   4  138.68    2.79
   5  -1   4   26.35    1.43
   1  -8   1   25.73    1.29
   3  -6   3   41.40    1.84
   4  -6   2    0.40    0.95
   1  -6   3   34.43    1.79
   4  -7   0  369.35    3.24
   4  -5   3    1.15    1.17
   6  -4   0   22.69    0.97
   6  -2   2    2.44    1.02
   1  -7   2    6.66    1.30
   2  -7   2   18.64    1.40
   2  -6   3    1.03    1.41
   3  -4   4    0.73    1.20
   4  -3   4   51.51    2.09
   5  -3   3   66.54    2.16
   6  -3   1    5.31    0.98
   2  -4   4   10.68    1.19
   3  -7   1   18.92    1.27
   4  -2   4   20.81    1.58
   5  -6  -1   36.94    1.15
   5  -5   1   16.90    1.27
   2  -8   0   67.21    1.71
   6  -4  -1    4.89    0.73
   3  -5   3   81.43    2.40
   3  -3   4   62.62    1.99
   4  -7  -1    0.65    1.02
   4  -6   1    9.28    1.13
   5  -2   3  134.89    2.68
   5  -1   3   42.76    1.70
   1  -8   0    3.40    1.04
   3  -6   2   19.87    1.65
   4  -4   3   33.32    1.70
   2  -5   3   28.34    1.68
   4  -5   2   24.23    1.56
   6  -3   0   44.42    1.54
   2  -7   1 1022.40    6.44
   5  -5   0   19.40    1.34
   1  -7   1   11.96    1.45
   1  -6   2  478.36    4.48
   2  -6   2   46.30    2.01
   3  -7   0   22.86    1.42
   4  -7  -2    1.73    0.95
   5  -3   2    1.57    1.30
   2  -8  -1   12.21    1.22
   3  -4   3    0.00    1.29
   5  -4   1    7.21    1.42
   4  -6   0    1.12    0.96
   4  -2   3    1.47    1.30
   6  -3  -1   25.86    1.32
   3  -6   1  395.58    4.36
   3  -5   2  104.76    2.58
   4  -4   2   11.49    1.54
   5  -2   2   47.29    1.73
   5  -1   2   43.55    1.64
   1  -8  -1    2.77    1.07
   4  -7  -3   27.08    1.23
   4  -5   1   10.39    1.42
   6  -3  -2    5.66    0.97
   2  -8  -2    9.23    1.23
   2  -7   0   13.59    1.40
   2  -5   2   10.93    1.28
   3  -7  -1    7.08    1.14
   4  -7  -4   16.59    0.92
   5  -4   0    1.11    1.21
   5  -3   1    6.26    1.23
   4  -6  -1    2.83    0.99
   1  -7   0    2.68    1.22
   1  -6   1    4.45    1.33
   3  -4   2   17.35    1.26
   5  -2   1   41.72    1.73
   1  -8  -2   -0.14    1.16
   3  -6   0   30.26    1.51
   3  -5   1  103.10    2.66
   4  -5   0   12.44    1.51
   4  -4   1    8.08    1.64
   2  -8  -3   10.41    1.07
   3  -7  -2    5.09    1.18
   4  -6  -2   -0.68    0.96
   5  -4  -1    0.11    1.11
   2  -7  -1   11.32    1.43
   5  -3   0   24.22    1.49
   5  -5  -4  103.29    1.79
   2  -5   1   15.67    1.31
   5  -5  -5    1.05    0.61
   1  -8  -3   72.79    2.06
   1  -7  -1    3.18    1.21
   2  -8  -4   44.63    1.45
   3  -7  -3    1.09    1.02
   3  -6  -1    9.76    1.49
   4  -6  -3    2.56    0.99
   4  -5  -1    0.04    1.36
   5  -4  -2    2.79    1.05
   5  -2   0   60.54    1.96
   1  -6   0   19.84    1.43
   3  -4   1    0.31    1.23
   4  -4   0    5.97    1.52
   2  -8  -5    6.29    1.06
   2  -7  -2   61.01    2.05
   3  -5   0  130.88    2.74
   5  -3  -1   29.01    1.71
   3  -7  -4    3.29    1.00
   4  -6  -4    2.61    0.95
   2  -8  -6   16.98    1.05
   5  -4  -3    3.22    1.31
   1  -8  -4   31.40    1.41
   2  -8  -7   30.85    1.25
   3  -6  -2    3.34    1.36
   4  -6  -5    0.35    0.87
   4  -5  -2   15.82    1.49
   1  -7  -2   -0.86    1.22
   3  -7  -5    5.07    0.96
   4  -6  -6    0.51    0.75
   4  -3   0   42.16    1.77
   5  -4  -4    9.79    1.21
   5  -3  -2   89.57    2.24
   5  -2  -1   14.42    1.45
   2  -7  -3    6.53    1.36
   3  -7  -6    7.32    0.94
   4  -4  -1   75.63    2.32
   3  -5  -1   25.80    1.65
   3  -4   0    2.22    1.14
   5  -4  -6    0.57    0.78
   5  -4  -5   -0.41    0.95
   1  -8  -5   -0.50    1.02
   4  -5  -3   31.61    1.72
   3  -6  -3   32.44    1.73
   5  -3  -3  116.88    2.41
   5  -2  -2   48.59    1.84
   1  -8  -6   14.41    1.26
   1  -7  -3    5.81    1.40
   4  -5  -4   25.30    1.66
   4  -4  -2   50.29    2.01
   4  -3  -1   42.77    1.73
   5  -3  -4   46.52    1.72
   1  -8  -8    6.22    0.81
   1  -8  -7    9.21    1.06
   3  -6  -4   36.25    1.47
   3  -5  -2   11.53    1.39
   4  -5  -8   19.07    0.90
   4  -5  -5   11.61    1.24
   5  -3  -7    0.81    0.90
   3  -4  -1   -0.66    1.15
   5  -3  -6    4.91    1.13
   5  -3  -5    4.63    1.10
   5  -2  -3  112.17    2.37
   3  -6  -5   26.62    1.46
   4  -5  -7   26.19    1.21
   4  -5  -6    6.56    1.05
   4  -4  -3  253.16    3.58
   1  -7  -4   16.87    1.46
   2  -6  -3    6.56    1.37
   3  -6  -9   15.50    0.94
   3  -6  -6   57.91    1.72
   4  -3  -2   42.91    1.70
   5  -2  -4   36.13    1.53
   3  -6  -8  284.10    2.86
   3  -6  -7   47.06    1.51
   3  -5  -3  214.02    3.18
   0  -8  -8    5.49    0.93
   0  -7  -4  163.51    2.78
   4  -4  -4   19.23    1.57
   5  -2  -7   21.41    1.23
   5  -2  -5   60.07    1.84
   1  -7  -5   30.67    1.63
   3  -4  -2    2.03    1.15
   4  -4  -9   14.49    0.80
   5  -2  -6   81.07    1.81
   2  -6  -4    6.45    1.38
   1  -6  -3  159.85    2.64
   3  -5  -4   15.03    1.19
   4  -3  -3   15.08    1.38
   4  -4  -8   45.10    1.45
   1  -7 -10    1.47    0.97
   1  -7  -6   44.27    1.63
   2  -6  -5    1.34    1.18
   0  -7  -5   67.21    1.87
   3  -5  -5    1.59    1.20
   1  -7  -9    9.05    1.06
   1  -7  -7   35.35    1.51
   2  -6 -10    3.90    0.87
   2  -5  -3   14.19    1.08
   3  -4  -3    1.99    0.99
   4  -3  -4   24.71    1.58
   1  -7  -8   10.01    1.29
   1  -6  -4  132.48    2.54
   2  -6  -6    9.72    1.36
   3  -5  -9   19.55    1.14
   3  -5  -6   36.85    1.67
   3  -5  -8   19.12    1.25
   3  -5  -7   36.20    1.56
   3  -4 -11    2.11    0.48
   4  -3  -9    1.59    0.85
   0  -7  -6   82.78    1.99
   2  -6  -9    0.12    0.68
   2  -6  -8    8.88    1.19
   2  -6  -7    1.57    1.27
   4  -3  -5    7.85    1.32
   4  -2 -10    4.85    0.69
   2  -5  -4    6.13    1.26
   3  -4  -4    1.31    1.30
   4  -3  -8   38.47    1.49
   4  -3  -6   39.54    1.72
   4  -3  -7    1.06    1.04
   0  -7 -10   65.55    1.63
   0  -7  -7  313.14    3.56
   1  -6  -5  160.96    2.78
   4  -2  -4    6.22    1.35
   0  -7  -9   43.01    1.49
   0  -7  -8  130.54    2.40
   2  -5 -11   45.59    1.27
   3  -4 -10    5.93    0.97
   3  -4  -5    0.49    1.28
   2  -5  -5   10.47    1.34
   4  -2  -9    8.53    1.04
   1  -6  -6  103.39    2.50
   3  -4  -9    1.82    1.03
   3  -4  -6   -1.17    1.29
   4  -2  -5    0.68    1.34
   2  -4 -12    7.30    0.94
   3  -3 -11   24.43    1.00
   4  -2  -8   15.42    1.15
   0  -6 -12    3.64    1.05
   1  -6  -7  242.06    3.41
   2  -5 -10   34.21    1.32
   2  -5  -6   55.68    2.01
   3  -4  -8    7.36    1.27
   3  -4  -7    3.82    1.28
   4  -2  -7    9.12    1.25
   4  -2  -6   -0.56    1.20
   1  -5 -12    0.50    1.06
   2  -5  -9   14.29    1.25
   2  -5  -8    9.74    1.25
   2  -5  -7   32.02    1.77
   4  -1  -9   32.57    1.23
   0  -6  -6   87.42    2.19
   3  -3  -5    2.98    1.16
   4  -1  -5   14.55    1.28
   0  -6 -11   22.95    1.13
   2  -4 -11   77.14    1.69
   3  -2 -11   46.67    1.38
   4  -1  -8   43.65    1.62
   4  -1  -6   38.19    1.61
  -7  -7   2   11.58    0.89
  -7  -6   1   31.36    1.18
  -7  -5   2   16.47    1.15
  -7  -5   3   24.26    1.13
  -6  -2   3   62.47    1.83
  -6  -2   4   24.74    1.36
  -7  -6   2   18.60    1.08
  -7  -6   3    9.85    0.85
  -6  -4  -1    5.44    1.21
  -6  -4   7   10.81    0.68
  -5  -2   8    2.62    0.83
  -6  -3   6   80.38    1.72
  -5  -1   2   54.93    1.63
  -5  -1   6   16.27    1.30
  -6  -3   1   58.01    1.69
  -6  -5  -1    1.53    1.20
  -6  -3   5    6.43    1.04
  -5  -1   3  137.23    2.34
  -5  -1   5   44.09    1.62
  -6  -4   0  181.63    2.71
  -6  -3   2   77.46    1.83
  -5  -1   4  212.74    2.81
  -4   0   6   80.03    1.87
  -6  -4   6   18.11    0.91
  -6  -3   3   24.26    1.20
  -6  -3   4   24.06    1.26
  -5  -3   8    2.96    0.83
  -5  -2   7   60.22    1.56
  -4   0   5   70.37    1.69
  -6  -6   6   11.38    0.77
  -6  -5   0    0.82    1.07
  -6  -5   6    0.95    0.72
  -6  -4   1    4.74    1.21
  -6  -4   5   20.65    1.09
  -6  -8   1   13.76    0.97
  -6  -7   0   46.65    1.45
  -6  -6   0   11.57    1.12
  -6  -4   2   17.72    1.38
  -6  -4   3   18.26    1.28
  -6  -4   4   13.13    1.23
  -5  -4   8   25.45    1.06
  -5  -2   6  211.27    2.83
  -6  -8   2    2.10    0.73
  -6  -8   3    3.43    0.87
  -6  -5   1    3.92    1.19
  -6  -5   5    4.30    0.82
  -5  -5   8   97.91    1.49
  -5  -2   2    3.32    0.79
  -6  -6   5    6.50    0.82
  -5  -3   7    0.50    0.86
  -5  -2   3   46.43    1.60
  -5  -2   5   12.07    1.36
  -4  -1   7    2.03    0.84
  -6  -7   1   28.20    1.26
  -6  -7   4   48.24    1.28
  -6  -6   1    7.36    1.06
  -6  -5   2    4.55    1.12
  -6  -5   4    2.30    1.02
  -5  -2   4  114.84    2.18
  -6  -7   2   11.47    1.09
  -6  -7   3  270.83    2.83
  -6  -6   4   61.17    1.59
  -6  -5   3    2.23    1.09
  -4  -3   9   17.24    0.95
  -6  -6   2    2.07    1.07
  -6  -6   3  115.20    2.13
  -4  -2   8    2.18    0.97
  -4  -1   6   11.95    1.12
  -5  -4   7   47.38    1.56
  -5  -3   6   -0.35    1.12
  -5  -6   7   10.10    0.78
  -4  -5   9   -0.31    0.45
  -4  -5   9   -0.03    0.26
  -4  -4   9    2.74    0.70
  -4  -1   5    0.56    1.08
  -5  -5   7   41.13    1.36
  -5  -3   2   23.39    1.17
  -5  -3   5    2.32    1.23
  -5  -3   3    8.54    1.19
  -5  -3   4    6.42    1.22
  -5  -7   6    1.00    0.74
  -5  -4   6  146.33    2.40
  -4  -2   7   16.63    1.28
  -5  -5   0   10.42    1.15
  -4  -3   8   19.73    1.24
  -5  -6   6   12.93    0.97
  -5  -5   6   43.01    1.54
  -5  -4   5   48.08    1.77
  -5  -8   4    4.27    0.85
  -5  -4   2    2.99    1.08
  -5  -8   1  128.13    2.08
  -5  -7   0    1.04    0.88
  -5  -7   5    1.18    0.82
  -5  -6   0   86.23    1.91
  -5  -4   3    0.02    1.18
  -5  -4   4   29.67    1.50
  -4  -4   8   37.37    1.42
  -4  -2   6   44.01    1.53
  -5  -8   2    1.53    0.83
  -5  -8   3    0.43    0.81
  -5  -5   1    8.73    1.25
  -5  -5   5   44.07    1.67
  -4  -5   8    3.29    0.90
  -4  -2   5   12.17    1.21
  -5  -6   5   47.59    1.50
  -4  -3   7   67.07    1.82
  -5  -7   1    6.04    1.10
  -5  -7   4   20.39    1.20
  -5  -6   1   31.98    1.52
  -5  -5   3   19.26    1.49
  -5  -5   4   12.97    1.27
  -4  -9   4    8.56    0.97
  -4  -8   6   14.09    0.93
  -4  -7   7   13.71    0.83
  -5  -7   2    2.63    1.14
  -5  -7   3   13.44    1.32
  -5  -6   2    2.19    1.21
  -5  -6   4   93.38    2.16
  -3  -3   9    1.10    0.88
  -5  -6   3  170.61    2.70
  -3  -2   8   15.43    1.19
  -4  -9   3    1.00    0.71
  -4  -4   7    9.20    1.30
  -4  -3   6   38.83    1.46
  -3  -5   9   23.04    1.03
  -3  -4   9    3.06    1.03
  -4  -9   2    4.83    0.79
  -4  -6   7    5.78    0.96
  -4  -5   7    0.34    1.01
  -3  -7   8    0.17    0.67
  -4  -8   5   32.86    1.21
  -4  -3   5  205.21    2.89
  -2  -4  10    4.51    0.89
  -4  -7   6   37.96    1.29
  -4  -4   6   32.78    1.61
  -3  -2   7    6.11    1.05
  -4  -8   4   12.64    1.17
  -4  -6   6   66.19    1.76
  -4  -5   6    0.61    1.18
  -3  -3   8    4.59    0.88
  -4  -4   5   53.07    1.90
  -3  -6   8    1.18    0.90
  -4  -8   1   10.90    1.12
  -4  -8   3    2.07    0.94
  -4  -7   5  107.86    2.12
  -3  -4   8   10.52    1.19
  -4  -8   2   12.29    1.14
  -4  -5   5    0.88    1.15
  -4  -4   4   91.59    1.97
  -3  -9   4   21.77    1.13
  -3  -8   6   45.14    1.28
  -3  -5   8   32.20    1.40
  -2  -6   9   22.15    0.86
  -4  -7   4   49.29    1.67
  -4  -6   5   28.63    1.32
  -3  -7   7    0.40    0.79
  -4  -7   1  121.69    2.31
  -4  -6   1   64.79    1.84
  -4  -5   4    2.06    1.22
  -3  -9   3    2.16    0.93
  -3  -3   7    4.24    0.93
  -2  -3   9   39.78    1.60
  -1  -5  10   55.50    1.32
  -4  -7   2  401.96    3.86
  -4  -7   3  236.55    3.15
  -4  -6   4   39.82    1.68
  -4  -5   3   -1.18    1.09
  -3  -9   2   27.94    1.23
  -2  -7   8    7.98    0.77
  -2  -5   9    1.35    0.82
  -4  -6   2  266.43    3.21
  -3  -6   7   53.67    1.64
  -2  -4   9  119.05    2.06
  -3  -8   5  167.62    2.31
  -3  -4   7    0.57    1.26
  -3  -3   6    0.01    1.14
  -2  -2   8   48.11    1.67
  -1  -4  10   74.01    1.63
  -3  -7   6    8.77    1.09
  -3  -5   7   82.20    1.89
  -3  -8   4   60.36    1.70
  -2  -9   4    0.43    0.77
  -2  -6   8   42.76    1.39
  -1  -6   9   35.58    1.07
  -3  -6   6   73.33    1.92
  -3  -4   6    6.62    1.25
  -2  -8   6    4.23    0.85
  -2  -3   8   35.13    1.55
   0  -5  10    1.92    0.64
  -3  -8   3   12.22    1.10
  -3  -7   5    6.86    1.22
  -3  -5   6   73.85    2.03
  -2  -7   7   82.22    1.63
  -1  -7   8    0.98    0.74
  -3  -8   2    3.10    1.08
  -2  -9   3    3.41    0.93
  -2  -4   8    1.43    1.15
  -3  -4   5  157.45    2.56
  -2  -9   2    8.00    1.06
  -3  -7   4    3.16    1.17
  -3  -6   5   63.19    1.77
  -3  -5   5   94.56    2.24
  -1  -5   9  175.77    2.35
   0  -4  10   73.35    1.77
  -2  -8   5    7.25    1.06
  -1  -9   4   71.83    1.53
  -1  -3   9    1.03    1.02
   0  -6   9    4.44    0.62
  -3  -7   1   -1.79    1.19
  -3  -7   2    6.55    1.27
  -3  -7   3    0.93    1.00
  -3  -6   4  254.33    3.32
  -2  -6   7   25.62    1.48
  -2  -3   7   25.04    1.37
  -1  -4   9  102.54    2.04
   0  -7   8   18.99    0.93
  -3  -5   4  204.82    2.80
  -2  -7   6   61.92    1.72
  -1  -8   6    3.95    0.84
  -2  -8   4   66.08    1.81
  -2  -5   7    3.90    1.22
  -2  -4   7   39.69    1.76
  -1  -9   3   77.22    1.60
  -1  -6   8   16.02    1.14
  -1  -7   7   -0.04    0.78
  -1  -2   8  181.50    2.54
  -1  -9   2   10.74    0.92
   1  -4  10   12.36    1.06
  -2  -8   3   64.32    1.77
  -2  -7   5   63.36    1.91
  -2  -6   6   16.60    1.37
   0  -8   6   40.73    1.34
   0  -5   9    0.72    0.89
  -2  -8   1   12.92    1.18
  -2  -8   2    3.03    1.03
   0  -9   3    1.47    0.82
  -2  -5   6    1.75    0.97
  -2  -4   6   36.68    1.39
  -1  -4   8   28.15    1.45
  -1  -3   8    8.97    1.22
   0  -7   7    2.41    0.79
   0  -6   8    8.46    0.99
  -2  -6   5  113.17    2.40
  -1  -7   6    0.23    0.97
  -1  -6   7    4.81    0.95
   0  -4   9   24.29    1.30
  -1  -8   4   75.17    1.92
   0  -3   9  173.54    2.58
   1  -5   9   23.98    1.30
  -2  -7   3  250.12    3.29
  -2  -5   5   -1.75    0.83
   1  -7   7   -0.16    0.75
  -2  -7   1   95.79    2.05
  -2  -7   2  629.78    4.85
  -2  -6   4  137.81    2.57
  -1  -5   7   11.18    1.36
   2  -5   9    7.86    0.87
  -1  -8   3   67.41    1.85
  -1  -7   5   -0.36    1.18
  -1  -3   7   21.01    1.46
   1  -6   8   39.21    1.28
   2  -6   8   10.41    0.78
  -1  -6   6   18.42    1.38
  -1  -4   7    0.46    1.02
  -1  -8   2   57.65    1.85
   0  -7   6   41.93    1.43
   1  -4   9   27.73    1.21
  -1  -8   1   20.48    1.17
   0  -8   4    7.80    1.14
   0  -6   7   23.31    1.20
   0  -2   8    3.50    0.99
  -1  -5   6   52.69    1.83
   0  -4   8  167.88    2.71
   0  -3   8  105.97    2.24
   1  -8   4    1.57    0.80
   1  -3   9   56.26    1.73
  -1  -6   5   89.23    2.08
  -1  -4   6    3.30    1.00
   0  -8   3   73.41    1.81
   1  -7   6   -0.45    0.87
   2  -7   6    4.13    1.06
  -1  -7   3   -1.02    1.17
   0  -7   5   85.18    2.14
   0  -5   7    0.55    1.19
   1  -6   7   76.52    1.78
   2  -4   9   99.79    1.93
   3  -4   9   14.61    0.92
   0  -8   2  165.39    2.46
   2  -8   3    3.80    0.89
   3  -6   7    4.33    0.63
  -1  -7   2    2.87    1.22
  -1  -5   5   52.89    1.65
   0  -6   6    7.15    0.96
   1  -8   3   12.12    1.14
   3  -5   8   10.82    0.76
  -1  -7   1    0.66    0.96
  -1  -6   4   70.31    1.79
   0  -8   1   13.77    1.15
   2  -6   7   12.41    0.99
   0  -4   7    7.93    1.10
   1  -7   5    4.57    1.09
   1  -4   8   58.63    1.88
   2  -8   2   17.07    1.02
   2  -3   9   61.61    1.74
   0  -3   7   45.68    1.62
   1  -8   2    6.38    1.02
   4  -3   9    9.26    0.80
   0  -5   6    9.90    1.38
   1  -8   1   26.20    1.26
   2  -7   5    8.57    0.95
   0  -6   5    2.72    1.21
   1  -6   6    4.95    1.10
   1  -5   7  416.92    4.03
   1  -3   8   19.39    1.41
   3  -3   9    2.90    0.96
   0  -7   3  220.64    3.05
   1  -2   8   43.29    1.48
   4  -5   7    7.77    0.72
   2  -4   8   74.26    1.92
   3  -6   6   58.41    1.36
   4  -4   8   15.70    0.89
   0  -4   6    6.15    1.03
   2  -6   6   43.20    1.42
  -4  -7   6   38.43    1.38
  -4  -5   6   -0.36    1.20
  -3  -3   7    5.58    1.32
  -4  -6   6   62.66    1.85
  -4  -4   5   54.01    1.87
  -4  -9   4   11.12    1.03
  -4  -8   5   35.36    1.22
  -1  -3   9    4.66    1.18
  -3  -7   7    0.46    0.76
  -3  -4   7    2.58    1.23
  -2  -3   8   31.57    1.72
  -1  -5   9  166.97    2.38
  -1  -4   9   99.90    2.03
  -4  -4   4  103.17    2.22
  -3  -6   7   52.16    1.63
  -3  -5   7   81.93    2.09
  -3  -3   6    1.17    0.81
  -2  -6   8   42.87    1.48
  -1  -7   8    0.41    0.68
   0  -5   9    0.56    0.89
  -3  -9   5   93.56    1.51
  -3  -8   6   48.21    1.28
  -1  -2   8  186.10    2.74
  -4  -9   3    1.01    0.91
   0  -4   9   20.36    1.26
  -4  -8   4   13.96    1.23
  -4  -5   4    1.86    1.32
  -3  -4   6    7.42    1.30
  -2  -3   7   24.66    1.46
  -4  -7   4   47.02    1.74
  -3  -7   6    9.33    1.07
  -2  -7   7   82.96    1.75
  -1  -3   8   10.11    1.36
  -4  -6   4   42.27    1.79
  -3  -5   6   71.28    2.11
  -1  -6   8   16.94    1.25
  -4  -9   2    6.12    0.92
  -4  -5   3    0.78    1.10
  -3  -6   6   71.21    1.97
  -4  -8   3    4.01    0.93
  -3  -8   5  168.04    2.39
  -2  -9   5    0.66    0.93
  -2  -8   6    3.63    0.86
  -2  -6   7   27.21    1.52
  -2  -4   7   36.63    1.78
  -1  -5   8  228.00    2.99
  -1  -4   8   30.66    1.50
   0  -6   8    7.95    1.04
  -4  -6   3   19.46    1.49
  -3  -4   5  162.69    2.66
  -2  -5   7    4.26    1.29
  -4  -7   3  243.98    3.22
  -3 -10   2    0.38    0.90
  -4  -8   2   11.64    1.17
  -3  -7   5    6.90    1.28
   0  -3   8  100.07    2.11
  -4  -6   2  263.68    3.16
  -3  -5   5   99.18    2.36
  -1  -9   5   12.62    0.90
   0  -5   8   -0.65    1.01
   0  -4   8  161.57    2.61
  -4  -7   2  400.36    3.92
  -3  -6   5   63.40    1.84
  -2  -7   6   63.89    1.76
  -1  -8   6    2.81    0.93
  -1  -3   7   21.70    1.41
   0  -7   7    3.01    0.88
  -4  -8   1   11.63    1.32
  -3  -9   3    1.57    0.99
  -3  -8   4   58.48    1.77
  -2  -4   6   39.06    1.68
   0  -8   6   37.20    1.08
  -3 -10   1   54.88    1.37
  -4  -7   1  122.88    2.36
  -2  -9   4    1.74    0.86
  -2  -8   5    6.01    1.09
  -2  -6   6   18.47    1.30
  -2  -5   6    1.04    1.34
  -1  -5   7   13.83    1.52
  -1  -4   7    1.37    1.19
  -3  -7   4    2.33    1.38
  -3  -5   4  210.07    2.93
  -3 -10   0    4.80    0.78
  -3  -6   4  257.09    3.42
  -2 -10   2   15.29    1.11
   0  -6   7   23.71    1.38
  -3  -9   2   31.91    1.49
  -3  -8   3   12.70    1.30
  -1  -7   6   -0.37    1.11
   1  -6   7   67.39    1.68
  -2  -7   5   60.26    1.91
   0  -3   7   45.85    1.69
  -1  -9   4   73.91    1.49
  -1  -8   5    3.21    1.08
   0  -5   7    0.73    1.26
  -3  -7   3    2.69    1.40
  -2  -9   3    2.99    1.05
  -2  -6   5  110.12    2.39
  -2  -5   5    0.64    1.09
   0  -9   4    0.62    0.72
   0  -4   7    8.51    1.33
  -3  -9   1   19.88    1.29
  -3  -6   3   93.13    2.13
  -2  -8   4   66.39    1.76
  -1 -10   2    4.36    0.84
  -1  -6   6   17.20    1.24
   0  -7   6   42.57    1.66
   1  -8   5    4.87    0.77
   1  -7   6    0.63    0.82
   1  -5   7  410.37    3.96
  -3  -8   2    0.65    1.28
  -2 -10   1   30.95    1.23
  -1  -5   6   46.68    1.86
   0  -8   5   24.22    1.21
   1  -4   7   40.82    1.73
  -3  -9   0   13.59    1.13
  -3  -7   2    3.67    1.31
  -2  -7   4  180.52    2.87
  -1  -7   5   -1.66    1.26
   0  -6   6    4.25    1.38
   2  -6   6   35.68    1.48
  -3  -8   1    9.82    1.30
  -2 -10   0   52.76    1.45
  -2  -8   3   68.77    1.96
  -2  -6   4  134.75    2.64
  -1  -9   3   81.94    1.73
  -1  -8   4   72.68    1.87
   1  -6   6    5.45    1.05
   2  -7   5    5.82    1.03
  -1  -6   5   87.94    2.30
   0  -9   3    2.17    0.85
   0  -5   6    6.86    1.24
   0  -4   6    6.87    1.17
  -3  -7   1    1.32    1.04
  -2 -10  -1  107.30    1.83
  -1  -5   5   51.69    1.77
   0  -7   5   82.68    2.12
  -3  -8   0   32.10    1.48
  -2  -7   3  239.33    3.33
   0  -8   4    8.98    1.12
   1  -7   5    4.32    1.15
  -2  -9   1    1.79    1.05
   1  -5   6   19.09    1.49
  -3  -7   0    1.35    1.01
  -2  -6   3   38.04    1.57
  -1 -10   0   55.62    1.39
  -1  -9   2   12.38    1.26
  -1  -7   4    2.48    1.20
  -1  -8   3   67.44    1.92
   1  -4   6    8.74    1.36
   0 -10   0    5.16    0.88
   1  -9   2   55.44    1.35
  -2  -9   0    5.40    1.04
  -1 -10  -1   14.98    1.17
  -1  -6   4   68.02    2.07
   0  -9   2   12.49    0.97
   2  -8   3    2.40    0.81
   0  -5   5    0.09    1.14
   1  -6   5   11.57    1.33
   2  -6   5    8.18    1.19
  -2  -8   1   13.19    1.47
  -1  -9   1   52.66    1.66
   0  -8   3   69.56    1.89
   0  -7   4   88.57    2.27
   2  -7   4   21.00    1.33
  -2  -9  -1   -0.48    1.05
  -1 -10  -2   34.59    1.20
  -1  -7   3    2.86    1.21
   0 -10  -1    4.01    0.99
   1  -8   3   10.40    1.12
  -1  -8   2   57.24    1.98
  -1 -10  -3   32.60    1.25
   3  -7   3    0.63    0.78
  -2  -9  -2    3.05    1.06
  -2  -8   0   33.78    1.61
  -2  -7   1   92.44    2.18
   0 -10  -2   43.62    1.32
   0  -9   1    8.06    1.13
   0  -6   4   39.51    1.83
   1  -9   1    7.11    0.89
   1  -5   5   91.52    2.13
   3  -6   4    4.71    1.03
  -1  -9   0   47.15    1.70
  -1  -6   3  513.81    4.48
   2  -5   5   10.30    1.29
   0 -10  -3   18.55    1.08
  -1  -7   2    0.50    1.24
   0  -8   2  162.65    2.63
   0  -7   3  214.95    3.28
  -2  -8  -1   75.51    2.06
  -1  -8   1   19.81    1.24
   1  -8   2    7.61    1.20
   1  -6   4   75.02    2.18
   2  -6   4    3.54    1.20
   2  -4   5   24.07    1.35
  -2  -7   0  110.42    2.24
  -1  -9  -1    6.30    1.10
   0  -9   0    3.17    1.03
   1  -9   0   27.23    1.18
   1  -7   3    8.40    1.30
   2  -7   3   17.30    1.38
   2  -9  -1    4.90    0.89
  -2  -8  -2  105.07    2.19
  -1  -9  -2   28.44    1.38
   0  -8   1   13.74    1.38
   0  -6   3  212.02    2.97
   1  -5   4  138.36    2.59
   3  -7   2    9.20    1.09
   3  -5   4   27.37    1.45
  -1  -7   1    0.43    1.17
   0  -7   2  951.48    6.30
   2  -8   1  188.53    2.55
   1  -9  -1   63.68    1.60
   1  -8   1   28.56    1.45
   2  -9  -2    0.36    0.89
   2  -5   4    1.63    1.22
   3  -6   3   42.47    1.57
   4  -6   2    1.19    0.90
  -1  -9  -3  146.13    2.47
  -1  -9  -4   41.08    1.41
   1  -7   2    8.99    1.41
   2  -9  -3    3.12    0.93
   2  -6   3    2.32    1.23
  -1  -8  -1   12.62    1.30
   0  -9  -2    7.95    1.17
   1  -9  -2   15.01    1.11
   3  -8  -1    1.53    0.66
   0  -8   0    4.49    1.02
   2  -8   0   66.71    1.74
  -1  -7   0    2.07    1.04
   0  -9  -3   10.38    1.12
   0  -7   1  288.03    3.62
   0  -6   2    1.82    1.09
   3  -7   1   18.24    1.30
   1  -8   0    1.91    0.86
  -1  -8  -2  134.76    2.56
   0  -9  -4    7.89    1.14
   3  -8  -2    0.18    0.78
   3  -5   3   79.38    2.06
   4  -7  -1    1.93    0.71
   0  -9  -5    0.09    0.97
   0  -8  -1   10.93    1.30
   1  -9  -5   12.78    1.03
   1  -9  -4  199.79    2.36
   2  -7   1 1027.04    6.41
   3  -6   2   18.93    1.34
   4  -6   1    8.12    1.12
   1  -7   1   11.57    1.23
   1  -6   2  462.28    4.45
   2  -8  -1   15.54    1.21
   2  -5   3   31.97    1.60
  -1  -8  -3    8.93    1.18
  -1  -7  -1    0.74    1.06
   1  -8  -1    1.45    1.17
   2  -6   2   45.92    2.04
   3  -8  -3    4.51    0.78
   4  -5   2   22.47    1.50
   0  -7   0    4.66    1.28
  -1  -8  -4    2.48    1.07
   0  -8  -2   38.15    1.73
   3  -8  -4    6.37    0.94
   2  -8  -2    8.18    1.09
   1  -8  -2    1.99    1.19
   1  -7   0    4.83    1.15
   2  -7   0   14.75    1.48
   3  -4   3    0.39    1.20
   5  -5   0   19.42    1.24
   3  -6   1  385.88    4.12
   4  -7  -3   33.62    1.05
   4  -6   0    0.69    1.01
   0  -8  -3  106.73    2.27
   0  -7  -1   27.90    1.57
   1  -6   1    5.89    1.24
   2  -8  -3   12.40    1.16
   3  -7  -1    9.65    1.13
   3  -5   2   97.62    2.37
   2  -6   1   -1.46    1.37
   2  -5   2   14.14    1.41
   4  -7  -4   13.30    0.95
   0  -8  -4   23.74    1.55
   2  -8  -4   47.31    1.54
   4  -5   1    8.05    1.24
   2  -8  -6   21.23    1.17
   2  -7  -1   11.22    1.36
   4  -4   2    7.14    1.22
   0  -8  -6   79.13    1.85
   0  -8  -5   71.97    1.87
   1  -8  -4   32.72    1.53
   1  -7  -1    5.13    1.06
   3  -7  -2    5.84    1.15
   4  -6  -1    3.30    1.12
   0  -7  -2    4.29    1.12
   1  -8  -7    9.18    0.98
   5  -5  -1   40.07    1.41
   1  -8  -6   13.90    1.28
   1  -8  -5   -0.83    0.96
   1  -6   0   19.12    1.30
   2  -6   0    2.40    1.27
   3  -7  -3    0.37    0.91
   3  -5   1  100.27    2.38
   3  -4   2   18.40    1.50
   1  -7  -2    0.13    1.26
   2  -7  -2   64.58    1.96
   0  -7  -3   60.79    1.90
   4  -5   0    9.97    1.34
   5  -5  -2   28.42    1.32
   3  -7  -7   26.61    1.11
   3  -7  -4    1.99    0.92
   3  -6  -1    9.82    1.41
   5  -4   0    0.59    1.08
  -7  -5   2   17.98    1.21
  -7  -4   5    1.84    0.81
  -6  -2   8   -1.92    0.68
  -7  -5   3   22.82    1.17
  -7  -5   4   23.13    1.02
  -7  -4   3    3.16    0.95
  -7  -4   4    1.59    0.86
  -6  -2   1   18.40    1.47
  -6  -1   3    6.91    1.25
  -6  -3   0  112.08    2.23
  -6  -1   6   -0.04    1.03
  -6  -1   4    2.30    0.88
  -5   0   2    0.18    0.78
  -5   0   8    1.09    0.86
  -6  -4   0  184.39    2.86
  -6  -2   2    9.90    1.33
  -6  -5   0    1.04    1.04
  -5  -1   9    0.03    0.63
  -6  -2   3   64.66    1.90
  -5   0   7    0.57    0.88
  -6  -2   6    2.85    0.94
  -5   0   4   96.41    2.28
  -5   0   6    8.95    1.11
  -6  -7   4   23.71    1.08
  -6  -4   1    4.07    1.09
  -6  -3   2   82.02    2.16
  -6  -3   7   21.00    1.04
  -6  -2   4   25.77    1.24
  -6  -2   5    1.85    1.11
  -5   0   5   50.97    1.74
  -6  -5   1    2.63    1.05
  -6  -5   7    0.20    0.78
  -5  -1   2   59.68    1.78
  -6  -6   6    9.35    0.98
  -6  -4   7    1.93    0.80
  -5  -1   8   17.33    1.17
  -4   1   7   69.14    1.71
  -6  -4   2   17.17    1.45
  -6  -3   3   25.02    1.57
  -6  -3   6   80.48    1.76
  -5  -2   9    0.25    0.70
  -4   1   5   16.70    1.16
  -4   1   6   34.46    1.51
  -6  -6   2    2.28    0.94
  -6  -3   4   23.04    1.40
  -6  -3   5    5.65    1.08
  -6  -6   5    6.99    0.93
  -6  -5   2    4.53    1.20
  -6  -5   6   -0.06    0.80
  -6  -4   6   21.08    1.11
  -5  -1   3  144.92    2.50
  -4   0   9    2.86    2.22
  -6  -6   3  113.00    2.01
  -6  -6   4   55.61    1.61
  -6  -4   5   22.52    1.34
  -5  -1   7   59.69    1.58
  -4  -1  10    0.33    1.02
  -6  -5   3    1.23    1.07
  -6  -5   4    2.19    1.07
  -6  -4   4   13.74    1.07
  -5  -4   9    0.85    0.67
  -5  -1   4  222.63    3.06
  -5  -1   6   17.15    1.43
  -5  -2   2    3.27    1.06
  -4   0   8   54.78    1.84
  -5  -7   6    0.97    0.74
  -5  -2   3   43.63    1.70
  -5  -2   7   62.59    1.78
  -5  -5   8  102.43    1.70
  -5  -3   8    3.90    0.73
  -4  -2  10   -0.64    1.06
  -4   0   7    8.62    1.28
  -5  -4   8   25.95    1.07
  -5  -3   2   23.31    1.31
  -5  -2   4  129.06    2.51
  -5  -2   5   11.48    1.42
  -5  -2   6  216.28    3.06
  -4  -1   9    3.72    1.11
  -4   0   5   69.17    1.84
  -4   0   6   81.81    2.08
  -5  -7   5    1.30    0.83
  -5  -5   1    6.58    1.19
  -4  -3  10   30.04    0.97
  -5  -3   7    0.75    1.05
  -5  -7   4   16.62    1.07
  -5  -5   7   40.23    1.34
  -5  -4   2    3.77    1.19
  -5  -3   3    5.96    1.30
  -5  -6   2    1.44    0.97
  -5  -6   6   13.26    1.09
  -5  -4   7   47.17    1.53
  -5  -3   4    5.11    1.31
  -5  -3   6    0.11    1.03
  -4  -1   8    9.87    1.18
  -5  -5   2   50.28    1.68
  -5  -3   5   -1.00    1.08
  -4  -2   9   49.03    1.67
  -3  -2  11   29.42    1.14
  -5  -6   3  169.86    2.62
  -5  -6   5   43.39    1.59
  -5  -5   6   42.60    1.56
  -5  -4   6  139.61    2.52
  -3  -3  11   -0.24    0.57
  -5  -6   4   91.21    2.02
  -5  -5   3   23.19    1.56
  -5  -4   4   36.20    1.72
  -5  -4   5   44.16    1.80
  -4  -7   7   10.09    1.14
  -4  -5   9    0.09    0.78
  -4  -1   7    0.50    0.87
  -3   0   9    2.39    0.97
  -5  -5   4   13.06    1.47
  -4  -3   9   20.15    1.19
  -4  -1   6   12.63    1.35
  -3  -1  10  477.44    3.78
  -4  -6   8    6.11    1.04
  -4  -4   9    4.64    0.90
  -3  -5  10   43.36    1.10
  -3   0   8    0.52    1.05
  -4  -7   6   35.44    1.30
  -4  -3   8   19.58    1.42
  -4  -2   7   17.41    1.53
  -4  -5   8    3.92    0.97
  -3  -2  10   27.59    1.35
  -3   0   7    0.26    1.02
  -4  -7   5  100.82    1.93
  -4  -4   8   36.81    1.46
  -4  -2   5   12.23    1.24
  -4  -2   6   47.77    1.66
  -3  -6   9    0.79    0.87
  -3  -1   9   26.13    1.46
  -2  -1  11    0.66    0.88
  -4  -7   4   41.87    1.70
  -3  -4  10   21.18    1.03
  -4  -3   7   62.12    1.84
  -4  -6   6   63.63    1.79
  -4  -5   7   -0.29    1.12
  -4  -4   7    8.86    1.35
  -4  -3   6   38.76    1.76
  -2  -4  11   24.85    0.91
  -4  -3   5  204.55    3.05
  -3  -1   8    7.98    1.27
  -2  -2  11    1.20    0.89
  -4  -6   3   18.99    1.38
  -4  -6   5   31.12    1.60
  -4  -5   6    1.83    1.11
  -4  -4   6   34.84    1.74
  -3  -7   7    1.86    0.89
  -3  -5   9   21.81    1.11
  -3  -2   9   40.82    1.58
  -2  -3  11   36.16    1.18
  -1  -2  12    1.34    0.50
  -1  -2  12   -0.22    0.36
  -4  -6   4   38.29    1.69
  -4  -5   3   -0.59    1.06
  -3  -1   7    5.91    1.26
  -4  -5   4    3.21    1.12
  -4  -4   4   87.24    1.98
  -4  -4   5   54.99    1.74
  -3  -6   8    1.85    0.87
  -3  -4   9    3.00    1.00
  -3  -3   9    2.04    1.13
  -2   0   9   49.92    1.71
  -2  -7   8    6.90    1.11
  -2  -5  10    1.19    0.74
  -2  -1  10   41.17    1.55
  -3  -7   6    6.08    1.11
  -2  -6   9   23.09    1.19
  -3  -5   8   34.82    1.51
  -3  -3   8    5.56    1.34
  -2  -2  10   12.24    1.21
  -2   0   8   84.71    2.03
  -3  -7   5    5.78    1.18
  -3  -4   8    9.47    1.35
  -3  -2   7    7.62    1.29
  -2  -4  10    6.95    1.06
  -1  -1  11    1.22    1.17
  -3  -7   4    1.34    1.10
  -2  -1   9    3.76    1.29
  -1  -4  11   39.96    1.15
   0  -2  12   27.14    1.02
  -3  -6   6   73.41    2.02
  -3  -5   7   86.85    2.20
  -3  -3   7    5.40    1.34
  -2  -7   7   78.23    1.66
  -1  -3  11    0.30    0.97
  -1  -2  11   13.92    1.25
  -3  -4   7    1.72    1.26
  -2  -5   9    2.73    0.90
  -1  -7   8   -0.13    0.77
  -1  -7   8    0.31    0.50
  -3  -6   5   59.69    1.97
  -3  -3   6   -0.43    1.08
  -2  -6   8   42.97    1.55
  -2  -2   9    2.95    1.36
  -1  -5  10   77.99    1.49
  -3  -6   3   90.84    2.09
  -3  -6   4  243.55    3.22
  -3  -5   6   65.97    2.13
  -3  -4   6    9.87    1.40
  -2  -4   9  116.96    2.32
  -2  -1   8    1.11    1.01
  -1  -6   9   35.72    1.31
  -2  -7   6   61.42    1.70
  -2  -3   9   46.97    1.81
  -3  -5   5   94.48    2.30
  -3  -4   5  155.99    2.62
  -1  -1  10    5.22    1.31
   0  -4  11   22.60    0.99
  -3  -5   4  201.99    2.92
  -2  -5   8    0.83    1.11
  -1   0   9   52.04    1.72
   1  -2  12  103.63    1.67
  -2  -7   5   61.60    1.79
  -1  -7   7    0.48    1.03
  -1  -4  10   82.65    1.81
  -1  -2  10   62.82    1.93
   0  -1  11    3.34    1.08
  -2  -7   4  169.49    2.57
  -2  -4   8    4.24    0.95
  -2  -3   8   31.12    1.80
   0  -6   9    3.68    1.05
   0  -5  10    2.13    0.79
   0  -3  11   62.97    1.67
  -2  -2   7    2.00    1.07
  -1  -5   9  173.44    2.55
   0  -2  11   16.74    1.28
   1  -4  11    5.15    0.72
  -2  -6   6   19.75    1.52
  -2  -5   7    2.56    1.31
  -1  -1   9  881.39    6.01
  -1  -7   6    0.30    1.23
  -2  -4   7   38.23    1.83
  -2  -3   7   23.19    1.37
  -1  -4   9  106.88    2.29
   0  -7   7    3.82    0.86
   1  -5  10   13.02    1.00
  -2  -6   5  106.48    2.39
  -1  -2   9   94.44    2.50
   0  -4  10   89.18    1.99
  -1  -3   9    1.04    1.31
   1  -3  11    2.07    0.96
  -2  -6   4  135.76    2.37
  -2  -4   6   38.51    1.72
  -1  -7   5   -0.29    1.07
  -1  -6   7    5.74    1.25
  -1  -5   8  230.73    3.24
   0  -1  10    2.35    1.23
  -2  -5   5    1.08    1.11
   0  -5   9    1.07    0.97
   0  -3  10  111.10    2.31
   1  -2  11   35.97    1.66
   1  -1  11   43.03    1.59
   0  -2  10   18.45    1.48
  -1  -4   8   26.61    1.64
   0  -7   6   44.45    1.50
   0   0   9 1264.91    6.75
   2  -3  11   56.13    1.35
  -1  -6   6   16.76    1.52
  -1  -3   8    8.10    1.44
   1  -4  10   11.49    1.11
  -1  -5   7   12.03    1.46
   2  -6   8    8.53    0.84
   0  -4   9   23.26    1.48
   1  -7   6   -0.46    0.97
   1  -5   9   23.58    1.32
   0  -7   5   85.20    1.89
   0  -6   7   22.33    1.47
   0  -1   9  145.80    2.70
   2  -4  10    7.67    0.89
   2  -2  11   18.79    1.39
  -1  -6   5   87.11    2.22
  -1  -4   7    0.79    1.26
   0  -5   8   -0.80    0.96
   0  -3   9  178.08    3.01
   1  -3  10    0.98    1.11
   2  -1  11   60.71    1.69
  -1  -3   7   26.18    1.56
   0  -2   9   27.02    1.71
   3  -2  11  113.59    1.78
   1  -2  10   11.88    1.42
   1  -1  10    6.96    1.42
  -1  -6   4   67.63    1.86
   1  -7   5    4.98    1.03
  -1  -4   6    2.32    1.06
   0  -6   6    7.05    1.28
   0  -4   8  163.87    2.84
   1  -6   7   79.66    1.92
   1  -4   9   27.14    1.49
   3  -1  11   98.96    1.92
   4  -1  11    4.21    0.80
  -1  -5   5   50.40    1.81
   0  -5   7    3.15    1.23
   1  -5   8   88.19    2.09
   2  -6   7    9.35    0.95
   2  -3  10   29.48    1.47
   0  -3   8   99.87    2.39
   1   0   9   81.87    1.98
   3  -3  10    1.54    0.93
   0  -6   5    2.60    1.29
   1  -3   9   62.40    2.00
   2  -5   8    9.93    1.13
   2  -4   9  100.99    2.03
   2  -2  10    6.49    1.23
   3  -5   8   11.48    1.13
  -3  -3   8    4.25    1.38
  -3  -2   7    5.72    1.38
  -4  -6   6   63.68    1.87
  -4  -5   6   -0.70    1.26
  -2  -2   9    4.63    1.28
  -2  -1   8    0.21    1.31
  -4  -8   4   12.56    1.06
  -3  -6   8    1.13    0.96
  -4  -7   5  109.66    2.19
  -3  -5   8   37.13    1.49
  -3  -4   8    9.83    1.29
  -2  -6   9   22.06    1.02
  -1  -2  10   59.11    1.89
  -4  -5   5    0.95    1.32
  -4  -4   4   92.89    2.24
  -1  -5  10   79.42    1.48
  -4  -6   5   33.09    1.61
  -3  -8   6   44.78    1.39
  -3  -7   7    1.40    0.92
  -3  -3   7    5.47    1.40
  -1  -1   9  845.20    5.75
  -4  -7   4   47.12    1.65
  -2  -5   9    2.53    1.07
  -1  -4  10   86.17    1.92
  -1  -3  10   29.78    1.35
  -4  -5   4    1.78    1.31
  -2  -7   8    9.15    0.99
  -2  -4   9  115.37    2.18
  -4  -7   3  230.58    3.03
  -4  -6   4   43.48    1.72
  -4  -5   3   -0.85    1.11
  -3  -6   7   54.53    1.72
  -3  -4   7    1.66    1.15
  -4  -6   3   22.36    1.33
  -3  -5   7   88.46    2.30
  -3  -3   6   -1.06    0.86
   0  -5  10    1.06    0.79
  -1  -6   9   32.97    1.19
   0  -2  10   17.18    1.28
  -3  -8   5  164.32    2.28
  -2  -6   8   43.80    1.42
  -2  -3   8   30.18    1.88
  -1  -2   9   93.86    2.26
  -3  -4   6    9.41    1.37
  -2  -2   7    1.83    1.07
   0  -4  10   85.40    1.78
   0  -3  10  109.23    2.08
  -3  -6   6   74.58    2.04
  -2  -5   8    1.06    1.07
  -2  -4   8    3.04    1.38
  -1  -7   8   -0.25    0.79
  -3  -5   6   74.42    2.14
  -2  -7   7   80.35    1.74
  -1  -5   9  176.70    2.60
  -1  -3   9    1.40    1.24
  -3  -8   4   60.22    1.59
   1  -4  10   12.39    0.96
  -3  -7   5    4.79    1.14
  -3  -4   5  153.43    2.60
  -2  -3   7   21.25    1.52
  -2  -9   4    0.98    0.76
  -1  -2   8  188.77    2.94
   0  -7   8   21.74    1.12
   1  -3  10   -0.10    0.97
  -3  -6   5   62.34    2.00
  -2  -6   7   24.84    1.42
  -3  -8   3   12.65    1.14
  -2  -4   7   38.26    1.95
  -1  -6   8   13.94    1.18
   0  -2   9   22.35    1.49
  -3  -7   4    5.36    1.26
  -2  -5   7    5.10    1.22
   0  -5   9    2.56    1.07
  -3  -5   4  204.29    2.99
  -2  -8   5    6.85    1.15
  -2  -7   6   62.61    1.80
  -1  -3   8    9.74    1.48
   0  -3   9  169.63    2.83
  -3  -6   4  245.92    3.19
  -2  -9   3    4.40    0.94
  -1  -8   6    4.75    0.89
  -1  -7   7   -0.07    0.94
  -1  -5   8  226.59    3.18
  -1  -4   8   28.89    1.61
   0  -4   9   24.46    1.39
  -3  -7   3   -0.73    1.27
   1  -5   9   25.54    1.32
  -2  -6   6   21.09    1.51
  -2  -4   6   38.59    1.65
  -3  -7   2    5.34    1.35
  -3  -6   3   91.49    1.99
  -2  -5   6    1.17    1.37
  -1  -9   4   68.68    1.61
   0  -6   8    8.28    1.09
   1  -2   9   14.91    1.32
  -2  -8   4   69.67    1.83
   0  -8   6   34.96    1.34
   1  -4   9   26.40    1.31
  -1  -6   7    4.17    0.92
   0  -7   7    4.30    0.83
   0  -2   8    2.00    1.19
   1  -3   9   55.14    1.83
   2  -4   9   98.27    1.92
  -2  -6   5  110.62    2.50
  -1  -7   6   -1.05    1.17
  -1  -5   7   12.15    1.50
  -1  -4   7    2.95    1.29
   0  -5   8   -0.18    0.90
   1  -7   7    1.83    0.82
  -2  -8   3   63.23    1.77
  -2  -5   5    0.54    1.18
  -1  -9   3   79.31    1.64
   0  -4   8  165.00    2.97
   0  -3   8  100.57    2.17
   2  -3   9   59.36    1.66
  -2  -7   4  187.63    2.92
  -1  -6   6   19.78    1.55
   0  -6   7   24.80    1.43
   1  -5   8   89.36    2.13
  -2  -8   2    3.65    1.17
  -2  -6   4  140.17    2.67
  -1  -9   2   10.13    1.14
  -1  -8   4   74.69    1.94
   0  -8   5   24.20    1.22
   2  -5   8    9.30    1.13
  -2  -7   3  247.47    3.31
  -1  -7   5    1.19    1.31
  -1  -5   6   49.26    1.87
  -1  -4   6    1.92    1.18
   0  -9   3    2.71    1.03
   0  -7   6   46.50    1.56
   1  -2   8   41.62    1.62
   0  -5   7    1.92    1.31
   1  -8   5    5.60    1.10
   1  -4   8   58.07    1.92
   1  -3   8   22.49    1.55
   0  -3   7   48.39    1.79
   1  -6   7   78.29    1.93
   2  -7   6    3.62    0.80
  -2  -6   3   38.26    1.57
   1  -7   6    0.52    0.87
   3  -4   8   13.02    1.22
  -2  -7   2  616.90    4.81
  -1  -8   3   68.98    1.85
  -1  -6   5   86.08    2.33
   2  -4   8   74.22    1.95
   0  -9   2   12.79    1.07
   0  -6   6    9.07    1.30
  -1  -5   5   49.54    1.86
   0  -7   5   85.20    2.13
   1  -9   2   47.74    1.55
   2  -3   8  216.25    3.09
   2  -8   4   13.27    1.03
   0  -5   6    9.36    1.47
   1  -8   4    1.07    0.92
   3  -5   7    6.80    1.12
  -1  -8   2   58.29    1.86
   0  -9   1    5.20    0.97
   1  -4   7   42.80    1.91
   2  -5   7    5.51    1.27
  -1  -6   4   65.53    2.01
   0  -4   6    4.17    1.16
   1  -7   5    3.94    1.08
   1  -6   6    4.98    1.04
   1  -3   7   37.45    1.64
   4  -4   7   15.35    1.10
  -1  -7   3   -1.67    1.28
   0  -8   3   74.52    1.95
   1  -9   1    9.39    0.98
   2  -7   5    6.53    1.01
   2  -6   6   40.88    1.63
   0  -6   5    1.84    1.29
  -1  -8   1   22.25    1.35
   0  -7   4   86.30    2.08
   2  -8   3    3.60    1.15
   2  -4   7  323.10    3.77
   4  -5   6   18.82    1.03
   1  -5   6   22.40    1.58
   3  -4   7   25.00    1.43
  -1  -7   2    1.92    1.29
  -1  -6   3  515.41    4.49
   0  -5   5   -0.25    1.11
   1  -9   0   16.20    1.09
   2  -3   7  205.88    3.06
   2  -2   7   -0.56    1.14
   3  -7   4    1.50    0.76
   0  -8   2  166.24    2.63
   1  -7   4   -0.12    1.20
   1  -6   5    8.85    1.32
   3  -5   6  243.25    3.19
   3  -3   7   28.78    1.54
   0  -6   4   43.91    1.84
   2  -7   4   22.32    1.26
   3  -6   5   11.72    1.13
   1  -8   2    8.99    1.21
   2  -8   2   22.31    1.19
   2  -6   5    9.83    1.47
  -1  -7   1    0.40    0.82
   0  -8   1   13.88    1.43
   4  -6   4   17.11    1.02
   4  -4   6  210.50    3.02
   1  -5   5   94.76    2.16
   2  -4   6   89.94    2.39
   3  -7   3    0.52    0.80
   4  -5   5   27.49    1.38
   5  -5   4   14.24    0.90
   0  -7   2  940.81    6.29
   1  -7   3    7.23    1.33
   3  -4   6   16.15    1.43
   5  -4   5    1.88    1.00
   0  -8   0    3.81    1.15
   0  -6   3  216.17    3.10
   1  -8   1   26.88    1.37
   1  -6   4   76.55    2.01
   2  -8   1  190.74    2.56
   2  -7   3   16.34    1.28
   2  -3   6  174.28    2.77
   3  -8   0   18.47    1.02
   2  -5   5    9.65    1.39
   3  -6   4    3.07    1.18
   2  -6   4    0.77    1.29
   4  -3   6   64.20    1.88
   3  -8  -1    2.05    1.06
   3  -3   6   29.98    1.73
   4  -7   1   33.67    1.24
   0  -7   1  287.03    3.44
   1  -8   0    5.26    1.12
   2  -8   0   62.99    1.67
   3  -7   2    8.00    1.02
   4  -6   3    5.27    1.00
   1  -5   4  141.42    2.62
   3  -2   6   41.66    1.64
   0  -6   2    4.70    1.12
   1  -6   3   36.12    1.76
   2  -7   2   21.76    1.58
   4  -4   5  148.96    2.60
   5  -5   3    5.44    0.84
   1  -8  -1    1.42    1.19
   5  -3   5   40.51    1.53
   2  -8  -1   16.42    1.25
   3  -6   3   43.91    1.65
   3  -4   5   10.38    1.43
   4  -7   0  368.56    3.03
   5  -4   4    9.10    1.15
   0  -7   0    6.51    1.11
   1  -7   1    9.45    1.43
   2  -6   3    2.16    1.18
   2  -5   4    2.77    1.03
   3  -5   4   31.17    1.65
   1  -8  -2    1.76    0.98
   2  -8  -2    7.73    0.98
   3  -7   1   18.37    1.31
   4  -6   2   -0.79    0.95
   2  -7   1 1023.77    6.30
   4  -7  -1    3.13    0.87
   5  -6   0  124.02    1.77
   1  -6   2  459.43    4.41
   2  -8  -3    7.68    0.91
   3  -3   5   81.40    2.22
   4  -3   5   82.82    2.10
   6  -4   2   35.93    1.20
   0  -7  -1   27.94    1.32
   5  -5   2    7.38    1.02
   1  -7   0    4.46    1.20
   2  -4   4   12.49    1.18
   3  -7   0   22.89    1.28
   3  -6   2   22.34    1.45
   4  -7  -2    0.96    0.90
   4  -5   3    1.90    1.14
   4  -4   4  114.05    2.52
   6  -3   3    4.28    1.00
   2  -6   2   46.67    1.86
   5  -6  -1   44.70    1.32
   2  -7   0   13.30    1.49
   2  -5   3   31.64    1.63
   3  -5   3   81.01    2.22
   4  -6   1   12.55    1.10
   4  -2   5    4.39    1.27
   5  -4   3    0.35    1.18
   5  -3   4   57.98    1.93
   1  -7  -1    3.57    1.19
   6  -4   1   14.94    0.99
   5  -5   1   16.59    1.13
   2  -7  -1    9.02    1.28
   2  -6   1    1.72    1.24
   3  -6   1  384.12    4.06
   4  -5   2   19.77    1.63
   4  -3   4   50.49    1.96
   3  -7  -2    3.20    1.15
   3  -3   4   61.25    1.88
   4  -6   0    0.65    0.92
   1  -7  -2    0.82    1.03
   2  -5   2   11.41    1.25
   5  -2   4  143.77    2.53
   6  -3   2   78.03    1.77
   6  -2   3    4.74    1.22
   1  -6   0   21.05    1.43
   2  -7  -2   58.12    1.77
   3  -7  -5    5.02    0.82
   3  -7  -3    2.30    0.97
   3  -5   2   99.12    2.37
   3  -4   3    0.49    1.19
   3  -7  -4    3.41    0.92
   5  -5   0   19.57    1.19
   5  -3   3   64.21    1.94
   4  -6  -2    1.21    1.21
   5  -4  -5   -0.03    1.11
   5  -4  -3    3.97    1.27
   5  -1  -1  114.18    2.52
   2  -7   0   13.06    1.47
   3  -6   0   31.97    1.89
   3  -5   1  110.60    2.90
   4  -3   1  154.13    3.04
   5  -4  -4    8.14    1.37
   2  -6   1    1.65    1.46
   5  -1  -2   41.79    1.79
   2  -8  -2    6.55    1.08
   3  -7  -2    2.91    1.45
   4  -6  -3    1.78    1.16
   4  -5  -1   -1.25    1.59
   4  -4   0    1.48    1.68
   5  -3  -5    3.80    1.15
   5  -3  -3  122.35    2.77
   5  -2  -2   52.19    2.01
   5  -1  -3  124.37    2.65
   4  -6  -6    0.40    0.80
   4  -6  -4    0.29    1.03
   5  -3  -4   48.26    1.90
   5  -2  -3  118.31    2.72
   4  -6  -5    0.49    1.04
   5  -2  -4   38.67    1.86
   3  -4   1    1.74    1.36
   4  -5  -2   16.22    1.54
   4  -3   0   43.92    1.90
   3  -6  -1    8.78    1.76
   4  -4  -1   75.08    2.45
   1  -9  -4  171.14    2.67
   2  -8  -3   10.73    1.27
   2  -7  -1   11.68    1.59
   3  -5   0  132.83    3.20
   4  -5  -7   27.83    1.33
   4  -5  -3   31.46    1.78
   2  -6   0   -0.41    1.49
   3  -7  -7   24.29    1.25
   3  -7  -4    3.77    1.12
   4  -3  -1   42.79    2.04
   3  -7  -5    6.67    1.17
   4  -5  -6    3.66    1.24
   4  -5  -4   26.99    1.72
   4  -4  -2   52.45    2.25
   1  -9  -5   11.68    1.15
   1  -8  -2    0.62    1.24
   2  -8  -4   43.61    1.81
   3  -7  -6    8.26    0.99
   3  -6  -2    3.90    1.16
   4  -5  -5   11.92    1.38
   3  -5  -1   27.06    1.89
   3  -4   0    0.12    0.92
   1  -9  -6    4.65    1.37
   2  -7  -2   59.16    2.18
   4  -4  -7   36.21    1.68
   4  -4  -3  244.98    3.85
   4  -3  -2   37.54    1.97
   2  -8  -7   34.33    1.58
   2  -8  -6   17.50    1.22
   3  -6  -3   34.34    1.99
   1  -7  -1    2.31    1.36
   4  -4  -6   18.81    1.46
   4  -4  -5   49.21    2.10
   4  -4  -4   17.54    1.40
   4  -3  -7    0.08    1.02
   2  -6  -1   12.82    1.39
   1  -8  -3   74.98    2.28
   2  -7  -3    4.38    1.61
   3  -6  -4   36.44    1.87
   3  -5  -2   10.43    1.69
   3  -4  -1   -1.50    1.25
   4  -3  -6   42.71    1.83
   4  -3  -4   19.96    1.67
   4  -2  -3   32.21    1.78
   3  -6  -7   48.23    1.78
   3  -6  -5   24.34    1.63
   3  -5  -9   18.47    1.19
   4  -3  -5    6.03    1.68
   4  -2  -4    5.31    1.27
   3  -6  -6   50.29    1.92
   4  -2  -5   -0.42    1.28
   2  -7  -9   33.86    1.26
   1  -8  -4   29.11    1.62
   2  -6  -2   28.22    2.03
   3  -5  -3  209.51    3.54
   0  -9  -5    0.21    1.10
   1  -7  -2   -0.01    1.40
   3  -5  -8   19.66    1.39
   3  -4  -9    0.43    0.97
   3  -4  -2    0.21    1.15
   2  -7  -8  256.48    3.19
   2  -7  -5   37.79    1.97
   2  -6 -10    3.62    0.87
   3  -5  -4   14.81    1.68
   1  -8  -9    0.29    1.00
   2  -7  -7    0.23    1.11
   2  -7  -6    5.82    1.27
   3  -5  -7   34.31    1.84
   0  -9  -6    1.60    1.13
   1  -8  -5    1.20    1.24
   3  -5  -6   37.61    1.91
   3  -5  -5    1.95    1.19
   3  -4  -3    2.35    1.38
   0  -9  -8    7.40    1.29
   0  -9  -7    2.95    1.11
   1  -8  -8    6.22    1.12
   3  -4  -8    7.87    1.34
   1  -8  -7    9.00    1.27
   1  -7  -3    8.34    1.65
   3  -4  -4    4.05    1.38
   2  -6  -4    6.19    1.71
   2  -5 -10   36.96    1.52
   3  -4  -7    4.90    1.25
   3  -3  -8  161.17    2.94
   1  -7 -10    3.46    0.92
   3  -4  -6   -0.71    1.43
   0  -8  -4   25.99    1.80
   2  -6  -8    5.82    1.37
   2  -6  -5    1.81    1.57
   3  -3  -7   53.10    2.01
   1  -7  -4   13.91    1.83
   1  -6 -11   39.67    1.52
   2  -6  -7    2.70    1.64
   2  -6  -6    8.31    1.50
   2  -5  -3   12.94    1.53
   0  -8 -10    5.28    0.94
   2  -4 -10   36.84    1.56
   3  -3  -6    3.07    1.41
   3  -3  -5    1.89    1.33
  -1  -9  -6   70.67    2.06
   1  -7  -9   11.51    1.21
   2  -5  -9   15.53    1.41
  -1  -9  -9   86.72    2.02
   0  -8  -5   73.91    2.39
  -1  -9  -8   57.50    1.73
  -1  -9  -7   35.11    1.68
   1  -7  -8    7.39    1.34
   1  -7  -6   43.41    2.16
   2  -5  -4    5.08    1.17
   0  -8  -9    3.57    1.14
   0  -8  -6   82.62    2.51
   0  -7  -3   63.00    2.35
   1  -7  -7   37.02    1.85
   1  -6  -3  162.66    3.16
   2  -5  -8    9.63    1.66
   0  -8  -8    8.02    1.32
   0  -7 -11   29.20    1.28
   1  -5 -11   37.04    1.71
   2  -5  -7   37.37    1.95
   2  -5  -5   10.06    1.60
   2  -4  -9   54.23    2.00
   0  -6 -12    2.24    0.86
   2  -5  -6   48.23    2.04
  -1  -8 -11   15.80    1.23
  -2  -9 -10    2.46    1.14
   0  -7  -4  190.44    3.54
   1  -6  -9   14.75    1.56
   1  -4 -11    0.20    1.29
   2  -4  -8   46.34    2.04
  -2  -9  -9   12.21    1.16
  -1  -7 -12    8.00    0.87
   0  -7 -10   69.97    2.09
   1  -6  -5  176.77    3.47
   2  -4  -7   82.60    2.43
  -2  -9  -8    7.67    1.28
  -2  -9  -7    5.03    1.21
  -1  -8 -10    0.80    0.99
  -1  -8  -5   53.13    2.18
   1  -6  -8  214.46    3.70
   1  -5 -10   10.05    1.35
   0  -7  -5   69.15    2.57
   0  -5 -12    1.20    1.00
   1  -6  -7  230.64    3.88
   1  -6  -6   98.45    2.64
   2  -3  -8    4.18    1.31
   0  -7  -9   46.17    1.86
   0  -6 -11   21.53    1.54
  -3  -9 -10    8.87    1.27
  -1  -8  -9    2.31    1.22
  -1  -8  -6   11.56    1.76
   2  -3  -7   57.25    2.18
  -1  -8  -7   13.22    1.81
   0  -7  -8  135.24    2.97
   0  -7  -7  335.60    4.55
   1  -5  -9    4.85    1.57
  -2  -8 -11  103.28    2.05
   1  -4 -10    0.18    1.45
  -3  -9  -9    5.07    1.02
  -3  -9  -8   39.29    1.73
  -1  -7 -11    3.77    1.11
  -1  -6 -12   48.83    1.64
   0  -6 -10    2.42    1.36
   1  -5  -8   17.20    1.48
  -1  -7  -4   59.42    2.24
   0  -5 -11   28.20    1.61
   1  -5  -7   25.33    1.96
   1  -5  -6   84.67    2.51
  -4  -9  -9    6.38    1.08
  -2  -8 -10  105.56    2.36
  -2  -7 -12   17.58    1.31
   1  -4  -9   14.59    1.68
  -1  -7 -10   59.80    2.05
   0  -6  -9   18.13    1.81
  -2  -8  -6    1.53    1.52
  -3  -8 -11   -0.36    1.26
  -1  -7  -5   48.03    2.18
   0  -6  -8    7.61    1.59
   1  -4  -8    5.43    1.64
  -2  -8  -8   13.34    1.66
  -2  -8  -7    6.55    1.61
  -1  -7  -9   24.30    1.79
  -1  -5 -12   65.03    2.00
   0  -6  -7   14.61    1.78
   0  -6  -6   87.10    2.48
   0  -5 -10   45.69    2.14
   0  -4 -11   23.35    1.67
   1  -3  -9    4.09    1.27
  -2  -5 -13   39.06    1.34
  -1  -7  -8   10.24    1.73
  -1  -7  -6   39.15    2.12
  -1  -6 -11   84.71    2.13
  -2  -7 -11   35.94    1.64
  -3  -7 -12   24.30    1.26
  -2  -6 -12    2.84    1.22
   0  -5  -9   38.40    2.17
   1  -3  -8   86.00    2.42
  -3  -8  -6    9.84    1.34
  -1  -6 -10  132.82    3.08
  -1  -4 -12    1.01    1.27
  -3  -8  -9    4.19    1.54
  -2  -7 -10   81.71    2.34
   0  -5  -8   60.09    2.44
   0  -4 -10   42.58    2.10
  -3  -8  -8    1.91    1.25
  -3  -8  -7   34.29    1.98
  -1  -5 -11    7.93    1.55
  -4  -8 -10   52.95    1.78
  -4  -7 -12   10.07    1.32
  -3  -5 -13    3.16    0.80
  -2  -7  -5   92.28    2.67
  -1  -6  -9  180.35    3.61
   0  -5  -7   28.27    1.81
  -5  -8 -10    0.29    1.26
  -3  -7 -11   16.69    1.52
  -2  -7  -9  165.58    3.41
  -4  -8  -9  111.49    2.77
  -2  -7  -6   86.54    2.64
  -2  -6 -11    2.79    1.41
  -2  -5 -12   36.53    1.86
  -1  -6  -8  250.53    4.11
   0  -4  -9   53.90    2.25
   0  -3 -10   16.21    1.61
  -3  -6 -12    7.92    1.26
  -2  -7  -7  260.92    4.18
  -1  -6  -7  346.47    4.64
  -5  -8  -9   25.07    1.55
  -4  -8  -8   64.10    2.09
  -4  -8  -7   53.57    2.01
  -3  -4 -13    8.42    0.95
  -1  -5 -10  104.47    2.79
  -1  -4 -11   -0.46    1.28
  -3  -7 -10    1.74    1.43
  -5  -8  -8   44.65    1.67
  -4  -7 -11    5.05    1.21
  -3  -3 -13    2.78    0.76
  -3  -3 -13    0.42    0.52
  -2  -6 -10   18.12    1.70
  -2  -4 -12  145.29    2.80
   0  -3  -9   18.88    1.59
  -4  -6 -12    2.25    1.10
  -3  -7  -9   20.60    1.78
  -1  -5  -9  131.66    3.12
  -1  -3 -11  142.44    2.90
  -5  -6 -12   52.97    1.58
  -3  -6 -11   33.94    1.77
  -2  -5 -11    1.09    1.09
  -4  -7 -10    8.89    1.39
  -3  -7  -8   37.81    2.22
  -3  -7  -6   -1.68    1.44
  -2  -6  -9    0.41    1.53
  -2  -3 -12   35.71    1.68
  -1  -5  -8   72.03    2.49
  -1  -4 -10    1.82    1.45
  -6  -7 -10    2.13    1.44
  -3  -7  -7   18.33    1.77
  -2  -6  -8   36.99    2.21
  -5  -7 -10   26.19    1.60
  -4  -7  -9   76.03    2.42
  -4  -6 -11    3.31    1.14
  -4  -5 -12   18.82    1.42
  -3  -6 -10   57.16    2.19
  -3  -4 -12    1.07    1.46
  -2  -5 -10   21.99    1.91
  -2  -4 -11  344.24    4.46
  -6  -6 -11    3.78    1.09
  -1  -3 -10   13.80    1.69
  -6  -7  -9    6.38    1.03
  -5  -7  -9    1.05    1.23
  -5  -5 -12   13.14    1.13
  -4  -7  -8  208.24    3.51
  -4  -7  -6   49.71    2.33
  -3  -5 -11   61.23    2.41
  -5  -6 -11   13.98    1.28
  -4  -7  -7  605.56    5.64
  -3  -6  -9   72.38    2.32
   2  -2 -12   -0.86    0.75
   2  -5 -10   37.28    1.48
   3  -3  -9  116.37    2.39
   1  -6 -11   42.10    1.42
   3   0  -9    3.55    1.22
   1  -3 -13   39.78    1.13
   2  -5  -5   10.51    1.46
   2  -4 -11   75.73    1.65
   3  -3  -8  185.73    3.11
   3  -3  -5    5.52    1.18
   3  -2  -9   30.71    1.64
   1  -5 -12    1.48    0.93
   3  -3  -7   64.64    2.11
   3  -3  -6    4.57    1.37
   3  -1  -9    3.37    1.32
   0  -7 -11   22.49    1.30
   2  -5  -6   48.56    2.02
   2  -5  -8    9.51    1.49
   2  -5  -7   32.87    1.72
   2  -3 -11    5.04    1.17
   2  -1 -11  141.92    2.44
   3  -2  -8  117.47    2.68
   3   0  -8    0.21    1.24
   1  -6 -10   33.47    1.59
   2  -4 -10   37.60    1.68
   2  -2 -11   16.03    1.41
   3  -2  -7  339.51    4.13
   3  -1  -8    6.10    1.57
   0  -5 -13   13.58    1.15
   3  -2  -6   61.31    1.83
   3   0  -7   -1.30    1.22
   0  -7 -10   71.40    1.76
   0  -6 -12    2.16    1.07
   1  -6  -9   16.36    1.28
   1  -4 -12    2.19    0.96
   1  -5 -11   41.04    1.63
   1  -1 -12    9.45    1.06
   2  -4  -9   56.22    2.05
   2   0 -10  613.47    4.92
   1  -6  -8  208.71    3.24
   1  -6  -7  229.93    3.39
   2  -3 -10    8.32    1.44
   1  -2 -12   37.16    1.72
   2  -4  -8   48.52    2.11
   2  -1 -10   53.81    1.96
   0  -4 -13   51.44    1.46
   2  -4  -6   72.29    2.05
   0  -2 -13   10.57    0.86
   1  -5 -10    9.63    1.43
   2  -3  -9   29.62    1.81
   0  -3 -13    8.18    0.92
   1  -4 -11   -0.43    1.07
   2   0  -9   49.20    1.91
   0  -5 -12    0.98    0.98
  -1  -7 -11    2.15    1.06
   2  -3  -8    2.44    1.00
   2  -2  -9    0.46    1.12
   2  -1  -9   29.90    1.79
   1  -3 -11    6.10    1.38
   1  -1 -11    6.79    1.30
   2  -3  -7   61.88    2.19
  -1  -5 -13   40.43    1.36
   0  -6 -10    2.71    1.23
   1  -5  -8   17.41    1.68
   1  -5  -6   85.92    2.27
   2  -2  -8    1.03    1.36
   2   0  -8   89.15    2.32
  -1  -6 -12   50.70    1.57
   1  -5  -7   26.89    1.77
   1  -4 -10    0.00    1.31
   1  -2 -11    1.88    1.35
   2  -1  -8   25.32    1.73
  -2  -7 -12   18.27    1.27
  -1  -7 -10   61.88    1.98
   0  -4 -12  107.90    2.25
   0  -1 -12    5.20    1.04
  -2  -6 -13   -1.31    0.98
   0  -6  -9   18.58    1.51
   0  -5 -11   26.76    1.60
   1   0 -10   78.62    2.07
  -1  -4 -13    1.07    1.03
  -1  -2 -13   51.15    1.41
   0  -2 -12   40.27    1.71
   1  -4  -9   15.36    1.66
   1  -3 -10    6.51    1.55
  -1  -7  -9   24.34    1.54
  -1  -3 -13   98.28    1.94
   0  -6  -8    4.87    1.45
   0  -6  -7   15.52    1.55
   1  -4  -8    6.42    1.50
   1  -1 -10   37.45    1.84
  -2  -7 -11   34.61    1.58
  -1  -5 -12   77.11    1.90
   0  -5 -10   43.89    1.78
   0  -4 -11   20.73    1.59
   1  -3  -9    6.36    1.52
  -3  -7 -12   24.47    1.44
  -3  -6 -13   29.92    1.40
  -2  -5 -13   39.76    1.36
   1   0  -9   55.47    1.93
  -2  -6 -12    3.13    1.07
  -2  -2 -13   -0.33    0.98
  -1  -1 -12   11.35    1.17
   0  -3 -11   38.27    1.90
   0  -1 -11   15.57    1.47
   1  -3  -8   89.84    2.38
   1  -1  -9   86.16    2.29
  -2  -4 -13   90.28    1.93
  -1  -6 -10  137.60    2.82
  -1  -4 -12    0.69    1.17
   0  -2 -11    1.68    1.36
  -2  -7 -10   85.39    2.12
  -2  -3 -13   21.35    1.20
   0  -5  -8   59.08    2.14
   0  -4 -10   41.83    1.94
  -1  -5 -11    6.44    1.44
  -1  -2 -12  129.24    2.51
  -4  -7 -12    3.86    0.87
  -4  -7 -12    0.82    0.63
  -3  -5 -13    2.12    0.90
  -1  -6  -9  187.24    3.19
   0  -5  -7   29.19    1.72
  -3  -7 -11   16.56    1.31
  -2  -7  -9  167.28    2.85
   0  -3 -10   16.94    1.74
  -2  -5 -12   38.72    1.61
   0  -4  -9   52.74    1.90
  -3  -6 -12    4.98    1.16
  -3  -4 -13    7.80    1.01
  -3  -3 -13    7.03    1.01
  -2  -7  -8  194.12    2.91
  -2  -1 -12   54.16    1.70
  -1  -6  -8  254.20    3.51
  -1  -4 -11    1.26    1.27
   0  -2 -10   16.08    1.76
   0  -1 -10  190.02    3.07
  -4  -5 -13    2.88    0.99
  -1  -6  -7  346.73    4.02
  -1  -5 -10  108.38    2.62
  -2  -4 -12  141.84    2.67
  -1  -1 -11   33.42    1.74
   0  -4  -8  147.57    2.85
  -4  -4 -13   13.81    0.91
  -3  -7 -10   -0.72    1.23
  -1  -3 -11  145.89    2.93
   0  -3  -9   19.45    1.74
  -4  -7 -11    3.51    1.08
  -2  -6 -10   17.58    1.69
  -2  -2 -12    3.80    1.21
  -1  -2 -11  212.46    3.40
   0   0  -9 1265.35    7.08
  -4  -6 -12    0.34    1.07
  -2  -5 -11   -0.49    1.49
  -3  -5 -12   17.12    1.10
  -1  -4 -10   -1.00    1.29
   0  -1  -9  217.69    3.12
  -5  -7 -11   10.32    1.28
  -5  -6 -12   57.65    1.51
  -3  -7  -9   24.23    1.51
  -2  -6  -9    0.05    1.21
  -1  -5  -8   71.94    2.28
  -3  -4 -12    1.97    1.18
  -3  -2 -12   40.89    1.61
  -2  -4 -11  340.06    4.15
  -1  -3 -10   13.74    1.67
  -4  -7 -10   11.80    1.35
  -4  -5 -12   21.84    1.22
  -1  -1 -10    1.15    1.34
  -2  -6  -8   38.02    1.82
  -2  -5 -10   24.52    1.51
  -2  -1 -11    9.04    1.41
  -1  -4  -9    1.53    1.02
  -1  -2 -10   64.15    2.28
  -5  -5 -12   12.05    1.14
  -4  -2 -12   -0.37    1.01
  -3  -6 -10   53.67    2.08
  -2  -3 -11   64.07    2.18
  -2  -2 -11   58.98    2.08
  -4  -4 -12   39.04    1.56
  -3  -5 -11   56.95    1.81
  -6  -7 -10   -0.24    1.06
  -5  -7 -10   25.45    1.22
  -5  -4 -12   -0.03    1.04
  -5  -3 -12    5.69    0.80
  -4  -3 -12    9.70    1.21
  -2  -6  -7   39.27    1.77
  -4  -7  -9   77.13    2.14
  -2  -5  -9   41.57    1.93
  -1  -3  -9   20.20    1.34
  -5  -6 -11   12.13    1.20
  -3  -1 -11   18.88    1.63
  -2  -4 -10    4.09    1.06
  -3  -6  -9   74.03    2.22
  -3  -4 -11    5.93    1.09
  -1  -1  -9   13.84    1.47
  -4  -5 -11   38.82    1.73
  -4  -7  -8  201.20    3.08
  -4  -6 -10   17.72    1.61
  -4  -1 -11   76.83    2.05
  -3  -5 -10    2.46    1.44
  -3  -3 -11   20.39    1.62
  -3  -2 -11   75.79    2.13
  -2  -3 -10   69.45    2.32
  -2  -1 -10    6.76    1.39
  -6  -5 -11   17.07    1.23
  -5  -7  -9    1.27    1.12
  -2  -5  -8   10.75    1.39
  -2  -2 -10    2.00    1.60
  -6  -7  -9    4.52    0.97
  -5  -5 -11   23.73    1.36
  -3  -6  -8  144.79    2.91
  -2  -4  -9   19.51    1.59
  -4  -4 -11  101.18    2.35
  -6  -6 -10    0.88    0.95
  -6  -4 -11    6.74    0.97
  -5  -2 -11   49.79    1.59
  -4  -3 -11   47.39    1.83
  -4  -2 -11   15.44    1.40
  -3  -4 -10    1.83    1.29
  -5  -7  -8    1.69    1.27
  -5  -4 -11    0.15    1.00
  -4  -6  -9   -0.58    1.34
  -3  -5  -9   34.21    1.88
  -4  -5 -10    3.49    1.43
  -3  -6  -7  751.30    5.66
  -2  -3  -9   15.18    1.66
  -2   0  -9  348.66    3.82
  -6  -7  -8    4.78    1.10
  -3  -3 -10  119.98    2.72
  -3  -1 -10   44.58    1.82
  -7  -6  -9   10.98    1.18
  -3  -2 -10  236.11    3.53
  -2  -1  -9   36.35    1.80
  -5  -5 -10   91.69    2.30
  -6  -5 -10   38.94    1.48
  -5  -6  -9   59.46    1.93
  -4  -6  -8    5.85    1.44
  -4  -4 -10  542.40    5.09
  -6  -6  -9    4.26    1.18
  -5  -1 -10   25.00    1.42
  -4  -1 -10   49.11    1.91
  -3  -5  -8  142.16    2.63
  -3  -4  -9    1.24    1.34
  -6  -2 -10   16.51    1.14
  -4  -5  -9    5.74    1.61
  -4  -3 -10  144.42    2.90
  -6  -4 -10    5.18    1.05
  -5  -4 -10   13.79    1.40
  -4  -2 -10   19.05    1.64
  -3   0  -9   17.21    1.52
  -7  -5  -9   66.45    1.71
  -6  -3 -10    3.55    1.08
  -5  -2 -10   34.68    1.80
  -3  -3  -9   19.75    1.69
  -7  -6  -8   35.75    1.38
  -5  -6  -8   41.11    1.71
  -5  -3 -10    8.40    1.37
  -4  -6  -7  163.82    2.88
  -5  -5  -9   11.42    1.56
  -5   0  -9    4.63    1.22
  -3  -1  -9   14.65    1.68
  -7  -4  -9    9.79    0.95
  -7  -3  -9    1.93    0.88
  -6  -6  -8    1.01    1.13
  -6  -5  -9    0.22    1.13
  -4  -4  -9   74.08    2.33
  -4   0  -9  189.02    2.97
  -3  -4  -8   12.65    1.33
  -6  -1  -9   27.60    1.34
  -4  -6  -6    0.77    1.18
  -7  -6  -7   34.16    1.37
  -5  -6  -7   21.98    1.59
  -5  -4  -9   21.34    1.60
  -4  -3  -9  196.39    3.34
  -4  -1  -9    7.56    1.41
  -6  -4  -9  265.93    3.30
  -5  -1  -9   11.04    1.26
  -3  -3  -8   27.52    1.61
  -6  -6  -7    2.53    1.08
  -6  -3  -9   51.89    2.01
  -8  -4  -7    8.99    1.01
  -6   0  -8  356.42    3.66
  -5  -3  -9   77.33    2.38
  -4  -5  -7    2.83    1.39
  -3   0  -8   70.55    2.10
  -4  -4  -8  111.49    2.46
  -3  -2  -8  211.23    3.11
  -8  -5  -6   26.27    1.42
  -7  -6  -6    9.03    1.15
  -7  -4  -8   63.81    1.80
  -5  -6  -6  793.08    5.75
  -3  -1  -8   22.60    1.31
  -7  -3  -8   45.17    1.58
   2  -8   0   64.31    2.04
   2  -5   3   32.06    1.97
   3  -8  -3    2.98    0.91
   3  -7   0   18.90    1.55
   4  -4   1    9.40    1.65
   1  -8   1   25.54    1.51
   1  -7   2    8.25    1.44
   3  -5   2  104.56    2.85
   4  -5   0    9.47    1.64
   2  -9  -3    1.69    1.05
   3  -8  -4    3.93    0.79
   3  -6   1  394.11    4.67
   4  -6  -5    1.09    0.81
   1  -9  -1   57.84    1.68
   2  -7   1 1038.55    7.50
   2  -6   2   51.88    2.21
   4  -6  -4    1.80    1.00
   4  -6  -3    1.19    1.16
   2  -9  -4    2.20    1.01
   3  -7  -1    7.65    1.34
   3  -4   2   17.98    1.74
   2  -8  -1   13.94    1.44
   4  -3   0   37.30    1.98
   0 -10  -3   14.11    1.35
   3  -6   0   27.41    1.85
   3  -5   1  107.55    2.72
   4  -5  -2   12.23    1.60
   1  -8   0    1.98    1.22
   1  -6   2  469.64    4.98
   2  -5   2   10.87    1.49
   3  -7  -2    4.11    0.97
   4  -4  -1   64.09    2.44
   1  -9  -2   13.13    1.38
   2  -7   0   10.84    1.69
   4  -5  -5    7.91    1.25
   4  -5  -4   23.58    1.42
   4  -5  -3   26.00    1.70
   0  -9  -1    5.39    1.26
   1  -7   1   14.12    1.67
   2  -8  -2    6.92    1.35
   3  -7  -3   -0.01    1.18
   3  -4   1    2.31    1.18
   4  -3  -1   38.57    1.86
   3  -7  -6    7.56    1.01
   3  -6  -1    7.65    1.55
   4  -4  -2   46.53    2.03
   0 -10  -4   11.92    1.35
   3  -7  -5    3.93    1.15
   3  -7  -4    2.98    1.22
   3  -5   0  124.52    3.08
   4  -4  -4   17.96    1.48
   4  -4  -3  229.24    3.59
   4  -3  -2   40.38    1.77
   0  -8   0    3.86    1.28
   1  -8  -1    2.15    1.50
   2  -8  -3   12.85    1.34
   2  -7  -1   12.46    1.73
   0 -10  -5   12.24    1.15
   2  -5   1   17.01    1.64
   3  -6  -2    5.41    1.32
   4  -3  -3   13.15    1.52
   2  -8  -7   29.18    1.21
   2  -8  -4   45.64    1.78
   2  -6   0    2.77    1.75
   3  -5  -1   25.90    1.99
   3  -4   0    0.22    1.00
   0  -9  -2    6.77    1.34
   1  -9  -4  188.28    2.98
   1  -7   0    1.54    1.49
   1  -6   1    5.09    1.23
   2  -8  -5    8.34    1.24
   3  -6  -7   42.06    1.67
   3  -6  -3   29.54    1.91
   2  -8  -6   16.51    1.27
  -1 -10  -4    4.71    1.21
   1  -9  -7   19.61    1.22
   1  -9  -5   12.50    1.23
   2  -7  -2   60.61    2.34
   3  -6  -6   54.63    2.01
   3  -6  -4   33.97    2.06
   1  -9  -6    2.33    0.90
   3  -6  -5   25.22    1.59
   3  -5  -2    8.44    1.65
   3  -4  -1    0.97    1.28
   0  -8  -1    8.77    1.61
   2  -6  -1   11.89    1.85
  -1  -9  -2   28.71    1.66
   0  -9  -3   12.04    1.51
   2  -7  -3    4.05    1.50
  -1 -10  -5    2.20    1.10
   0  -7   0    4.79    1.63
   1  -7  -1    6.03    1.73
   3  -5  -3  199.25    3.71
   1  -8  -3   74.57    2.47
   1  -6   0   21.12    1.95
   2  -7  -8  242.47    3.03
   3  -4  -2    1.28    1.34
   2  -7  -4    6.60    1.52
   3  -5  -6   32.36    1.81
   3  -5  -4   14.20    1.59
  -1 -10  -6    4.23    1.30
   0  -9  -4    3.54    1.57
   1  -8  -9    0.86    0.72
   2  -7  -7    3.64    1.32
   2  -6  -2   27.64    1.91
   3  -5  -5    3.63    1.50
   1  -8  -4   30.77    1.96
   2  -7  -5   38.39    1.80
   3  -4  -3    3.58    1.41
  -1  -9  -3  152.33    3.08
   0  -9  -9    1.82    0.74
   0  -8  -2   36.87    1.76
   1  -7  -2    3.39    1.72
  -2 -10  -5    1.64    1.03
   0  -9  -5   -1.60    1.17
   3  -4  -4    1.15    1.37
   0  -9  -8    6.78    1.04
   0  -7  -1   32.75    2.04
   1  -8  -5    0.51    1.00
   2  -6  -3    6.06    1.45
   3  -4  -5    0.33    1.36
   0  -9  -7    3.08    1.08
   0  -9  -6    3.72    1.27
   1  -8  -7    8.44    1.29
   1  -8  -6   13.33    1.47
   1  -7 -10    1.28    0.92
  -2 -10  -6    2.10    1.04
   2  -6  -8    8.31    1.21
   2  -6  -4    6.60    1.70
  -1  -9  -4   42.22    1.90
   0  -8  -3  115.84    3.05
   1  -7  -3    7.15    1.88
  -2 -10  -8   12.28    1.29
  -2 -10  -7   15.04    1.50
  -1  -8  -2  147.50    3.09
   2  -6  -7    3.53    1.34
   2  -6  -6    8.17    1.71
   0  -8 -10    3.55    0.88
   1  -7  -9    8.37    1.26
   1  -7  -4   19.37    1.89
   1  -6  -2  192.13    3.54
   2  -5  -3   11.92    1.50
  -1  -9  -5   46.81    2.01
   0  -8  -4   25.94    1.94
   0  -7  -2    2.16    1.76
  -3 -10  -7   14.93    1.18
   2  -5  -8   10.84    1.47
  -3 -10  -8   95.02    2.03
  -2  -9  -4    2.12    1.35
  -1  -9  -9   84.45    1.98
   1  -7  -8    8.73    1.51
   1  -7  -5   30.22    1.85
  -1  -8  -3    8.98    1.84
   0  -8  -9    3.05    1.18
   0  -8  -5   78.23    2.44
   0  -7 -11   25.52    1.23
   1  -7  -7   38.53    2.01
   1  -7  -6   44.84    2.31
   1  -6 -10   32.84    1.56
   2  -5  -7   37.03    1.91
   2  -5  -5    7.82    1.59
  -1  -9  -8   58.03    1.92
  -1  -9  -7   39.99    1.79
   0  -8  -6   82.61    2.57
   1  -6  -3  174.77    3.47
   2  -5  -6   52.04    2.28
   0  -8  -8    9.85    1.39
   0  -8  -7   32.72    1.87
  -2  -9  -5   12.00    1.61
   1  -6  -9   13.44    1.49
   1  -6  -4  135.75    3.19
  -2  -9 -10    0.79    1.30
  -2  -8  -3    6.20    1.77
  -1  -8  -4    0.77    1.20
  -2  -9  -6    4.61    1.46
   0  -7 -10   70.85    2.07
   0  -7  -4  189.68    3.74
   2  -4  -7   82.75    2.53
  -3  -9  -5   89.59    2.44
  -2  -9  -9   11.65    1.24
   1  -6  -8  204.70    3.62
   1  -6  -5  165.24    3.40
   2  -4  -6   65.79    2.45
  -2  -9  -8    6.86    1.38
  -2  -9  -7    3.56    1.45
  -1  -8 -10   -1.50    1.17
   1  -6  -7  226.86    4.03
   1  -6  -6   98.34    2.92
   0  -7  -5   80.32    2.74
   0  -6 -11   19.76    1.36
  -1  -8  -9    3.61    1.21
  -1  -8  -6   13.32    1.82
  -1  -7  -3   46.21    2.22
  -3  -9 -10    7.77    1.44
  -3  -9  -6   45.89    1.92
  -2  -8  -4   71.93    2.47
   0  -7  -8  129.92    3.08
   0  -7  -6   87.59    2.72
   1  -5  -9    5.80    1.45
  -1  -8  -8   19.52    1.47
  -1  -8  -7   12.45    1.48
   0  -7  -7  319.49    4.52
  -3  -9  -7   52.32    1.98
  -2  -8 -11  103.07    2.08
  -1  -7 -11    1.74    1.27
  -4  -9 -10    2.55    1.15
  -3  -9  -8   44.53    2.00
   1  -5  -8   15.49    1.79
  -4  -9  -7    2.84    1.09
  -2  -8  -5   48.25    2.31
  -1  -7  -4   63.87    2.40
  -1  -6 -12   50.56    1.62
   0  -6 -10    4.40    1.43
   1  -5  -7   20.95    1.95
   1  -5  -6   86.96    2.63
  -4  -9  -9    5.48    1.12
  -4  -9  -8    1.69    1.12
  -2  -8 -10  104.23    2.34
   0  -5 -11   25.63    1.46
  -1  -7 -10   57.46    2.16
  -2  -8  -6    2.33    1.75
   0  -6  -9   19.02    1.88
   0  -6  -5    3.60    1.39
  -3  -8 -11    2.64    0.97
  -2  -8  -9   37.23    1.81
  -1  -7  -5   44.09    2.02
  -3  -8  -5    7.92    1.53
  -2  -8  -8   12.54    1.77
  -1  -7  -9   21.61    1.95
   0  -6  -7   18.13    1.96
   0  -6  -6   87.26    2.74
  -1  -7  -8    8.71    1.68
  -1  -7  -6   33.03    2.26
   1  -4  -8    5.48    1.65
  -1  -7  -7    6.12    1.42
  -1  -6 -11   83.68    2.40
  -1  -5 -12   68.19    1.86
   0  -5 -10   43.58    2.06
  -4  -8 -11   11.40    1.47
  -3  -8 -10   18.15    1.55
  -3  -8  -6   13.39    1.79
  -2  -7 -11   31.84    1.64
  -2  -7  -4  106.65    2.66
  -3  -7 -12   24.78    1.34
  -3  -8  -9    5.82    1.45
  -3  -8  -7   37.23    2.05
  -2  -6 -12    4.82    1.33
  -4  -8  -6   37.28    2.05
  -2  -7 -10   83.58    2.44
   0  -5  -9   38.71    2.11
  -5  -8 -10    0.97    1.40
  -2  -7  -5   94.70    2.60
  -4  -7 -12    8.48    1.18
  -1  -4 -12    0.97    1.09
   0  -5  -8   62.67    2.27
  -5  -8  -9   25.29    1.50
  -4  -8  -9  111.43    2.66
  -4  -8  -8   66.46    2.19
  -4  -8  -7   55.79    2.17
  -3  -7 -11   17.68    1.34
  -2  -7  -9  160.70    3.39
  -1  -6  -9  173.11    3.53
  -1  -5 -11    7.33    1.30
   0  -4 -10   39.02    1.90
  -5  -8  -8   43.12    1.80
  -2  -7  -8  202.36    3.91
  -2  -7  -7  258.36    4.24
  -3  -5 -13    2.35    1.00
  -2  -6 -11    3.91    1.35
  -1  -6  -8  247.99    4.23
  -1  -6  -7  343.27    4.78
  -1  -6  -6  113.03    2.88
  -3  -7 -10   -0.07    1.41
  -3  -7  -5   14.32    1.56
  -3  -6 -12    6.20    1.30
  -2  -5 -12   38.07    1.84
   0  -4  -9   55.70    2.28
  -4  -7 -11    2.78    0.99
  -1  -5 -10   98.25    2.82
  -6  -7 -10    3.02    1.26
  -3  -7  -9   24.03    1.97
  -3  -7  -6   -1.42    1.63
  -2  -6 -10   19.05    1.85
  -1  -4 -11    1.11    1.55
   0  -4  -8  143.60    3.09
  -5  -6 -12   56.21    1.76
  -4  -7 -10   10.78    1.51
  -4  -6 -12    1.83    1.04
  -3  -7  -8   36.55    1.84
  -3  -7  -7   17.71    2.06
  -3  -4 -13    7.48    0.99
  -6  -7  -9    2.77    1.18
  -5  -7 -10   25.79    1.62
  -3  -6 -11   36.14    1.87
  -2  -6  -9    0.17    1.75
  -4  -7  -6   49.78    2.16
  -2  -5 -11    2.35    1.55
  -2  -4 -12  146.13    2.87
  -2  -6  -8   33.38    2.21
  -1  -5  -8   70.18    2.43
   0  -3  -9   17.24    1.72
  -5  -7  -9    3.44    1.38
  -4  -7  -8  213.48    3.86
  -4  -7  -7  629.84    6.05
  -4  -4 -13   13.41    1.06
  -3  -3 -13    6.99    1.11
  -2  -6  -7   39.11    1.94
  -5  -7  -8    1.91    1.33
  -5  -7  -7   32.09    1.87
  -4  -6 -11    2.44    1.30
  -3  -6 -10   53.69    2.23
  -1  -4 -10    2.04    1.67
  -1  -3 -11  135.10    2.88
  -8  -5  -4    5.12    0.82
  -7  -1  -4   83.94    2.12
  -6  -4  -6   97.74    2.20
  -6  -3  -6   72.92    2.14
  -6   1  -3   24.09    1.57
  -8  -4  -4   18.69    1.15
  -8  -2  -3    8.95    0.82
  -6  -1  -5   26.22    1.66
  -5  -4  -6   20.32    1.34
  -7  -5  -5   58.94    1.64
  -7   1   0    4.38    0.87
  -6   0  -4   37.47    1.79
  -5  -3  -6    2.48    1.19
  -7  -4  -5    4.43    1.04
  -5   2  -2   48.81    1.79
  -7   0  -2    1.86    1.13
  -7   1   1   -0.05    0.87
  -8  -3  -3   10.74    1.02
  -8  -2  -2    2.09    0.84
  -6  -2  -5    1.76    1.38
  -6   1  -2   66.55    1.93
  -5  -1  -5  296.11    3.58
  -8  -5  -3    1.02    0.81
  -8  -1   0    1.20    0.63
  -7  -2  -4  130.18    2.43
  -7  -1  -3   14.16    1.45
  -5   1  -3   46.82    1.78
  -5   0  -4    2.42    1.25
  -8  -6  -2    2.45    0.68
  -8  -1   1    0.75    0.56
  -6  -3  -5   28.01    1.77
  -6  -1  -4   64.90    2.15
  -6   0  -3   56.55    2.00
  -5   2  -1   56.43    1.66
  -8  -2  -1    1.10    0.86
  -7  -3  -4    1.56    1.18
  -7   0  -1   21.41    1.44
  -6  -4  -5   46.21    1.78
  -8  -3  -2   10.91    1.03
  -7  -5  -4   20.97    1.44
  -7  -4  -4    2.93    1.14
  -6   1  -1   36.44    1.64
  -8  -5  -2    0.28    0.89
  -7  -2  -3   19.65    1.25
  -7  -1  -2   27.69    1.59
  -6  -2  -4    1.99    1.35
  -8  -6  -1   14.96    1.03
  -8  -2   0   12.45    0.96
  -7   0   0   33.91    1.52
  -5  -1  -4   47.84    1.58
  -5   1  -2   45.38    1.79
  -5   2   0   60.81    1.91
  -8  -3  -1   15.31    1.07
  -5   0  -3    2.07    1.08
  -8  -2   1   -0.02    0.74
  -7  -3  -3    8.90    1.37
  -6  -1  -3   20.78    1.48
  -6   1   0   75.68    2.00
  -8  -5  -1    1.47    0.73
  -8  -4  -1   35.73    1.34
  -8  -2   2    0.08    0.59
  -7  -1  -1  138.67    2.59
  -7   0   1    1.77    1.09
  -6  -5  -4    1.02    1.19
  -8  -3   0   23.20    1.09
  -7  -5  -3    7.45    1.10
  -7  -4  -3    5.99    1.30
  -7  -2  -2   63.86    2.04
  -6  -4  -4   27.19    1.64
  -7   0   2    2.17    1.00
  -7   0   3   12.05    0.95
  -7   0   4   -0.12    0.67
  -6  -2  -3    3.06    1.41
  -6   0  -1   30.02    1.70
  -6   1   1  159.07    2.64
  -5   1  -1   14.40    1.31
  -8  -5   0    1.01    0.79
  -8  -4   0    0.69    0.77
  -8  -3   1   29.44    1.17
  -7  -6  -2   25.74    1.29
  -8  -3   2    9.00    0.84
  -8  -3   3    2.05    0.82
  -7  -3  -2    0.19    1.28
  -7  -1   0  109.16    2.16
  -6  -1  -2   11.32    1.51
  -5   0  -2   21.30    1.37
  -8  -5   1    1.34    0.91
  -8  -4   1   68.21    1.53
  -7  -2  -1   79.40    2.14
  -6   1   2    0.26    1.19
  -8  -4   2    0.58    1.10
  -7  -5  -2    6.95    1.01
  -6  -5  -3    6.36    1.06
  -6  -4  -3   51.83    1.83
  -6   0   0   46.53    1.83
  -6   1   3    1.05    0.91
  -5   1   0    6.31    1.11
  -7  -3  -1    8.08    1.38
  -7  -2   0   36.45    1.58
  -6  -2  -2    0.64    1.28
  -7  -1   2    2.04    1.06
  -7  -1   5   33.10    1.13
  -6  -1  -1   15.19    1.34
  -7  -5  -1   18.92    1.36
  -7  -1   3    2.14    1.06
  -7  -1   4   12.45    0.96
  -6  -3  -2   31.85    1.70
  -6   0   1  264.59    3.47
  -7  -6   0    4.58    0.98
  -7  -3   0    3.01    1.10
  -7  -2   1   35.89    1.60
  -5   1   1  115.23    2.27
  -6  -5  -2    1.82    1.17
  -6  -4  -2   52.75    1.93
  -7  -4   0   83.44    2.04
  -7  -2   2   19.63    1.32
  -6  -2  -1   23.11    1.60
  -6  -1   0   12.32    1.21
  -6   0   2  202.48    2.92
  -7  -5   0  147.54    2.31
  -7  -6   1   31.43    1.34
  -7  -3   1    1.55    1.04
  -7  -2   3    3.98    0.95
  -7  -3   6    0.47    0.57
  -7  -2   4    3.99    0.95
  -6   0   3  160.44    2.68
  -5   1   2   43.23    1.59
  -7  -6   2   16.13    1.05
  -7  -6   4   91.19    1.78
  -7  -5   1   42.43    1.60
  -7  -4   1   92.66    2.14
  -7  -3   2    3.63    1.01
  -6  -3  -1  135.00    2.48
  -6  -1   1    9.15    1.39
  -6   0   6    2.78    0.94
  -7  -6   3    7.87    0.92
  -6  -5  -1    1.45    1.11
  -6  -4  -1    7.25    1.25
  -6  -2   0   -0.85    1.21
  -6   0   4   96.61    2.03
  -6   0   5    6.70    0.97
  -7  -5   5    7.21    0.78
  -7  -3   3    2.77    0.90
  -7  -3   5    3.98    0.85
  -5   1   3  124.34    2.32
  -7  -4   2    5.37    0.90
  -7  -3   4    2.75    0.84
  -5   0   1   13.21    1.29
  -7  -5   4   22.45    1.12
  -7  -4   3    3.27    1.02
  -7  -4   5    1.92    0.68
  -6  -6   0    8.67    1.07
  -7  -4   4    2.38    0.61
  -6  -3   0  117.81    2.55
  -5   1   4   18.10    1.30
  -6  -2   1   19.31    1.32
  -6  -1   7    6.29    0.77
  -6  -5   0   -0.61    1.18
  -6  -1   4    0.46    1.17
  -6  -1   6    0.35    0.95
  -5   0   2   -0.14    1.05
  -6  -6   1    5.91    1.13
  -6  -3   1   60.77    2.01
  -6  -2   2    7.39    1.29
  -6  -1   5    1.85    0.94
  -6  -6   6    9.01    0.89
  -6  -5   1    2.32    1.02
  -6  -2   7   11.00    0.98
  -6  -6   2    1.10    1.02
  -6  -5   7    0.64    0.77
  -6  -2   3   63.23    1.97
  -5   0   3   50.50    1.71
  -5   0   8    2.11    0.84
  -6  -3   2   79.22    2.11
  -6  -6   3  107.29    1.94
  -6  -6   5    6.46    0.94
  -6  -3   7   20.15    1.02
  -6  -2   4   26.82    1.30
  -6  -2   5    1.77    1.04
  -6  -6   4   54.59    1.67
  -6  -5   2    4.96    1.20
  -6  -4   2   17.42    1.40
  -6  -4   7   10.86    0.82
  -6  -3   3   25.58    1.45
  -5  -1   9   -0.17    0.67
  -5   0   4   93.72    2.19
  -5   0   7    1.26    0.96
  -6  -5   6   -0.31    0.79
  -5  -5   0    9.47    1.19
  -5  -1   2   55.85    1.60
  -5   0   5   50.26    1.71
  -5   0   6    8.05    1.04
  -6  -5   3   -0.83    1.16
  -6  -4   3   17.94    1.38
  -6  -3   4   23.38    1.38
  -6  -3   5    6.65    1.04
  -6  -3   6   70.94    1.62
  -6  -5   5    2.28    0.98
  -6  -4   4   13.78    1.31
  -6  -4   6   19.44    0.91
  -6  -4   5   21.63    1.21
  -5  -2   9    2.14    0.68
  -5  -1   8   15.70    1.17
  -5  -2   2    3.32    1.15
  -5  -6   7    8.14    1.00
  -5  -5   1    5.82    1.13
  -5  -4   1   28.00    1.48
  -5  -3   9    0.27    0.66
  -5  -1   7   58.41    1.67
  -5  -6   2    1.65    1.06
  -5  -5   8  104.17    1.68
  -5  -1   5   46.58    1.76
  -5  -1   6   15.86    1.37
  -5  -6   6   12.77    1.05
  -5  -3   2   23.06    1.16
  -5  -2   3   47.59    1.61
  -5  -6   3  159.38    2.51
  -5  -5   2   44.93    1.72
  -5  -4   8   25.71    1.10
  -5  -3   8    3.40    0.86
  -4  -1  10   10.43    0.96
  -4   0   9  115.02    1.99
  -5  -6   4   91.05    2.03
  -5  -6   5   40.91    1.48
  -5  -5   7   38.38    1.34
  -5  -2   4  127.12    2.54
  -5  -2   7   59.31    1.75
  -5  -3   3    9.15    1.28
  -5  -2   5   11.01    1.37
  -5  -2   6  209.20    3.05
  -5  -5   3   21.18    1.31
  -5  -4   3   -0.03    1.12
  -5  -4   7   43.90    1.45
  -5  -3   7    0.73    0.95
  -4   0   8   57.71    1.70
  -5  -5   4   11.38    1.35
  -5  -3   4    4.90    1.22
  -4  -6   8    5.70    1.01
  -4  -2  10   17.21    0.98
  -4   0   5   73.36    1.88
  -5  -4   4   29.00    1.64
  -5  -4   6  136.17    2.47
  -5  -3   5    0.39    1.06
  -5  -3   6    1.05    0.81
  -4  -5   9   -0.11    0.88
  -4  -3  10   30.92    1.09
  -4   0   6   79.05    2.02
  -4   0   7    7.62    1.26
  -5  -4   5   43.72    1.75
  -4  -1   9    4.03    1.09
  -4  -6   7    3.56    1.13
  -4  -4   9    4.71    0.79
  -4  -1   8    7.59    1.19
  -3  -1  11   35.72    1.16
  -4  -6   3   18.24    1.41
  -4  -5   8    2.46    1.00
  -4  -3   9   22.10    1.20
  -4  -6   6   56.71    1.64
  -4  -1   5    1.13    1.04
  -4  -1   7    1.75    1.15
  -3  -3  11    1.80    0.71
  -3  -2  11   37.68    1.23
  -3   0  10   45.29    1.51
  -4  -6   4   35.48    1.50
  -4  -6   5   28.86    1.37
  -4  -1   6   10.98    1.33
  -4  -4   8   37.71    1.42
  -4  -2   8    2.81    1.15
  -4  -5   3    0.40    1.16
  -4  -3   8   18.04    1.30
  -4  -2   7   17.92    1.42
  -3  -6   8    0.90    0.86
  -2  -1  12    1.58    0.71
  -4  -5   4    4.84    1.24
  -4  -5   5    2.33    1.17
  -4  -5   6   -0.69    1.26
  -4  -4   7    7.23    1.36
  -4  -2   5   11.49    1.03
  -4  -2   6   43.01    1.78
  -3  -4  10   21.17    1.08
  -3  -1  10  488.44    4.09
  -3   0   9    2.99    1.05
  -2  -2  12    1.85    0.56
  -4  -3   7   62.44    1.78
  -4  -4   5   51.23    1.84
  -4  -4   6   36.55    1.66
  -4  -3   5  204.20    3.07
  -4  -3   6   35.96    1.60
  -3  -3  10    1.11    0.93
  -3  -6   7   47.42    1.67
  -3   0   8    0.31    0.89
  -2  -4  11   28.19    1.13
  -7  -6   2   17.18    1.11
  -7  -6   3    9.86    0.87
  -6  -2   3   60.43    1.91
  -6  -2   4   25.15    1.39
  -5  -1   7   58.43    1.56
  -6  -4   7   11.98    0.76
  -6  -5  -1    2.50    1.08
  -6  -3   1   61.11    1.94
  -6  -3   6   74.53    1.78
  -5  -2   8    3.62    0.95
  -6  -5   7    0.72    0.52
  -5  -1   2   56.57    1.59
  -5  -1   6   18.07    1.27
  -6  -4   0  186.59    2.99
  -6  -3   2   76.23    1.95
  -6  -3   5    6.96    1.10
  -5  -1   4  209.81    3.01
  -5  -1   5   46.14    1.75
  -6  -4   6   19.57    1.14
  -6  -3   3   25.47    1.51
  -6  -3   4   23.05    1.47
  -6  -5   0   -1.24    1.12
  -6  -4   1    4.37    1.39
  -4   0   6   81.58    1.94
  -6  -7   0   43.55    1.50
  -6  -6   6   10.46    0.88
  -6  -5   6   -0.47    0.82
  -5  -3   8    2.96    0.87
  -5  -2   7   61.60    1.64
  -4   0   5   68.90    1.80
  -6  -8   2    3.23    0.83
  -6  -8   3    2.37    0.91
  -6  -7   5    2.71    0.83
  -6  -6   0   12.48    1.21
  -6  -4   2   18.90    1.43
  -6  -4   5   21.34    1.29
  -6  -5   1    4.46    1.23
  -6  -4   3   16.92    1.34
  -6  -4   4   13.83    1.21
  -6  -7   1   27.84    1.28
  -6  -5   5    4.47    0.91
  -5  -4   8   25.63    1.21
  -5  -2   2    3.21    0.82
  -5  -2   6  214.33    3.00
  -6  -6   1    6.84    1.14
  -6  -6   5    6.16    0.94
  -6  -5   2    5.91    1.20
  -6  -7   2   11.42    1.18
  -6  -7   3  267.48    2.95
  -6  -5   3   -0.92    1.20
  -6  -5   4    2.47    1.02
  -5  -3   7    0.11    0.95
  -5  -2   3   45.40    1.55
  -5  -2   4  121.16    2.45
  -5  -2   5   10.74    1.45
  -6  -6   2    1.99    1.21
  -6  -6   3  108.90    2.19
  -6  -6   4   60.57    1.67
  -4  -1   7    0.18    0.98
  -4  -3   9   19.98    1.07
  -5  -3   2   21.32    1.42
  -4  -1   6   10.36    1.25
  -5  -8   5    0.83    0.73
  -5  -6   7    9.03    0.83
  -4  -2   8    1.77    1.05
  -4  -1   5    1.49    0.99
  -5  -5   7   38.27    1.36
  -5  -3   3    9.61    1.23
  -5  -3   4    4.11    1.28
  -5  -3   5    0.32    1.18
  -4  -5   9    0.02    0.64
  -4  -4   9    4.08    0.79
  -5  -5   0   13.44    1.32
  -5  -8   4    5.24    0.95
  -5  -4   6  141.59    2.52
  -5  -6   0   81.09    2.08
  -5  -4   2    5.87    1.14
  -4  -2   7   19.79    1.50
  -5  -8   2    0.85    0.95
  -5  -8   3    1.25    1.00
  -5  -6   6   13.23    0.92
  -5  -5   1    8.36    1.30
  -5  -5   6   43.90    1.55
  -5  -4   5   44.98    1.85
  -4  -3   8   18.10    1.25
  -3  -4  10   17.54    0.90
  -5  -7   1    6.55    1.13
  -5  -7   5    1.17    0.96
  -5  -4   3    2.22    1.21
  -5  -4   4   29.93    1.63
  -5  -6   1   29.61    1.72
  -5  -5   5   47.98    1.74
  -4  -6   8    5.53    0.83
  -4  -2   6   44.43    1.80
  -5  -7   2    2.01    1.19
  -5  -6   5   46.64    1.45
  -5  -5   4   12.86    1.38
  -4  -4   8   38.87    1.64
  -5  -7   3   11.59    1.26
  -5  -6   2    0.80    1.36
  -5  -6   4   97.54    2.26
  -5  -5   3   18.00    1.59
  -4  -9   3   -1.25    0.78
  -4  -7   7   14.76    0.92
  -4  -2   5   10.15    1.08
  -4  -3   7   67.33    1.81
  -3  -1   7    5.45    1.03
  -3  -3   9    0.98    1.02
  -4  -8   5   34.98    1.21
  -4  -6   7    6.54    1.07
  -4  -5   7    0.61    1.24
  -3  -7   8    0.06    0.82
  -3  -5   9   23.51    1.10
  -3  -2   8   16.56    1.27
  -4  -7   6   36.62    1.23
  -4  -3   5  204.47    2.92
  -3  -4   9    4.23    1.04
  -4  -8   4   12.60    1.22
  -4  -4   6   39.13    1.70
  -2  -5  10    0.54    0.59
  -4  -8   2   12.60    1.16
  -4  -8   3    2.46    0.94
  -4  -6   6   66.97    1.83
  -3  -9   4   18.46    1.15
  -2  -3  10   56.62    1.58
  -4  -7   5  107.60    2.17
  -4  -5   6   -0.52    1.21
  -4  -4   5   55.80    1.92
  -3  -2   7    7.43    1.20
  -2  -4  10    7.62    0.90
  -4  -7   1  117.40    2.32
  -3  -9   3    1.87    0.83
  -3  -6   8    1.58    0.95
  -3  -3   8    4.79    1.26
  -4  -6   1   67.16    1.86
  -4  -6   5   30.85    1.59
  -4  -5   5    2.59    1.15
  -4  -4   4   90.93    2.04
  -4  -7   2  395.88    4.06
  -4  -7   3  243.54    3.27
  -3  -7   7    0.26    0.83
  -3  -5   8   30.38    1.42
  -3  -4   8    9.05    1.37
  -2  -6   9   23.64    0.98
  -2  -2   9    0.94    1.03
  -4  -6   2  262.72    3.37
  -4  -6   4   40.37    1.72
  -4  -5   3    0.66    1.13
  -4  -5   4    2.90    1.26
  -3  -3   7    7.56    1.23
  -2  -7   8    8.90    0.82
  -3  -8   5  162.57    2.38
  -3  -6   7   52.73    1.63
  -2  -9   4   -0.27    0.84
  -2  -5   9    0.55    1.02
  -2  -3   9   42.92    1.64
  -1  -5  10   72.74    1.46
  -3  -8   4   57.17    1.70
  -3  -7   6    8.91    0.99
  -3  -5   7   82.10    2.14
  -2  -4   9  118.05    2.14
  -3  -3   6    1.05    0.81
  -3  -8   2    1.71    1.03
  -3  -8   3   10.83    1.19
  -2  -2   8   45.74    1.70
  -1  -4  10   83.77    1.80
  -1  -3  10   27.82    1.40
  -3  -7   5    2.68    1.18
  -3  -6   6   71.45    2.00
  -3  -4   6    8.72    1.34
  -2  -6   8   43.73    1.51
  -3  -5   6   71.39    2.15
  -2  -7   7   82.24    1.79
  -1  -6   9   34.50    1.15
  -1  -7   8    1.05    0.75
  -3  -7   1    0.70    1.10
  -3  -7   4    1.99    1.05
  -3  -6   5   59.33    2.03
  -3  -4   5  154.43    2.66
  -2  -8   5    7.74    1.12
  -2  -5   8   -0.58    1.11
  -2  -3   8   28.50    1.39
   0  -5  10    2.30    0.71
  -3  -7   2    6.76    1.32
  -3  -7   3    1.16    1.06
  -3  -5   5   94.30    2.30
  -2  -4   8    2.85    1.32
  -3  -6   4  256.85    3.43
  -1  -2   9   90.26    2.08
  -3  -5   4  197.69    2.93
  -2  -7   6   63.83    1.82
  -2  -6   7   27.54    1.45
   0  -7   8   21.79    0.97
  -3  -6   3   90.30    2.03
  -2  -8   4   61.56    1.70
   0  -6   9    3.84    0.75
  -2  -8   3   60.37    1.89
  -2  -3   7   23.61    1.53
  -1  -4   9  106.30    2.21
  -1  -3   9    1.82    1.23
   0  -4  10   83.72    1.78
  -2  -8   2    2.74    1.06
  -2  -5   7    3.42    1.02
  -1  -7   7    0.19    0.88
  -1  -6   8   15.29    1.19
   0  -8   6   37.29    1.25
   0  -3  10  107.03    2.01
  -2  -7   5   64.75    1.97
  -1  -8   5    0.90    1.04
  -2  -6   6   18.31    1.20
  -1  -2   8  185.40    2.76
  -2  -7   4  179.96    2.94
  -2  -5   6    2.52    1.33
  -2  -4   6   37.42    1.65
  -1  -5   8  227.06    3.10
  -2  -6   5  106.96    2.43
  -1  -8   4   75.73    1.89
  -1  -7   6    1.64    1.09
   0  -7   7    2.36    0.95
   1  -4  10   12.09    1.03
  -2  -7   3  246.12    3.23
  -1  -6   7    3.58    1.16
  -1  -4   8   28.94    1.71
  -1  -3   8   10.25    1.34
   0  -8   5   22.69    1.07
   0  -6   8    7.93    1.12
  -2  -7   2  612.35    4.76
  -1  -8   3   66.75    1.97
  -2  -6   4  140.96    2.65
  -2  -5   5   -0.93    0.93
   0  -4   9   22.86    1.38
   0  -2   9   21.57    1.51
   1  -8   5    5.25    0.97
   1  -7   7    2.82    1.06
   1  -3  10    0.52    0.98
   2  -4  10    8.02    0.84
  -1  -8   2   58.09    1.67
   0  -3   9  175.41    2.79
  -2  -6   3   38.57    1.65
  -1  -7   5    0.03    0.88
  -1  -5   7   12.60    1.49
   0  -8   4    7.67    1.04
   1  -6   8   40.10    1.36
  -1  -6   6   20.15    1.49
   0  -7   6   48.00    1.57
   2  -6   8   10.73    0.94
  -1  -4   7    1.14    0.99
  -1  -3   7   21.42    1.44
   0  -5   8    0.37    1.16
  -1  -7   4    1.85    1.34
   0  -8   3   75.62    1.79
   0  -6   7   23.65    1.36
   1  -8   4    2.21    0.85
   2  -3  10   26.35    1.18
  -1  -6   5   90.96    2.32
  -1  -5   6   51.64    1.89
   0  -8   2  164.40    2.43
   1  -7   6    0.47    0.94
   1  -4   9   27.77    1.39
   2  -7   6    4.84    0.94
  -1  -7   3    2.10    0.90
   0  -2   8    3.03    1.28
   1  -8   3   11.28    0.97
  -1  -7   2    2.27    1.23
  -1  -4   6    3.55    1.07
   0  -3   8  100.94    2.29
   0  -6   6    6.15    1.24
   0  -5   7    3.92    1.30
   1  -6   7   78.74    1.86
   1  -5   8   88.85    1.94
   1  -3   9   58.76    1.87
  -1  -5   5   48.56    1.82
   1  -2   9   15.64    1.32
   2  -4   9  102.19    2.08
   0  -7   4   87.60    2.29
   2  -6   7   10.92    0.96
   3  -4   9   15.99    0.94
  -1  -6   3  518.29    4.46
   2  -5   8   10.49    1.15
   3  -5   8   10.55    0.88
   0  -4   7    9.44    1.05
   0  -7   3  227.86    3.15
   0  -6   5    2.69    1.26
   0  -3   7   46.24    1.73
   3  -7   4    1.21    1.10
   0  -5   6   10.15    1.40
   1  -6   6    3.89    1.17
   1  -5   7  426.62    4.24
   2  -3   9   62.30    1.76
   0  -7   2  930.81    5.91
   1  -7   4    2.23    1.10
  -7  -5  -9   61.87    1.39
  -4  -3 -10  140.55    2.63
  -4  -1  -8   19.78    1.48
  -7  -4  -8   59.19    1.46
  -6  -5 -10   40.94    1.49
  -5  -1  -7    2.88    1.17
  -4  -2  -9    1.14    1.32
  -6  -2  -7   18.85    1.33
  -5  -4 -10   15.58    1.31
  -3  -2  -9  168.29    2.85
  -3  -1  -8   22.38    1.17
  -3  -4 -10    1.96    1.32
  -2  -3  -9   16.63    1.41
  -7  -6  -9   11.96    0.89
  -6  -6 -10   -0.07    0.72
  -5  -8 -10    1.46    0.93
  -5  -2  -8   72.73    2.03
  -4  -4 -10  539.18    4.80
  -3  -6 -10   53.09    1.69
  -3  -5 -10    4.05    1.30
  -7  -7  -9   13.60    0.92
  -6  -7 -10    2.75    0.97
  -6  -3  -8  113.94    2.27
  -5  -3  -9   78.39    2.15
  -5  -5 -10   89.28    2.13
  -4  -1  -7   10.45    1.25
  -2  -4  -9   18.20    1.31
  -4  -7 -10   11.31    1.23
  -4  -5 -10    2.01    1.28
  -3  -3  -9   18.33    1.53
  -2  -5  -9   44.56    1.66
  -7  -5  -8   61.15    1.57
  -7  -4  -7   13.57    1.09
  -5  -7 -10   23.31    1.28
  -5  -6 -10   38.04    1.52
  -4  -6 -10   20.84    1.39
  -4  -3  -9  189.22    2.96
  -4  -2  -8    0.51    1.22
  -6  -5  -9   -0.53    1.11
  -3  -2  -8  201.99    2.84
  -5  -4  -9   20.27    1.56
  -5  -2  -7   99.70    2.37
  -6  -8  -9   14.31    1.11
  -6  -6  -9    4.73    1.04
  -6  -4  -8   46.02    1.84
  -6  -3  -7  163.72    2.80
  -4  -8  -9  105.10    1.87
  -4  -4  -9   69.45    2.16
  -7  -8  -8    4.91    0.78
  -6  -7  -9    4.39    1.00
  -3  -6  -9   71.54    1.91
  -3  -5  -9   35.05    1.62
  -7  -7  -8    0.69    0.79
  -7  -4  -6   22.39    1.20
  -5  -8  -9   25.04    1.24
  -5  -5  -9   14.30    1.37
  -7  -5  -7   18.42    1.25
  -4  -5  -9    8.88    1.30
  -4  -3  -8  120.02    2.55
  -3  -3  -8   25.81    1.37
  -6  -9  -8    0.11    0.85
  -5  -6  -9   56.85    1.92
  -4  -7  -9   72.22    1.90
  -2  -5  -8    8.76    1.12
  -6  -5  -8    1.21    1.22
  -5  -2  -6  127.09    2.41
  -4  -6  -9    1.40    1.27
  -6  -3  -6   68.76    1.96
  -5  -9  -8    6.91    0.80
  -5  -4  -8    0.54    1.28
  -6  -4  -7   90.27    2.28
  -5  -3  -7    9.75    1.54
  -7  -8  -7   68.09    1.41
  -7  -4  -5    1.61    0.99
  -6  -8  -8   50.86    1.44
  -6  -6  -8    0.71    1.14
  -4  -4  -8  112.56    2.46
  -7  -7  -7    1.07    0.87
  -7  -5  -6    3.94    1.18
  -6  -7  -8    5.21    1.00
  -3  -7  -8   32.07    1.35
  -5  -5  -8    2.21    1.28
  -4  -8  -8   61.41    1.75
  -3  -5  -8  151.48    2.59
  -5  -8  -8   45.74    1.68
  -4  -3  -7    3.34    1.05
  -3  -6  -8  149.46    2.54
  -7  -9  -6   18.70    1.00
  -6  -5  -7   27.32    1.72
  -6  -3  -5   29.59    1.53
  -5  -6  -8   39.76    1.82
  -4  -5  -8   46.37    1.64
  -7  -6  -6    8.31    1.27
  -5 -10  -6   16.15    0.98
  -5  -7  -8    1.66    1.16
  -5  -4  -7    9.11    1.42
  -4  -7  -8  203.13    2.95
  -4  -6  -8    5.75    1.48
  -6  -4  -6  100.68    2.39
  -5  -9  -7   27.76    1.19
  -5  -3  -6    2.47    1.46
  -7  -8  -6   17.58    1.03
  -7  -7  -6    4.33    1.03
  -7  -5  -5   63.70    1.79
  -6  -6  -7    0.29    1.22
  -6  -8  -7   21.57    1.12
  -6  -7  -7   33.81    1.52
  -4  -4  -7   50.70    1.69
  -5  -5  -7   16.00    1.44
  -7  -9  -5   21.26    1.03
  -6 -10  -5   37.36    1.19
  -6  -3  -4    0.89    1.22
  -4  -8  -7   57.60    1.71
  -3  -7  -7   15.93    1.37
  -7  -6  -5  489.25    4.32
  -5  -8  -7   -0.71    1.10
  -7  -5  -4   21.26    1.32
  -6  -4  -5   47.71    1.88
  -5  -7  -7   30.09    1.57
  -5  -6  -7   22.95    1.60
  -4  -5  -7    0.34    1.20
  -3  -6  -7  726.02    5.14
  -7  -8  -5   70.87    1.60
  -7  -7  -5   13.60    1.19
  -5 -10  -5   31.08    1.15
  -5  -4  -6   25.21    1.36
  -5  -3  -5   -0.22    1.17
  -4  -9  -6   -0.25    0.90
  -4  -7  -7  604.26    4.85
  -6  -8  -6   27.28    1.37
  -6  -6  -6  180.98    3.02
  -5  -9  -6   29.21    1.39
  -7  -9  -4   19.42    0.98
  -6  -7  -6  464.94    4.33
  -6 -10  -4   42.67    1.20
  -7  -6  -4    7.00    1.05
  -7  -5  -3    6.64    1.31
  -6  -9  -5   -0.90    0.84
  -6  -5  -5   14.06    1.57
  -5  -5  -6  112.61    2.49
  -7  -8  -4    1.59    0.92
  -6  -4  -4   29.25    1.69
  -7  -9  -3    6.22    0.81
  -5 -10  -4   10.03    0.85
  -5  -6  -6  814.79    5.96
  -4  -8  -6   36.79    1.61
  -3  -7  -6   -0.68    1.19
  -5  -7  -6    9.26    1.34
  -4  -5  -6   45.46    1.63
  -6  -8  -5   38.92    1.53
  -6  -6  -5  107.35    2.30
  -5  -9  -5   20.98    1.32
  -4  -9  -5    0.88    0.91
  -4  -7  -6   48.39    1.70
  -7  -9  -2   79.51    1.58
  -7  -6  -3    3.16    1.04
  -7  -5  -2    4.70    1.11
  -6  -7  -5    9.48    1.02
  -7  -8  -3   16.33    0.95
  -6  -9  -4   12.76    0.97
  -6  -5  -4    3.30    1.27
  -5  -5  -5   63.13    1.99
  -7  -9  -1    4.95    0.74
  -6  -4  -3   49.77    1.66
  -5 -10  -3    2.51    0.77
  -7  -8  -2   11.86    0.98
  -7  -6  -2   27.43    1.29
  -7  -5  -1   18.23    1.21
  -6  -8  -4    3.95    1.05
  -4  -8  -5    2.57    1.29
  -7  -7  -2    5.21    1.11
  -6 -10  -1   -0.06    0.69
  -6  -6  -4    7.42    1.35
  -5  -9  -4   17.72    1.40
  -5  -7  -5    0.88    1.18
  -5  -6  -5   75.23    2.04
  -6  -9  -3    1.23    0.95
  -6  -7  -4   14.17    1.18
  -4  -9  -4   10.36    1.21
  -3  -7  -5   10.10    1.30
  -5 -10  -2    1.88    0.86
  -4  -7  -5   11.03    1.36
  -7  -6  -1    6.02    1.09
  -6  -5  -3    5.86    1.23
  -6  -4  -2   55.10    1.79
  -4 -10  -2    2.24    0.77
  -4  -6  -5   98.70    2.14
  -7  -7  -1   -1.64    1.06
  -7  -8   1   13.84    0.80
  -7  -6   0    4.83    1.13
  -6  -9  -2    2.38    0.98
  -6  -8  -3    5.70    0.89
  -5  -8  -4   14.07    1.10
  -5  -5  -4   85.39    2.01
  -3  -8  -4  140.56    2.46
  -7  -7   0    0.53    0.91
  -6  -7  -3   25.87    1.70
  -5 -10  -1   -0.08    0.95
  -5  -9  -3  138.43    2.43
  -7  -6   1   27.60    1.25
  -5  -7  -4    7.30    1.10
  -5  -6  -4   20.06    1.30
  -4 -10  -1    0.47    0.92
  -4  -8  -4   27.15    1.50
  -7  -7   1    0.50    0.71
  -7  -7   2   12.41    0.80
  -6  -9  -1    1.02    0.81
  -6  -5  -2   -0.88    1.16
  -4  -9  -3    0.60    1.01
  -6  -8  -2   97.55    2.12
  -6  -4  -1    2.72    1.21
  -5 -10   0   18.19    1.04
  -5  -8  -3   73.90    2.04
  -4  -7  -4   28.39    1.55
  -3  -7  -4    7.66    1.21
  -6  -9   0    0.54    0.79
  -6  -7  -2   29.54    1.62
  -4 -10   0   34.75    1.16
  -6  -9   1   -0.23    0.62
  -5  -5  -3   80.61    1.90
  -6  -9   2   -0.71    0.75
  -6  -8  -1    1.33    0.95
  -6  -5  -1    2.57    1.25
  -5  -7  -3   -0.91    1.25
  -5  -6  -3   57.89    1.91
  -4 -10   1   43.66    1.32
  -4  -9  -2    1.52    0.98
  -3  -8  -3   11.38    1.21
  -4  -8  -3   79.79    1.89
  -6  -7  -1   28.58    1.51
  -6  -6  -1    3.79    1.27
  -6  -8   0   12.14    1.21
  -5  -8  -2   30.11    1.60
  -6  -8   1   17.11    1.17
  -6  -5   0    2.21    1.13
  -5  -9   0   87.07    1.86
  -5  -7  -2    3.48    1.20
  -4  -9  -1    2.89    1.00
  -3  -9  -1   76.79    1.83
  -3  -7  -3   19.74    1.25
  -6  -8   2    3.22    0.83
  -6  -8   3    4.52    0.74
  -6  -7   0   44.92    1.69
  -6  -6   0   10.18    1.37
  -5  -6  -2   32.27    1.63
  -5  -9   1   39.25    1.40
  -5  -8  -1    1.70    1.25
  -4  -8  -2    4.70    0.98
  -3  -8  -2    2.55    1.08
  -6  -5   1    0.93    1.08
  -6  -6   1    5.90    1.24
  -5  -9   2   26.57    1.15
  -5  -9   3   32.40    1.28
  -4  -9   0    0.29    1.00
  -6  -7   4   44.66    1.23
  -6  -6   5    5.46    0.90
  -5  -7  -1    3.19    1.15
  -3  -9   0    9.94    1.08
  -6  -7   3  267.62    3.04
  -6  -5   2    4.28    1.19
  -5  -8   0  128.96    2.51
  -4  -7  -2   80.71    1.97
  -6  -6   2    3.11    1.01
  -6  -6   4   54.74    1.72
  -6  -5   3    0.29    0.97
  -6  -5   4    1.89    1.04
  -5  -6  -1   58.99    1.98
  -4  -9   1   -1.86    1.15
  -4  -8  -1   30.82    1.68
  -6  -6   3  107.12    2.08
  -3  -9   1   15.73    1.35
  -3  -7  -2   52.72    1.78
  -5  -8   1  132.05    2.44
  -5  -8   5    2.17    0.73
  -4  -9   2    7.48    1.04
  -3  -8  -1  145.04    2.57
  -5  -7   0    0.22    1.20
  -4  -9   3   -0.36    0.87
  -5  -8   2    2.11    0.99
  -5  -8   4    3.71    0.84
  -5  -5   0    9.30    1.32
  -4  -7  -1  191.29    2.97
  -3  -9   2   31.30    1.31
  -5  -8   3    1.02    0.94
  -5  -6   0   84.23    2.10
  -3  -9   3    2.81    0.88
  -3  -9   4   19.03    1.09
  -5  -7   1    6.65    1.43
  -3  -8   0   29.08    1.72
  -5  -6   1   34.62    1.73
  -5  -6   7    7.80    0.84
  -4  -8   1   11.57    1.34
  -4  -8   6   13.12    1.06
  -3  -7  -1   13.99    1.38
  -5  -7   2    1.68    1.05
  -8  -4   0    2.06    0.71
  -7  -2  -1   75.73    2.04
  -6  -2  -3    4.64    1.44
  -5   1   1  109.50    2.10
  -8  -6  -1   21.15    1.06
  -8  -5  -1    2.36    0.86
  -7  -4  -3    6.35    1.46
  -6   0   1  262.21    3.31
  -8  -4   1   72.78    1.52
  -8  -4   2    0.25    0.63
  -7  -3  -2   -0.27    1.26
  -8  -5   0    0.73    0.77
  -7  -2   0   36.41    1.64
  -6  -4  -4   29.33    1.70
  -6  -1  -1   18.27    1.49
  -6   0   2  191.54    2.82
  -5   1   2   41.10    1.55
  -7  -6  -3    4.18    1.01
  -7  -5  -3    9.15    1.14
  -6   0   3  140.13    2.30
  -8  -6   1   12.21    0.84
  -8  -5   1    0.90    0.80
  -8  -5   2    0.99    0.68
  -6  -5  -4    0.40    1.06
  -7  -4  -2    4.01    1.17
  -7  -3  -1    6.65    1.22
  -7  -2   1   30.02    1.46
  -7  -2   4    3.84    0.85
  -6  -2  -2    2.08    1.24
  -7  -2   2   17.94    1.27
  -7  -2   3    3.70    0.93
  -6  -1   0   12.59    1.36
  -7  -7  -2    4.32    0.90
  -7  -5  -2    4.36    1.16
  -7  -6  -2   26.54    1.18
  -7  -3   0    3.62    0.82
  -7  -3   5    3.27    0.69
  -6  -4  -3   58.11    1.91
  -6  -1   1    8.19    1.38
  -7  -4  -1    6.61    1.23
  -6  -2  -1   23.00    1.50
  -7  -3   1    2.46    1.20
  -6  -3  -2   34.31    1.68
  -6  -1   5    1.50    0.78
  -7  -8   0    3.16    0.58
  -7  -8   0    0.79    0.42
  -7  -3   4    2.94    0.85
  -6  -5  -3    6.82    1.26
  -6  -1   2   22.54    1.32
  -7  -7  -1    0.32    0.85
  -7  -4   0   82.74    1.98
  -7  -3   2    4.11    1.05
  -6  -6  -3    2.63    0.92
  -6  -1   3    1.83    1.18
  -6  -1   4    1.36    0.99
  -7  -6  -1    4.53    1.04
  -7  -4   5    0.31    0.56
  -6  -2   0    2.24    1.16
  -5   0   2   -0.37    1.03
  -7  -7   0    2.20    1.02
  -7  -5   0  162.71    2.58
  -7  -5   5    4.78    0.57
  -7  -4   1   94.49    2.04
  -6  -4  -2   54.87    1.68
  -6  -3  -1  133.62    2.59
  -5   0   3   43.18    1.58
  -7  -4   2    4.09    0.93
  -6  -2   1   19.03    1.41
  -6  -2   6    2.03    0.91
  -7  -6   0    3.74    0.90
  -7  -4   3    2.58    0.89
  -6  -3   7   13.62    0.91
  -7  -7   1   -0.24    0.74
  -7  -7   3   27.83    1.01
  -7  -5   1   42.08    1.52
  -7  -5   4   25.33    1.02
  -6  -5  -2   -1.04    1.11
  -7  -6   1   29.90    1.30
  -7  -6   4  115.33    1.65
  -7  -5   2   16.02    1.07
  -7  -5   3   26.36    1.14
  -6  -6  -2   10.61    1.13
  -6  -3   0  116.92    2.40
  -6  -2   5    2.16    0.97
  -7  -6   2   17.32    1.03
  -7  -6   3    8.98    0.91
  -6  -4  -1    4.99    1.23
  -6  -2   3   62.67    1.91
  -6  -2   4   24.77    1.26
  -6  -4   7   11.65    0.74
  -6  -7  -1   26.84    1.42
  -6  -5  -1    3.47    1.31
  -6  -3   1   55.94    1.87
  -6  -3   6   74.27    1.64
  -6  -8   0   10.87    0.88
  -6  -6  -1    2.84    1.12
  -6  -4   0  191.28    2.91
  -6  -3   2   75.62    2.12
  -6  -3   5    6.26    0.95
  -5  -1   3  136.26    2.37
  -6  -3   3   24.99    1.42
  -5  -1   4  213.46    2.81
  -5  -1   5   46.41    1.52
  -6  -8   1   15.07    1.01
  -6  -4   1    4.39    1.17
  -6  -4   6   19.71    1.09
  -6  -3   4   22.93    1.21
  -6  -8   2    4.03    0.87
  -6  -8   3    4.99    0.99
  -6  -7   0   47.38    1.54
  -6  -6   6   11.14    0.77
  -6  -7   5    5.51    0.86
  -6  -6   0   10.61    1.26
  -6  -5   6   -0.27    0.74
  -5  -2   7   54.33    1.49
  -6  -4   2   20.52    1.39
  -5  -3   8    1.05    0.79
  -6  -7   1   27.98    1.27
  -6  -5   1    2.16    0.94
  -6  -4   3   17.74    1.39
  -6  -4   4   12.45    1.22
  -6  -7   4   46.39    1.30
  -6  -6   5    5.40    0.83
  -6  -5   5    4.88    1.00
  -6  -7   2   10.62    0.96
  -6  -7   3  263.66    2.80
  -6  -5   2    8.92    0.97
  -6  -5   4    1.53    0.95
  -5  -4   8   25.99    1.01
  -5  -2   6  199.89    2.75
  -6  -6   2    3.02    0.84
  -6  -6   3  111.80    2.16
  -6  -6   4   60.01    1.53
  -6  -5   3   -0.50    0.78
  -5  -5   8   96.81    1.49
  -5  -2   3   47.53    1.46
  -5  -2   5   12.70    1.25
  -5  -6  -1   59.78    1.73
  -5  -3   7    1.19    0.90
  -5  -2   4  122.05    2.26
  -5  -3   2   23.02    1.31
  -5  -7   0   -0.20    1.00
  -5  -6   7    7.71    0.82
  -5  -5   0    9.30    1.25
  -5  -4   7   45.71    1.57
  -5  -3   6    0.20    1.00
  -5  -8   2    4.05    1.14
  -5  -8   4    4.54    0.76
  -5  -7   6    1.61    0.78
  -5  -6   0   81.35    2.01
  -5  -4   1   32.17    1.43
  -5  -3   3   10.01    1.22
  -5  -3   5    0.57    1.20
  -4  -3   9   15.62    0.98
  -5  -8   3    2.76    0.95
  -4  -5   9   -0.46    0.65
  -5  -7   1    5.97    1.21
  -4  -4   9    4.64    0.78
  -5  -7   5    1.31    0.89
  -5  -6   6   11.34    1.06
  -5  -4   2    2.61    0.86
  -5  -6   1   30.92    1.58
  -5  -5   6   43.05    1.56
  -5  -4   3    0.26    1.16
  -5  -4   5   42.60    1.68
  -5  -7   2    0.70    0.90
  -5  -7   4   20.36    1.30
  -5  -5   2   48.24    1.82
  -5  -4   4   32.27    1.60
  -4  -2   7   19.00    1.30
  -5  -6   5   45.18    1.54
  -5  -5   5   45.00    1.66
  -4  -3   8   18.10    1.23
  -5  -6   3  171.82    2.83
  -5  -6   4   94.37    2.12
  -5  -5   3   20.11    1.37
  -5  -5   4   14.30    1.26
  -4  -6   8    5.49    0.77
  -4  -7   7   14.68    0.90
  -4  -2   6   44.27    1.62
  -3  -4  10   18.52    0.91
  -4  -8   5   33.75    1.18
  -4  -4   8   40.81    1.49
  -4  -2   5   11.41    1.25
  -3  -9   4    9.26    0.68
  -4  -8   2   12.63    1.24
  -4  -8   4   12.65    1.05
  -4  -3   7   59.84    1.74
  -3  -6   9    0.96    0.60
  -4  -8   3    1.75    0.83
  -4  -7   6   36.16    1.29
  -4  -6   7    5.46    1.03
  -3  -7   8    0.28    0.70
  -4  -7   1  120.68    2.34
  -4  -4   7    8.10    1.33
  -4  -3   6   41.19    1.64
  -4  -5   7    1.14    1.06
  -4  -7   5  109.96    2.16
  -4  -6   1   67.64    1.87
  -4  -3   5  198.06    2.80
  -3  -8   6   48.29    1.32
  -3  -5   9   20.51    1.11
  -3  -3   9    0.43    0.96
  -4  -7   2  406.26    3.98
  -4  -6   6   65.47    1.79
  -4  -4   6   32.54    1.69
  -4  -7   3  235.28    3.21
  -4  -5   6   -0.58    1.23
  -3  -4   9    3.57    1.11
  -3  -2   8   15.29    1.23
  -4  -6   2  266.28    3.31
  -4  -6   5   33.33    1.61
  -4  -4   4   97.69    2.19
  -4  -4   5   54.68    1.89
  -2  -5  10    0.84    0.64
  -4  -6   4   41.16    1.74
  -4  -5   5   -0.53    1.19
  -3  -8   5  159.17    2.30
  -3  -7   7    0.45    0.88
  -3  -6   8    1.62    0.68
  -4  -5   3   -0.13    0.86
  -4  -5   4    1.65    1.20
  -3  -8   2    2.47    0.99
  -3  -8   3   11.95    1.22
  -3  -8   4   59.80    1.64
  -3  -3   8    4.19    1.27
  -3  -2   7    8.40    1.10
  -2  -4  10    7.22    0.91
  -2  -3  10   57.12    1.52
  -3  -5   8   32.14    1.29
  -3  -4   8    8.13    1.36
  -2  -7   8   10.40    0.97
  -2  -6   9   23.50    1.01
  -3  -7   6    8.69    1.12
  -2  -8   6    3.78    0.79
  -1  -3  11    0.10    0.88
  -3  -7   1   -1.03    1.07
  -3  -6   7   50.66    1.48
  -3  -3   7    2.95    1.29
  -3  -7   5    4.24    0.98
  -3  -5   7   88.16    2.27
  -2  -2   9    5.06    1.07
  -3  -7   2    5.76    1.15
  -3  -7   4    2.07    1.31
  -3  -6   6   73.83    2.00
  -2  -8   5    8.60    1.13
  -3  -7   3    0.66    0.95
  -3  -3   6   -0.38    1.18
  -2  -7   7   81.58    1.72
  -1  -7   8    0.09    0.99
  -3  -5   6   73.97    2.08
  -2  -8   4   67.86    1.76
  -2  -6   8   43.56    1.28
  -2  -4   9  118.35    2.22
  -2  -3   9   45.41    1.67
  -1  -8   6    4.94    0.96
  -3  -6   5   62.03    1.81
  -3  -4   6    8.57    1.06
  -2  -8   3   61.90    1.75
  -1  -6   9   35.35    1.19
   0  -4  11   19.33    0.86
  -3  -6   3   96.00    2.14
  -3  -6   4  256.74    3.35
  -3  -5   5   95.24    2.10
  -3  -4   5  155.40    2.51
  -2  -7   6   64.48    1.77
  -2  -2   8   48.56    1.63
  -1  -4  10   82.64    1.75
  -3  -5   4  198.85    2.79
  -2  -5   8    0.63    0.90
  -1  -8   5    2.04    0.93
  -1  -3  10   30.73    1.51
  -1  -2  10   57.40    1.58
   0  -7   8   19.40    0.94
  -2  -6   7   23.78    1.18
  -2  -3   8   29.28    1.57
   0  -3  11   59.66    1.45
  -1  -8   4   68.94    1.67
  -1  -7   7    0.98    0.92
   0  -5  10    1.58    0.70
  -1  -5   9  173.35    2.46
   0  -8   5   19.97    1.02
   0  -6   9    5.38    0.79
  -2  -7   2  624.73    4.66
  -2  -7   3  234.23    3.14
  -2  -7   4  176.19    2.74
  -2  -6   6   18.84    1.50
  -2  -5   7    3.23    1.27
  -1  -6   8   15.16    1.08
  -8  -7  -2    5.41    0.69
  -6  -2  -2    4.53    1.21
  -5  -5  -7   13.40    1.27
  -7  -4  -3    6.98    1.22
  -6  -3  -4    4.31    1.24
  -7  -6  -5  500.79    4.19
  -6  -5  -6    6.03    1.11
  -6  -2  -1   22.80    1.39
  -7  -5  -4   23.89    1.37
  -6  -4  -5   43.34    1.67
  -6  -2   0    1.67    1.01
  -5  -4  -6   21.86    1.53
  -7  -8  -5   69.38    1.53
  -5  -3  -5   -1.24    1.02
  -7  -4  -1    3.93    1.14
  -7  -4   1   88.50    1.82
  -6  -6  -6  183.38    2.78
  -6  -3  -3    9.64    1.32
  -7  -9  -4   18.73    1.06
  -7  -5  -3    7.49    1.15
  -7  -4   0   75.32    1.81
  -7  -6  -4    7.06    0.89
  -6  -8  -6   27.22    1.22
  -6  -7  -6  464.60    3.95
  -6  -4  -4   27.27    1.67
  -7  -8  -4    3.09    0.80
  -7  -7  -4    0.44    0.94
  -7  -5  -2    4.50    1.30
  -7  -5   2   13.50    0.97
  -6  -3  -2   31.02    1.37
  -5  -5  -6  113.61    2.36
  -7  -6  -3    4.47    1.07
  -7  -9  -3    4.26    0.89
  -7  -5   1   36.31    1.41
  -6  -9  -5    0.54    0.83
  -6  -3  -1  124.57    2.37
  -5  -4  -5   -0.73    1.11
  -7  -5   0  155.01    2.42
  -6  -6  -5  111.56    2.47
  -6  -4  -3   54.94    1.94
  -5  -6  -6  807.97    5.54
  -7  -9  -2   83.63    1.53
  -7  -8  -3   17.16    1.08
  -7  -7  -3   12.58    1.05
  -7  -6  -2   27.67    1.44
  -7  -6   2   16.05    0.94
  -6  -5  -4   -1.63    1.34
  -6  -3   0  104.70    2.26
  -6  -3   1   48.57    1.63
  -7  -7   2   10.93    0.78
  -6  -8  -5   41.02    1.44
  -6  -7  -5    8.48    1.24
  -5  -7  -6    8.47    1.10
  -7  -9  -1    1.55    0.74
  -7  -7  -2    4.41    0.93
  -7  -6  -1    4.30    1.07
  -7  -6   1   31.08    1.44
  -7  -8  -2   11.47    0.88
  -7  -8   1   15.84    0.78
  -7  -6   0    6.28    1.06
  -6  -4  -2   55.49    1.90
  -5  -5  -5   68.73    2.07
  -7  -8  -1   11.87    0.94
  -7  -7  -1    0.54    0.91
  -7  -7   1   -0.91    0.77
  -6 -10  -3    7.88    1.01
  -6  -6  -4    4.90    1.31
  -7  -8   0    4.76    0.83
  -6  -9  -4   12.30    1.01
  -6  -5  -3    5.29    1.26
  -6 -10  -2   16.39    0.99
  -6  -8  -4    5.57    1.09
  -6  -4   0  174.73    2.77
  -5  -6  -5   80.67    2.11
  -6  -4   1    3.73    1.18
  -6  -4   2   17.11    1.16
  -6 -10  -1    0.08    0.78
  -6  -6  -3    2.82    1.29
  -6  -5  -2    1.17    0.99
  -5  -8  -5   16.07    1.23
  -5  -7  -5    1.71    1.11
  -6  -9  -3    1.87    0.94
  -6  -7  -3   27.85    1.53
  -6  -7   4   36.39    1.14
  -6  -5  -1    0.92    1.27
  -6  -5   3   -1.25    0.91
  -6  -8  -3    5.69    0.92
  -6  -9  -2    3.29    0.95
  -6  -6  -2   13.77    1.09
  -6  -5   2    5.09    1.06
  -5 -10  -3    2.24    0.87
  -6  -8   3    3.76    0.73
  -6  -5   1    3.48    1.02
  -5  -9  -4   21.14    1.20
  -5  -6  -4   23.50    1.47
  -6  -9  -1    1.42    0.89
  -6  -8  -2  103.12    2.19
  -6  -7  -2   27.94    1.48
  -6  -6  -1    2.96    1.27
  -6  -6   3  108.27    2.02
  -6  -9   0   -0.37    0.74
  -6  -9   1   -0.18    0.67
  -6  -7   3  258.06    2.81
  -5  -8  -4   11.13    1.48
  -5  -7  -4    6.42    1.25
  -5  -5  -3   79.41    1.91
  -6  -8  -1    0.98    0.94
  -6  -7  -1   28.44    1.47
  -6  -6   0    9.79    1.31
  -6  -6   2    3.13    1.03
  -6  -7   2   12.26    1.28
  -6  -6   1    8.17    1.02
  -5 -10  -2   -0.02    0.83
  -6  -8   0   11.88    1.06
  -6  -8   1   16.48    1.14
  -6  -7   0   46.93    1.75
  -5  -9  -3  149.37    2.37
  -5  -6  -3   59.46    1.74
  -5  -5  -2  228.63    3.12
  -4 -10  -3    1.64    0.83
  -5 -10   1    1.00    0.83
  -5  -8  -3   80.27    2.11
  -5 -10   0   20.46    1.10
  -5  -9  -2    8.91    1.24
  -5  -7   5    0.77    0.77
  -5  -4   3    0.50    1.15
  -5  -9   3   35.23    1.13
  -5  -6  -2   34.35    1.72
  -5  -5  -1  531.74    4.60
  -5  -4   2    1.11    0.96
  -4  -8  -4   29.86    1.49
  -4  -7  -4   29.42    1.42
  -4 -10  -2    4.34    0.92
  -5  -9  -1   52.65    1.63
  -5  -8  -2   29.55    1.35
  -5  -8   4    4.59    0.83
  -5  -7  -2    2.80    1.25
  -5  -5   4   11.82    1.10
  -5  -9   2   22.16    1.16
  -5  -5   0    8.56    1.17
  -4  -9  -3    0.89    0.99
  -5  -9   0   89.60    1.83
  -5  -9   1   39.50    1.41
  -5  -7   4   19.55    1.26
  -5  -6  -1   62.91    1.78
  -5  -6   4   94.16    2.03
  -5  -5   1    8.41    1.15
  -5  -5   3   19.41    1.46
  -5  -8  -1    0.69    1.02
  -5  -7  -1    3.70    1.41
  -5  -5   2   51.13    1.78
  -4 -10  -1    1.60    0.92
  -5  -6   0   86.49    2.26
  -4 -10   2   27.84    1.30
  -4  -8  -3   88.34    2.15
  -3 -10  -2   13.08    1.04
  -5  -8   0  125.28    2.32
  -5  -8   1  128.71    2.38
  -5  -8   2    2.46    1.08
  -5  -7   0    0.37    1.19
  -5  -7   3   12.72    1.26
  -5  -6   1   31.51    1.66
  -5  -6   3  177.67    2.79
  -4 -10   1   44.24    1.38
  -4  -7  -3   27.98    1.53
  -5  -7   1    4.58    1.29
  -5  -6   2    3.46    1.22
  -4  -9  -2    1.51    0.98
  -4  -9   4    7.81    0.78
  -4  -7   6   29.52    1.20
  -4  -9  -1    3.90    1.30
  -4  -8  -2    4.24    1.36
  -4  -8   5   29.73    1.21
  -3 -10  -1   39.23    1.38
  -4  -9   3    0.21    0.80
  -4  -7  -2   87.95    2.19
  -4  -9   0    1.50    1.09
  -3 -10   0    6.73    0.98
  -4  -9   1    0.51    1.04
  -4  -9   2    6.02    0.98
  -3 -10   2   -0.25    0.98
  -3  -8  -3   10.53    1.28
  -4  -7   5   97.29    2.05
  -4  -5   5    0.75    1.03
  -3  -9  -2  141.63    2.46
  -3  -7   7    0.68    0.76
  -4  -7  -1  187.72    3.05
  -4  -6   5   29.29    1.50
  -3  -8   6   42.60    1.27
  -4  -8   0   35.48    1.70
  -4  -8   3    4.75    1.15
  -2 -10   0   54.71    1.55
  -4  -8   1   13.63    1.35
  -4  -8   2   14.78    1.32
  -4  -7   4   49.41    1.76
  -4  -5   4    3.81    1.24
  -4  -7   0  108.54    2.47
  -4  -6   0   64.67    1.76
  -4  -6   4   40.84    1.71
  -3  -9  -1   89.09    2.02
  -3  -9   4   23.97    1.11
  -3  -8  -2    1.14    1.31
  -2 -10   1   23.97    1.21
  -4  -7   1  121.70    2.56
  -4  -5   3    0.37    0.86
  -4  -7   2  395.63    4.21
  -4  -6   1   67.56    1.83
  -4  -6   2  259.76    3.39
  -4  -6   3   19.97    1.57
  -3  -9   0   14.26    1.36
  -3  -9   3    2.68    0.85
  -3  -9   1   21.45    1.38
  -3  -7  -2   56.05    1.86
  -2  -9   5    1.23    0.77
  -3  -9   2   30.94    1.27
  -3  -7   6    6.58    1.14
  -3  -8  -1  149.66    2.59
  -2  -9  -1   -0.52    1.02
  -3  -8   4   56.37    1.59
  -5  -4   6  124.43    2.72
  -5  -8   4    1.67    0.83
  -3  -3  10   -1.23    0.89
  -5  -6   6    3.50    1.24
  -5  -5   6   48.17    1.77
  -5  -4   2    2.38    1.21
  -5  -4   5   46.61    1.92
  -5  -7   5   -0.25    0.90
  -5  -5   1   -0.15    1.32
  -5  -4   3    1.00    1.33
  -5  -4   4   30.03    1.79
  -4  -6   8    0.81    0.79
  -4  -2   6   45.31    1.89
  -3  -1   8    7.52    1.44
  -5  -5   5   46.54    1.81
  -4  -4   8   38.53    1.60
  -3  -2   9   43.85    1.63
  -5  -7   2    0.53    1.17
  -5  -7   4   18.87    1.36
  -5  -5   2   47.30    1.67
  -4  -5   8    2.48    1.00
  -4  -2   5   11.11    1.29
  -5  -7   3   13.58    1.30
  -5  -6   2    2.06    1.17
  -5  -6   4   98.12    2.26
  -5  -5   3   19.58    1.24
  -4  -7   7   12.73    1.15
  -4  -3   7   68.33    2.11
  -3  -1   7    6.39    1.26
  -5  -6   3  177.74    2.94
  -3  -6   9   -0.39    0.80
  -3  -3   9    0.58    1.15
  -2  -2  10   12.19    1.11
  -4  -4   7   11.67    1.35
  -4  -3   6   40.90    1.86
  -3  -2   8   16.15    1.38
  -2  -1   9    6.88    1.03
  -4  -6   7    6.11    1.08
  -4  -5   7    0.14    1.05
  -3  -7   8    0.58    0.82
  -3  -5   9   22.15    1.18
  -2  -5  10    0.84    0.72
  -4  -8   5   33.14    1.22
  -4  -3   5  216.27    3.12
  -2  -3  10   49.55    1.79
  -2  -4  10    6.51    1.03
  -4  -4   6   36.17    1.53
  -3  -2   7    6.77    1.28
  -4  -8   4   12.14    1.28
  -4  -6   6   61.69    1.90
  -4  -5   6    0.40    1.22
  -4  -4   5   51.73    1.95
  -3  -6   8    0.04    0.90
  -2  -2   9    3.84    1.20
  -2  -1   8    1.31    1.10
  -4  -7   5  108.26    2.21
  -3  -4   8   10.87    1.30
  -4  -5   5    0.01    1.33
  -4  -4   4   96.15    2.08
  -3  -9   4   23.41    1.08
  -3  -8   6   44.28    1.34
  -3  -5   8   33.56    1.57
  -2  -6   9   23.11    1.01
  -4  -7   4   48.76    1.69
  -4  -6   5   31.92    1.41
  -3  -7   7    0.85    0.84
  -3  -3   7    6.55    1.35
  -1  -2  10   54.98    1.65
  -2  -3   9   44.63    1.70
  -1  -5  10   75.08    1.44
  -4  -7   2  371.82    3.82
  -4  -7   3  249.84    3.20
  -4  -6   4   42.34    1.83
  -4  -5   3   -0.09    1.37
  -2  -7   8    8.94    0.83
  -4  -6   2  270.18    3.25
  -4  -6   3   20.93    1.46
  -3  -6   7   52.47    1.65
  -3  -4   7    0.59    1.29
  -2  -4   9  115.72    2.29
  -2  -2   8   44.38    1.86
  -1  -4  10   84.78    1.81
  -1  -3  10   30.12    1.39
  -3  -8   5  165.42    2.35
  -3  -5   7   86.12    2.14
  -3  -3   6   -0.21    1.09
  -3  -7   6    7.12    1.14
  -1  -6   9   33.63    1.14
   0  -5  10    0.73    0.67
  -3  -4   6    9.85    1.36
  -2  -6   8   42.82    1.49
  -2  -3   8   31.19    1.70
  -3  -8   4   53.51    1.76
  -3  -6   6   75.91    2.20
  -1  -2   9   90.99    2.13
  -3  -5   6   70.59    2.12
  -2  -9   4    1.17    0.76
  -2  -7   7   81.05    1.74
  -2  -5   8    2.01    1.16
  -1  -7   8    1.45    0.81
   0  -4  10   82.39    1.82
  -3  -8   3   11.32    1.33
  -3  -4   5  157.66    2.57
  -1  -3   9    2.04    1.40
   0  -3  10  105.36    2.00
  -3  -8   2    0.68    1.07
  -3  -6   5   61.22    1.99
  -3  -5   5   97.66    2.43
  -2  -9   3    3.42    0.97
  -1  -4   9  105.49    2.25
  -3  -7   4    1.77    1.28
  -2  -6   7   23.46    1.44
   0  -7   8   22.24    1.13
  -2  -8   5    8.73    1.17
  -3  -7   3    0.64    1.27
  -3  -6   4  236.36    3.36
  -3  -5   4  205.19    2.97
  -2  -7   6   61.28    1.84
  -2  -5   7    5.10    1.32
  -2  -4   7   37.92    1.83
  -1  -6   8   15.10    1.31
  -1  -2   8  188.26    2.87
   1  -4  10   12.06    0.93
  -3  -7   2    5.74    1.13
  -1  -9   4   71.32    1.59
  -1  -8   6    2.55    0.91
  -3  -6   3   94.80    2.30
  -1  -7   7   -0.43    0.92
   0  -5   9   -2.73    1.10
  -2  -8   4   66.83    1.81
  -1  -5   8  224.47    3.15
  -1  -3   8    8.41    1.37
   0  -2   9   23.44    1.54
  -2  -6   6   19.30    1.53
  -2  -7   5   60.75    1.90
  -2  -5   6    2.15    1.14
  -2  -4   6   42.92    1.73
  -1  -9   3   77.97    1.56
   0  -8   6   35.48    1.33
   0  -4   9   23.10    1.35
   0  -3   9  177.52    2.84
   0  -6   8    8.50    1.03
  -2  -8   3   63.63    1.83
  -1  -6   7    5.27    1.25
   0  -7   7    3.71    0.85
   1  -5   9   24.51    1.17
  -2  -6   5  110.80    2.49
  -1  -7   6    3.75    1.08
   2  -5   9    6.04    0.79
  -2  -8   2    3.37    1.09
  -2  -7   4  181.79    3.02
  -2  -5   5   -0.08    1.24
  -1  -5   7   13.60    1.49
  -1  -3   7   23.22    1.31
   0  -9   3    3.41    0.94
   1  -7   7    0.10    0.78
   1  -6   8   41.76    1.37
  -1  -8   4   73.50    2.04
  -1  -4   7    2.97    1.29
   0  -2   8    4.51    1.29
   1  -4   9   26.74    1.29
  -2  -7   3  250.37    3.35
   1  -3   9   59.17    1.86
  -1  -6   6   19.56    1.47
   0  -9   2    9.37    1.04
   0  -4   8  167.62    2.90
   0  -3   8  109.58    2.48
   3  -4   9   13.00    0.98
  -2  -7   2  608.70    4.89
  -1  -7   5   -0.05    1.23
   0  -7   6   44.19    1.52
   0  -6   7   24.01    1.47
   1  -8   5    1.51    1.01
   2  -4   9   99.06    2.03
  -2  -6   3   37.61    1.67
  -1  -8   3   65.05    1.80
  -1  -5   6   54.92    1.97
  -1  -4   6    2.73    0.88
   0  -8   4    9.77    1.18
   2  -3   9   61.52    1.80
   3  -5   8    9.43    0.97
  -1  -8   2   58.95    1.98
  -1  -6   5   88.52    2.33
   0  -5   7    2.29    1.29
   1  -7   6    0.90    0.97
   1  -6   7   78.48    1.94
   2  -7   6    5.01    0.87
   2  -5   8   12.11    1.17
   0  -7   5   86.73    2.18
   0  -6   6    4.81    1.27
   0  -3   7   47.24    1.73
   1  -4   8   61.25    1.98
   2  -6   7    9.68    1.06
  -1  -8   1   17.84    1.23
  -1  -5   5   54.52    1.80
   1  -3   8   23.29    1.57
   1  -2   8   45.04    1.63
  -1  -7   3    2.06    1.15
   0  -8   3   72.95    1.82
  -1  -6   4   67.17    2.00
   1  -5   7  417.32    4.22
   2  -4   8   71.51    1.91
   0  -5   6   10.03    1.16
   1  -8   3   11.59    1.18
   1  -7   5    4.72    1.22
   2  -8   3    3.73    0.94
   3  -4   8   14.85    1.21
  -1  -7   2    1.20    1.18
   0  -8   2  168.78    2.61
   0  -7   4   82.93    1.99
   0  -6   5    3.96    1.33
   1  -6   6    5.64    0.94
   2  -7   5    8.31    1.03
  -1  -6   3  508.85    4.43
   0  -4   6    5.82    1.12
   2  -3   8  217.69    3.11
   3  -6   6   57.56    1.48
  -1  -7   1    0.31    1.11
   1  -4   7   38.25    1.63
   2  -6   6   42.55    1.59
   2  -2   8   18.70    1.45
  -4   0 -12  105.19    1.73
  -2  -3 -12   37.64    1.46
  -1  -2 -11  213.89    3.23
  -1   0 -11    1.13    1.30
   0  -2  -9    1.97    1.30
  -2  -2 -12    1.67    1.21
  -2  -1 -12   59.63    1.78
  -1  -1 -11   36.31    1.74
   0   1  -9  144.10    2.77
  -4  -5 -12   16.25    1.19
  -4   1 -11    3.29    0.84
  -2   1 -11   59.75    2.03
  -2   2 -10    5.66    1.31
   0   2  -8    2.30    1.17
  -3  -4 -12    1.35    1.16
  -2  -4 -11  331.77    3.64
   0  -1  -9  221.46    3.25
   0   0  -9 1300.20    7.51
  -3   1 -11   97.38    2.04
  -3   2 -10  131.91    2.25
  -1  -3 -10   15.72    1.43
  -3  -5 -11   56.44    1.66
  -3  -1 -12   35.67    1.51
  -1   2  -9   14.09    1.52
  -2   0 -11   72.37    2.17
  -4  -1 -12   95.35    1.84
  -3  -2 -12   43.76    1.66
  -2  -3 -11   62.22    2.21
  -1   0 -10   11.20    1.24
  -4  -4 -12   35.67    1.35
  -1  -1 -10    0.80    1.09
  -5  -4 -12   -0.28    1.15
  -5  -2 -12   44.68    1.40
  -2  -2 -11   59.43    2.10
  -2  -1 -11   10.39    1.14
  -1  -3  -9   18.01    1.48
  -4  -3 -12    8.90    1.22
  -4  -2 -12   -0.10    0.98
  -3   0 -11   24.80    1.48
  -2  -4 -10    5.16    1.31
  -2   1 -10   10.83    1.27
  -2   2  -9   18.75    1.41
  -5  -3 -12    5.97    1.16
  -4   0 -11  199.47    2.75
  -3  -4 -11    3.41    1.16
  -1   2  -8   43.49    1.83
  -4  -5 -11   39.82    1.52
  -4   1 -10   74.17    1.89
  -3  -5 -10    2.77    1.03
  -3   1 -10  106.80    2.34
  -3   2  -9   78.88    1.99
  -1   0  -9   86.85    2.31
  -3  -1 -11   24.17    1.53
  -2  -3 -10   69.10    2.17
  -2   0 -10   17.81    1.58
  -1  -1  -9   16.50    1.47
  -5  -1 -11   33.41    1.34
  -3  -2 -11   73.22    2.28
  -5  -5 -11   22.41    1.26
  -4  -1 -11   87.75    2.13
  -2  -4  -9   18.59    1.56
  -2  -2 -10    0.31    1.33
  -2  -1 -10    3.67    1.29
  -4  -4 -11   95.20    2.29
  -2   1  -9   40.06    1.89
  -6  -3 -11    2.54    1.16
  -2   2  -8   18.44    1.49
  -5  -4 -11   -0.25    1.10
  -5  -2 -11   49.35    1.52
  -5   0 -10    0.36    0.99
  -5   1  -9   32.08    1.29
  -4  -3 -11   49.53    1.85
  -4  -2 -11   11.56    1.31
  -3  -4 -10    0.44    1.35
  -3   0 -10    9.53    1.13
  -4  -5 -10    2.02    1.16
  -5  -3 -11   66.15    1.71
  -3   1  -9  130.47    2.62
  -3   2  -8   32.06    1.54
  -2  -3  -9   17.96    1.50
  -2   0  -9  360.85    4.18
  -6   0  -9  117.38    2.01
  -4   1  -9   61.45    1.84
  -3  -1 -10   42.36    1.93
  -3  -2 -10  227.52    3.52
  -2  -2  -9   10.21    1.32
  -2  -1  -9   48.23    1.81
  -2   1  -8  123.20    2.64
  -6  -5 -10   35.25    1.43
  -5  -5 -10   86.29    2.05
  -5  -1 -10   27.71    1.54
  -4  -4 -10  530.53    4.91
  -4  -1 -10   43.37    1.96
  -2   2  -7   -0.48    1.25
  -6  -2 -10   15.89    1.18
  -3  -4  -9   -0.06    1.29
  -3   0  -9   17.38    1.64
  -4  -3 -10  146.23    2.84
  -4  -2 -10   12.97    1.45
  -7  -2  -9   26.92    1.15
  -6  -3 -10    3.26    1.11
  -5  -4 -10   13.21    1.48
  -5  -2 -10   36.61    1.65
  -5   0  -9    5.00    1.44
  -4  -5  -9    7.33    1.26
  -5  -3 -10    7.11    1.38
  -5   1  -8  207.44    2.89
  -3  -3  -9   21.18    1.59
  -3  -1  -9   13.86    1.56
  -3   1  -8  205.04    3.29
  -3   2  -7   57.09    1.97
  -7  -5  -9   56.51    1.71
  -6   1  -7    1.82    0.99
  -3  -2  -9  170.24    3.05
  -7  -1  -8   25.73    1.15
  -4   1  -8   71.47    2.17
  -7  -4  -9   11.64    1.26
  -7  -3  -9    2.82    0.95
  -6   0  -8  394.31    3.80
  -7  -6  -8   30.60    1.28
  -5  -5  -9   15.26    1.37
  -4  -4  -9   67.77    2.19
  -4  -1  -9    7.30    1.52
  -3  -4  -8   10.14    1.30
  -6  -5  -9   -0.22    1.12
  -5  -1  -9   12.91    1.24
  -6  -2  -9   -0.27    1.07
  -4  -3  -9  186.22    3.21
  -4  -2  -9    0.96    1.37
  -6  -6  -8    0.40    0.98
  -5  -4  -9   18.08    1.64
  -4  -5  -8   39.09    1.71
  -7  -2  -8   59.53    1.63
  -6  -3  -9   54.82    1.84
  -5  -2  -9   94.80    2.24
  -5   0  -8   23.56    1.68
  -5   1  -7  162.00    2.74
  -4   0  -8  329.72    4.18
  -3  -1  -8   24.87    1.54
  -3   1  -7  262.77    3.43
  -5  -3  -9   75.79    2.14
  -3  -2  -8  202.94    3.02
  -7  -5  -8   57.47    1.63
  -7   0  -6   12.56    1.08
  -6  -1  -8    8.72    1.37
  -6   1  -6    6.64    1.25
  -4   1  -7    1.14    1.51
  -8  -4  -7   10.52    0.97
  -7  -3  -8   41.40    1.48
  -7  -1  -7    8.73    1.08
  -7  -4  -8   60.78    1.75
  -6   0  -7   56.66    1.88
  -5  -5  -8    4.64    1.27
  -4  -4  -8  110.58    2.45
  -4  -1  -8   20.57    1.78
  -7  -6  -7   27.94    1.39
  -6  -5  -8    1.71    1.11
  -5  -1  -8    1.64    1.39
  -6  -2  -8    6.94    1.30
  -4  -2  -8   -1.63    1.31
  -6  -6  -7   -0.02    1.02
  -5  -4  -8   -0.24    1.33
  -7  -2  -7   35.65    1.61
  -6  -3  -8  117.18    2.52
  -5  -2  -8   75.19    2.08
  -5   0  -7   27.52    1.76
  -4   0  -7  151.95    2.94
  -8  -5  -6   28.31    1.40
  -8  -3  -6   35.27    1.27
  -5  -3  -8    8.97    1.22
  -5   1  -6   92.58    2.25
  -7  -5  -7   19.92    1.40
  -7   0  -5   16.41    1.34
  -6  -1  -7   26.97    1.77
  -4   1  -6   74.55    2.08
  -8  -6  -5   12.03    1.29
  -8  -4  -6   12.32    1.30
  -7  -3  -7    1.72    1.11
  -7  -1  -6    9.70    1.17
  -6   1  -5    8.88    1.19
  -8  -2  -5   14.01    0.96
  -7  -6  -6    9.97    1.18
  -7  -4  -7   16.50    1.28
  -6   0  -6   48.87    1.79
  -5  -5  -7   14.78    1.51
  -4  -4  -7   45.16    1.78
  -4  -1  -7   11.20    1.40
  -6  -5  -7   27.00    1.57
  -5  -1  -7    4.93    1.40
  -6  -2  -7   20.08    1.59
  -4  -2  -7   12.45    1.32
  -6  -6  -6  156.80    2.58
  -5  -4  -7    7.80    1.42
  -8  -5  -5    2.54    0.93
  -8  -3  -5   43.48    1.41
  -7  -2  -6   42.75    1.80
  -6  -3  -7  168.95    2.99
  -5  -2  -7  110.45    2.40
  -5   0  -6   16.18    1.59
  -8  -6  -4   62.37    1.86
  -7  -5  -6    4.12    1.32
  -5  -3  -7   13.14    1.30
  -5   1  -5   76.34    2.21
  -4   0  -6  120.74    2.38
  -8  -4  -5   29.32    1.27
  -8  -1  -3   32.59    1.18
  -7   0  -4    2.24    1.15
  -6  -1  -6    4.68    1.39
  -6   1  -4   15.37    1.39
  -8  -2  -4   10.78    1.15
  -7  -6  -5  499.61    4.13
  -7  -4  -6   25.63    1.62
  -7  -3  -6    4.76    0.97
  -6   0  -5   75.39    2.21
  -4   1  -5   90.34    2.24
  -6  -5  -6    8.31    1.37
  -5  -5  -6  108.68    2.29
  -8  -5  -7   -0.30    0.75
  -8  -3  -6   28.94    1.10
  -7  -4  -8   63.99    1.64
  -7  -6  -8   36.32    1.17
  -5  -2  -8   75.83    2.20
  -7  -5  -8   53.77    1.50
  -6  -3  -8  117.20    2.43
  -8  -2  -4    9.46    0.83
  -7  -1  -5    4.35    1.00
  -6   0  -5   67.03    1.93
  -5  -1  -7    1.88    1.33
  -4   1  -5   83.74    1.89
  -7  -3  -7    3.90    1.10
  -4  -3  -8  113.95    2.29
  -4  -1  -7   10.37    1.34
  -8  -4  -6   12.35    1.00
  -7  -2  -6   42.11    1.67
  -6  -6  -8    0.99    0.86
  -6  -2  -7   20.00    1.45
  -5   1  -4   29.33    1.50
  -4  -4  -8  104.71    2.22
  -4   0  -6  111.85    2.23
  -8  -3  -5   43.95    1.31
  -7  -7  -7    1.42    0.70
  -6  -5  -8    0.11    0.96
  -6  -1  -6    3.80    1.07
  -5  -5  -8    2.56    1.09
  -5  -4  -8   -1.26    1.22
  -8  -5  -6   28.21    1.27
  -8  -2  -3    8.66    0.79
  -7  -4  -7   16.67    1.36
  -7  -1  -4   71.84    1.88
  -6   0  -4   33.24    1.61
  -5  -2  -7  104.18    2.49
  -5   0  -5    5.27    1.31
  -4  -2  -7   14.94    1.20
  -7  -6  -7   33.08    1.35
  -6  -3  -7  174.51    3.04
  -5  -1  -6  115.15    2.52
  -5   1  -3   41.99    1.62
  -8  -4  -5   28.76    1.23
  -8  -2  -2   -0.06    0.74
  -7  -3  -6    6.54    1.12
  -6  -2  -6   12.01    1.56
  -7  -1  -3   12.90    1.22
  -5  -3  -7   12.22    1.58
  -8  -5  -5    2.07    0.89
  -8  -2  -1   -0.13    0.56
  -6  -6  -7    0.22    1.16
  -6   0  -3   51.98    1.81
  -8  -6  -5   24.14    1.22
  -7  -7  -6    6.26    0.86
  -7  -4  -6   23.22    1.41
  -6  -5  -7   29.06    1.54
  -4  -4  -7   45.40    1.42
  -8  -3  -3    7.13    0.98
  -5  -5  -7   14.92    1.40
  -5  -4  -7   10.52    1.42
  -5  -2  -6  136.25    2.64
  -5   0  -4    1.16    0.90
  -8  -4  -4   20.67    1.17
  -7  -5  -6    4.84    1.11
  -7  -3  -5    2.11    1.29
  -5  -1  -5  323.69    3.72
  -7  -6  -6    7.68    1.22
  -7  -1  -2   21.28    1.30
  -6  -3  -6   73.55    2.04
  -6  -1  -4   65.70    2.15
  -8  -7  -4   12.68    1.00
  -6  -2  -5    0.99    1.43
  -6   0  -2   61.20    1.77
  -8  -5  -4    7.16    0.86
  -8  -3  -2    9.07    0.91
  -8  -6  -4   88.61    1.78
  -7  -1  -1  121.82    2.24
  -6  -4  -6  104.49    2.49
  -5  -3  -6    3.10    1.21
  -8  -4  -3    7.30    1.05
  -7  -4  -5    3.96    0.94
  -7  -2  -3   18.53    1.59
  -5   0  -3    3.38    1.15
  -8  -3  -1   16.34    1.03
  -7  -7  -5   13.11    1.15
  -7  -3  -4    2.04    1.32
  -6  -6  -6  176.63    2.75
  -6  -5  -6    6.84    1.37
  -7  -5  -5   63.73    1.92
  -6  -1  -3   21.66    1.50
  -5  -6  -6  753.06    5.26
  -5  -4  -6   22.24    1.41
  -5  -2  -5  247.95    3.21
  -8  -5  -3    0.98    0.77
  -8  -3   0   23.73    1.01
  -7  -8  -4    2.48    0.80
  -7  -6  -5  508.59    4.33
  -6  -3  -5   27.60    1.43
  -8  -6  -3    1.88    0.83
  -8  -4  -2   22.42    1.26
  -8  -3   1   24.30    0.96
  -6  -2  -4    0.82    1.00
  -5  -5  -6  108.41    2.17
  -7  -2  -2   57.70    1.83
  -7  -4  -4    1.41    0.89
  -6  -7  -5    8.83    1.10
  -6  -4  -5   45.58    1.89
  -8  -7  -2    5.57    0.92
  -8  -5  -2    0.37    0.84
  -7  -3  -3    7.27    1.07
  -6  -1  -2    9.98    1.41
  -5  -3  -5   -0.03    1.05
  -8  -6  -2    3.38    0.84
  -7  -7  -4    0.10    1.01
  -7  -5  -4   22.91    1.51
  -8  -4   0    2.03    0.76
  -7  -8  -3   16.27    0.93
  -7  -2  -1   74.20    1.93
  -6  -6  -5  112.53    2.33
  -6  -5  -5   12.69    1.27
  -6  -3  -4    4.02    1.39
  -8  -7  -1   15.81    0.96
  -8  -5  -1    1.53    0.82
  -8  -4   1   57.88    1.40
  -7  -4  -3    6.11    1.18
  -5  -4  -5    0.96    1.08
  -8  -6  -1   19.35    0.96
  -7  -2   0   37.14    1.50
  -6  -1  -1   16.39    1.29
  -5  -6  -5   78.06    1.97
  -5  -5  -5   62.82    1.80
  -8  -5   0    0.95    0.78
  -6  -4  -4   33.08    1.71
  -8  -6   0    5.09    0.73
  -8  -5   2   -0.92    0.46
  -7  -8  -2   12.05    0.93
  -7  -7  -3   10.18    1.11
  -7  -5  -3    9.10    1.19
  -6  -7  -4   14.20    1.19
  -8  -6   1   10.64    0.82
  -7  -6  -3    3.31    1.11
  -7  -2   1   31.87    1.38
  -6  -2  -2    0.52    1.28
  -7  -4  -2    3.97    1.28
  -7  -3  -1   10.09    1.37
  -7  -2   2   15.97    1.11
  -6  -6  -4    8.06    1.23
  -6  -3  -3    7.98    1.15
  -6  -1   0    9.53    1.17
  -7  -8  -1   11.23    0.97
  -7  -7  -2    4.64    1.11
  -7  -5  -2    6.14    1.11
  -7  -3   0    3.82    1.10
  -7  -6  -2   29.78    1.45
  -7  -4  -1    4.10    1.22
  -6  -4  -3   56.10    1.95
  -6  -1   1    8.46    1.22
  -5  -6  -4   20.18    1.20
  -7  -8   0    6.73    0.97
  -6  -7  -3   25.90    1.46
  -6  -2  -1   21.28    1.42
  -5  -5  -4   80.28    1.98
  -7  -3   1    2.11    1.02
  -6  -5  -3    7.41    1.27
  -6  -3  -2   33.69    1.49
  -7  -8   1   15.37    0.96
  -7  -5  -1   20.51    1.32
  -6  -6  -3    3.45    1.23
  -7  -6  -1    5.69    1.18
  -7  -4   0   87.43    2.08
  -7  -3   2    4.14    0.92
  -7  -3   4    2.82    0.76
  -7  -3   3    1.53    0.94
  -6  -2   0    0.97    1.11
  -7  -7   0   -0.71    0.88
  -7  -4   5    1.11    0.53
  -6  -4  -2   58.73    1.80
  -5  -7  -3   -0.42    1.03
  -7  -5   0  168.03    2.57
  -6  -8  -1   -0.76    0.98
  -6  -7  -2   30.42    1.44
  -6  -3  -1  131.33    2.51
  -7  -7   1   -1.02    0.78
  -7  -6   0    4.70    0.77
  -6  -5  -2    0.74    1.14
  -7  -7   2   13.26    0.89
  -7  -7   3   25.82    1.11
  -7  -5   1   41.49    1.51
  -7  -4   2    3.53    1.06
  -7  -4   3    4.84    0.93
  -7  -4   4    2.20    0.85
  -6  -2   1   19.43    1.36
  -5  -6  -3   53.93    1.52
  -5  -5  -3   72.99    1.85
  -7  -6   1   29.71    1.26
  -7  -6   4  105.69    1.65
  -7  -5   2   16.38    1.12
  -6  -4  -1    3.95    1.21
  -7  -6   2   17.13    0.90
  -7  -6   3    9.64    0.89
  -7  -5   3   24.91    1.14
  -6  -8   0    9.92    1.15
  -6  -7  -1   27.93    1.41
  -6  -2   2    8.86    1.10
  -6  -5  -1    2.80    1.17
  -5  -7  -2    1.86    0.95
  -6  -8   1   17.74    1.08
  -6  -6  -1    4.82    1.11
  -6  -2   3   57.91    1.65
  -6  -2   4   24.10    1.24
  -6  -3   1   56.07    1.69
  -6  -3  -8  120.84    2.68
  -5   0  -6   13.64    1.40
  -5  -6  -8   39.65    1.76
  -5  -1  -7    4.79    1.23
  -4  -5  -8   47.18    1.80
  -4  -3  -8  119.16    2.56
  -7  -8  -6   13.43    1.01
  -7  -7  -7    3.15    1.03
  -6  -6  -8   -0.72    1.26
  -5  -3  -8    9.15    1.44
  -4  -1  -7   10.51    1.24
  -7  -2  -6   44.73    1.70
  -6  -5  -8    1.18    1.22
  -6  -4  -8   48.83    1.82
  -6  -2  -7   19.31    1.68
  -8  -3  -5   38.26    1.37
  -6  -1  -6    4.58    1.23
  -5  -4  -8   -1.34    1.31
  -8  -6  -6   12.45    1.19
  -8  -5  -6   25.61    1.11
  -7  -4  -7   18.13    1.37
  -6  -7  -7   38.10    1.41
  -4  -6  -7  163.15    2.72
  -7  -6  -7   32.41    1.43
  -7  -5  -7   19.67    1.23
  -5  -2  -7  106.92    2.37
  -4  -2  -7   12.88    1.09
  -8  -7  -5   98.23    1.78
  -6  -3  -7  166.92    3.00
  -5   0  -5    4.20    1.30
  -7  -8  -5   62.60    1.47
  -6  -6  -7    1.23    1.12
  -5  -6  -7   20.74    1.47
  -5  -1  -6  110.09    2.45
  -4  -5  -7    1.03    1.13
  -4  -3  -7    1.71    1.10
  -8  -4  -5   25.51    1.25
  -7  -7  -6    5.26    0.97
  -7  -2  -5   27.14    1.33
  -6  -4  -7   85.56    2.22
  -5  -3  -7   15.18    1.45
  -8  -3  -4   25.51    1.21
  -6  -5  -7   31.05    1.65
  -6  -2  -6    9.59    1.52
  -6  -1  -5   26.87    1.54
  -8  -6  -5   24.24    1.13
  -8  -5  -5    3.86    0.86
  -5  -5  -7   16.57    1.62
  -5  -4  -7    7.80    1.39
  -7  -6  -6    8.97    1.06
  -7  -4  -6   23.46    1.47
  -6  -7  -6  463.20    4.02
  -4  -6  -6    1.34    0.94
  -8  -7  -4   12.19    0.99
  -7  -5  -6    3.67    1.08
  -7  -8  -4    1.86    0.83
  -6  -3  -6   69.09    2.18
  -5  -2  -6  129.88    2.42
  -8  -4  -4   20.43    1.20
  -7  -7  -5   15.24    1.10
  -5   0  -4    1.28    0.94
  -8  -6  -4   87.87    1.69
  -8  -3  -3    7.28    0.95
  -7  -2  -4  125.52    2.31
  -6  -6  -6  178.94    2.85
  -5  -6  -6  797.26    5.59
  -5  -1  -5  324.30    3.62
  -8  -5  -4    6.05    0.92
  -6  -5  -6    4.69    1.30
  -6  -4  -6  102.50    2.34
  -6  -2  -5    1.36    1.31
  -5  -3  -6    3.16    1.13
  -7  -4  -5    3.88    1.16
  -6  -1  -4   59.55    1.89
  -7  -8  -3   12.77    1.09
  -7  -6  -5  501.90    4.22
  -6  -7  -5    8.43    1.10
  -5  -5  -6  104.01    2.13
  -5  -4  -6   22.26    1.54
  -7  -5  -5   63.02    1.83
  -8  -6  -3    1.74    0.79
  -8  -3  -2    8.81    0.98
  -7  -7  -4    0.31    0.93
  -8  -5  -3    0.73    0.85
  -6  -3  -5   30.00    1.70
  -7  -2  -3   16.69    1.29
  -6  -6  -5  106.77    2.31
  -7  -8  -2   11.38    0.91
  -6  -4  -5   45.42    1.72
  -5  -6  -5   74.83    1.96
  -8  -3  -1   16.13    0.98
  -7  -6  -4    8.16    1.12
  -7  -4  -4    1.12    1.23
  -6  -7  -4   11.83    1.12
  -6  -5  -5   12.81    1.17
  -6  -2  -4    0.30    1.26
  -6  -1  -3   19.49    1.44
  -5  -3  -5    1.27    1.02
  -8  -6  -2    3.32    0.80
  -7  -5  -4   22.17    1.35
  -8  -5  -2   -1.08    0.85
  -7  -8  -1    9.47    0.89
  -7  -7  -3   10.13    1.15
  -5  -5  -5   62.28    1.68
  -5  -4  -5   -1.03    1.02
  -8  -6  -1   21.45    0.98
  -8  -3   0   22.15    0.99
  -7  -2  -2   61.46    1.80
  -6  -3  -4    0.34    1.42
  -7  -6  -3    4.98    1.07
  -6  -6  -4    8.51    1.26
  -8  -5  -1    0.84    0.80
  -8  -3   1   26.84    1.00
  -7  -4  -3    6.13    1.25
  -6  -4  -4   28.56    1.48
  -8  -6   0    4.25    0.83
  -7  -7  -2    4.91    1.08
  -7  -5  -3    7.88    1.13
  -6  -7  -3   25.98    1.30
  -6  -5  -4    0.70    0.93
  -6  -2  -3    4.26    1.17
  -6  -1  -2   10.09    1.25
  -5  -6  -4   20.19    1.15
  -8  -6   1   10.81    0.92
  -8  -5   0    1.47    0.76
  -7  -2  -1   77.15    2.00
  -5  -5  -4   76.38    1.90
  -8  -5   1    0.84    0.66
  -7  -7  -1    0.03    0.98
  -7  -6  -2   27.08    1.23
  -7  -4  -2    3.31    1.24
  -6  -6  -3    2.75    1.18
  -6  -3  -3    7.76    1.35
  -8  -5   2   -0.32    0.66
  -7  -5  -2    4.97    1.05
  -6  -7  -2   28.24    1.34
  -6  -5  -3    5.93    1.23
  -6  -4  -3   55.03    1.83
  -7  -7   0   -0.44    0.89
  -7  -2   0   34.93    1.49
  -6  -2  -2    2.12    1.26
  -6  -1  -1   13.82    1.31
  -5  -6  -3   53.31    1.64
  -7  -6  -1    5.72    1.09
  -7  -7   1   -0.18    0.74
  -7  -4  -1    6.03    1.24
  -7  -7   2   12.42    1.04
  -7  -5  -1   22.42    1.33
  -6  -7  -1   27.54    1.37
  -6  -6  -2   10.71    1.31
  -5  -5  -3   77.35    1.91
  -7  -2   1   33.06    1.38
  -6  -3  -2   35.84    1.46
  -7  -6   0    4.59    1.05
  -6  -5  -2   -0.15    1.17
  -6  -4  -2   57.79    1.91
  -6  -2  -1   27.54    1.64
  -6  -1   0   11.61    1.19
  -7  -6   1   28.83    1.32
  -7  -5   0  163.45    2.61
  -7  -4   0   82.33    1.92
  -7  -2   2   17.91    1.08
  -6  -7   0   45.07    1.54
  -5  -6  -2   30.56    1.44
  -7  -3   1    3.08    1.20
  -6  -6  -1    1.57    1.21
  -2  -5 -11    1.68    1.30
  -1  -8  -7    9.68    1.53
  -1  -5 -10   98.95    2.81
  -1  -4 -10   -0.57    1.35
  -2  -9  -7    5.42    1.22
   0  -5  -8   59.31    2.29
  -4  -8 -11   10.46    1.01
  -1  -8  -6   13.06    1.53
  -4 -10  -8    6.19    1.13
  -4  -9 -10    0.98    1.36
  -3  -7 -11   15.86    1.45
  -2  -9  -6    0.53    1.31
  -2  -8  -9   39.94    1.83
  -2  -7 -10   87.82    2.38
   0  -4  -8  148.75    2.89
  -1  -7  -8   11.20    1.65
  -1  -6  -9  180.44    3.45
   0  -6  -6   86.61    2.55
  -3  -8 -10   18.03    1.39
  -3  -6 -11   31.46    1.90
   0  -5  -7   31.13    1.75
  -3  -5 -11   57.03    2.02
  -1  -5  -9  135.65    3.15
  -1  -3  -9   18.99    1.71
  -4 -10  -7   31.52    1.47
  -2  -6 -10   18.87    1.52
  -1  -4  -9   -0.65    1.50
  -5  -7 -11    3.41    1.13
  -3  -9  -8   44.62    1.88
  -2  -5 -10   22.88    1.93
  -2  -4 -10    2.04    1.73
  -1  -7  -7    7.01    1.68
  -5  -6 -11   10.90    1.31
  -4  -6 -11    2.20    1.48
  -4  -5 -11   37.17    1.53
  -2  -7  -9  165.49    3.26
  -1  -6  -8  261.92    4.12
  -4  -9  -9    5.96    1.22
  -3  -7 -10    0.75    1.36
  -4  -8 -10   56.56    1.82
  -3  -8  -9    3.00    1.52
  -2  -8  -7    4.83    1.50
  -1  -7  -6   36.06    2.02
  -3  -9  -7   48.67    1.92
  -1  -5  -8   70.57    2.49
  -5  -8 -10   -1.58    1.02
  -2  -6  -9   -0.19    1.60
  -1  -7  -5   49.36    2.09
  -3  -4 -10    0.05    1.53
  -2  -7  -8  208.09    3.67
  -2  -3  -9   16.76    1.47
  -1  -6  -7  342.80    4.37
  -4  -7 -10   12.99    1.41
  -3  -9  -6   44.26    1.91
  -3  -5 -10    3.63    1.38
  -2  -8  -6    3.71    1.59
  -3  -8  -8    2.32    1.44
  -2  -5  -9   41.58    1.93
  -2  -4  -9   17.76    1.76
  -6  -7 -10    1.34    0.96
  -4  -8  -9  112.14    2.55
  -3  -9  -5   92.41    2.35
  -3  -7  -9   23.42    1.77
  -2  -8  -5   43.35    2.03
  -4  -6 -10   19.25    1.68
  -1  -6  -6  106.51    2.47
  -4  -5 -10    1.88    1.50
  -2  -6  -8   38.40    2.03
  -5  -9  -8    7.92    1.20
  -5  -6 -10   37.47    1.91
  -5  -5 -10   84.73    2.23
  -4  -9  -7    3.41    1.46
  -6  -9  -8    1.13    1.24
  -6  -8  -9   15.32    1.19
  -5  -8  -9   28.21    1.61
  -3  -6  -9   78.30    2.60
  -2  -5  -8    8.09    1.63
  -4  -9  -6   -0.32    1.29
  -4  -8  -8   69.20    2.37
  -4  -7  -9   74.55    2.45
  -3  -7  -8   32.43    2.04
  -3  -5  -9   32.55    2.13
  -3  -4  -9    1.11    1.43
  -2  -7  -6   79.66    2.47
  -7  -8  -8    1.78    0.96
  -3  -8  -6   14.19    1.64
  -2  -6  -7   43.06    1.83
  -6  -9  -7    0.66    1.07
  -5  -7  -9    1.47    1.44
  -4  -9  -5    1.45    1.31
  -5  -8  -8   49.18    1.84
  -2  -7  -5   87.85    2.34
  -4  -9  -4    8.95    1.29
  -4  -8  -7   56.10    2.24
  -4  -5  -9    7.24    1.58
  -4  -4  -9   68.69    2.31
  -3  -8  -5    8.94    1.54
  -3  -7  -7   20.76    1.85
  -3  -6  -8  145.20    3.06
  -6  -8  -8   48.59    1.59
  -6  -6  -9    5.50    1.35
  -6  -5  -9    0.72    1.25
  -5  -9  -6   24.56    1.75
  -5  -6  -9   59.52    2.20
  -4  -7  -8  215.51    3.69
  -5  -5  -9   12.48    1.65
  -7  -7  -8    0.73    0.81
  -3  -8  -4  140.90    3.02
  -7  -8  -7   73.86    1.87
  -5  -9  -5   20.62    1.64
  -3  -4  -8   12.33    1.68
  -7  -9  -5   15.82    1.27
  -7  -6  -8   30.21    1.41
  -7  -5  -8   30.52    1.69
  -5  -8  -7    1.96    1.47
  -5  -7  -8    3.70    1.64
  -6  -7  -8    6.51    1.24
  -5  -9  -4   20.52    1.53
  -4  -6  -8    6.76    1.40
  -3  -6  -7  753.65    6.45
  -6  -9  -5    0.95    1.14
  -6  -8  -7   22.61    1.46
  -4  -7  -7  604.21    5.93
  -7  -9  -4   15.86    1.37
  -4  -5  -8   41.82    2.18
  -6  -9  -4   13.54    1.22
  -6  -6  -8   -0.01    1.49
  -4  -8  -5    4.71    1.40
  -4  -4  -8  105.90    2.64
  -7  -8  -6   16.13    1.25
  -7  -7  -7    1.57    1.12
  -5  -8  -6   31.81    1.82
  -3  -7  -5   11.34    1.39
  -6  -9  -3    0.62    1.04
  -6  -5  -8    2.31    1.26
  -5  -7  -7   28.34    1.82
  -5  -5  -8    5.26    1.39
  -5  -4  -8    0.67    1.37
  -6  -8  -6   30.99    1.71
  -4  -8  -4   28.07    1.91
  -4  -6  -7  165.47    3.32
  -3  -6  -6  184.63    3.12
  -8  -6  -6   10.71    0.95
  -6  -7  -7   38.10    1.63
  -4  -7  -6   50.85    1.98
  -3  -7  -4    8.76    1.53
  -7  -6  -7   30.49    1.60
  -4  -8  -3   79.45    2.23
  -8  -7  -5  131.89    2.12
  -7  -8  -5   74.79    1.93
  -7  -5  -7   12.94    1.61
  -6  -8  -5   43.12    1.82
  -5  -6  -7   19.52    1.80
  -7  -7  -6    2.87    0.95
  -5  -7  -6   10.22    1.54
  -6  -7  -6  456.69    4.76
  -5  -8  -4   11.58    1.53
  -4  -4  -7   47.83    1.98
  -7  -8  -4    1.43    1.10
  -6  -5  -7   25.78    1.75
  -5  -5  -7   13.54    1.76
  -4  -6  -6    0.46    1.10
  -8  -7  -4   12.68    1.04
  -6  -4  -7   77.64    2.35
  -5  -8  -3   71.97    2.19
  -4  -9   0    0.06    1.08
  -2  -9   4   -1.63    0.91
  -4  -9  -2    1.03    0.91
  -4  -9  -1    5.45    1.22
  -4  -6   1   65.50    1.91
  -3 -10   1   64.93    1.54
  -3  -7   4    5.59    1.31
  -3  -5   4  205.49    3.01
  -3  -6   4  251.46    3.50
  -1  -7   6    0.95    1.00
  -4  -8   0   33.23    1.73
  -2 -10   2   15.55    0.96
  -4  -8  -2    4.21    1.14
  -4  -8  -1   31.08    1.56
  -4  -7   0  102.82    2.36
  -3 -10   0    5.91    1.05
  -3  -9   2   30.19    1.55
  -3  -8   3   10.99    1.31
  -2  -7   5   58.20    2.02
  -4  -7  -1  179.46    2.75
  -1  -8   5    1.84    0.92
   0  -7   6   40.07    1.55
  -3 -10  -1   43.23    1.51
  -2  -6   5  108.83    2.58
  -2  -5   5    1.06    1.38
  -1  -6   6   18.36    1.34
  -3 -10  -2   14.30    1.06
  -3  -7   3    0.85    0.92
  -3  -6   3   93.91    2.27
  -2  -9   3    4.24    1.05
  -2  -8   4   65.81    1.77
  -1 -10   2    5.93    0.90
  -1  -5   6   49.85    1.79
   0  -8   5   22.68    1.18
  -3  -9   1   17.77    1.38
  -2 -10   1   32.37    1.25
  -3  -8   2    0.28    1.00
  -3  -9   0   14.29    1.37
  -3  -7   2    5.23    1.43
  -3  -6   2  140.66    2.59
  -2  -7   4  175.14    2.84
  -1  -7   5    1.29    1.16
   0  -6   6    6.13    1.20
  -3  -8   1    9.74    1.37
  -2 -10   0   56.37    1.57
  -2  -9   2   12.02    1.26
  -1  -9   3   78.42    1.82
  -3  -9  -1   88.10    2.15
  -2  -8   3   64.16    1.87
  -2  -6   4  132.05    2.52
  -1 -10   1    0.54    0.94
  -3  -9  -2  136.29    2.54
  -1  -6   5   89.20    2.29
  -3  -8   0   31.25    1.81
  -3  -7   1    0.73    0.91
  -2 -10  -1  112.14    2.10
  -2 -10  -3    2.92    0.94
  -2 -10  -2   19.88    1.26
  -2  -9   1    2.72    1.22
  -2  -7   3  246.71    3.55
  -1  -5   5   49.76    1.90
   0  -7   5   85.63    2.04
  -3  -8  -1  142.88    2.69
  -1 -10   0   59.42    1.50
   0  -8   4    7.85    1.28
   1  -8   4    0.68    0.86
   1  -7   5    3.62    1.21
  -3  -8  -2    3.45    1.21
  -3  -7   0   -0.47    0.99
  -2  -8   2    4.32    1.23
  -2  -6   3   38.69    1.66
  -1  -9   2   13.19    1.20
  -1  -8   3   64.06    2.01
   0 -10   0    5.22    1.04
  -3  -7  -1   12.90    1.12
  -2  -9   0    0.34    1.23
  -1 -10  -4    3.93    0.92
   0  -9   2   11.55    1.07
   0  -6   5    4.80    1.24
  -2  -8   1   15.42    1.64
  -2  -7   2  609.02    5.11
  -1 -10  -2   35.85    1.36
  -1  -6   4   66.57    2.07
  -2  -9  -1   -0.59    1.30
  -1 -10  -3   36.14    1.30
  -1  -9   1   55.31    1.72
   0 -10  -1    4.28    1.05
   2  -8   3    1.42    0.86
  -2  -9  -2    1.09    1.07
   0  -7   4   85.34    2.26
   0  -5   5    0.01    1.28
  -2  -9  -3    0.49    1.10
  -1  -8   2   57.45    2.14
  -1  -7   3    0.25    1.33
   0 -10  -2   42.90    1.42
   1  -6   5    8.43    1.25
  -2  -8   0   32.13    1.75
  -2  -7   1   95.35    2.32
   0 -10  -3   14.18    1.25
   1  -8   3   11.53    1.25
   2  -7   4   19.10    1.19
  -1  -9   0   48.41    1.84
   0  -9   1    8.71    1.09
   1  -9   1    7.16    0.94
   1  -7   4    0.60    0.97
  -2  -8  -1   72.89    2.21
  -1  -6   3  513.98    4.59
   0  -6   4   40.94    1.85
  -2  -8  -2  109.00    2.43
  -1  -8   1   21.17    1.48
  -1  -7   2    0.80    1.28
   0  -8   2  163.98    2.85
   1  -5   5   91.35    2.25
  -2  -8  -3    6.92    1.13
   0  -9   0    3.18    1.01
   2  -8   2   18.93    1.13
   3  -7   3    1.00    0.87
  -1  -9  -2   29.64    1.57
   1  -9   0   24.52    1.15
  -1  -9  -4   41.02    1.56
  -1  -9  -3  151.34    2.53
   1  -8   2    6.81    0.94
   2  -9  -1    5.13    0.92
  -1  -8   0    2.59    1.28
   0  -9  -1    9.75    1.19
   1  -6   4   69.71    2.10
   0  -8   1    9.68    1.28
   2  -6   4    0.37    1.36
   0  -6   3  208.30    3.09
   1  -9  -1   43.19    1.45
   2  -4   5   25.62    1.71
   3  -4   5    4.14    1.54
   4  -7   1   -2.50    1.21
   0  -7   2  944.23    6.30
   2  -8   1  192.26    2.80
   3  -8   0   14.36    1.18
   4  -3   5   85.97    2.52
   1  -8   1   22.86    1.46
   1  -5   4  152.26    2.83
   3  -7   2    8.80    1.16
   3  -3   5   87.28    2.42
   4  -2   5    4.00    1.35
   5  -3   4   53.33    2.03
   2  -5   4    1.42    1.39
   3  -6   3   44.83    1.87
   3  -5   4   18.93    1.55
   5  -5   2    5.38    1.10
   0  -8   0    0.94    1.29
   1  -7   2   10.31    1.52
   2  -7   2   21.11    1.61
   4  -6   2   -0.05    1.07
   4  -4   4  129.85    3.01
   5  -4   3    1.24    1.26
   2  -6   3   -1.15    1.74
   4  -7   0  380.70    3.26
   5  -2   4  135.58    2.62
   2  -8   0   70.97    2.00
   4  -5   3   -0.10    1.05
   0  -7   1  315.64    3.84
   1  -8   0    2.66    1.32
   2  -4   4    7.36    1.45
   3  -7   1   17.35    1.46
   3  -4   4    1.36    1.61
   4  -3   4   51.69    2.21
   5  -6  -1   34.49    1.30
   6  -4   0    4.05    1.15
   1  -7   1   12.15    1.50
   3  -6   2   22.33    1.68
   3  -5   3   89.20    2.66
   4  -7  -1    2.84    0.98
   4  -6   1    7.42    1.36
   5  -5   1   18.96    1.37
   5  -3   3   65.37    2.20
   2  -8  -1   15.01    1.48
   2  -7   1  929.49    6.48
   2  -5   3   33.06    1.94
   3  -3   4   65.67    2.15
   4  -2   4   24.96    1.74
   5  -4   2    0.48    1.30
   6  -3   1    4.41    1.16
   1  -8  -1    3.03    1.27
   2  -6   2   47.69    2.10
   4  -5   2   23.26    1.74
   4  -4   3   35.13    2.06
   0  -7   0    5.86    1.29
   3  -8  -3    4.69    0.99
   3  -7   0   27.24    1.64
   5  -2   3  141.19    2.79
   4  -7  -2    3.84    1.02
   6  -4  -1    4.11    0.90
   3  -4   3   -0.07    1.42
   2  -8  -2    8.68    1.20
   3  -6   1  424.81    4.63
   4  -6   0    0.40    1.06
   4  -3   3  195.21    3.40
   1  -8  -2    0.98    1.37
   1  -7   0    6.74    1.37
   3  -5   2  107.45    2.74
   4  -7  -3   31.57    1.42
   5  -3   2    3.68    1.51
   6  -3   0   40.33    1.78
   1  -6   1    2.10    1.41
   3  -7  -1    9.43    1.30
   5  -4   1    4.18    1.31
   6  -4  -2   14.98    0.94
   2  -8  -3   12.10    1.48
   2  -6   1    2.59    1.43
   2  -5   2   13.65    1.53
   4  -7  -4   16.37    1.09
   4  -5   1   10.58    1.55
   0  -7  -1   28.86    1.54
   4  -6  -1    2.44    1.13
   5  -2   2   51.43    1.97
   1  -8  -3   74.34    2.07
   3  -7  -2    5.29    1.15
   3  -6   0   31.66    1.69
   1  -7  -1    5.23    1.48
   2  -8  -4   42.48    1.46
   3  -4   2   16.30    1.55
   6  -3  -1   25.90    1.34
   3  -5   1  106.15    2.59
   4  -3   2    5.36    1.55
   5  -5  -2   24.30    1.46
   5  -4   0    2.89    1.27
   5  -3   1    6.83    1.61
   1  -6   0   18.08    1.49
   2  -8  -5    7.77    0.97
   2  -6   0   -1.04    1.40
   4  -6  -2    0.64    1.03
   4  -5   0   12.70    1.61
   1  -8  -4   29.84    1.38
   2  -8  -6   15.40    0.99
   2  -5   1   18.60    1.43
   3  -7  -3   -1.13    1.11
   2  -7  -2   59.45    2.06
   6  -3  -2    5.17    0.98
   1  -8  -5   -0.78    1.12
   3  -6  -1    7.93    1.50
   5  -5  -3    0.01    0.99
   1  -7  -2    1.81    1.29
   3  -7  -4    2.52    1.09
   4  -6  -3    2.63    1.05
   5  -4  -1   -2.76    1.29
   5  -2   1   42.71    1.77
   6  -2  -1    0.96    1.03
   4  -5  -1    0.38    1.39
   5  -5  -4  102.94    1.94
   5  -3   0   23.69    1.74
   6  -3  -3   10.38    1.14
   3  -5   0  127.03    2.61
   3  -4   1    2.57    1.21
   1  -6  -1   44.99    1.82
   2  -7  -3    7.34    1.42
   2  -6  -1   12.51    1.26
   3  -7  -7   18.66    1.22
   4  -6  -4    2.20    0.99
   4  -4   0    2.25    1.54
   4  -3   1  162.05    3.09
   5  -5  -5    1.11    0.76
  -8  -4  -2   26.81    1.26
  -8  -3   0   24.99    1.23
  -6  -2  -4   -1.32    1.15
  -5   1   0    5.24    1.22
  -7  -2  -2   60.72    1.99
  -7  -1   1   19.86    1.30
  -7  -1   2    0.20    1.02
  -6   0   0   45.02    1.71
  -7  -4  -4    1.14    0.97
  -6  -4  -5   44.05    1.80
  -5   0  -2   23.36    1.37
  -5   1   1  111.70    2.24
  -8  -5  -2   -0.30    0.96
  -8  -4  -1   32.82    1.21
  -7  -3  -3    7.79    1.21
  -6  -1  -2   11.15    1.48
  -8  -6  -2    1.99    1.00
  -7  -2  -1   81.66    2.17
  -6   0   1  258.99    3.26
  -8  -4   0    0.06    0.87
  -7  -5  -4   22.37    1.38
  -6  -5  -5   14.00    1.25
  -6   0   2  189.67    2.81
  -8  -5  -1    1.52    0.84
  -8  -4   1   70.56    1.56
  -7  -6  -4    7.29    1.11
  -6  -2  -3    3.69    1.11
  -8  -7  -1    6.10    0.87
  -7  -4  -3    5.03    1.26
  -7  -3  -2    1.02    1.13
  -7  -2   0   35.67    1.59
  -7  -2   4    1.25    0.81
  -6  -1  -1   14.91    1.50
  -8  -6  -1   21.95    1.13
  -8  -5   0    1.43    0.71
  -8  -5   2    0.03    0.62
  -7  -2   1   33.21    1.52
  -7  -2   3    3.76    1.01
  -8  -6   0    3.78    0.97
  -8  -5   1    2.12    0.70
  -7  -2   2   18.82    1.26
  -6  -4  -4   29.86    1.62
  -8  -6   1   11.58    0.98
  -7  -5  -3    8.15    1.29
  -7  -3  -1    8.26    1.20
  -6  -2  -2    2.47    1.06
  -7  -7  -3    7.95    0.96
  -7  -6  -3    4.38    0.96
  -7  -4  -2    3.81    1.27
  -6  -3  -3    7.57    1.43
  -6  -5  -4    2.01    1.13
  -7  -8  -2    6.32    0.89
  -7  -3   0    4.00    1.20
  -6  -1   1   10.70    0.95
  -7  -3   4    1.85    0.84
  -6  -2  -1   22.30    1.57
  -6  -1   2   19.59    1.39
  -6  -1   4    1.83    0.95
  -7  -4  -1    4.70    1.14
  -7  -4   5   -0.44    0.61
  -7  -3   1    1.01    1.16
  -6  -1   3    4.22    1.03
  -7  -7  -2    3.44    1.04
  -7  -3   3    1.82    0.98
  -6  -4  -3   57.45    1.97
  -6  -3  -2   37.28    1.73
  -5   0   2    1.80    1.03
  -7  -6  -2   27.44    1.32
  -7  -8  -1   10.31    0.78
  -7  -4   0   78.63    1.97
  -6  -2   0   -0.52    1.21
  -7  -5  -1   22.76    1.40
  -7  -5   5    1.57    0.45
  -7  -4   1   95.22    2.06
  -7  -4   4    1.44    0.75
  -6  -5  -3    6.71    0.96
  -7  -8   0    6.35    0.88
  -7  -7  -1    0.87    0.94
  -7  -4   2    4.52    1.00
  -6  -7  -3   21.29    1.26
  -6  -6  -3    3.86    1.06
  -6  -3  -1  129.12    2.50
  -6  -2   5    1.87    0.78
  -7  -8   1   15.35    0.96
  -7  -5   0  160.70    2.55
  -6  -4  -2   55.13    1.89
  -6  -2   2    4.12    1.22
  -6  -2   4   22.31    1.32
  -7  -7   0    0.13    0.89
  -7  -6   0    4.57    1.01
  -7  -6   4  114.70    1.65
  -7  -5   1   38.57    1.46
  -6  -2   3   62.61    1.84
  -7  -7   3   28.88    1.12
  -7  -5   2   15.74    1.09
  -7  -5   3   25.41    1.17
  -6  -3   0  119.30    2.49
  -6  -3   6   66.58    1.52
  -7  -7   1   -1.64    0.84
  -7  -7   2   14.34    0.95
  -7  -6   1   29.52    1.29
  -7  -6   3    9.99    0.92
  -6  -5  -2    0.04    0.97
  -7  -6   2   17.26    1.03
  -6  -4  -1    4.48    1.05
  -6  -7  -2   28.98    1.35
  -6  -6  -2   11.48    1.25
  -6  -3   1   55.29    1.91
  -5  -1   3  142.35    2.34
  -6  -9   1    0.08    0.86
  -6  -3   5    9.67    1.02
  -5  -1   4  208.20    2.80
  -6  -8  -1    1.50    0.92
  -6  -4   6   19.71    1.10
  -6  -3   2   78.94    2.16
  -6  -3   4   23.01    1.37
  -6  -4   0  188.70    2.91
  -6  -3   3   25.25    1.48
  -6  -5   5    5.17    0.92
  -6  -4   4   15.41    1.25
  -5  -2   4  122.79    2.51
  -6  -7   5    3.68    0.93
  -6  -4   1    4.68    1.23
  -5  -4   7   43.97    1.41
  -5  -3   6   -0.39    1.09
  -5  -2   2    3.39    1.01
  -5  -2   3   46.49    1.76
  -4  -3   8   19.07    1.20
  -6  -6   5    6.99    0.80
  -6  -4   3   16.25    1.21
  -4  -2   7   16.14    1.43
  -6  -8   4    2.83    0.77
  -6  -5   4    2.98    1.01
  -3  -1   7    5.56    1.11
  -6  -5   0   -0.22    1.21
  -5  -3   5   -0.04    1.15
  -4  -6   8    5.47    0.67
  -4  -4   8   34.88    1.55
  -6  -7   4   47.16    1.36
  -6  -6   4   59.98    1.63
  -6  -5   3   -0.36    1.13
  -5  -4   6  139.65    2.45
  -4  -5   8    3.45    0.88
  -3  -2   8   13.14    1.18
  -6  -5   1    2.10    0.93
  -6  -5   2    6.44    1.28
  -5  -3   4    3.94    1.23
  -4  -2   6   42.49    1.66
  -6  -6   3  110.34    2.17
  -4  -3   7   62.74    1.77
  -6  -6   0   12.72    1.23
  -5  -7   6    1.03    0.73
  -5  -5   6   42.51    1.56
  -5  -3   2   20.35    1.26
  -5  -3   3    7.16    1.30
  -6  -8   2    2.35    0.85
  -6  -6   1    6.59    1.30
  -6  -6   2    2.86    1.18
  -5  -6   6   11.86    1.02
  -5  -4   5   46.65    1.86
  -6  -8   0   11.62    1.00
  -6  -8   1   17.08    1.15
  -6  -7   0   44.88    1.54
  -6  -7   2   12.20    1.21
  -6  -7   1   26.31    1.25
  -5  -8   5    1.46    0.78
  -4  -7   7   14.20    0.77
  -4  -4   7    7.37    1.20
  -3  -3   8    4.44    1.02
  -3  -2   7    5.67    1.09
  -5  -4   4   28.37    1.49
  -4  -3   6   39.13    1.72
  -5  -5   5   41.72    1.51
  -5  -7   5    2.12    0.88
  -5  -6   5   47.26    1.57
  -5  -4   3    1.09    1.27
  -4  -6   7    5.60    1.02
  -4  -5   7    1.76    0.99
  -3  -6   8    1.75    0.87
  -3  -4   8    8.85    1.24
  -4  -8   6   13.50    0.76
  -5  -5   4   12.42    1.36
  -4  -3   5  203.17    2.99
  -3  -5   8   29.82    1.34
  -5  -8   4    3.81    0.75
  -5  -6   4   98.13    2.21
  -3  -3   7    6.47    1.19
  -5  -7   4   18.08    1.10
  -5  -5   0    6.60    1.26
  -5  -5   3   21.11    1.38
  -5  -9   2   26.30    1.12
  -5  -5   1    5.70    1.32
  -4  -7   6   37.85    1.42
  -5  -8   3    1.87    1.02
  -5  -6   3  179.26    2.96
  -4  -6   6   60.37    1.83
  -4  -4   5   53.01    1.95
  -3  -7   7    1.52    0.85
  -5  -9   1   43.13    1.39
  -5  -7   3   11.66    1.35
  -3  -4   7    1.19    1.33
  -5  -9   0   84.56    1.76
  -5  -8   2    1.36    1.15
  -4  -9   4   12.49    0.96
  -4  -8   5   36.15    1.29
  -2  -6   8   37.77    1.32
  -5  -6   0   82.61    2.07
  -5  -6   1   31.01    1.76
  -3  -6   7   53.50    1.70
  -3  -5   7   77.55    1.98
  -3  -3   6   -0.63    1.07
  -2  -4   8    3.08    1.05
  -5  -8   1  129.83    2.35
  -4 -10   2   30.00    1.14
  -4  -5   5    0.38    1.27
  -4  -4   4   94.01    2.25
  -2  -5   8    0.32    0.95
  -5  -8   0  126.26    2.35
  -5  -7   0   -0.35    1.13
  -5  -7   1    5.07    1.16
  -4  -7   5  106.35    2.14
  -4  -6   5   33.93    1.71
  -3  -9   5   99.99    1.56
  -4 -10   1   46.71    1.44
  -4  -9   3    0.94    0.89
  -4  -8   4   13.90    1.14
  -3  -4   6    8.92    1.25
  -2  -3   7   22.56    1.39
  -4 -10   0   34.81    1.31
  -4  -5   4    2.66    1.25
  -2  -7   7   77.61    1.71
  -4  -7   4   47.18    1.71
  -4  -6   4   42.19    1.75
  -3  -5   6   68.32    2.11
   0  -8   1   13.93    1.32
   0  -7   4   86.90    2.19
   0  -5   6    7.62    1.47
   1  -5   7  424.67    4.22
   2  -7   5    6.80    1.02
  -1  -7   1   -1.41    1.18
   0  -6   5    3.29    1.42
   1  -6   6    3.34    1.16
   2  -4   8   69.90    1.89
   1  -8   2    7.52    1.27
   2  -8   2   17.45    1.14
   3  -4   8   12.58    1.29
   0  -4   6    3.93    1.10
   2  -6   6   40.31    1.49
   2  -5   7    6.48    1.20
   3  -6   6   61.39    1.50
   0  -7   3  223.87    3.24
   1  -7   4    0.50    1.14
   1  -4   7   43.84    1.90
   2  -3   8  224.45    3.10
   3  -7   4    2.09    1.00
   1  -8   1   26.05    1.32
   2  -8   1  180.08    2.27
   4  -6   5   30.18    1.07
   0  -6   4   38.88    1.86
   0  -5   5    0.18    1.12
   1  -3   7   32.72    1.62
   2  -7   4   21.42    1.28
   2  -2   8   17.35    1.52
   0  -7   2  962.87    6.16
   1  -6   5    8.70    1.34
   1  -5   6   21.74    1.62
   4  -3   8    2.83    0.99
   3  -3   8   51.44    1.78
   2  -4   7  327.11    3.93
   4  -5   6   18.73    1.13
   0  -7   1  293.16    3.47
   2  -6   5    8.28    1.24
   3  -6   5   13.57    1.06
   4  -4   7   17.14    1.21
   1  -4   6   11.06    1.46
   2  -5   6    9.63    1.38
   3  -4   7   25.15    1.49
   3  -2   8   33.12    1.45
   1  -6   4   77.72    2.21
   3  -5   6  239.81    3.21
   4  -6   4   18.63    1.10
  -4  -4   4   96.43    2.17
  -4  -4   5   59.57    2.23
  -3  -7   5    1.37    1.07
  -2  -1  11    0.16    1.18
  -3  -4   9    2.33    1.25
  -3  -2   9   44.30    2.20
  -3  -1   8    9.13    1.64
  -2  -6   9    5.39    1.42
  -2  -5  10   -1.61    1.26
  -3  -6   7   64.87    2.24
  -3  -3   9    1.12    1.53
  -2  -7   7   55.38    1.96
  -2  -3  11    9.38    1.78
  -2  -2  11   -0.39    1.28
  -3  -5   8   43.28    1.87
  -3  -1   7    6.67    1.29
  -1  -2  12   -0.12    0.99
  -1  -1  12    0.21    1.02
  -3  -6   3    4.25    2.60
  -3  -6   6   83.82    2.31
  -3  -6   4  241.08    3.35
  -3  -6   5   62.36    2.16
  -3  -4   8    9.29    1.43
  -3  -3   8    2.18    1.53
  -2  -7   6   46.79    1.83
  -3  -5   7   94.90    2.42
  -2  -6   8   40.52    1.65
  -2  -4  10    1.90    1.10
  -2  -1  10   46.84    1.85
  -2   0   9   52.06    1.88
  -3  -2   7    7.19    1.14
  -2  -5   9    1.21    1.03
  -1  -6   9   36.33    1.37
  -1  -4  11   26.10    1.29
  -3  -4   7    1.85    1.34
  -3  -3   7    6.02    1.41
  -2  -3  10   59.84    1.86
  -2  -2  10   14.73    1.40
  -1   0  11    1.86    1.06
  -3  -5   4  203.67    2.97
  -3  -5   5   94.29    2.36
  -2   0   8   85.09    2.20
  -1  -5  10   78.72    1.69
   0  -3  12   27.24    2.00
  -3  -4   6    7.88    1.57
  -3  -3   6    1.18    1.15
  -2  -6   7   26.72    1.44
  -4  -7   2  401.46    3.96
  -4  -7   6   34.81    1.34
  -4  -6   1   66.30    1.92
  -3  -7   8   -0.92    0.83
  -4  -7   3  241.64    3.24
  -4  -5   8    3.22    0.91
  -3  -8   5  152.40    2.22
  -4  -7   4   48.92    1.88
  -4  -6   7    7.24    1.02
  -4  -3   8   19.78    1.25
  -4  -2   7   21.45    1.35
  -3  -8   4   56.59    1.55
  -3  -6   9    1.16    0.85
  -4  -6   2  278.07    3.41
  -4  -2   6   46.65    1.73
  -3  -2  10   23.09    1.32
  -2  -8   6    2.33    0.73
  -4  -2   5   12.71    1.03
  -3  -4  10   19.71    0.93
  -4  -6   6   62.51    1.75
  -4  -5   7   -0.67    1.17
  -4  -3   7   62.41    1.88
  -3  -3  10    0.80    0.83
  -4  -6   4   38.17    1.63
  -4  -6   5   30.88    1.61
  -4  -4   7    9.54    1.15
  -4  -5   3    1.61    1.01
  -4  -5   6   -1.23    1.01
  -4  -3   6   38.17    1.64
  -4  -4   6   35.77    1.60
  -3  -7   2    4.73    1.07
  -3  -6   8    1.98    0.81
  -3  -5   9   22.92    1.12
  -2  -7   8    8.26    0.80
  -4  -5   4    3.61    0.92
  -4  -5   5    0.56    0.82
  -4  -4   4   94.07    2.06
  -4  -4   5   54.94    1.91
  -3  -7   6    7.07    1.05
  -3  -7   3    1.75    1.28
  -3  -7   5    4.92    1.18
  -3  -2   9   46.67    1.70
   1   1  -2   16.43    0.61
   4   0  -3  275.14    3.98
   5   2  -3   54.10    2.45
   2  -3   0  406.89    3.19
   2   0  -3  211.05    2.38
   2   1  -3    4.61    0.80
   3  -3   0  122.94    2.43
   2  -2  -2   90.96    1.81
   3  -1  -3   70.63    1.96
   3   3  -3   27.30    1.25
   1  -1  -2    3.27    0.48
   2  -1  -3  320.23    3.08
   4  -2  -2    3.73    1.69
   4  -1  -3  254.62    4.03
   2   2  -3   31.92    1.09
   3  -3  -1  170.28    2.87
   2  -3  -1  211.13    2.54
   4   1  -4    2.17    1.41
   1  -3   1   46.34    0.83
   3   0  -4   13.15    1.42
   3   1  -4    5.63    1.15
   4   2  -4    1.97    1.55
   3  -2  -3   37.60    1.90
   4   0  -4   16.95    1.98
   4  -3  -1   42.04    2.26
   1  -3   0   69.06    1.16
   1  -2  -2   45.76    1.11
   2  -2  -3   19.51    1.02
   3  -3  -2  129.65    2.63
   3  -1  -4   47.97    1.88
   3   2  -4    4.77    1.11
   4  -2  -3   41.75    2.19
   2  -3  -2  104.93    2.02
   4  -1  -4  134.40    3.23
   1   2  -2  168.47    1.15
   2   0  -4  616.74    4.39
   1   0  -3    0.83    0.64
   2  -1  -4   33.93    1.42
   2   1  -4   68.36    1.56
   1  -3  -1   60.15    1.19
   1  -1  -3    4.05    0.77
   3  -2  -4  138.48    2.98
   3  -3  -3    1.19    1.57
   4   0  -5   92.16    2.93
   4   1  -5   -0.14    1.70
   2  -3  -3  100.16    2.19
   2  -2  -4   14.49    1.24
   3   1  -5   10.75    1.55
   1  -2  -3  613.65    3.75
   1   1  -3  116.24    1.40
   3  -1  -5    5.46    1.53
   1  -3  -2   24.19    1.03
   2  -4  -1  481.62    4.01
   2   2  -4   70.36    1.65
   2  -1  -5   93.28    2.21
   2   0  -5  234.97    3.06
   3  -4  -2    1.94    1.41
   3  -2  -5   96.34    2.80
   3   2  -5  981.20    6.42
   2  -4  -2  773.77    5.33
   2  -3  -4    3.31    1.46
   1  -1  -4  102.55    1.65
   2  -2  -5   11.60    1.29
   2   1  -5   39.10    1.57
   3  -4  -3    3.67    1.77
   0  -1  -1 1283.90    2.81
   1  -2  -4  300.66    2.90
   3   0  -6   -1.11    1.53
   2  -4  -3   12.28    1.23
   3  -3  -5    1.92    1.68
   3  -1  -6   11.62    1.48
   3   1  -6   60.59    2.28
   1  -4  -1    6.91    0.89
   2  -3  -5   47.03    2.06
   3  -2  -6   70.43    2.72
   1  -3  -4   68.29    1.79
   2  -1  -6  149.36    3.04
   1  -4  -2    5.31    0.87
   1   1  -4   25.48    0.92
   2  -4  -4   61.80    1.95
   0  -2   0  374.25    1.35
   0  -1  -2   14.38    0.57
   1  -2  -5   10.45    1.11
   1  -1  -5    4.64    0.79
   2  -2  -6    3.14    1.26
   2   0  -6    6.52    1.12
   0  -2  -2  409.20    2.30
   1  -4  -3    4.26    1.01
   1   0  -5    6.86    0.93
   1   2  -3   12.16    0.56
   1  -3  -5  182.22    2.85
   2  -4  -5   11.19    1.61
   2  -3  -6    6.89    1.56
   1  -4  -4   51.78    1.77
   2   1  -6    8.54    1.34
   0  -2  -3   21.28    0.73
   0  -1  -3   20.58    0.78
   0  -3  -2   13.76    0.72
   0   0  -2   68.47    0.80
   2  -1  -7   38.54    2.01
   0  -3  -1    5.97    0.54
   1  -2  -6 2063.10    8.93
   2  -2  -7   21.23    1.61
   1  -4  -5   34.14    1.87
   2  -5  -4    6.85    1.54
   2   0  -7  168.18    3.25
   0  -2  -4   17.41    0.95
   1  -3  -6  416.68    4.26
   1   1  -5  296.82    2.68
   0  -1  -4   68.58    1.28
   1   0  -6   -0.18    0.98
   0  -3  -4   66.42    1.51
   0   0  -3  274.20    1.82
   1  -4  -6   30.01    1.91
   0  -2  -5   18.41    1.06
   1  -5  -4   51.06    1.76
   1  -2  -7  166.73    3.10
   0  -4  -3   40.84    1.19
   0  -3  -5  163.54    2.35
   1  -3  -7  441.68    4.85
   1  -1  -7   55.07    1.97
   1   2  -4 1855.86    4.84
   0  -4  -4   40.39    1.37
   0  -4  -2  230.94    2.10
   0  -3   0   72.73    0.71
   0  -1  -5  338.00    2.92
   1  -5  -5  300.91    3.86
   0   0  -4   13.87    0.76
   1  -4  -7   -0.18    1.46
   2   0  -8  107.98    3.01
   0  -3  -6  309.91    3.43
   0  -2  -6   23.90    1.32
   1  -5  -6   98.08    2.73
   1   0  -7   10.51    1.43
   1   1  -6  147.12    2.17
   0  -4  -1  403.54    2.30
   0  -4  -6  399.55    4.16
   1  -1  -8   44.78    2.02
   0  -5  -4   95.04    2.02
   0   0  -5   37.50    1.11
   0  -5  -5  168.23    2.70
   0  -5  -3   34.73    1.24
   0  -3  -7   61.78    1.95
   0  -2  -7    3.96    1.38
   0  -4  -7  235.49    3.53
   0  -5  -6   82.71    2.29
   0  -1  -7  145.25    2.50
   1   0  -8   11.88    1.49
   0   0  -6  310.13    2.91
   0  -5  -7   30.32    1.87
   0  -3  -8  198.66    3.30
  -1  -3  -4  354.22    2.76
   0  -4  -8  162.75    3.20
   0   1  -3  135.14    1.11
  -1  -3  -5  453.56    3.47
  -1  -4  -5   22.52    1.22
  -1  -4  -4   98.07    1.73
  -1  -3  -3  111.44    1.39
  -1  -2  -4   55.61    1.10
   0  -6  -5    2.23    1.26
   0   1  -4    0.89    0.48
   0   1  -2    2.44    0.29
  -1  -3  -6  276.05    3.05
  -1  -2  -5 2231.42    7.08
  -1  -2  -3  237.26    1.84
   0  -1  -8  271.12    3.66
  -1  -4  -6    5.03    0.83
  -1  -4  -3  362.83    2.66
   0   0  -7  180.18    2.55
  -1  -2  -6   90.33    1.78
   0   1  -5    7.20    0.77
  -1  -5  -5   34.23    1.42
  -1  -4  -7    2.55    1.31
  -1  -3  -7   21.41    1.38
  -1  -3  -2  141.35    1.40
   0  -2  -9    2.14    1.12
  -1  -5  -6   23.39    1.31
  -1  -5  -4  363.96    3.22
  -1  -2  -2 1367.89    3.77
  -1  -1  -4  350.47    2.41
  -1  -2  -7   10.53    1.32
  -1  -1  -5  623.36    3.61
  -1  -4  -8   51.45    2.07
  -1  -3  -8    1.33    1.40
  -1  -1  -3   16.34    0.67
  -1  -5  -3  232.94    2.31
  -1  -4  -2   11.24    0.66
  -1  -1  -6    9.08    1.03
   0  -1  -9  258.66    3.90
   0   0  -8   50.79    1.94
   0   1  -6   52.47    1.34
  -1  -6  -6  114.75    2.51
  -1  -6  -5   58.48    1.85
  -1  -2  -8   45.91    1.87
  -1  -1  -7   82.87    1.86
  -1  -1  -2   41.60    0.72
  -1  -2  -9   58.49    1.99
  -1  -1  -8  186.74    2.92
  -1   0  -5    9.23    0.75
  -2  -4  -6  120.85    2.32
  -2  -4  -5  395.31    3.40
  -1  -5  -2  183.10    1.78
  -1  -3  -1    2.89    0.43
  -1   0  -4  117.12    1.37
  -2  -5  -6    9.10    1.31
  -2  -4  -7   28.46    1.42
  -2  -3  -6  116.46    2.09
  -2  -3  -5  657.17    4.11
  -1   0  -6    3.79    0.86
  -2  -5  -7   54.61    1.80
  -2  -5  -5   23.68    1.30
  -2  -3  -7   93.91    2.22
  -1  -2  -1  540.16    1.99
  -2  -4  -8    7.03    1.08
  -2  -3  -4 1147.73    4.89
  -2  -3  -8    7.36    1.46
  -2  -2  -6   38.50    1.38
  -1  -4  -1    1.87    0.46
  -1  -1  -9   15.24    1.78
  -1   0  -7    0.89    0.89
  -2  -6  -6   17.77    1.44
  -2  -5  -4   73.23    1.55
  -2  -2  -5    0.57    0.52
  -2  -6  -5  113.91    2.23
  -2  -4  -3  350.75    2.63
  -2  -2  -4   -0.36    0.47
  -2  -3  -3 1036.44    4.18
  -2  -2  -8   15.78    1.53
  -2  -5  -3  115.35    1.70
  -2  -2  -9    7.42    1.57
  -2  -2  -3   39.63    0.97
  -2  -1  -6  193.72    2.36
  -2  -1  -7  261.21    2.98
  -1  -1  -1   34.99    0.51
  -1   0  -2    0.16    0.24
  -3  -5  -7  247.12    3.46
  -2  -1  -4  785.39    3.75
  -3  -4  -8   10.12    1.47
  -3  -4  -7   27.19    1.44
  -3  -4  -6    5.06    1.24
  -2  -1  -8   92.92    2.24
  -2  -4  -2  495.17    2.81
  -1   1  -5  258.87    2.04
  -3  -6  -6  214.66    3.17
  -3  -5  -5  170.53    2.51
  -3  -4  -5    0.56    0.88
  -3  -3  -7    4.16    1.23
  -3  -3  -6    9.39    1.14
  -3  -3  -8   25.76    1.64
  -1   1  -4  557.51    2.58
  -3  -3  -5  109.39    1.84
  -2  -2  -2   12.37    0.64
  -2  -1  -3  456.27    2.64
  -3  -6  -5   95.26    2.24
  -2  -5  -2  101.53    1.45
  -3  -5  -4   97.78    1.84
  -3  -2  -7  215.93    2.92
  -3  -2  -6  108.03    2.01
   1   0   0    3.73    0.33
   2  -3   3   36.03    1.73
   3   1   1    4.98    0.86
   4  -1   4  199.16    3.66
   3  -2   3  161.72    2.89
   3   2   1  161.28    1.79
   5   2   4   32.61    1.96
   4   2   2   98.70    2.00
   3   0   1    3.01    0.93
   4   1   2  183.89    2.61
   5   1   4   50.89    2.25
   1  -1   0    9.27    0.61
   4   3   2  929.18    4.75
   1  -4   3   34.84    1.52
   2  -2   1  103.09    1.88
   4  -1   3  290.13    3.90
   0  -3   1  875.50    3.35
   0  -1   0 1225.81    2.26
   2  -3   2  327.71    3.54
   3  -3   4   52.45    2.34
   3  -2   2  578.20    4.98
   4   0   2  104.59    2.27
   2   0   0 2410.37    6.13
   3  -1   1  102.38    2.03
   5   2   3  403.32    4.44
   1  -3   1   45.10    1.20
   2  -4   4    9.49    1.75
   5   1   3  151.97    3.06
   3  -3   3   13.57    1.68
   2  -1   0  267.43    2.43
   3   3   1   72.53    1.02
   4  -1   2  102.47    2.50
   1  -4   2    2.06    0.88
   1  -2   0  721.03    3.43
   4  -2   3    0.84    1.44
   2  -4   3    4.39    1.45
   4   1   1  106.09    2.02
   2  -3   1  161.00    2.55
   3  -2   1  345.58    3.71
   4   2   1    1.39    1.04
   3   0   0    5.42    0.94
   0  -2   0  296.34    1.54
   2  -2   0  137.27    1.99
   3   1   0   33.61    1.05
   5   1   2  349.88    4.15
   5   2   2  197.78    2.99
   2  -4   2   18.63    1.52
   4  -2   2   10.28    1.62
   3  -1   0  293.26    3.05
   4  -1   1  181.71    3.08
   5   0   2   22.12    1.92
   1  -4   1    4.00    0.92
   1  -3   0   65.09    1.34
   2   2   0    0.53    0.36
   0  -4   1 1311.26    4.48
   3  -2   0  108.50    2.20
   3   2   0  136.49    1.48
   4  -2   1    8.99    1.42
   2  -4   1   94.19    2.25
   3  -4   2   18.65    1.87
   4   1   0   47.53    1.45
   5   1   1   51.34    1.88
   0  -3   0   59.96    0.93
   2  -1  -1  272.67    2.41
   4  -1   0  107.15    2.45
   5   0   1    8.99    1.47
   5   2   1   33.73    1.51
   2   0  -1 9887.23   12.27
   1  -1  -1 1575.10    4.37
   2  -2  -1   14.09    1.02
   3  -3   0  129.73    2.66
   1  -2  -1  219.97    1.94
   3  -1  -1    5.88    0.94
   4   2   0   72.82    1.50
   1  -4   0   -0.08    0.87
   3  -4   1    2.66    1.02
   4  -2   0   10.64    1.46
   2  -4   0  665.91    5.02
   3  -2  -1  430.77    3.98
   2  -3  -1  214.58    2.72
   3   1  -1  952.61    4.33
   5   0   0   10.72    1.47
   2  -5   1   15.76    1.59
   4   0  -1 1145.39    6.39
   5   1   0    5.65    1.11
   0  -4   0  373.85    2.44
   1   0  -1   57.03    0.76
   2   1  -1  347.48    2.06
   3  -4   0   -1.83    1.50
   4  -1  -1   98.96    2.21
   3  -3  -1  156.02    2.68
   4  -2  -1   47.04    2.05
   4   1  -1   93.47    1.89
   2  -4  -1  464.71    4.27
   1  -5   0    7.25    1.24
   1  -4  -1    6.42    0.92
   2  -2  -2   92.60    1.75
   2  -5   0    8.10    1.41
   2  -1  -2 1224.34    5.11
   3  -2  -2  321.82    3.58
   3  -1  -2  786.39    4.92
   3  -4  -1   -0.77    1.40
   5   0  -1   13.53    1.62
   2  -3  -2   96.11    1.90
   0  -3  -1    5.64    0.51
   1  -2  -2   45.96    1.12
   3  -3  -2  130.20    2.72
   5   1  -1   14.95    1.55
   2   0  -2  903.80    4.01
   3   2  -1  142.32    1.50
   4   0  -2 1201.17    6.68
   4   2  -1   10.88    0.98
   2  -5  -1   47.87    1.95
   4  -2  -2    5.61    1.18
   1  -5  -1   83.77    2.02
   2  -4  -2  746.06    5.44
   0  -4  -1  367.61    2.47
   1  -1  -2    3.27    0.47
   1  -4  -2   -0.09    0.85
   3   1  -2  715.87    3.94
   4   1  -2   63.48    1.67
   2  -2  -3   21.31    1.20
   3  -2  -3   33.60    1.51
   3  -1  -3   75.18    1.87
   5   0  -2    1.75    1.51
   2  -3  -3   98.68    1.97
   3  -3  -3    3.55    1.36
   2  -5  -2   32.20    1.80
   2  -1  -3  332.12    2.92
   0  -1  -1 1332.69    2.77
   4  -2  -3   33.32    1.69
   5   1  -2   61.79    2.04
   1  -5  -2  457.19    4.01
   3   0  -3  127.15    2.09
   1  -3  -3    8.30    1.00
   2   1  -2   21.20    0.75
   3  -4  -3    3.47    1.14
   4   0  -3  257.43    3.25
   0  -3  -2   11.58    0.71
   1  -2  -3  623.43    3.66
   1  -4  -3    4.50    0.98
   1   0  -2   18.86    0.69
   0  -4  -2  215.48    2.08
   2  -5  -3   13.59    1.66
   3  -3  -4   10.84    1.54
   3  -2  -4  114.49    2.49
   0  -2  -2  411.00    2.22
   2  -3  -4    6.47    1.03
   2  -2  -4   20.42    1.22
   2   2  -1  282.14    1.41
   4   1  -3   22.90    1.33
   1  -5  -3   60.95    1.87
   1  -1  -3    5.08    0.76
   4  -1  -4  131.85    2.85
   0  -5  -2   18.39    1.15
   3   1  -3  426.16    3.33
   3   2  -2  685.82    3.35
   2  -1  -4   34.32    1.34
   1  -3  -4   70.52    1.69
   4   0  -4   18.12    1.46
   1  -4  -4   52.80    1.77
   2  -5  -4    5.86    1.62
   3   0  -4   11.43    1.11
   0  -4  -3   39.76    1.13
   1  -2  -4  296.19    2.79
   3  -3  -5    4.31    1.61
   3  -2  -5   90.40    2.56
   1  -5  -4   50.42    1.96
   2  -3  -5   48.64    1.87
   2  -4  -5   13.39    1.61
   2  -2  -5   10.32    1.27
   0  -5  -3   34.63    1.20
   2   0  -4  604.32    4.01
   2   1  -3    2.44    0.63
   3  -1  -5    1.43    1.21
   0  -1  -2   15.58    0.58
   4   1  -4   -0.05    1.24
   0  -2  -3   23.25    0.71
   1  -1  -4  114.92    1.77
   1   0  -3   -1.17    0.61
   1  -3  -5  192.77    2.75
   2  -1  -5   89.58    2.04
   3   1  -4    7.03    0.97
   0  -4  -4   38.67    1.27
   4   0  -5   84.81    2.55
   1  -5  -5  277.50    3.70
   3   0  -5    1.31    1.10
   0  -5  -4   88.92    1.90
   0  -3  -4   67.34    1.49
   1  -2  -5   12.68    1.12
   2  -3  -6    9.55    1.46
   3  -2  -6   67.70    2.48
   3   2  -3  434.33    2.93
   2  -2  -6    5.51    1.42
   3  -1  -6   14.33    1.59
  -1  -4  -1    2.09    0.29
   1  -4  -6   31.72    1.87
   2   0  -5  228.90    2.80
   2   2  -2   30.38    0.67
   0  -2  -4   18.79    0.78
   1  -3  -6  433.64    4.42
   1   1  -2   18.78    0.56
   0  -4  -5  393.57    3.55
   0  -1  -3   19.07    0.74
   1  -5  -6   95.55    2.55
   1  -1  -5    6.32    0.79
   2   1  -4   64.39    1.36
  -1  -4  -2   10.27    0.60
   0  -5  -5  155.88    2.62
   0  -3  -5  162.60    2.36
   1   0  -4    1.80    0.51
   1  -2  -6 2125.47    9.05
   3   0  -6    2.83    1.27
   3   1  -5    3.77    1.13
  -1  -3  -1    3.05    0.26
   2  -2  -7   18.66    1.75
   1  -4  -7    2.29    1.48
  -1  -4  -3  313.31    2.27
  -1  -3  -2  131.93    1.18
   0  -4  -6  397.58    4.03
   0  -2  -5   16.01    1.05
   1  -3  -7  455.91    4.89
   0  -5  -6   86.21    2.28
   0  -1  -4   68.09    1.29
   2   0  -6    8.50    1.25
   0  -3  -6  328.81    3.56
   0   0  -1   33.35    0.38
   1  -1  -6  337.15    3.64
  -1  -3  -3  106.13    1.29
   1   1  -3  107.31    1.28
   2  -1  -7   38.11    1.69
  -1  -5  -4  358.02    2.94
  -1  -4  -4   99.82    1.59
   1  -2  -7  179.40    3.20
   2   1  -5   39.22    1.34
   2   2  -3   29.05    0.77
   3   0  -7   -0.14    1.57
   0   0  -2   68.52    0.81
  -1  -3  -4  369.98    2.68
   0  -5  -7   31.07    1.83
   0  -2  -6   27.08    1.13
  -1  -5  -5   34.86    1.29
  -1  -4  -5   20.85    1.07
   0  -1  -5  348.90    2.95
   0  -3  -7   66.23    1.93
   1  -1  -7   55.94    2.14
   0   0  -3  282.80    1.89
   1   1  -4   24.98    0.90
   2   0  -7  160.06    2.96
   1  -2  -8   26.15    1.88
   1   0  -6   -0.51    0.75
  -1  -5  -6   27.69    1.52
  -1  -2  -3  239.07    1.78
   2   1  -6    8.05    1.20
  -1  -4  -6    5.72    1.00
   0  -2  -7    4.88    1.12
   2   2  -4   58.63    1.18
   3   2   6  102.75    1.98
   3   2   7  213.60    3.13
  -1  -3   3   71.72    1.41
  -1  -3   7   24.09    1.94
   2   2   2   11.10    0.37
   3   2   8  193.37    3.42
   2   0   4  132.44    1.96
   0  -2   2   17.97    0.80
   3   2   5  183.73    2.20
   1  -2   6  354.61    4.21
   1  -2   5   65.26    1.65
   1  -2   7  115.99    2.93
   3   1   7  272.12    3.66
  -1  -3   2   57.41    1.12
   0  -3   5   59.80    1.79
   0  -3   6    6.21    1.10
   1  -1   2  115.25    1.43
   3   1   6  272.76    3.36
   3   1   8   20.96    1.94
   0  -3   7   49.41    2.15
   1  -2   4   39.42    1.24
   2  -1   6  137.01    2.63
   2  -1   7  214.05    3.61
   1   0   1    1.83    0.38
   2  -1   5  240.04    3.11
   3   1   5    6.19    1.01
   3   2   4  955.36    4.14
   2   1   2   65.67    0.91
  -1  -4   5    3.90    1.33
  -1  -4   6   -0.42    1.45
   1  -2   3 2226.53    7.33
   2  -1   4  143.99    2.22
  -2  -3   1  169.59    1.13
  -1  -4   4   30.52    1.39
   3   0   6   -0.03    1.29
   3   0   7   39.72    1.67
   3   1   4  277.93    2.61
   0  -2   1    1.38    0.52
   1  -3   6  110.36    2.84
  -1  -4   3   14.55    1.05
   1  -3   5   16.54    1.28
   2  -2   6   58.06    2.20
   2  -1   3    3.17    0.82
   3   0   5   12.03    1.23
   2  -2   5   45.00    1.77
   0  -4   5    2.45    1.39
   0  -4   6    3.42    1.55
   1  -3   4   61.59    1.89
   1  -2   2  251.41    2.32
  -1  -3   1  115.29    1.26
   0  -4   4  101.43    2.28
   1  -1   1  197.86    1.59
   2  -2   4    5.13    1.08
   3   0   4    6.09    0.93
   3  -1   6  114.42    2.50
   3   2   3   64.70    1.03
   1  -3   3   22.47    1.24
  -1  -4   2   78.85    1.47
   3   1   3  385.87    2.68
   0  -4   3  280.95    2.97
   2  -2   3   25.02    1.19
   2  -1   2   58.97    1.15
   4   1   6   65.60    1.97
   2  -3   5   43.55    2.04
   3   0   3   70.85    1.47
   1  -3   2  127.41    1.99
   0  -4   2  682.09    4.25
   0  -1   0 1209.81    2.40
   1  -2   1   61.07    1.10
   2  -3   4   99.41    2.33
   4   1   5   50.57    1.58
  -1  -2   0  528.76    1.52
   3  -2   5  155.61    3.03
   4   0   6  102.86    2.52
   0  -5   4   21.01    1.64
   2  -2   2    3.37    0.63
   2  -3   3   30.17    1.51
   3  -2   4   59.03    2.11
   4   0   5   96.60    2.31
  -1  -4   1   64.64    1.19
   0  -5   3    0.43    1.25
   0  -2   0  371.55    1.91
   4   1   4   15.23    1.12
   1  -3   1   44.02    1.26
   2  -1   1    6.89    0.67
  -1  -5   2  151.21    2.16
   1  -4   2    1.97    1.03
   2   1   1    3.50    0.41
   3   0   2   10.59    0.76
   3   1   2    2.97    0.57
   0  -4   1 1378.97    5.59
   2  -4   4   10.93    1.21
   3  -2   3  154.79    2.63
   4  -1   5   83.28    2.33
   4   0   4  354.13    3.62
   2  -3   2  311.62    3.23
  -1  -3   0  163.44    1.25
   0  -5   2    4.04    1.22
   3  -3   4   57.02    2.08
   3  -1   2  114.02    1.98
   1  -1   0    8.44    0.52
   2  -4   3    4.30    1.44
   2  -2   1   94.79    1.54
   1  -5   3   80.62    2.28
   4  -1   4  181.21    2.81
   1  -2   0  706.11    3.26
   1  -4   1    4.43    1.02
   3  -3   3   18.27    1.51
   3  -2   2  548.19    4.36
   4   0   3  290.95    3.09
   4   1   3  157.93    2.05
  -1  -5   1   82.07    1.54
   1  -5   2   91.84    2.30
   1   0   0    3.56    0.31
   2  -4   2   18.65    1.52
   2  -3   1  165.04    2.26
   3   2   2    5.26    0.38
   0  -5   1    2.32    0.98
   1  -3   0   62.38    1.33
   4  -1   3  302.24    3.50
  -1  -4   0  163.20    1.56
   0  -4   0  386.43    2.88
   3  -3   2    7.40    1.33
   3  -1   1   99.88    1.72
   3   0   1    2.96    0.62
   0  -6   2    5.80    1.40
   2  -2   0  129.65    1.79
   2  -1   0  256.02    2.02
   4  -2   3    2.46    1.23
   1  -5   1   89.91    2.13
   1  -4   0    0.47    0.90
   2  -4   1   93.17    2.09
   3  -2   1  329.46    3.20
   4   0   2  104.53    1.83
   2  -3   0  406.06    3.44
   4  -1   2  105.15    2.17
   0  -5   0   10.45    1.01
   3  -3   1  160.14    2.71
  -1  -5   0  438.85    2.98
   0  -6   1    6.18    1.25
   3   1   1    3.13    0.48
   4  -2   2   15.43    1.38
   4   1   2  159.54    1.81
   1  -5   0    7.16    1.19
   2  -5   1   17.45    1.58
   1  -3  -1   56.29    1.24
   1  -2  -1  216.07    1.85
   2  -4   0  652.72    4.82
   0  -4  -1  374.39    2.77
   0  -2  -1   -0.55    0.42
   1  -6   1    7.87    1.50
   3  -4   1    1.89    1.24
   3  -2   0  106.21    1.98
   3  -1   0  285.57    2.63
   1  -4  -1    6.35    0.99
   4  -1   1  177.01    2.46
   0  -6   0   46.25    1.64
   2  -2  -1   16.27    0.88
   3  -3   0  114.77    2.25
   4  -2   1    7.75    1.24
   4   0   1  176.03    2.16
   1  -1  -1 1538.62    3.95
   2  -5   0    9.20    1.35
   2  -3  -1  197.73    2.46
   3   0   0    6.00    0.59
  -1  -4  -1    1.86    0.62
   0  -5  -1    6.92    0.90
   1  -6   0   17.63    1.55
   1  -5  -1   81.71    1.99
   2  -4  -1  457.24    4.13
   2  -1  -1  268.41    2.14
   3  -4   0   -1.47    1.22
  -1  -3  -1    1.87    0.43
  -1  -5  -1  441.98    2.91
   3  -3  -1  162.99    2.69
   3  -2  -1  415.35    3.58
   4  -2   0   11.66    1.24
   4  -1   0  101.62    2.07
   0  -6  -1   28.92    1.50
   1  -3  -2   25.37    1.00
   2  -5  -1   44.47    1.71
   1  -6  -1   39.06    1.87
   1  -4  -2    3.45    0.94
   3  -1  -1    8.64    0.85
   0  -4  -2  229.20    2.27
   3  -4  -1    0.08    1.16
   2  -3  -2   99.45    1.86
   2   1   0  215.56    1.16
   4   0   0  191.38    2.21
   0  -5  -2   17.41    1.03
   0  -1  -1 1337.33    2.71
   1  -5  -2  452.65    4.00
   1  -2  -2   46.74    0.95
   2  -4  -2  727.35    5.17
   2  -2  -2   90.22    1.57
   3   1   0   34.12    0.78
   2  -5  -2   30.63    1.67
   4  -2  -1   45.72    1.81
   0  -6  -2    1.54    1.16
   1  -6  -2  176.75    3.01
   3  -3  -2  124.21    2.45
   3   0  -1   42.14    1.01
   3  -4  -2   -0.35    1.24
   4  -1  -1   91.12    1.96
  -1  -5  -2  193.73    2.05
   2  -1  -2 1297.60    4.75
  -1  -4  -2   11.51    0.72
   0  -2  -2  424.74    2.21
   1  -4  -3    2.81    1.00
   1  -5  -3   59.23    1.85
   1  -3  -3    8.28    0.86
   1   0  -1   56.75    0.69
   2  -4  -3   11.09    1.37
   3  -1  -2  781.26    4.38
   1  -1  -2    2.56    0.54
   2  -3  -3   92.60    1.93
   0  -5  -3   37.05    1.27
   0  -4  -3   38.59    1.17
   2  -5  -3   15.08    1.45
   4   0  -1 1044.92    5.02
   1  -6  -3  159.24    2.93
   4  -2  -2    6.97    1.09
  -1  -2  -1  620.71    1.57
   0  -6  -3   30.32    1.56
   2  -2  -3   19.11    1.01
   3  -3  -3    1.14    1.24
   1  -2  -3  615.52    3.39
   4  -1  -2    4.01    1.14
  -1  -3  -2  145.64    1.27
   1  -5  -4   50.91    1.90
   1  -4  -4   50.01    1.71
   2  -4  -4   60.88    2.00
   3   0  -2  164.83    1.87
   2  -3  -4    6.00    0.99
   1  -3  -4   74.36    1.62
   2  -1  -3  311.56    2.57
   3  -1  -3   72.04    1.65
   3   1  -1  909.43    3.38
   0  -5  -4   94.35    1.97
   4  -2  -3   31.69    1.70
   0  -6  -4    3.23    1.27
   0  -4  -4   41.45    1.35
   3  -3  -4   14.31    1.43
   4   0  -2 1173.00    5.63
  -1  -1   4   23.31    1.18
  -3  -1   6   56.19    2.42
  -1   0   7    9.77    1.64
  -4  -2   1    9.45    1.20
  -4  -2   2  105.93    2.50
  -3  -2   1  147.36    2.04
  -3  -2   3  470.64    4.31
  -2  -1   6    8.38    1.63
  -4  -2   3    4.55    1.37
  -1  -1   5  292.76    3.30
  -3  -2   4    7.81    1.56
   0   0   6  311.61    3.30
   0   1   8  277.88    3.89
  -4  -2   0   85.06    1.69
  -4  -2   4    4.78    1.53
  -3  -2   0  147.15    1.81
  -1  -1   0 1919.31    3.61
  -2  -2   2   33.78    1.17
  -2  -2   3   30.22    1.35
   1   1   6   11.20    0.94
  -3  -2   5  976.14    7.32
  -2  -1   7   39.53    2.27
  -1   0   8   11.37    1.77
  -5  -2   3   55.65    2.69
  -2  -2   1  286.95    2.40
  -2  -2   4   64.95    1.69
  -2  -2   5  106.72    2.42
   0   0   7  185.28    2.95
  -3  -2   6   50.77    2.35
  -1  -1   7  268.13    3.82
  -2  -2   0    1.66    0.55
  -2  -2   6    9.36    1.77
  -4  -3   2    7.68    1.44
  -4  -3   3    9.81    1.55
  -3  -2  -1  170.72    1.54
   0  -1   3  139.41    1.64
  -4  -3   4   14.67    1.81
  -3  -3   3   29.03    1.70
  -1  -2   3   13.64    1.01
  -1  -2   4 1886.79    7.58
   0  -1   5    6.66    0.99
   0   0   8   52.05    2.09
  -4  -3   1  125.41    2.29
  -3  -3   4   22.95    1.89
  -1  -2   2  164.92    1.92
  -1  -2   5    8.14    1.28
  -1  -1   8  351.42    4.85
  -3  -3   1   58.20    1.38
  -3  -3   5   32.32    2.06
   0  -1   2    2.53    0.56
   0  -1   6   58.82    1.77
  -4  -3   0  190.02    2.44
  -2  -3   3  298.41    3.27
  -2  -3   4 1049.98    6.55
  -1  -2   6    6.63    1.53
   1   0   5    9.71    0.88
  -2  -3   2   78.78    1.74
   1   0   4  114.05    1.30
  -2  -3   5  158.05    3.07
  -1  -2   1 1358.40    4.49
   0  -1   7    8.04    1.42
  -3  -3   0    1.06    0.73
  -1  -2   7  226.11    3.72
   1   0   6    2.58    0.81
  -2  -3   6  192.36    3.69
  -4  -4   3   76.72    2.37
  -2  -3   1  172.92    2.11
  -4  -4   2   27.84    1.80
  -4  -4   4  109.19    3.06
   1   0   3    2.45    0.39
  -3  -4   3  224.71    3.45
  -3  -4   4  150.27    3.04
  -2  -2  -1  188.42    1.41
  -4  -4   1   99.49    2.27
  -3  -4   2   97.67    2.14
  -3  -4   5  175.14    3.59
  -1  -3   4   38.06    1.52
   0  -1   1    3.14    0.43
  -1  -3   3   75.01    1.72
  -1  -3   5   57.33    2.06
   0  -2   5   23.82    1.26
  -3  -4   1   62.70    1.70
  -1  -3   6   12.36    1.68
   0  -2   3    6.48    0.79
   0  -2   6    1.94    1.30
  -2  -4   3  371.79    3.97
  -2  -4   4  210.62    3.29
  -1  -3   2   56.56    1.42
  -4  -4   0   14.59    1.22
  -3  -3  -1   80.16    1.25
  -2  -4   5  157.61    3.12
  -1  -2   0  536.49    2.45
  -2  -4   2  375.99    3.66
  -1  -3   7   24.72    1.87
   0  -2   7   70.09    2.41
  -4  -5   3   -0.04    1.21
   0  -2   2   19.90    0.84
   1  -1   5  252.90    2.44
  -4  -5   2    7.78    1.49
  -3  -4   0   48.39    1.43
   1  -1   6  276.44    2.84
  -3  -5   3  120.67    2.95
  -3  -5   4  215.41    3.89
  -2  -4   1   21.19    1.25
  -1  -3   1  111.43    1.57
   1  -1   4  560.40    3.13
  -4  -5   1   25.94    1.71
  -3  -5   2   80.14    2.13
  -1  -4   4   31.93    1.57
  -1  -4   5    3.87    1.56
  -1  -4   3   17.41    1.31
  -1  -4   6    1.66    1.56
   0  -3   5   59.33    1.72
  -3  -5   1  223.01    3.09
  -2  -5   4    4.23    1.46
   0  -3   6    4.59    1.09
   1  -1   3  489.29    2.57
   1   0   2    0.97    0.28
  -2  -5   3    1.27    1.49
  -2  -3  -1    9.85    0.64
   0  -3   3 1150.44    5.59
  -4  -5   0   20.94    1.41
  -1  -4   2   77.12    1.65
   0  -3   7   44.42    2.29
   0  -2   1    1.02    0.58
  -3  -4  -1    3.39    0.81
  -2  -5   2    1.64    1.32
  -1  -3   0  165.73    1.77
  -3  -5   0   25.23    1.33
   1  -2   5   64.58    1.56
   1  -2   6  341.02    3.61
   0  -3   2  815.29    4.29
  -2  -5   1   17.89    1.11
  -1  -4   1   67.15    1.44
   1  -2   4   38.02    1.20
  -4  -6   1   65.70    2.29
  -3  -6   2  148.22    2.94
  -1  -5   4   35.14    1.70
   0  -4   5    3.61    1.32
  -1  -5   3  131.95    2.75
   0  -4   4  101.67    2.36
   0  -4   6    4.59    1.58
  -3  -6   1   27.51    1.44
  -1  -2  -1  581.39    2.21
   0  -1   0 1223.80    2.62
   1  -2   3 2226.28    6.48
   1  -1   2  117.54    1.18
  -2  -6   3   37.06    1.80
  -2  -4  -1  204.61    2.13
  -1  -5   2  159.82    2.74
   0  -4   3  278.23    3.31
   0  -3   1  977.58    4.38
  -3  -5  -1  177.90    2.40
  -2  -6   2   14.11    1.63
  -1  -4   0  161.46    2.00
  -3  -6   0   45.01    1.84
   0  -4   2  670.50    4.57
   1  -3   5   16.84    1.35
  -1  -5   1   86.05    1.98
  -2  -6   1  118.02    2.44
  -1  -3  -1    2.77    0.57
   0  -2   0  367.96    2.05
   1  -3   4   58.48    1.63
  -3  -4  -2  248.68    2.12
   1  -2   2  236.80    2.04
  -2  -5  -1  104.47    1.89
  -1  -6   3  485.34    5.12
   0  -5   4   24.05    1.80
   1  -3   3   21.61    1.09
  -2  -6   0   53.73    1.91
   0  -4   1 1329.11    5.95
  -3  -6  -1   68.52    2.00
  -2  -3  -2   38.08    0.77
  -1  -6   2   15.59    1.54
  -1  -5   0  469.27    3.93
   0  -3   0   65.71    1.25
  -1  -4  -1    1.44    0.82
  -3  -5  -2  460.62    3.46
  -2  -2  -2   12.12    0.32
   0  -5   2    3.20    1.35
   1  -4   5    2.45    1.34
  -3  -7   0    0.54    1.09
  -2  -4  -2  493.76    2.97
  -1  -6   1  127.01    2.72
   1  -4   4    1.57    1.26
   1  -4   3   35.34    1.53
  -2  -6  -1   38.30    1.46
   0  -5   1    1.68    1.16
   0  -4   0  370.12    3.06
   1  -2   1   59.22    1.07
   1  -1   1  178.38    1.29
  -1  -5  -1  468.61    3.77
   2  -1   4  134.23    1.43
  -3  -7  -1   14.53    1.75
  -2  -7   0  108.90    2.69
  -2  -5  -2   99.40    1.77
  -1  -6   0  125.82    2.43
  -3  -6  -2   93.04    2.04
   1  -4   2    1.94    1.12
   1  -3   1   39.96    1.24
   0  -6   2    2.40    1.41
   2  -2   4    1.62    0.80
   1  -5   4  119.15    2.79
   0  -5   0    9.11    0.85
   0  -3  -1    5.25    0.68
  -2  -7  -1   99.67    2.51
  -1  -3  -2  130.92    1.39
   0  -6   1    4.36    1.31
   0  -2  -1   -0.32    0.45
   1  -5   3   77.33    2.19
  -2  -6  -2  207.50    2.87
  -1  -6  -1  203.46    2.94
   0  -4  -1  379.93    3.06
   1  -4   1    4.01    1.06
   2  -1   3    2.89    0.55
   1  -5   2   86.75    2.26
   2  -3   4   90.03    1.94
   2  -2   3   24.21    0.96
   0  -6   0   47.42    1.85
   0  -5  -1    6.59    1.09
   1  -3   0   61.91    1.32
   1  -2   0  673.67    3.08
   2  -3   3   33.52    1.28
  -1  -2  -2 1354.55    3.14
  -2  -7  -2  351.86    4.09
   1  -4   0   -0.77    0.89
  -2  -5  -3  130.72    1.91
  -2  -4  -3  350.04    2.42
   2  -2   2    3.61    0.64
   2  -3   2  307.12    2.95
  -2  -6  -3   42.48    1.57
   0  -6  -1   30.16    1.69
   2  -4   3    5.10    1.24
   0  -4  -2  220.06    2.39
   1  -5   0    6.62    1.32
   2  -1   2   55.78    0.92
   2   0   3    8.83    0.33
   0  -3  -2   12.64    0.74
   1  -1   0    7.68    0.48
  -1  -7  -2    6.81    1.45
   0  -5  -2   17.41    1.27
   0  -1  -1 1268.16    2.61
   2  -4   2   18.74    1.46
  -1  -5  -3  230.55    2.63
  -1  -4  -3  349.37    2.68
   1  -3  -1   55.07    1.24
  -2  -7  -3  331.00    3.88
  -2  -3  -3 1162.02    3.22
   1  -4  -1    5.98    0.68
   2  -3   1  161.53    2.18
  -1  -6  -3  112.16    2.31
   1  -6   0   16.84    1.70
   2  -2   1   91.94    1.34
   0  -6  -2    3.42    0.96
   1  -5  -1   80.36    2.04
   2  -5   2    9.10    1.53
   2  -4   1   91.77    2.11
   2  -2   0  121.92    1.85
   4  -2   2   10.02    1.38
   5   2  -2    5.14    1.55
   1  -1  -1 1525.61    4.52
   3  -2   0  106.60    2.32
   4  -1  -1  103.85    2.59
   5   0  -1   13.29    1.83
   4  -2   1    7.91    1.61
   5   1  -2   68.79    2.33
   3  -1  -2  820.66    5.59
   3   2  -3  460.46    3.58
   2  -1  -2 1321.17    5.77
   3   1  -3  438.88    3.80
   4  -2   0    9.90    1.80
   4   2  -3    6.49    1.35
   2  -2  -1   17.52    1.14
   3  -2  -1  433.21    4.40
   4   1  -3   25.33    1.71
   3   0  -3  126.42    2.36
   4  -1  -2    3.89    1.57
   1   1  -2   19.22    0.52
   2  -3   2  266.01    2.92
   3  -3   2   11.11    1.55
   1   0  -2   15.25    0.59
   2  -3   1  182.30    2.57
   2   1  -3    1.71    0.88
   3  -3   1  167.39    3.14
   4  -2  -1   43.44    2.34
   4   0  -3  287.57    4.10
   2   0  -3  216.02    2.33
   5   1  -3  177.06    3.81
   1  -2  -1  221.64    2.14
   2  -3   0  423.85    3.80
   2  -2  -2   92.33    1.96
   3  -3   0  129.06    2.90
   3  -2  -2  275.22    3.68
   3  -1  -3   71.46    2.18
   1  -1  -2    3.20    0.71
   2  -1  -3  330.59    3.24
   2   2  -3   33.03    0.91
   4  -2  -2    6.12    1.63
   4  -1  -3  257.66    4.27
   1  -3   1   46.46    1.18
   1  -3   2  127.65    1.60
   4   1  -4    0.13    1.47
   3  -2  -3   35.97    1.84
   3   0  -4   11.72    1.27
   3   1  -4    3.63    1.10
   4   0  -4   17.46    1.85
   1  -3   0   61.52    1.38
   1  -2  -2   52.01    1.30
   2  -2  -3   20.09    1.14
   3  -3  -2  112.25    2.76
   3  -1  -4   49.19    1.97
   4  -2  -3   33.26    2.24
   2  -3  -2   98.33    2.08
   4  -1  -4  132.17    3.42
   0  -1   0 1156.18    2.34
   2  -4   1  106.23    2.62
   2   0  -4  655.33    4.37
   3  -4   0    2.40    1.75
   1  -1  -3    5.04    0.81
   2  -4   0  723.51    5.66
   3  -3  -3    2.97    1.68
   1   0  -3   -0.42    0.64
   3  -4  -1    0.56    1.67
   3  -2  -4  129.93    2.98
   2  -4  -1  490.52    4.88
   2  -3  -3  101.94    2.39
   2   1  -4   71.18    1.60
   1  -3  -2   26.84    1.25
   1  -2  -3  622.15    4.10
   2  -2  -4   16.00    1.43
   3  -4  -2   -0.29    1.69
   4   0  -5   93.64    3.18
   2  -4  -2  777.06    6.32
   3  -1  -5    5.79    1.51
   3   0  -5    0.44    1.54
   0  -2   1    1.44    0.33
   3  -3  -4   11.47    1.85
   1  -4   0    0.04    0.96
   1  -4  -1    6.57    1.03
   1  -4   1    5.92    0.89
   1  -3  -3    9.22    1.07
   2  -3  -4    5.60    1.13
   3  -2  -5   90.66    2.95
   0  -1  -1 1310.94    3.20
   2  -4  -3    9.33    1.77
   2  -1  -5   89.71    2.02
   0  -2  -1    0.67    0.39
   1  -4  -2    3.96    1.22
   1  -2  -4  307.06    3.23
   1   1  -3  116.84    1.18
   2   0  -5  232.75    2.97
   3  -3  -5    2.91    1.95
   2  -5  -1   46.05    2.46
   2  -4  -4   61.68    2.48
   1  -4  -3    5.23    1.31
   1  -3  -4   73.46    1.95
   2  -5  -2   34.75    2.08
   2  -3  -5   46.84    2.11
   3  -1  -6   13.48    1.95
   0  -3   0   70.28    1.12
   0  -2  -2  403.03    2.59
   1   0  -4    2.40    0.71
   3  -2  -6   70.65    2.57
   2  -5  -3   15.43    1.88
   0  -3  -2   11.33    0.90
   0  -1  -2   15.23    0.55
   2  -4  -5   12.02    1.80
   0  -3   1 1015.01    3.24
   1  -5  -2  481.73    4.83
   1  -5  -1   82.13    2.27
   1  -4  -4   46.52    1.69
   2  -2  -6    7.72    1.57
   2  -1  -6  153.11    2.99
   1  -3  -5  182.59    3.11
   1  -1  -5    4.21    0.98
   0  -2  -3   22.67    0.99
   1  -5  -3   64.77    2.25
   0  -4  -1  384.35    3.06
   0  -3  -3  121.74    1.94
   0  -4  -2  225.58    2.65
   1  -4  -5   36.45    1.94
   0  -4   0  390.01    2.82
   0  -4  -3   38.63    1.57
   0  -1  -3   20.01    0.82
   0  -3  -4   69.24    1.71
   1  -3  -6  414.98    4.79
   0  -2  -4   19.32    1.04
   1  -2  -6 2040.45    9.18
   1   0  -5    5.89    0.88
   2  -2  -7   18.48    1.95
   0  -4  -4   38.31    1.57
   1  -5  -5  280.69    4.41
   1  -6  -2  178.11    3.52
   1  -4  -6   32.80    1.82
   2  -1  -7   34.78    2.00
   0  -5  -3   36.87    1.63
   0  -5  -2   18.16    1.38
   1  -6  -3  170.28    3.39
   1  -1  -6  316.05    3.52
   1   1  -4   25.83    0.75
   0  -5  -1    5.55    0.97
   0  -3  -5  158.64    2.55
   0  -4  -5  405.58    4.29
   1  -5  -6   90.07    3.11
   0  -2  -5   17.75    1.23
   0   0  -2   67.16    0.74
   1  -3  -7  438.36    5.18
   1  -4  -7    1.27    1.66
   0  -5  -5  160.89    3.21
   1  -2  -7  176.25    3.09
   0  -6  -3   32.65    1.84
   0  -4  -6  399.63    4.65
   0  -3  -6  307.20    3.72
   0  -6  -4    2.62    1.48
   0  -6  -2   -1.31    1.30
   0  -5  -6   79.41    2.64
   0  -2  -6   24.38    1.37
   0  -1  -5  345.38    2.91
   0   0  -3  280.83    1.76
   1  -1  -7   53.09    2.00
   1   0  -6    1.16    0.93
   0  -6  -5    2.85    1.57
   1  -3  -8  103.44    2.82
  -1  -4  -3  342.06    3.17
   0  -4  -7  233.40    4.02
  -1  -4  -4   95.02    1.95
  -1  -4  -2   11.26    0.95
  -1  -3  -3  108.40    1.70
  -1  -3  -2  138.08    1.69
   0  -5  -7   31.09    2.07
   0  -3  -7   65.18    2.06
   1  -2  -8   25.32    1.92
  -1  -5  -3  230.48    2.92
  -1  -3  -4  364.55    3.18
  -1  -4  -5   21.14    1.40
  -1  -5  -5   34.42    1.91
  -1  -5  -2  204.22    2.57
  -1  -4  -1    2.02    0.69
   0  -2  -7    5.38    1.41
   0   0  -4   13.84    0.70
  -1  -3  -5  447.75    3.82
  -1  -3  -1    2.93    0.43
   0  -1  -6   79.29    1.79
  -1  -6  -4  106.19    2.58
  -1  -2  -3  234.31    2.10
   0  -4  -8  171.90    3.47
  -1  -6  -5   60.20    2.22
  -1  -6  -3  109.98    2.42
  -1  -5  -6   27.04    1.90
  -1  -4  -6    6.11    1.04
  -1  -2  -4   61.12    1.34
  -1  -2  -2 1293.82    4.18
   0  -3  -8  209.56    3.71
  -1  -5  -1  505.25    3.51
  -1  -6  -6  116.96    3.01
  -1  -6  -2  131.51    2.43
  -1  -3  -6  277.93    3.39
  -1  -5  -7   43.58    2.17
  -1  -2  -5 2237.06    7.62
  -1  -4  -7    4.85    1.28
   0   0  -5   39.49    1.10
  -1  -7  -4   60.89    2.52
  -1  -4   0  174.82    1.65
  -1  -2  -1  578.81    2.45
   0  -2  -8    0.94    1.55
   0  -1  -7  143.42    2.43
  -1  -3  -7   22.29    1.72
  -1  -3   0  168.07    1.39
  -1  -2  -6   86.51    1.89
  -1  -4  -8   54.42    2.34
  -2  -5  -5   22.37    1.66
  -1  -1  -3   16.12    0.74
  -2  -6  -5  114.81    2.73
  -2  -5  -6   14.41    1.61
  -2  -4  -5  392.10    3.84
  -2  -4  -4  744.89    4.84
  -1  -3  -8    3.45    1.10
  -1  -2  -7    9.37    1.23
   0   0  -6  274.51    2.43
  -2  -6  -6   18.82    1.79
  -2  -6  -4   50.24    1.74
  -2  -5  -3  130.49    2.10
  -2  -4  -3  343.14    3.12
  -2  -4  -6  122.88    2.55
  -1  -1  -5  650.64    3.78
  -1  -1  -2   39.27    0.79
  -2  -6  -3   40.11    1.78
  -2  -5  -7   57.29    2.07
  -2  -5  -2  101.69    1.87
  -2  -3  -5  648.86    4.52
  -2  -3  -4 1091.68    5.38
  -2  -7  -4  110.55    2.50
  -2  -4  -7   26.69    1.68
  -2  -4  -2  500.56    3.40
  -2  -3  -3 1113.63    4.99
  -2  -3  -6  116.04    2.35
  -1  -3  -9   20.97    2.26
  -1  -2  -8   49.88    2.02
  -1  -1  -6   12.47    1.06
  -2  -6  -2  218.04    2.89
   1  -2  -4  308.86    2.69
   2  -3  -4    7.79    1.01
   0   0  -1   36.30    0.41
   1  -3  -2   26.53    0.72
   2   0  -6    8.66    1.12
   1   0  -5    6.58    0.97
   1   2  -4 2039.27    6.84
   2  -1  -6  154.64    2.88
   2   1  -6    9.04    1.27
   1  -1  -5    5.28    0.70
   2   3  -5  175.58    2.87
   3  -2  -6   76.49    2.63
   3   3  -6    1.70    1.51
   1  -3  -3    9.27    0.80
   1   1  -5  299.65    3.03
   1   3  -3   74.63    1.32
   0   0  -2   69.35    0.80
   2  -2  -6    4.49    1.25
   2   2  -6   10.91    1.52
   0  -1  -2   14.63    0.52
   0  -1  -1 1254.95    2.25
   2  -3  -5   48.81    1.71
   1  -3  -4   74.25    1.46
   2   0  -7  161.34    3.18
   0  -1  -3   20.27    0.72
   0   0  -3  293.20    1.96
   1  -1  -6  301.77    3.29
   1   0  -6    0.96    1.08
   2  -1  -7   36.99    1.72
   2   1  -7   43.42    2.07
   0   1  -1    2.87    0.22
   1   2  -5    7.82    0.95
   2  -3  -6    8.38    1.49
   2   3  -6  210.34    3.33
   1   3  -4   39.78    1.20
   2  -2  -7   19.28    1.46
   0  -1  -4   68.70    1.24
   0   0  -4   16.57    0.81
   1  -3  -5  189.05    2.41
   2   2  -7    0.68    1.56
   0  -2  -2  415.44    1.84
   1  -1  -7   50.91    1.88
   1   0  -7    7.81    1.51
   0  -2  -4   18.51    0.83
   1   2  -6    4.36    1.23
   0  -1  -5  343.10    2.82
   1  -3  -6  421.73    3.82
   1  -2  -7  152.59    2.76
   2  -3  -7   76.83    2.38
   0   0  -5   39.39    1.06
   1   1  -7  270.23    3.61
   0  -2  -5   17.32    1.00
   1   3  -5   61.30    1.58
   0  -1  -6   72.82    1.65
   0   1  -5    6.94    0.86
   1  -1  -8   43.23    1.96
   0   0  -6  298.78    3.02
   1  -3  -7  439.82    4.15
   1   0  -8   10.94    1.24
   0  -3  -4   71.45    1.21
   0  -2  -6   22.43    1.04
   1  -2  -8   23.94    1.67
   1   2  -7  245.17    3.48
   0  -3  -5  166.14    2.01
   0   2  -3    4.43    0.51
   1   1  -8  358.62    4.40
   0  -3  -3  121.72    1.26
   0  -2  -1    0.23    0.20
   0  -1  -7  140.01    2.41
   0   2  -2   18.38    0.47
   0  -2  -7    2.87    1.22
   0   1  -6   51.99    1.51
   0   2  -4   10.31    0.71
   1  -3  -8   96.26    2.46
   0  -3  -6  309.77    3.01
   0   0  -7  173.36    2.60
   0   2  -5   23.63    1.06
   1  -4  -7    0.86    1.01
   0  -3  -7   63.22    1.78
   0  -1  -8  258.27    3.52
   0   1  -7    5.54    1.24
   0  -2  -8    0.83    0.96
   0  -3  -2   12.54    0.39
   0   0  -8   52.95    1.80
   0  -3  -8  190.35    3.04
   0   2  -6    0.93    0.91
   0  -4  -6  387.57    3.36
   0  -4  -5  395.47    2.96
  -1  -1  -5  630.33    3.54
   0  -4  -4   37.96    1.02
   0   1  -8   34.78    1.67
  -1  -2  -5 2263.25    6.64
  -1  -1  -6   11.04    0.92
  -1  -1  -4  354.12    2.36
   0  -4  -7  230.33    2.98
  -1  -2  -6   81.17    1.62
  -1  -2  -4   62.40    1.10
  -1   0  -5   10.28    0.85
   0   2  -7   70.98    1.94
  -1   0  -4  114.20    1.40
  -1  -2  -7   10.38    0.89
  -1  -1  -7   78.35    1.76
  -1  -1  -3   16.16    0.63
  -1   0  -6    2.79    0.69
   0  -4  -8  161.07    2.79
  -1  -3  -5  443.00    3.02
  -1  -2  -8   44.17    1.80
  -1   0  -3    2.73    0.46
  -1  -2  -3  246.19    1.70
  -1  -1  -8  184.61    2.80
  -1  -3  -4  364.77    2.38
  -1   1  -5  258.91    2.35
  -1   0  -8   43.73    1.74
  -1   1  -6  280.87    2.76
  -1   1  -4  562.39    2.92
  -1  -2  -9   57.27    1.85
  -1  -1  -9   16.46    1.65
  -1  -4  -7    2.61    1.02
  -1  -4  -6    3.67    0.94
  -1   1  -7  241.50    2.88
  -1  -4  -8   44.96    1.70
  -1  -4  -5   23.63    0.98
  -1  -1  -2   38.85    0.64
  -1   1  -3  481.93    2.31
  -1  -3  -3  109.97    1.16
  -1   1  -8  521.53    4.56
  -1   0  -2   -0.11    0.35
  -2  -2  -7    0.60    0.95
  -1  -4  -4   95.76    1.30
  -1   2  -6  339.27    3.04
  -1   2  -5   61.38    1.25
  -2  -2  -6   41.31    1.12
  -2  -1  -6  184.37    2.27
  -1  -2  -2 1333.18    3.19
  -2  -3  -8    6.35    1.23
  -2  -3  -7   92.71    1.82
  -2  -3  -6  114.93    1.87
  -2  -2  -8   15.60    1.08
  -2  -2  -5    0.66    0.68
  -2  -1  -7  242.15    2.84
  -1   2  -4   37.41    0.97
  -2  -1  -8   84.50    2.11
  -2  -1  -5   73.48    1.37
  -2  -4  -8    8.63    1.18
  -2  -4  -7   25.65    1.30
  -2  -3  -5  658.25    3.65
  -2   0  -7  264.85    2.96
  -2   0  -6  359.56    3.13
  -2  -2  -4    1.89    0.57
  -2  -1  -4  771.30    3.54
  -2   0  -8  793.52    5.44
  -1   1  -2  114.97    0.98
  -2  -4  -6  116.53    1.76
  -1   2  -3 2172.66    4.65
  -2  -4  -5  385.32    2.85
  -1  -4  -3  342.10    1.91
  -2  -5  -8    8.38    1.49
  -2   1  -7  195.09    2.65
  -2   1  -6  134.53    2.02
  -2  -5  -7   52.72    1.59
  -1  -3  -2  139.96    1.07
  -2  -2  -3   37.86    0.84
  -2  -1  -3  439.24    2.43
  -2   1  -8  103.92    2.31
  -2   1  -5  239.40    2.29
  -2  -5  -6   11.68    0.99
  -3  -3  -8   23.84    1.43
  -3  -3  -7    7.08    1.10
  -3  -2  -8  199.43    2.92
  -3  -2  -7  216.31    2.87
  -3  -2  -6  106.44    1.90
  -2  -4  -4  763.66    3.56
  -2   0  -3    7.67    0.58
  -3  -3  -6    9.79    1.10
  -3  -1  -8   21.91    1.41
  -2   1  -4  142.12    1.62
  -1  -1  -1   33.25    0.50
  -3  -1  -6  282.01    2.96
  -1   0  -1    2.10    0.28
  -3  -2  -5  187.85    2.19
  -2  -5  -5   23.91    0.96
  -3  -4  -6    5.38    1.01
  -3  -3  -5  106.87    1.74
  -3  -1  -5    5.59    0.90
  -3   0  -7   41.22    1.49
  -3  -5  -7  244.35    2.95
  -3   0  -6    1.50    0.92
  -1   2  -2  239.61    1.32
  -3  -4  -5    1.15    0.53
  -3  -2  -4  992.63    4.49
  -2  -1  -2   66.80    0.96
  -2   1  -3    2.77    0.51
  -3  -5  -6  176.90    2.39
  -3  -3  -4  189.56    2.07
  -3  -1  -4  281.83    2.45
  -3   0  -5   12.81    0.89
  -2  -2  -2   10.91    0.54
  -2  -4  -3  353.24    2.22
  -2  -5  -4   68.24    1.20
  -2   0  -2   37.82    0.77
  -4  -3  -7    3.36    1.12
  -2   2  -4    1.98    0.59
  -1   1  -1  190.62    1.02
  -4  -2  -7   13.05    1.35
  -3   0  -4    6.51    0.71
  -3   1  -6  117.32    2.11
  -4  -4  -7   44.33    1.53
  -4  -3  -6    4.43    1.08
  -3  -5  -5  161.34    2.12
  -3  -4  -4    9.52    0.63
  -2  -3  -2   37.18    0.76
  -4  -2  -6   26.05    1.34
  -3  -2  -3   65.87    1.22
  -1  -4  -2   10.71    0.38
  -3  -1  -3  390.70    2.70
  -3   1  -5   83.75    1.63
  -3  -3  -3  292.74    2.36
  -4  -3  -5    4.65    0.96
  -4  -2  -5   -0.38    1.01
  -4  -1  -6   66.58    1.69
  -2   1  -2   58.90    0.90
  -4  -5  -6   46.13    1.63
  -3   0  -3   74.15    1.34
  -2   2  -3   22.78    0.71
  -3  -5  -4   96.18    1.56
  -3   1  -4   84.29    1.51
  -3  -4  -3   15.03    0.80
  -4  -3  -4   84.47    1.70
  -4  -2  -4   -0.02    0.83
  -4   0  -6  104.52    2.17
  -2  -1  -1    3.31    0.46
  -3  -2  -2    5.62    0.64
  -2  -4  -2  495.60    2.43
  -1  -3  -1    3.45    0.29
  -4  -5  -5    7.05    1.12
  -4   0  -5  102.07    2.00
  -3  -1  -2    5.33    0.63
  -2  -2  -1  179.81    1.39
  -5  -2  -3  405.20    4.13
  -4   0   1 1125.65    6.39
  -4   2   2    5.04    1.04
  -1   2   3  608.86    2.91
  -5  -1  -1   52.69    2.01
  -5   0   0    9.32    1.47
  -4  -1   0   49.59    1.40
  -3   2   3   35.46    1.43
  -4   1   2    3.36    1.07
  -3  -2  -1  151.69    1.81
  -5  -2  -2  200.30    3.00
  -4  -2  -1    2.34    0.97
  -3   0   2  169.62    2.30
  -5  -1   0    3.83    1.45
  -3  -1   1  975.13    4.82
  -2   0   2  890.22    3.98
  -5   0   1   13.86    1.63
  -3   1   3   73.13    1.82
  -2   1   3  332.59    2.76
  -2   3   4    4.51    1.07
  -4  -1   1   94.27    2.04
  -4   0   2 1240.78    7.06
  -4   2   3   33.24    1.89
  -5  -2  -1   36.85    1.75
  -4  -3  -3  415.33    3.26
  -2  -1   1  346.58    2.40
  -2  -2  -1  177.07    1.48
  -1   3   4   72.72    1.31
  -5  -3  -3   13.63    1.33
  -4  -2   0   75.51    1.86
  -4   1   3  244.63    3.58
  -3  -2   0  144.14    1.94
  -5  -1   1   10.82    1.65
  -3  -3  -3  291.62    2.16
  -2   2   4   14.34    1.10
  -1  -1   0 1878.27    3.54
  -4  -3  -2  954.62    5.11
  -3   2   4  129.22    2.56
  -5  -3  -2   90.91    2.27
  -4  -1   2   70.05    2.01
  -3  -1   2  728.45    4.52
  -3   0   3  129.74    2.24
  -1   1   3    6.36    0.66
  -4   0   3  276.99    3.76
  -3  -3  -2   34.99    1.00
  -1   0   2   18.11    0.57
  -4  -3  -1  447.64    3.70
  -4  -2   1   11.38    1.09
  -3   1   4   47.77    1.75
  -2   0   3  221.28    2.33
  -5  -3  -1    6.30    1.38
  -5  -1   2   68.09    2.44
  -3  -2   1  146.11    2.08
  -1   2   4  322.23    2.37
  -5  -2   1   20.65    1.78
  -4   1   4  132.73    2.93
  -2  -2   0    1.46    0.56
  -2   1   4   40.36    1.28
  -2  -1   2   19.12    0.78
  -4  -3   0  189.18    2.65
  -4  -1   3   22.06    1.70
  -3  -3  -1   76.98    1.32
  -5  -3   0   34.68    1.56
  -4  -2   2  107.27    2.35
  -3  -1   3  436.70    3.83
  -3   2   5   91.24    2.34
   0   2   3   24.02    0.45
  -4   0   4   17.04    1.47
  -5  -2   2    4.54    1.46
  -2   2   5    8.79    1.19
   0   1   2   15.66    0.36
  -3  -2   2  740.65    4.70
  -1  -1   1  107.87    1.13
  -3  -3   0    0.89    0.87
  -3   1   5    3.00    1.37
  -2  -2   1  295.77    2.36
  -5  -4  -1  211.20    3.27
  -4  -4  -2  113.34    1.97
  -4  -1   4    2.89    1.44
  -2  -1   3    2.56    0.63
  -1   0   3    0.65    0.61
  -1   1   4  119.89    1.61
  -4  -2   3    7.68    1.07
  -2   1   5   90.70    1.95
  -4   0   5   87.49    2.55
  -3  -1   4    7.82    1.25
  -5  -3   2   29.08    1.91
  -4  -4  -1  550.56    4.18
  -3  -3   1   58.89    1.56
  -3   0   5   -0.64    1.21
  -5  -4   0   51.72    1.99
  -4  -3   2    5.11    1.48
  -3  -2   3  472.70    4.06
  -2  -2   2   32.14    1.12
  -1   2   5   11.46    0.80
  -4  -4   0   12.90    1.21
  -2  -3  -2   34.44    0.70
  -1  -1   2   18.09    0.64
  -5  -4   1   36.68    1.91
  -4  -2   4   -0.20    1.16
  -4  -1   5    2.17    1.59
  -3   1   6   14.30    1.60
  -2  -3  -1    7.76    0.61
  -3  -3   2   38.25    1.47
  -2  -1   4   68.78    1.61
  -2   0   5  235.40    2.94
  -4  -3   3    7.31    1.59
  -2  -3  -3 1113.23    2.33
  -4  -4   1  105.76    2.21
  -3  -4  -2  231.32    2.08
  -3  -2   4    7.55    1.41
  -2  -3   0   37.51    0.99
  -1   0   4    1.25    0.78
  -3  -4  -1    3.12    0.86
  -2  -2   3   34.10    1.28
  -2   1   6  150.47    2.55
  -3   0   6    4.61    1.10
  -1   1   5    6.11    0.91
  -4  -2   5   16.91    1.81
  -3  -4   0   46.83    1.32
  -3  -3   3   25.76    1.51
  -2  -3   1  179.89    2.05
  -1  -1   3  108.22    1.54
  -4  -3   4   16.90    1.72
  -1  -2  -1  563.34    1.80
  -5  -5   0    8.19    1.72
  -1  -2   0  514.62    2.21
   0   1   3   20.30    0.52
  -3  -4   1   66.70    1.69
  -3  -2   5  984.70    6.97
  -2   0   6    7.32    1.47
  -3  -1   6   54.75    2.00
  -2  -2   4   62.29    1.73
  -4  -5  -1    8.83    1.36
  -4  -4   3   79.91    2.55
  -2  -3   2   81.31    1.67
  -1  -2   1 1340.36    4.18
  -4  -5   0   21.55    1.55
  -3  -3   4   19.97    1.58
  -1   0   5    7.63    0.89
  -3   0   7    0.54    1.77
  -1  -1   4   25.31    1.07
  -4  -5   1   25.97    1.64
  -1  -2   2  162.29    1.78
  -1   1   6  307.52    2.90
  -2  -3   3  309.56    3.14
  -2  -1   6    9.90    1.47
  -3  -4   3  243.00    3.48
  -2  -2   5  112.27    2.40
   0   0   2   68.72    0.77
  -4  -5   2    9.51    1.56
  -3  -3   5   32.10    1.98
  -2   0   7  167.82    3.08
  -1  -2   3   11.75    0.94
   0   1   4   67.12    0.99
  -2  -3   4 1138.65    6.56
  -1   0   6    0.83    1.01
  -3  -5   0   26.54    1.35
  -3  -4   4  165.84    3.13
  -2  -4   0   91.98    1.49
  -2  -4   1   23.38    1.12
  -3  -5  -1  175.85    2.23
  -3  -5   1  225.33    3.00
  -2  -4  -1  200.80    1.87
  -2  -1   7   36.81    1.97
  -1  -2   4 1978.24    7.29
  -3  -5   2   80.49    2.08
  -2  -3   5  164.47    3.02
  -3  -4   5  184.06    3.59
  -2  -4   3  383.47    3.87
   0   0   4   15.51    0.71
  -4  -6   1   72.89    2.41
  -1  -3   1  114.73    1.51
  -1  -1   6  147.23    2.32
   0   1   5  323.22    2.17
  -3  -5   3  138.78    2.72
  -1  -3   2   57.62    1.20
  -1  -2   5    8.18    1.22
  -2  -4  -2  491.17    2.24
  -1  -3   0  159.01    1.48
  -1   0   7    8.32    1.21
  -2  -4   4  220.68    3.26
  -2  -2   7    0.80    1.17
  -1  -3   3   77.26    1.64
   0  -1   2    2.09    0.49
  -3  -5   4  219.69    3.65
  -2  -3   6  212.28    3.47
   0  -1   3  136.03    1.48
   0   0   5   36.20    1.04
  -1  -3   4   40.10    1.47
   0  -1   1    2.93    0.37
  -2  -4   5  168.30    3.10
  -1  -1   7  268.29    3.38
   0  -1   4    3.00    0.69
   0   1   6   66.83    1.25
  -3  -6   1   27.61    1.58
  -2  -5   1   15.77    0.88
  -2  -5   2    3.41    1.10
  -1  -3  -1    2.75    0.40
  -3  -6   2  155.81    3.00
  -2  -5   0   49.05    1.31
  -1  -3   5   57.87    1.76
   0   0   6  285.34    2.67
  -1  -2   7  223.93    3.39
  -2  -5   4    2.55    1.38
  -1  -4   1   66.32    1.34
  -1  -4   3   14.84    1.28
   0  -2   3    5.93    0.71
  -2  -5  -1   99.65    1.50
  -1  -3   6   13.36    1.56
  -1  -1   8  332.82    4.10
   0  -2   2   17.29    0.63
  -1  -4   4   33.06    1.48
   0  -2   4    9.62    0.67
   0  -1   6   50.76    1.44
  -3   0  -7   40.98    1.78
  -3   1  -2  122.11    1.79
  -2  -1  -7  255.17    2.78
  -2   1   0  263.42    1.69
  -3   2  -1  333.03    2.78
  -3   0  -3   70.67    1.44
  -2  -1  -3  440.75    2.57
  -2   0  -1   31.39    0.75
  -1   1   1 1546.78    2.33
  -2  -1  -8   86.73    2.13
  -1  -1  -2   38.30    0.65
  -3  -1  -6  292.03    3.24
  -3  -1  -5    7.26    0.97
  -2   2   1   16.10    0.61
  -3   1  -1  101.96    1.52
  -4   1  -4  199.73    3.01
  -3  -1  -4  282.66    2.70
  -3   0  -2    9.12    0.87
  -4   2  -3    0.83    1.28
  -3  -1  -8   22.36    1.52
  -1   0   0    3.66    0.29
  -4   0  -6  105.38    2.49
  -4   0  -5  100.34    2.31
  -2  -1  -2   68.30    1.04
  -4   1  -3  295.37    3.39
  -3   2   0  106.83    1.62
  -2  -2  -6   43.17    1.20
  -1  -2  -5 2219.21    5.47
  -4   0  -4  356.74    3.78
  -3  -1  -3  388.00    2.94
  -2  -2  -7   -1.12    0.96
  -2  -2  -5   -0.37    0.69
  -4   2  -2   12.10    1.25
  -2  -2  -8   17.69    1.19
  -4  -1  -6   68.40    1.93
  -4  -1  -5   56.62    1.79
  -4   0  -3  290.56    3.23
  -4   1  -2  101.52    2.03
  -3  -2  -7  228.19    2.99
  -1  -2  -4   59.24    0.99
  -3  -2  -5  201.30    2.46
  -3   0  -1    1.72    0.68
  -3  -2  -8  207.06    3.10
  -4  -1  -4   18.76    1.10
  -3  -1  -2    5.68    0.70
  -3   1   0  302.18    2.33
  -3  -2  -4  986.04    4.86
  -4   0  -2  109.79    1.99
  -4  -2  -6   25.27    1.54
  -4  -1  -3  164.90    2.45
  -2  -2  -3   39.89    0.86
  -2  -1  -1    4.13    0.52
  -2   1   1  275.80    1.56
  -4   1  -1  175.29    2.38
  -1  -1  -1   34.89    0.53
  -4  -2  -5    1.07    0.90
  -3  -2  -3   69.35    1.31
  -1  -2  -3  240.50    1.57
  -4  -2  -4   -0.27    0.97
  -3  -3  -7    4.87    1.16
  -5   0  -3   -0.30    1.40
  -4   0  -1  193.92    2.41
  -3  -3  -8   29.03    1.57
  -3  -3  -6   10.50    0.84
  -3  -1  -1    2.94    0.67
  -3   0   0    5.34    0.62
  -2  -3  -7   85.91    1.74
  -2  -3  -6  112.14    1.72
  -3  -3  -5  102.57    1.88
  -4  -3  -7    2.20    1.24
  -4  -2  -3    6.33    1.00
  -2  -3  -5  650.41    3.61
  -2  -2  -2   12.79    0.66
  -5  -2  -5  230.87    3.43
  -5  -1  -3  149.16    2.71
  -3  -2  -2    5.35    0.58
  -5   0  -2   24.66    1.50
  -4  -3  -5    2.74    0.99
  -3  -3  -4  199.40    2.33
  -5  -2  -4   32.92    1.80
  -3   1   1    5.89    0.67
  -2  -3  -4 1099.16    4.44
  -4  -1  -1  106.56    1.84
  -4  -3  -4   86.13    1.89
  -4  -2  -2   95.14    1.89
  -5  -1  -2  354.76    3.81
  -5  -3  -5    2.56    1.26
  -4   0   0  199.58    2.29
  -3  -3  -3  290.44    2.68
  -2  -1   0  218.59    1.64
  -1  -2  -2 1267.41    3.36
  -3  -1   0   37.03    1.03
  -4  -4  -7   46.94    1.89
  -4  -3  -3  415.27    3.72
  -3  -4  -7   29.98    1.42
  -3  -2  -1  186.17    1.99
  -2   0   1 9999.00    9.67
  -1  -3  -5  431.17    2.36
  -5  -3  -4   11.52    1.47
  -4  -4  -6   11.38    1.43
  -3  -4  -6    5.76    1.06
  -2  -2  -1  175.19    1.58
  -5  -2  -2  193.76    2.94
  -3  -4  -5    0.96    0.84
  -3   0   1   46.08    1.09
  -5  -1  -1   53.84    1.84
  -5  -3  -3   13.69    1.45
  -4  -1   0   51.32    1.40
  -3  -3  -2   35.10    1.13
  -5  -4  -5    2.49    1.36
  -4  -4  -4   79.30    2.07
  -4  -3  -2  944.64    5.38
  -1  -3  -4  358.74    2.09
  -3  -4  -4    9.91    1.03
  -1  -1   0 1952.88    3.71
  -5  -4  -4    2.95    1.27
  -2  -4  -5  389.74    2.95
  -2  -3  -2   39.18    1.00
  -5  -3  -2   86.06    2.21
  -5  -2  -1   37.81    1.62
  -4  -4  -3  190.89    2.76
  -3  -2   0  143.22    1.81
  -3  -4  -3   17.08    1.12
  -5  -4  -3   41.74    1.81
  -5  -1   0    5.60    1.09
  -4  -5  -6   44.66    1.84
  -4  -3  -1  435.26    3.69
  -4  -2   0   80.70    1.68
  -3  -3  -1   75.45    1.50
  -3  -1   1  975.86    4.13
  -2  -4  -4  759.36    3.92
  -1  -3  -3  107.47    1.21
  -1  -2  -1  608.64    2.42
  -4  -5  -5    9.05    1.28
  -2  -2   0    0.78    0.57
  -3  -5  -6  165.80    2.48
  -2   1   2 1295.26    2.81
  -5  -3  -1    4.45    1.27
  -4  -4  -2  108.40    2.03
  -4  -1   1   96.91    1.67
  -5  -5  -4   83.60    2.38
  -5  -4  -2   32.69    1.68
  -5  -2   0   41.71    1.59
  -3  -5  -5  157.35    2.39
  -3  -4  -2  235.77    2.58
  -2  -4  -3  340.68    2.65
  -2  -3  -1    8.46    0.74
   0  -2  -3   21.29    0.34
  -3  -5  -4   91.78    1.88
  -5  -5  -3   77.64    2.19
  -4  -5  -3   -0.23    1.17
  -4  -4  -1  515.72    4.16
  -3  -3   0    1.05    0.52
  -3   0   2  168.83    1.61
  -4  -2   1   10.50    0.74
  -5  -4  -1  196.45    3.00
  -5  -3   0   32.66    1.38
  -1  -3  -2  141.17    1.34
  -3  -5  -3  343.55    3.25
  -3  -4  -1    3.12    0.63
  -2   0   2  867.33    2.84
  -5  -5  -2  229.99    3.41
  -4  -6  -5   90.61    2.34
  -4  -5  -2   13.60    1.37
  -5  -2   1   19.25    1.32
  -3  -1   2  691.64    3.50
  -2  -2   1  280.77    2.15
  -4  -6  -4    4.21    1.13
  -4  -1   2   64.35    1.54
  -2  -3   0   36.80    0.92
  -4  -4   0   13.99    1.09
  -4  -3   1  119.47    2.15
  -1  -2   0  554.72    2.44
  -5  -4   0   52.67    1.72
  -2  -5  -4   64.32    1.36
  -5  -5  -1  535.86    5.02
  -5  -3   1   -1.08    1.20
  -4  -6  -3    5.64    1.34
  -4  -5  -1    9.01    1.19
  -3  -3   1   59.39    1.47
  -1  -4  -4   89.34    1.15
  -1  -1   1  104.66    1.00
  -3  -4   0   44.72    1.23
  -2  -4  -1  195.31    2.15
  -4  -2   2   97.29    1.82
  -2  -1   2   18.25    0.73
  -3  -6  -4   82.70    2.03
  -3  -2   2  703.26    3.93
  -2  -5  -3  121.33    1.88
  -3  -5  -1  177.77    2.59
  -4  -6  -2   -0.40    1.30
  -1  -4  -3  319.14    2.16
  -5  -5   0   10.91    1.51
  -4  -4   1   92.50    2.22
  -3  -6  -3   77.29    1.98
  -5  -4   1   33.90    1.48
  -4  -5   0   21.21    1.33
  -2  -3   1  182.54    2.07
  -4  -3   2    4.16    0.99
  -2  -5  -2   94.61    1.71
   0  -2  -2  386.90    1.27
  -3  -4   1   63.95    1.62
  -2  -4   0   95.51    1.68
  -5  -3   2   26.58    1.61
  -4  -6  -1  118.38    2.63
  -3  -6  -2   93.89    2.19
  -2  -2   2   31.23    0.97
  -3  -5   0   25.70    1.32
  -1  -4  -2    8.42    0.72
  -3  -1   3  419.74    2.94
  -1  -3   0  183.26    1.77
  -1  -2   1 1401.47    4.25
  -2  -5  -1  103.41    1.82
  -4  -3   3    7.24    1.43
  -3  -3   1   57.74    1.44
  -2  -2   4   62.93    1.79
  -3  -3   0    1.62    0.68
  -3  -3   2   40.02    1.42
  -1   1   8   47.99    2.34
  -1  -1   5  287.75    3.27
   1   2   5 2270.89    5.60
  -4  -3   4   16.23    1.80
  -3  -3   3   26.49    1.66
  -1   0   7   11.47    1.58
  -3  -2   6   45.74    2.32
   0   0   5   38.69    1.33
  -2  -2   5   88.26    2.09
  -2  -1   7   38.91    2.03
   0   1   7  147.47    2.63
  -3  -3  -1   77.45    1.13
  -1  -1   6  144.24    2.77
  -2  -2   6   11.21    1.68
  -1   0   8   10.71    1.76
   0   0   6  316.04    3.31
  -3  -3   5   33.17    2.05
  -1  -2   2  148.33    1.71
  -1  -2   3   12.85    1.01
  -4  -4   1  102.74    2.29
  -4  -4   2   30.19    1.65
  -2  -3   1  173.73    1.98
  -2  -3   3  295.28    3.14
  -1  -2   1 1375.59    4.32
  -1  -2   4 1916.88    7.57
   0   1   8  281.10    3.81
  -4  -4   3   83.82    2.41
  -2  -3   4  967.55    6.16
  -2  -2   7    0.13    1.50
  -4  -4   4  115.17    3.03
  -1  -2   5    8.54    0.90
   0  -1   3  140.13    1.59
   0  -1   4    2.56    0.76
   0   0   7  185.25    3.08
   1   1   4  350.22    2.02
  -2  -3   5  152.63    3.09
  -3  -4   2  105.39    2.15
  -3  -4   3  240.48    3.39
  -2  -3   0   36.48    0.92
   0  -1   2    2.75    0.55
   1   1   5  644.60    3.26
  -3  -4   1   61.59    1.58
  -1  -2   6    5.00    1.50
  -1  -1   8  355.08    4.85
   1   1   3   16.72    0.45
  -3  -4   4  161.93    3.14
  -2  -3   6  193.81    3.57
   0  -1   6   55.59    1.81
   1   1   6   11.26    0.90
   0   0   8   53.22    2.23
  -1  -2   7  237.72    3.89
   0  -1   7    8.35    1.44
  -1  -3   3   62.68    1.44
  -1  -3   4   40.45    1.36
   0  -1   1    2.44    0.43
   1   1   7   81.70    1.73
  -4  -5   3   -0.07    1.73
  -2  -4   2  373.18    3.43
  -2  -4   4  221.31    3.40
  -1  -3   2   59.03    1.38
  -1  -3   5   58.68    1.91
  -2  -4   5  166.11    3.27
   0  -2   4    9.92    0.97
   1   0   5    9.02    0.85
  -1  -3   6   14.88    1.44
   0  -2   3    5.78    0.82
   0  -2   5   23.44    1.15
   0  -1   8   35.91    1.95
   1   0   4  120.71    1.46
   1   0   6    4.27    0.98
  -3  -5   3  132.57    2.77
  -2  -4   1   19.32    0.85
  -3  -5   2   86.77    2.22
  -3  -5   4  221.53    3.69
  -2  -3  -1    8.78    0.44
  -1  -3   1  116.54    1.58
  -1  -3   7   21.38    2.07
   1   0   7    1.40    1.01
   0  -2   2   19.47    0.84
   0  -2   7   73.60    2.36
   1   0   3    2.39    0.51
  -3  -5   1  223.77    2.78
  -2  -4   0   93.93    1.44
  -1  -4   4   34.06    1.67
  -1  -4   3   16.66    1.38
  -1  -4   5    1.84    1.47
   1  -1   5  253.55    2.62
  -2  -5   3    1.61    1.30
  -2  -5   4    2.16    1.47
   1  -1   6  275.19    3.01
  -1  -4   2   76.54    1.72
  -1  -4   6    2.89    1.23
   0  -3   4   11.82    1.07
   0  -3   5   64.87    1.99
  -2  -5   2    0.61    1.13
  -1  -3   0  161.82    1.53
   0  -3   3 1190.99    5.63
   0  -3   6    3.78    1.51
   1  -1   7  242.31    3.17
   0  -2   1    1.48    0.40
   1  -1   3  467.35    2.73
  -2  -5   1   17.34    1.21
   1  -1   8  492.62    4.77
   0  -3   2  841.38    4.30
  -3  -6   2  131.37    2.61
   1  -2   6  346.11    3.74
  -1  -5   4   37.42    1.94
  -1  -2  -1  593.16    1.69
   1  -2   4   37.77    1.31
  -1  -5   3  124.21    2.57
   0  -4   5    3.10    1.41
   1  -2   7  117.57    2.42
  -2  -4  -1  194.74    1.61
   0  -4   4   95.88    2.04
   0  -4   6    3.93    1.65
   0  -1   0 1218.64    2.43
  -2  -6   3   36.05    1.90
  -2  -5   0   50.44    1.32
   0  -4   3  284.88    3.15
   1  -2   3 2191.98    6.78
   1  -1   2  114.21    1.27
  -1  -5   2  136.23    2.24
   0  -3   1  983.89    4.20
  -2  -6   2   13.55    1.46
  -1  -4   0  167.84    1.83
   1  -3   5   13.47    1.40
   0  -4   2  671.49    4.33
   1  -3   6  110.08    2.36
   2   0   6  345.87    2.84
  -1  -5   1   79.28    1.74
   0  -2   0  367.76    1.92
   1  -3   4   58.47    1.62
   2   0   5  818.95    3.87
   2   1   5   66.59    0.96
  -2  -6   1  106.20    2.22
   1  -2   2  243.06    2.13
  -1  -3  -1    2.25    0.40
   1  -3   3   22.74    1.12
  -1  -6   3  488.40    4.93
   0  -5   4   20.92    1.62
   2  -1   6  130.16    2.17
   2  -1   7  197.82    2.75
   0  -5   3    1.47    1.08
   0  -4   1 1367.35    5.74
   2  -1   5  239.92    2.56
   2   0   4  130.92    1.46
  -2  -5  -1  106.05    1.50
  -1  -6   2   15.87    1.43
   0  -3   0   68.36    1.14
   1  -4   5    2.11    1.27
  -1  -5   0  466.18    3.43
   0  -5   2    3.72    1.25
   1  -4   4    3.85    1.23
   1  -3   2  132.57    1.91
   2  -1   4  140.71    1.81
   1  -1   1  187.54    1.40
   2  -2   5   45.19    1.53
   2  -2   6   57.39    1.84
   2   1   4  736.99    2.46
  -1  -4  -1    1.59    0.58
   1  -4   3   32.08    1.51
   2  -2   7    0.31    1.36
  -1  -6   1  129.78    2.40
   1  -2   1   61.80    1.13
   2  -2   4    2.74    0.61
   2  -1   3    2.12    0.65
   1  -4   2    1.87    0.91
   2  -3   6  153.28    2.88
   2   0   3    8.15    0.54
   1  -3   1   44.03    1.07
   2  -3   5   39.72    1.70
   1   0   1    1.64    0.27
  -1  -6   0  131.04    2.27
  -1  -5  -1  472.15    3.22
   1  -5   3   79.99    2.06
   0  -5   0   10.52    1.17
   1  -4   1    4.22    0.88
   2  -3   3   29.18    1.44
   0  -6   1    5.45    1.22
   1  -5   2   90.50    2.12
   2  -2   2    1.36    0.84
   2  -4   4    7.20    1.42
   0  -2  -1   -0.10    0.38
   1  -2   0  706.63    3.13
   0  -4  -1  382.25    2.72
   1  -3   0   65.99    1.21
   2  -4   3    3.25    1.27
   2  -3   2  323.20    3.21
  -1  -6  -1  205.42    2.55
   1  -5   1   95.69    2.24
   2   1   3  433.80    1.64
   3  -1   5   81.60    1.79
  -1  -7   0    3.36    1.24
   0  -6   0   48.25    1.75
   1  -4   0    0.20    0.86
   2   0   2   40.68    0.77
   3  -2   5  162.92    2.68
  -1  -4  -2   12.26    0.61
   0  -5  -1    6.66    0.89
   1  -1   0    9.18    0.40
   2  -4   2   25.29    1.52
   3  -1   4   84.12    1.66
   2  -2   1  100.27    1.60
   3  -2   4   58.57    1.81
  -1  -3   7   23.36    2.05
   0  -2   2   19.09    0.96
   1  -2   7  129.47    3.33
   1  -2   4   41.66    1.60
  -1  -3   3   79.13    1.74
   0  -3   5   71.59    2.32
   0  -3   6    4.05    1.70
   3   0   6    2.66    1.47
   3   0   7   43.34    2.27
   0  -3   7   50.37    2.50
   0  -3   4   11.32    1.28
   3   0   5   11.65    1.26
  -2  -3   2   81.34    1.36
   1  -2   3 2130.40    7.64
   2   0   2   42.90    0.94
  -1  -3   2   61.13    1.39
   0  -3   3 1233.25    6.19
   2  -1   3    2.14    1.01
  -2  -4   5  158.35    2.98
  -1  -4   5    3.08    1.44
  -1  -4   6    2.32    1.62
   1  -3   6  109.51    2.89
   3   0   4    5.64    0.98
   3   1   3  393.57    2.44
  -2  -4   4  202.41    2.93
   1  -3   5   14.72    1.59
  -1  -4   4   34.09    1.57
   0  -2   1    2.05    0.61
   3  -1   7  250.29    4.10
   1  -3   4   59.69    1.97
   1  -2   2  247.78    2.37
   1  -1   1  199.30    1.63
   3  -1   6  123.42    2.80
  -2  -4   3  357.76    3.33
   0  -4   6    7.98    1.66
   0  -3   2  838.16    4.61
  -1  -4   3   14.12    1.21
   0  -4   5    5.09    1.60
   3  -1   5   88.09    2.27
   0  -4   4   94.63    2.28
   1  -3   3   24.06    1.33
   2  -1   2   60.98    1.31
  -1  -3   1  115.58    1.51
   3   0   3   72.44    1.48
   3  -1   4   85.92    2.00
  -2  -3   1  167.15    1.51
   0  -4   3  281.99    3.41
  -2  -4   2  357.20    2.95
  -1  -4   2   81.79    1.71
   2  -3   5   38.29    2.15
  -1  -5   5   49.34    2.34
   1  -4   5    0.38    1.10
   3  -2   6   38.17    2.29
  -2  -5   4    1.62    1.22
   0  -3   1  981.59    4.54
   1  -3   2  127.30    2.11
   1  -2   1   67.56    1.29
   2  -3   4   90.51    2.50
  -1  -5   4   31.78    1.80
   0  -1   0 1210.90    2.69
   1  -4   4    2.11    1.05
   3  -2   5  155.71    3.02
   0  -4   2  678.63    4.73
   3  -1   3  125.47    2.06
  -2  -5   3    1.62    1.14
  -1  -5   3  127.50    2.56
   1  -4   3   35.04    1.68
   2   0   1   31.63    0.75
   3  -2   4   54.66    2.00
   2  -3   3   29.14    1.43
  -1  -4   1   66.79    1.48
   0  -5   3    1.68    1.42
   0  -2   0  369.14    2.14
  -2  -4   1   22.65    0.90
  -1  -5   2  153.71    2.59
   1  -3   1   46.47    1.34
   2  -1   1    6.96    0.68
  -2  -5   2    2.30    1.03
   0  -4   1 1346.16    6.23
   1  -4   2    0.95    1.13
   2  -4   4   10.84    1.70
   3   0   2   10.87    0.65
   3   1   2    4.26    0.38
   2  -3   2  305.48    3.39
   3  -2   3  156.85    2.67
  -1  -3   0  156.10    1.57
   0  -5   2    4.26    1.27
   3  -3   4   58.35    2.19
   3  -1   2  124.24    1.90
   0  -3   0   69.02    1.22
   1  -5   3   78.19    2.49
   1  -1   0   10.27    0.55
   2  -4   3    3.49    1.50
  -1  -6   3  491.83    5.16
  -1  -5   1   82.67    1.87
   1  -4   1    4.18    1.02
   1  -2   0  678.39    3.31
  -2  -5   1   16.02    1.03
  -1  -4   0  164.66    1.99
   0  -5   1    1.64    1.27
   1  -5   2   89.14    2.45
   3  -3   3   15.21    1.51
   3  -2   2  551.25    4.31
  -1  -6   2   13.71    1.52
   0  -4   0  380.96    3.28
   2  -4   2   19.37    1.46
   2  -3   1  158.06    2.45
   1  -3   0   61.87    1.32
  -2  -3   0   35.68    0.65
  -2  -4   0   88.13    1.32
   1  -5   1   87.49    2.33
   1   0   0    3.57    0.24
   3  -3   2    9.47    1.32
  -1  -6   1  124.10    2.64
  -1  -5   0  472.08    3.81
   1  -4   0   -0.51    0.93
   0  -5   0   10.22    1.24
   2  -4   1   92.16    2.15
   3  -1   1   98.94    1.70
   2  -1   0  263.65    2.04
   3  -2   1  338.35    3.31
   0  -3  -1    7.37    0.72
   3   0   1    3.40    0.60
   3  -4   2   16.73    1.78
   0  -4  -1  382.47    3.26
   0  -2  -1   -0.58    0.50
   1  -5   0    4.70    1.29
   3  -3   1  161.09    2.76
  -1  -6   0  127.60    2.38
  -1  -4  -1    2.49    0.75
  -1  -3  -1    3.96    0.60
   1  -3  -1   58.51    1.40
   2  -5   1   17.31    1.80
   1  -2  -1  214.84    1.97
   2  -4   0  690.02    5.42
  -2  -6   0   53.17    1.81
  -1  -5  -1  469.42    3.78
   0  -5  -1    6.45    1.03
   1  -4  -1    6.54    0.80
   3  -4   1    0.67    1.45
   1  -6   0   19.58    1.78
   2   0   0 2402.88    4.45
   1  -5  -1   84.65    2.22
   2  -5   0    5.34    1.49
   3  -2   0  109.47    1.95
  -1  -7   0    2.78    1.11
  -1  -6  -1  198.56    2.95
   0  -6  -1   29.35    1.84
   3  -3   0  122.71    2.49
  -2  -5  -1  101.65    1.68
  -2  -4  -1  202.67    1.86
   1  -1  -1 1507.37    3.98
   2  -4  -1  471.54    4.49
   3  -1   0  292.11    2.47
   0  -4  -2  227.51    2.61
   3  -4   0   -0.29    1.44
  -2  -6  -1   39.33    1.70
   1  -6  -1   48.15    2.09
   0  -5  -2   16.82    1.40
   0  -3  -2   12.94    0.84
   1  -4  -2    4.08    0.95
   2  -5  -1   42.32    2.03
  -1  -7  -1   -1.52    1.42
  -1  -5  -2  200.98    2.57
  -1  -4  -2   12.45    0.95
   1  -3  -2   23.86    1.09
   0  -1  -1 1324.08    2.98
   1  -5  -2  467.69    4.62
   2  -1  -1  279.92    2.13
  -1  -6  -2  122.62    2.49
   0  -6  -2    2.48    1.42
   3  -3  -1  158.54    2.70
   1  -2  -2   46.69    1.11
   3  -2  -1  404.64    3.48
  -2  -3  -1    9.94    0.48
   1  -6  -2  177.38    3.41
   2  -4  -2  718.26    5.40
   3  -4  -1    0.73    1.40
  -1  -7  -2    6.86    1.54
   3   0   0    5.27    0.49
   0  -2  -2  420.17    2.41
   2  -5  -2   33.30    1.67
  -2  -6  -2  204.17    2.74
  -2  -5  -2   96.90    1.69
   0  -5  -3   36.83    1.66
   2  -2  -2   81.53    1.61
   0  -4  -3   37.81    1.36
   1  -4  -3    4.30    1.08
   0  -6  -3   33.53    1.87
   1  -5  -3   60.06    2.03
   3  -1  -1    4.88    0.77
  -1  -6  -3  104.40    2.32
  -1  -5  -3  224.36    2.69
   1  -6  -3  151.49    3.29
   1  -3  -3    8.46    0.95
  -2  -4  -2  498.31    2.90
  -1  -4  -3  364.09    3.04
   0  -3  -3  122.00    1.77
   3  -4  -2    0.94    1.12
   3  -3  -2  123.51    2.33
  -1  -7  -3   42.90    2.09
   2  -5  -3   11.62    1.61
   3  -2  -2  298.26    2.94
   0  -5  -4   85.47    2.27
   1  -1  -2    3.68    0.42
   2  -1  -2 1275.82    4.60
  -4  -2  -7   11.70    1.56
  -4  -1  -4   20.26    1.38
  -4   0  -3  313.04    3.47
  -3   4  -1    1.67    1.16
  -4  -2  -6   25.43    1.50
  -3  -1  -2    4.48    0.71
  -1  -1  -1   37.72    0.53
  -3   0  -1    2.53    0.75
  -4  -2  -5    0.99    0.95
  -4   1  -2  105.94    2.31
  -4   2  -2   12.92    1.51
  -2   3   1  209.92    2.13
  -4  -1  -3  164.51    2.49
  -3  -2  -3   66.26    1.30
  -3   2   0  111.88    1.80
  -3   3   0  119.56    2.17
  -2  -1  -1    3.99    0.40
  -2   0   0 2393.45    5.54
  -2   2   1   16.77    0.77
  -4   0  -2  102.33    1.92
  -4  -2  -4   -0.12    0.83
  -3  -3  -5  107.85    1.66
  -4   1  -1  172.29    2.74
  -4   2  -1    5.78    1.25
  -2  -2  -2   10.58    0.54
  -5  -1  -4   47.12    1.90
  -4  -1  -2  174.73    2.30
  -3  -1  -1    3.76    0.71
  -5   0  -3    1.03    0.95
  -4   0  -1  183.93    2.59
  -5  -2  -5  230.16    3.35
  -4  -3  -5    4.87    0.93
  -3  -3  -4  192.15    1.94
  -3   0   0    4.37    0.57
  -2  -3  -4 1069.02    3.20
  -1   3   2   23.41    0.59
  -5  -1  -3  149.92    2.81
  -3   2   1  414.39    3.33
  -3   3   1  158.44    2.30
  -5  -2  -4   32.66    1.61
  -5   0  -2   22.89    1.50
  -4   2   0    8.37    1.25
  -4   1   0   99.02    2.15
  -4   3   0   38.77    1.75
  -4  -3  -4   83.38    1.71
  -4  -1  -1  102.34    1.94
  -3   1   1    5.73    0.88
  -4  -2  -2   99.28    1.74
  -2   3   2   97.33    1.49
  -5  -1  -2  353.73    3.99
  -4   0   0  199.49    2.66
  -2  -1   0  216.76    1.69
  -5  -3  -5    0.88    1.22
  -3  -3  -3  286.76    2.28
  -3  -1   0   37.60    1.10
  -1  -2  -2 1318.35    2.29
  -1   2   2   49.64    0.74
  -5   0  -1    7.23    1.44
  -2   0   1 9676.60   11.38
  -2   2   2   89.87    1.35
  -4  -3  -3  411.95    3.37
  -3  -2  -1  156.86    1.79
  -5  -3  -4   12.26    1.29
  -4   2   1   42.55    1.72
  -3   0   1   42.39    1.25
  -5  -2  -2  194.37    3.06
  -4   1   1   92.16    2.05
  -5  -1  -1   55.05    1.69
  -4  -2  -1    3.59    0.91
  -4  -1   0   47.85    1.53
  -2  -3  -3 1074.46    3.20
  -3   2   2  308.67    2.92
  -5  -3  -3   14.46    1.31
  -5   0   0   13.36    1.38
  -2   1   2 1346.59    4.58
  -1   0   1   70.23    0.81
  -4  -3  -2  939.73    5.06
  -4   0   1 1105.31    6.02
  -3  -3  -2   34.75    0.98
  -3   1   2  808.76    4.46
  -5  -2  -1   36.31    1.68
  -1  -1   0 1931.66    3.55
  -5  -1   0    7.82    1.32
  -4  -4  -4   74.90    1.81
  -3  -1   1  970.94    4.62
  -5  -3  -2   88.46    2.16
  -3  -2   0  143.99    1.82
  -4  -2   0   84.02    1.82
  -4   2   2    4.07    1.26
  -1   1   2    3.27    0.55
  -5  -4  -4    2.72    1.19
  -4  -1   1   92.04    1.87
  -4   1   2    4.82    1.18
  -2  -1   1  350.62    2.31
  -5   0   1   12.77    1.52
  -4  -4  -3  185.34    2.34
  -2   0   2  887.37    3.81
  -5  -2   0   39.26    1.81
  -4   0   2 1192.06    6.50
  -3  -3  -1   74.98    1.41
  -2  -3  -2   38.19    0.80
  -5  -4  -3   38.89    1.52
  -5  -1   1   13.92    1.53
  -2  -2   0    1.58    0.52
  -2   2   3   19.82    0.87
  -3   2   3   35.57    1.32
  -4  -2   1   11.53    1.06
  -3  -4  -3   14.21    0.86
  -3   1   3   73.51    1.61
  -5  -4  -2   31.42    1.61
  -4  -4  -2  108.71    1.95
  -3  -2   1  142.95    1.94
  -3  -1   2  714.09    4.24
  -5   0   2   -0.06    1.00
  -4  -3   0  185.56    2.56
  -4  -1   2   66.49    1.67
  -2   1   3  322.79    2.46
  -5  -3   0   34.25    1.73
  -5  -2   1   22.65    1.48
  -4   1   3  239.49    3.31
  -5  -1   2   65.47    2.15
  -3   0   3  124.11    2.02
  -4   0   3  266.48    3.36
  -1  -2  -1  590.27    1.84
  -5  -4  -1  206.43    3.01
  -4  -4  -1  517.88    4.02
  -3  -4  -2  239.22    2.18
  -2  -3  -1    8.48    0.59
  -2  -1   2   18.76    0.88
  -1   2   3  587.69    2.37
  -4  -3   1  126.14    2.38
  -4  -2   2   98.78    2.02
  -2  -2   1  294.91    2.26
  -1   0   2   17.58    0.55
  -5  -3   1    2.50    1.26
  -5  -2   2    2.29    1.28
  -1  -1   1  108.69    1.08
  -3  -2   2  726.08    4.37
  -5  -4   0   53.39    1.99
  -3  -1   3  426.36    3.62
  -3   1   4   44.56    1.47
  -5  -5  -2  229.33    3.35
  -4  -4   0   11.64    1.27
  -4   1   4  119.01    2.66
  -3  -4  -1    3.08    0.77
  -3  -3   1   60.60    1.50
  -2   2   4   14.90    0.86
  -1   1   3    5.45    0.49
  -4   0   4   18.90    1.51
  -3   0   4   10.78    1.06
  -2  -3   0   34.58    0.95
  -5  -3   2   28.52    1.78
  -4  -5  -2   13.54    1.23
  -4  -3   2    5.81    1.31
  -4  -2   3    3.73    1.38
  -2   1   4   37.50    1.20
  -5  -5  -1  569.46    5.02
  -2  -2   2   33.25    1.09
  -2  -1   3    3.00    0.59
  -4  -1   4   -0.27    1.29
  -3  -4   0   43.83    1.30
  -3  -2   3  460.19    3.90
  -4  -5  -1   11.38    1.23
  -3  -3   2   37.74    1.42
  -1  -2   0  522.86    2.10
  -2   0   4  648.47    3.98
  -5  -5   0   10.91    1.64
  -4  -3   3    7.72    1.38
  -3   1   5    3.87    1.20
  -2  -3   1  177.99    1.98
  -1  -1   2   19.23    0.74
  -4  -2   4    2.57    1.38
  -4  -5   0   22.41    1.45
  -4  -4   2   30.99    1.81
  -4   0   5   86.59    2.28
  -3  -4   1   63.34    1.66
  -3   0   5    2.82    1.29
  -2  -4  -2  473.98    2.34
  -3  -2   4    3.64    1.37
  -2  -2   3   32.94    1.24
  -1   2   4  292.83    1.89
  -4  -1   5    4.36    1.39
  -3  -3   3   28.88    1.42
  -2  -1   4   67.75    1.68
  -2   1   5   87.77    1.69
  -1  -2   1 1386.73    4.09
  -4  -5   1   27.03    1.50
  -3  -1   5    6.56    1.21
  -2  -4  -1  197.14    1.80
  -1   1   4  100.74    1.34
  -4  -3   4   17.63    1.72
  -3  -5  -1  181.58    2.24
  -2  -3   2   82.99    1.54
  -4  -4   3   79.70    2.50
  -2   0   5  229.43    2.72
  -1  -1   3  114.20    1.53
  -3  -5   0   25.46    1.25
  -2  -4   0   94.93    1.50
  -3  -3   4   22.77    1.55
  -1   0   4   -0.11    0.72
  -4  -5   2    5.70    1.44
  -3  -2   5  998.32    6.87
  -3   0   6    0.76    1.44
  -2  -2   4   68.81    1.63
  -1  -2   2  164.95    1.74
  -1  -1  -6   13.17    0.92
  -1  -1  -5  635.37    3.51
   0  -1  -8  242.35    3.10
  -1  -1  -4  353.77    2.32
  -1   0  -8   44.17    1.83
   1  -2  -5    9.98    0.65
  -2   2  -5   42.11    1.50
  -2   2  -4    2.61    0.84
  -2   1  -4  147.11    1.92
  -1  -1  -7   80.39    1.77
  -2   2  -6   63.79    1.71
  -2   2  -3   24.64    1.10
  -2   3  -4   90.81    2.00
   0  -2  -6   21.61    1.03
   0  -2  -5   13.54    0.72
   0  -1  -9  230.52    3.37
   1  -2  -4  298.79    1.65
  -2   3  -5   40.04    1.55
  -1  -1  -3   16.96    0.64
  -2   0  -6  362.79    3.46
  -2   0  -5  839.96    4.59
  -2   1  -3    3.03    0.60
  -2   2  -7    0.44    1.41
  -2   3  -6  157.24    2.90
   0  -2  -7    4.57    0.90
  -2   0  -7  272.63    3.37
  -2   0  -4  142.36    1.80
   0  -2  -4   19.30    0.65
  -1  -1  -9   19.37    1.66
   0  -2  -8    2.40    1.25
  -2   0  -8  798.34    6.05
  -2   2  -2    3.64    0.60
  -1  -2  -6   85.35    1.61
  -2  -1  -6  190.67    2.43
  -1  -2  -7    9.01    1.00
  -1   0  -1    2.14    0.31
  -2  -1  -7  252.77    3.02
  -2  -1  -5   71.58    1.46
  -2   0  -3    8.25    0.51
  -2  -1  -8   96.10    2.30
  -2   1  -2   59.21    0.96
  -1  -2  -8   43.53    1.64
  -2  -1  -4  774.38    3.75
  -1  -1  -2   38.85    0.67
  -1  -2  -9   54.77    1.79
   0  -2  -3   22.78    0.56
  -3   1  -6  117.33    2.32
  -2  -2  -7    1.76    1.05
  -2  -2  -6   40.61    1.32
   1  -2  -3  608.74    1.55
  -3   0  -6    2.94    1.11
  -3   1  -7  253.65    3.62
  -3   1  -5   79.92    1.91
  -2  -2  -8   15.78    1.47
  -2  -2  -5    0.75    0.71
  -3   0  -5   14.94    1.13
  -2  -1  -3  442.20    2.55
  -1   1   0    8.57    0.23
  -3  -1  -7  277.10    3.44
  -3   1  -4   85.10    1.66
  -1  -3  -7   21.96    1.20
   0  -3  -6  285.07    2.40
  -3  -1  -8   18.19    1.59
  -3  -1  -6  285.37    3.14
  -1  -3  -8    3.31    1.10
  -1  -3  -6  261.82    2.50
  -1  -2  -3  241.90    1.69
  -3   0  -4    5.36    0.80
  -2   2  -1   97.35    1.03
  -3  -1  -5    6.76    0.73
  -2  -2  -4    0.58    0.45
  -1  -3  -9   17.81    1.57
   0  -3  -5  159.34    1.59
  -3  -2  -8  196.67    3.12
  -3  -2  -7  224.63    3.06
  -2  -3  -8    8.41    1.20
  -2  -3  -7   89.01    1.95
  -1  -3  -5  437.40    2.84
  -3  -2  -6  112.15    2.03
  -3   1  -3  126.14    1.72
  -2   1  -1    6.47    0.43
  -3  -1  -4  271.36    2.53
  -3   0  -3   72.27    1.36
  -3  -2  -5  194.27    2.32
  -2  -1  -2   65.96    0.94
  -2  -2  -3   38.59    0.93
  -3  -3  -8   28.09    1.56
  -3  -3  -7    5.96    1.18
  -1  -3  -4  361.86    2.34
  -4   0  -6  108.18    2.40
  -4  -1  -6   69.67    1.98
  -3  -3  -6   10.88    1.18
  -3  -2  -4  977.19    4.76
  -4   0  -5   94.70    2.10
  -2   0  -1   31.68    0.66
  -1  -1  -1   35.00    0.57
   0  -3  -4   68.93    0.90
  -4  -2  -7   13.99    1.43
  -3   1  -2  122.79    1.52
  -2  -4  -8    6.46    1.25
  -2  -3  -4 1087.92    4.55
  -1  -2  -2 1329.03    3.46
  -4  -1  -5   57.26    1.71
  -2  -4  -7   26.66    1.37
   0  -2  -2  419.97    1.49
  -4  -2  -6   24.95    1.33
  -3  -3  -5  108.74    1.83
  -3   0  -2   10.80    0.71
  -2  -4  -6  114.48    1.92
  -1  -4  -6    4.13    0.86
  -4   0  -4  359.52    3.39
  -3  -4  -8   12.61    1.38
  -4  -3  -7    4.29    0.94
  -4  -2  -5    0.60    0.90
  -4  -1  -4   16.17    1.16
  -3  -4  -7   28.75    1.48
  -3  -2  -3   64.48    1.32
  -2  -2  -2   10.25    0.65
  -4  -3  -6    3.71    0.99
  -3  -3  -4  197.17    2.28
  -1  -3  -3  108.71    1.23
  -2  -4  -5  396.70    3.09
  -1  -4  -5   23.69    1.03
  -2  -3  -3 1114.61    4.27
  -2  -1  -1    4.43    0.46
  -4  -3  -5    4.49    1.16
  -4   0  -3  292.29    2.80
  -4  -4  -7   49.14    1.97
  -3  -4  -5    0.87    0.99
  -4  -1  -3  159.64    2.17
  -1   0   0    3.76    0.23
  -4  -4  -6   12.33    1.38
  -3  -3  -3  294.77    2.62
  -2  -4  -4  752.49    3.97
  -5  -1  -5  288.68    3.65
  -4  -3  -4   82.75    1.89
  -3  -5  -7  248.15    3.26
  -3  -2  -2    4.88    0.53
  -3   1  -1   95.84    1.21
  -3   0  -1    3.43    0.58
   0  -3  -3  123.34    0.99
  -5  -2  -5  230.61    3.20
  -4  -4  -5   19.77    1.38
  -3  -4  -4    9.79    0.99
  -1  -4  -4   98.19    1.35
  -3  -5  -6  173.25    2.59
  -2  -5  -6   10.83    1.13
  -2   1   0  264.85    1.30
  -5  -1  -4   44.82    1.78
  -4   0  -2  103.45    1.68
  -3  -1  -1    4.11    0.64
  -2  -3  -2   36.95    0.84
  -5  -2  -4   33.82    1.60
  -4  -3  -3  411.45    3.54
  -4  -1  -2  176.44    2.07
  -2  -2  -1  179.38    1.59
  -1  -2  -1  607.25    2.29
  -4  -4  -4   79.80    1.86
  -3  -5  -5  166.14    2.48
  -2   0   0 2356.45    4.39
  -1  -3  -2  143.55    1.34
  -3  -3  -2   33.67    1.06
  -2  -5  -5   22.96    1.08
  -2  -4  -3  347.71    2.65
  -4  -2  -2   98.73    1.74
  -3  -4  -3   16.36    0.99
  -5  -4  -5   -1.09    1.31
  -5  -3  -4   14.82    1.10
  -4  -5  -5    9.30    1.30
  -5  -1  -3  144.75    2.40
  -3  -2  -1  156.66    1.75
  -5  -2  -3  397.88    3.85
  -4  -4  -3  185.70    2.54
  -3  -5  -4   96.44    1.89
  -1  -4  -3  342.73    2.26
  -5  -4  -4    2.34    1.18
  -4  -3  -2  937.30    5.16
  -2  -5  -4   69.40    1.51
  -2  -1   0  220.20    1.57
  -5  -3  -3   15.07    1.26
  -4  -5  -4    6.11    1.24
  -3  -6  -6  205.37    2.99
  -1  -1   0 1918.30    3.52
  -4  -1  -1  105.40    1.70
  -3  -4  -2  246.79    2.53
  -3   0   0    5.70    0.63
  -2  -3  -1   10.05    0.58
  -4  -2  -1    1.25    0.80
  -3  -6  -5   90.00    2.10
  -3  -3  -1   75.47    1.34
  -5  -5  -4   79.17    2.24
  -5  -4  -3   33.11    1.72
  -5  -2  -2  201.21    2.78
  -4  -6  -5  104.61    2.35
  -3  -5  -3  352.48    3.30
  -3  -1   0   37.70    0.93
  -4  -5  -3    0.15    1.07
  -4  -4  -2  116.27    2.10
  -5  -3  -2   87.62    2.06
  -2  -5  -3  133.08    1.91
  -4  -3  -1  433.31    3.53
  -2  -2   0    1.08    0.39
  -3  -2   0  137.86    1.72
  -4  -6  -4    3.91    0.98
  -3  -6  -4   91.84    2.01
  -5  -5  -3   82.52    2.19
  -1  -4  -2   11.79    0.68
   0  -2  -1    0.05    0.29
  -5  -4  -2   33.51    1.41
  -3  -4  -1    3.38    0.82
   0   0   0    0.00    0.00

;
_shelx_hkl_checksum              69150
loop_
_space_group_symop_operation_xyz
'x, y, z'
'-x, -y, -z'
loop_
_atom_site_label
_atom_site_type_symbol
_atom_site_fract_x
_atom_site_fract_y
_atom_site_fract_z
_atom_site_U_iso_or_equiv
_atom_site_adp_type
_atom_site_occupancy
_atom_site_site_symmetry_order
_atom_site_calc_flag
_atom_site_refinement_flags_posn
_atom_site_refinement_flags_adp
_atom_site_refinement_flags_occupancy
_atom_site_disorder_assembly
_atom_site_disorder_group
Mn1 Mn 0.24247(5) 0.36342(4) 0.50575(3) 0.02166(14) Uani 1 1 d . . . . .
C1 C 0.0774(3) 0.4119(2) 0.27491(18) 0.0206(4) Uani 1 1 d . . . . .
C2 C 0.0629(3) 0.6901(2) 0.17925(17) 0.0195(4) Uani 1 1 d . . . . .
C3 C 0.0304(3) 0.6620(2) 0.06173(18) 0.0186(4) Uani 1 1 d . . . . .
C4 C 0.0056(3) 0.7834(2) -0.04005(18) 0.0203(4) Uani 1 1 d . . . . .
H4 H 0.0119 0.8840 -0.0349 0.024 Uiso 1 1 calc R U . . .
C5 C -0.0288(3) 0.7595(3) -0.15139(18) 0.0211(4) Uani 1 1 d . . . . .
H5 H -0.0437 0.8431 -0.2213 0.025 Uiso 1 1 calc R U . . .
C6 C -0.0409(3) 0.6140(2) -0.15889(17) 0.0187(4) Uani 1 1 d . . . . .
C7 C -0.0180(3) 0.4880(2) -0.05555(17) 0.0185(4) Uani 1 1 d . . . . .
N1 N 0.0738(3) 0.5624(2) 0.27842(15) 0.0197(4) Uani 1 1 d . . . . .
O1 O 0.0751(2) 0.81513(17) 0.19190(13) 0.0244(3) Uani 1 1 d . . . . .
O2 O 0.0832(2) 0.58938(17) 0.39084(12) 0.0226(3) Uani 1 1 d . . . . .
O3 O 0.1101(2) 0.30478(17) 0.36706(12) 0.0234(3) Uani 1 1 d . . . . .
C8 C 0.4588(3) 0.3399(2) 0.83989(18) 0.0190(4) Uani 1 1 d . . . . .
C9 C 0.3984(3) 0.1570(2) 0.73147(18) 0.0191(4) Uani 1 1 d . . . . .
C10 C 0.4454(3) 0.0273(2) 0.83940(18) 0.0178(4) Uani 1 1 d . . . . .
C11 C 0.4415(3) -0.1227(2) 0.83730(18) 0.0199(4) Uani 1 1 d . . . . .
H11 H 0.4167 -0.1444 0.7646 0.024 Uiso 1 1 calc R U . . .
C12 C 0.4744(3) -0.2430(2) 0.94330(18) 0.0189(4) Uani 1 1 d . . . . .
H12 H 0.4735 -0.3465 0.9415 0.023 Uiso 1 1 calc R U . . .
C13 C 0.5081(3) -0.2122(2) 1.04968(17) 0.0172(4) Uani 1 1 d . . . . .
C14 C 0.5153(3) -0.0605(2) 1.05322(17) 0.0174(4) Uani 1 1 d . . . . .
N2 N 0.4021(3) 0.3050(2) 0.74011(15) 0.0192(3) Uani 1 1 d . . . . .
O4 O 0.3483(2) 0.14088(17) 0.63764(12) 0.0224(3) Uani 1 1 d . . . . .
O5 O 0.3494(2) 0.42710(17) 0.64303(12) 0.0228(3) Uani 1 1 d . . . . .
O6 O 0.4732(2) 0.47088(17) 0.83265(13) 0.0238(3) Uani 1 1 d . . . . .
O1W O 0.5393(2) 0.30094(18) 0.40355(13) 0.0269(3) Uani 1 1 d . . . . .
H1WA H 0.5649 0.3887 0.3674 0.040 Uiso 1 1 d R U . . .
H1WB H 0.6356 0.2499 0.4535 0.040 Uiso 1 1 d R U . . .
O2W O 0.8472(3) 0.1278(2) 0.5612(2) 0.0537(5) Uani 1 1 d . . . . .
H2WB H 0.9637 0.1340 0.5254 0.081 Uiso 1 1 d R U . . .
H2WA H 0.8251 0.1747 0.6229 0.081 Uiso 1 1 d R U . . .
loop_
_atom_site_aniso_label
_atom_site_aniso_U_11
_atom_site_aniso_U_22
_atom_site_aniso_U_33
_atom_site_aniso_U_23
_atom_site_aniso_U_13
_atom_site_aniso_U_12
Mn1 0.0289(2) 0.0218(2) 0.01278(19) 0.00011(12) -0.00903(13) -0.00612(14)
C1 0.0216(9) 0.0225(10) 0.0157(10) 0.0007(8) -0.0063(7) -0.0063(8)
C2 0.0204(9) 0.0215(10) 0.0152(10) -0.0013(7) -0.0040(7) -0.0061(8)
C3 0.0193(9) 0.0202(10) 0.0161(10) -0.0028(7) -0.0055(7) -0.0054(7)
C4 0.0242(10) 0.0184(10) 0.0186(10) -0.0021(7) -0.0037(8) -0.0076(8)
C5 0.0248(10) 0.0222(10) 0.0140(9) 0.0023(7) -0.0054(7) -0.0075(8)
C6 0.0202(9) 0.0208(10) 0.0137(9) -0.0018(7) -0.0041(7) -0.0055(8)
C7 0.0189(9) 0.0206(10) 0.0142(10) -0.0008(7) -0.0036(7) -0.0053(7)
N1 0.0252(8) 0.0213(9) 0.0125(8) -0.0033(6) -0.0055(6) -0.0062(7)
O1 0.0337(8) 0.0230(8) 0.0183(7) -0.0038(6) -0.0057(6) -0.0102(6)
O2 0.0327(8) 0.0238(7) 0.0109(7) -0.0021(5) -0.0082(6) -0.0074(6)
O3 0.0334(8) 0.0226(7) 0.0139(7) 0.0017(5) -0.0089(6) -0.0094(6)
C8 0.0202(9) 0.0182(10) 0.0175(10) -0.0030(7) -0.0054(7) -0.0041(7)
C9 0.0215(9) 0.0189(10) 0.0166(10) -0.0022(7) -0.0054(7) -0.0057(7)
C10 0.0215(9) 0.0167(9) 0.0150(9) -0.0007(7) -0.0056(7) -0.0060(7)
C11 0.0236(10) 0.0206(10) 0.0166(10) -0.0041(8) -0.0069(7) -0.0066(8)
C12 0.0224(9) 0.0164(9) 0.0191(10) -0.0029(7) -0.0054(7) -0.0071(7)
C13 0.0194(9) 0.0167(9) 0.0152(9) -0.0007(7) -0.0052(7) -0.0057(7)
C14 0.0192(9) 0.0170(9) 0.0153(9) -0.0014(8) -0.0045(7) -0.0054(7)
N2 0.0266(8) 0.0171(8) 0.0138(8) 0.0019(6) -0.0076(6) -0.0079(6)
O4 0.0332(8) 0.0211(7) 0.0142(7) 0.0002(5) -0.0090(6) -0.0100(6)
O5 0.0354(8) 0.0189(7) 0.0137(7) 0.0046(5) -0.0107(6) -0.0100(6)
O6 0.0358(8) 0.0177(7) 0.0197(7) 0.0006(5) -0.0087(6) -0.0114(6)
O1W 0.0343(8) 0.0254(8) 0.0201(8) 0.0012(6) -0.0034(6) -0.0122(6)
O2W 0.0619(13) 0.0454(12) 0.0572(13) -0.0164(10) -0.0253(10) -0.0099(10)
loop_
_atom_type_symbol
_atom_type_description
_atom_type_scat_dispersion_real
_atom_type_scat_dispersion_imag
_atom_type_scat_source
C C 0.0181 0.0091 'International Tables Vol C Tables 4.2.6.8 and 6.1.1.4'
H H 0.0000 0.0000 'International Tables Vol C Tables 4.2.6.8 and 6.1.1.4'
Mn Mn -0.5299 2.8052 'International Tables Vol C Tables 4.2.6.8 and 6.1.1.4'
N N 0.0311 0.0180 'International Tables Vol C Tables 4.2.6.8 and 6.1.1.4'
O O 0.0492 0.0322 'International Tables Vol C Tables 4.2.6.8 and 6.1.1.4'
loop_
_geom_angle_atom_site_label_1
_geom_angle_atom_site_label_2
_geom_angle_atom_site_label_3
_geom_angle
_geom_angle_site_symmetry_1
_geom_angle_site_symmetry_3
_geom_angle_publ_flag
O5 Mn1 O1W 93.17(6) . . ?
O5 Mn1 O2 105.43(5) . . ?
O1W Mn1 O2 99.88(6) . . ?
O5 Mn1 O4 75.52(5) . . ?
O1W Mn1 O4 90.22(6) . . ?
O2 Mn1 O4 169.75(6) . . ?
O5 Mn1 O3 176.26(5) . . ?
O1W Mn1 O3 90.46(6) . . ?
O2 Mn1 O3 73.01(5) . . ?
O4 Mn1 O3 105.39(5) . . ?
O5 Mn1 O2 91.65(5) . 2_566 ?
O1W Mn1 O2 174.28(5) . 2_566 ?
O2 Mn1 O2 81.79(6) . 2_566 ?
O4 Mn1 O2 87.99(5) . 2_566 ?
O3 Mn1 O2 84.78(5) . 2_566 ?
O3 C1 N1 119.94(18) . . ?
O3 C1 C6 122.70(19) . 2_565 ?
N1 C1 C6 117.36(17) . 2_565 ?
O1 C2 N1 120.96(17) . . ?
O1 C2 C3 123.69(18) . . ?
N1 C2 C3 115.34(17) . . ?
C4 C3 C7 120.17(18) . 2_565 ?
C4 C3 C2 120.01(18) . . ?
C7 C3 C2 119.78(18) 2_565 . ?
C3 C4 C5 120.63(19) . . ?
C3 C4 H4 119.7 . . ?
C5 C4 H4 119.7 . . ?
C6 C5 C4 119.87(18) . . ?
C6 C5 H5 120.1 . . ?
C4 C5 H5 120.1 . . ?
C5 C6 C7 120.69(18) . . ?
C5 C6 C1 120.25(18) . 2_565 ?
C7 C6 C1 119.07(18) . 2_565 ?
C7 C7 C6 119.2(2) 2_565 . ?
C7 C7 C3 119.4(2) 2_565 2_565 ?
C6 C7 C3 121.36(19) . 2_565 ?
C1 N1 O2 116.22(15) . . ?
C1 N1 C2 126.68(16) . . ?
O2 N1 C2 117.10(16) . . ?
N1 O2 Mn1 109.37(11) . . ?
N1 O2 Mn1 107.90(11) . 2_566 ?
Mn1 O2 Mn1 98.20(6) . 2_566 ?
C1 O3 Mn1 112.35(13) . . ?
O6 C8 N2 119.72(17) . . ?
O6 C8 C13 124.23(18) . 2_657 ?
N2 C8 C13 116.03(17) . 2_657 ?
O4 C9 N2 119.70(18) . . ?
O4 C9 C10 122.93(18) . . ?
N2 C9 C10 117.30(17) . . ?
C11 C10 C14 120.65(18) . 2_657 ?
C11 C10 C9 120.17(18) . . ?
C14 C10 C9 119.11(18) 2_657 . ?
C10 C11 C12 119.72(18) . . ?
C10 C11 H11 120.1 . . ?
C12 C11 H11 120.1 . . ?
C13 C12 C11 120.61(18) . . ?
C13 C12 H12 119.7 . . ?
C11 C12 H12 119.7 . . ?
C12 C13 C14 120.50(18) . . ?
C12 C13 C8 119.75(18) . 2_657 ?
C14 C13 C8 119.74(17) . 2_657 ?
C13 C14 C14 119.2(2) . 2_657 ?
C13 C14 C10 121.50(18) . 2_657 ?
C14 C14 C10 119.3(2) 2_657 2_657 ?
O5 N2 C9 117.55(15) . . ?
O5 N2 C8 116.59(16) . . ?
C9 N2 C8 125.85(16) . . ?
C9 O4 Mn1 114.12(13) . . ?
N2 O5 Mn1 112.47(11) . . ?
Mn1 O1W H1WA 109.7 . . ?
Mn1 O1W H1WB 109.8 . . ?
H1WA O1W H1WB 104.2 . . ?
H2WB O2W H2WA 104.5 . . ?
loop_
_geom_bond_atom_site_label_1
_geom_bond_atom_site_label_2
_geom_bond_distance
_geom_bond_site_symmetry_2
_geom_bond_publ_flag
Mn1 O5 2.1154(14) . ?
Mn1 O1W 2.1651(15) . ?
Mn1 O2 2.1663(14) . ?
Mn1 O4 2.1706(14) . ?
Mn1 O3 2.2111(14) . ?
Mn1 O2 2.3370(15) 2_566 ?
C1 O3 1.236(2) . ?
C1 N1 1.372(3) . ?
C1 C6 1.471(3) 2_565 ?
C2 O1 1.217(3) . ?
C2 N1 1.402(3) . ?
C2 C3 1.485(3) . ?
C3 C4 1.379(3) . ?
C3 C7 1.420(3) 2_565 ?
C4 C5 1.406(3) . ?
C4 H4 0.9500 . ?
C5 C6 1.382(3) . ?
C5 H5 0.9500 . ?
C6 C7 1.416(3) . ?
C6 C1 1.471(3) 2_565 ?
C7 C7 1.408(4) 2_565 ?
C7 C3 1.420(3) 2_565 ?
N1 O2 1.373(2) . ?
O2 Mn1 2.3370(15) 2_566 ?
C8 O6 1.217(3) . ?
C8 N2 1.400(3) . ?
C8 C13 1.477(3) 2_657 ?
C9 O4 1.232(2) . ?
C9 N2 1.384(3) . ?
C9 C10 1.471(3) . ?
C10 C11 1.383(3) . ?
C10 C14 1.416(3) 2_657 ?
C11 C12 1.407(3) . ?
C11 H11 0.9500 . ?
C12 C13 1.379(3) . ?
C12 H12 0.9500 . ?
C13 C14 1.412(3) . ?
C13 C8 1.477(3) 2_657 ?
C14 C14 1.413(4) 2_657 ?
C14 C10 1.416(3) 2_657 ?
N2 O5 1.355(2) . ?
O1W H1WA 0.8753 . ?
O1W H1WB 0.8754 . ?
O2W H2WB 0.8700 . ?
O2W H2WA 0.8700 . ?
loop_
_geom_torsion_atom_site_label_1
_geom_torsion_atom_site_label_2
_geom_torsion_atom_site_label_3
_geom_torsion_atom_site_label_4
_geom_torsion
_geom_torsion_site_symmetry_1
_geom_torsion_site_symmetry_2
_geom_torsion_site_symmetry_3
_geom_torsion_site_symmetry_4
_geom_torsion_publ_flag
O1 C2 C3 C4 -2.1(3) . . . . ?
N1 C2 C3 C4 176.26(17) . . . . ?
O1 C2 C3 C7 -179.96(18) . . . 2_565 ?
N1 C2 C3 C7 -1.6(3) . . . 2_565 ?
C7 C3 C4 C5 -1.1(3) 2_565 . . . ?
C2 C3 C4 C5 -178.89(18) . . . . ?
C3 C4 C5 C6 0.9(3) . . . . ?
C4 C5 C6 C7 -0.3(3) . . . . ?
C4 C5 C6 C1 179.85(18) . . . 2_565 ?
C5 C6 C7 C7 -0.2(3) . . . 2_565 ?
C1 C6 C7 C7 179.7(2) 2_565 . . 2_565 ?
C5 C6 C7 C3 179.89(18) . . . 2_565 ?
C1 C6 C7 C3 -0.3(3) 2_565 . . 2_565 ?
O3 C1 N1 O2 -7.6(3) . . . . ?
C6 C1 N1 O2 172.32(16) 2_565 . . . ?
O3 C1 N1 C2 171.96(18) . . . . ?
C6 C1 N1 C2 -8.1(3) 2_565 . . . ?
O1 C2 N1 C1 -174.82(18) . . . . ?
C3 C2 N1 C1 6.8(3) . . . . ?
O1 C2 N1 O2 4.7(3) . . . . ?
C3 C2 N1 O2 -173.68(15) . . . . ?
C1 N1 O2 Mn1 27.21(19) . . . . ?
C2 N1 O2 Mn1 -152.40(13) . . . . ?
C1 N1 O2 Mn1 -78.61(16) . . . 2_566 ?
C2 N1 O2 Mn1 101.78(15) . . . 2_566 ?
N1 C1 O3 Mn1 -16.2(2) . . . . ?
C6 C1 O3 Mn1 163.84(15) 2_565 . . . ?
O4 C9 C10 C11 2.3(3) . . . . ?
N2 C9 C10 C11 179.10(18) . . . . ?
O4 C9 C10 C14 -174.71(18) . . . 2_657 ?
N2 C9 C10 C14 2.1(3) . . . 2_657 ?
C14 C10 C11 C12 0.8(3) 2_657 . . . ?
C9 C10 C11 C12 -176.16(17) . . . . ?
C10 C11 C12 C13 0.8(3) . . . . ?
C11 C12 C13 C14 -1.6(3) . . . . ?
C11 C12 C13 C8 179.65(17) . . . 2_657 ?
C12 C13 C14 C14 0.8(3) . . . 2_657 ?
C8 C13 C14 C14 179.6(2) 2_657 . . 2_657 ?
C12 C13 C14 C10 -178.42(18) . . . 2_657 ?
C8 C13 C14 C10 0.3(3) 2_657 . . 2_657 ?
O4 C9 N2 O5 0.0(3) . . . . ?
C10 C9 N2 O5 -176.88(16) . . . . ?
O4 C9 N2 C8 -178.91(18) . . . . ?
C10 C9 N2 C8 4.2(3) . . . . ?
O6 C8 N2 O5 -5.4(3) . . . . ?
C13 C8 N2 O5 172.93(16) 2_657 . . . ?
O6 C8 N2 C9 173.57(18) . . . . ?
C13 C8 N2 C9 -8.1(3) 2_657 . . . ?
N2 C9 O4 Mn1 -6.0(2) . . . . ?
C10 C9 O4 Mn1 170.75(14) . . . . ?
C9 N2 O5 Mn1 6.0(2) . . . . ?
C8 N2 O5 Mn1 -174.94(13) . . . . ?
