#------------------------------------------------------------------------------
#$Date: 2022-07-29 01:54:34 +0300 (Fri, 29 Jul 2022) $
#$Revision: 276988 $
#$URL: file:///home/coder/svn-repositories/cod/cif/7/71/08/7710842.cif $
#------------------------------------------------------------------------------
#
# This file is available in the Crystallography Open Database (COD),
# http://www.crystallography.net/
#
# All data on this site have been placed in the public domain by the
# contributors.
#
data_7710842
loop_
_publ_author_name
'Yan, Yong'
'Zhang, Ningning'
'B\"orner, Martin'
'Kersting, Berthold'
'Krautscheid, Harald'
_publ_section_title
;
 Hydroxamate based transition metal-organic coordination polymers with
 semiconductive properties
;
_journal_name_full               'Dalton Transactions'
_journal_paper_doi               10.1039/D2DT01359B
_journal_year                    2022
_chemical_formula_sum            'C14 H4 Cd2 Cl2 N2 O6'
_chemical_formula_weight         591.89
_space_group_crystal_system      monoclinic
_space_group_IT_number           15
_space_group_name_Hall           '-C 2yc'
_space_group_name_H-M_alt        'C 1 2/c 1'
_atom_sites_solution_hydrogens   geom
_atom_sites_solution_primary     direct
_atom_sites_solution_secondary   difmap
_audit_creation_method           SHELXL-2014/7
_audit_update_record
;
2022-07-07 deposited with the CCDC.	2022-07-28 downloaded from the CCDC.
;
_cell_angle_alpha                90
_cell_angle_beta                 110.650(5)
_cell_angle_gamma                90
_cell_formula_units_Z            4
_cell_length_a                   20.7322(13)
_cell_length_b                   3.8637(2)
_cell_length_c                   20.6366(14)
_cell_measurement_reflns_used    6762
_cell_measurement_temperature    180(2)
_cell_measurement_theta_max      70.48
_cell_measurement_theta_min      4.56
_cell_volume                     1546.85(17)
_computing_cell_refinement       'Stoe X-Area'
_computing_data_collection       'Stoe X-Area'
_computing_data_reduction        'Stoe X-Area'
_computing_molecular_graphics    'Olex2 (Dolomanov et al., 2009)'
_computing_publication_material  'Olex2 (Dolomanov et al., 2009)'
_computing_structure_refinement  'SHELXL-2014/7 (Sheldrick, 2014)'
_computing_structure_solution    SHELXS
_diffrn_ambient_temperature      180(2)
_diffrn_measured_fraction_theta_full 0.994
_diffrn_measured_fraction_theta_max 0.994
_diffrn_measurement_device_type  'STOE STADIVARI'
_diffrn_measurement_method       'rotation method, \w scans'
_diffrn_radiation_type           CuK\a
_diffrn_radiation_wavelength     1.54186
_diffrn_reflns_av_R_equivalents  0.0641
_diffrn_reflns_av_unetI/netI     0.0363
_diffrn_reflns_Laue_measured_fraction_full 0.994
_diffrn_reflns_Laue_measured_fraction_max 0.994
_diffrn_reflns_limit_h_max       24
_diffrn_reflns_limit_h_min       -23
_diffrn_reflns_limit_k_max       4
_diffrn_reflns_limit_k_min       -1
_diffrn_reflns_limit_l_max       24
_diffrn_reflns_limit_l_min       -24
_diffrn_reflns_number            6996
_diffrn_reflns_point_group_measured_fraction_full 0.994
_diffrn_reflns_point_group_measured_fraction_max 0.994
_diffrn_reflns_theta_full        67.686
_diffrn_reflns_theta_max         67.953
_diffrn_reflns_theta_min         4.558
_diffrn_source                   'GeniX 3D HF Cu'
_exptl_absorpt_coefficient_mu    25.577
_exptl_absorpt_correction_T_max  0.1533
_exptl_absorpt_correction_T_min  0.0326
_exptl_absorpt_correction_type   multi-scan
_exptl_absorpt_process_details
;
STOE X-Red32, absorption correction by Gaussian integration, analogous to
P. Coppens, "The Evaluation of Absorption and Extinction in Single-Crystal
Structure Analysis", published in: F. R. Ahmed (Editor), "Crystallographic
Computing", Munksgaard, Copenhagen (1970), 255 - 270.
Afterwards scaling of reflection intensities was performed within STOE LANA.
J. Koziskova, F. Hahn, J. Richter, J. Kozisek, "Comparison of different
absorption corrections on the model structure of tetrakis(\m~2~-acetato)-
diaqua-di-copper(II)", Acta Chimica Slovaca, vol. 9, no. 2, 2016, pp. 136 - 140.
Finally a spherical absorption correction was done within STOE LANA.
;
_exptl_crystal_colour            brown
_exptl_crystal_density_diffrn    2.542
_exptl_crystal_description       plate
_exptl_crystal_F_000             1120
_exptl_crystal_size_max          0.200
_exptl_crystal_size_mid          0.100
_exptl_crystal_size_min          0.040
_refine_diff_density_max         1.984
_refine_diff_density_min         -1.446
_refine_diff_density_rms         0.293
_refine_ls_extinction_method     none
_refine_ls_goodness_of_fit_ref   1.099
_refine_ls_hydrogen_treatment    constr
_refine_ls_matrix_type           full
_refine_ls_number_parameters     118
_refine_ls_number_reflns         1411
_refine_ls_number_restraints     0
_refine_ls_restrained_S_all      1.099
_refine_ls_R_factor_all          0.0788
_refine_ls_R_factor_gt           0.0695
_refine_ls_shift/su_max          0.000
_refine_ls_shift/su_mean         0.000
_refine_ls_structure_factor_coef Fsqd
_refine_ls_weighting_details
'w=1/[\s^2^(Fo^2^)+(0.1055P)^2^+45.6103P] where P=(Fo^2^+2Fc^2^)/3'
_refine_ls_weighting_scheme      calc
_refine_ls_wR_factor_gt          0.1821
_refine_ls_wR_factor_ref         0.1911
_reflns_Friedel_coverage         0.000
_reflns_number_gt                1201
_reflns_number_total             1411
_reflns_threshold_expression     'I > 2\s(I)'
_cod_data_source_file            d2dt01359b2.cif
_cod_data_source_block           CdCl-ONDI
_cod_original_sg_symbol_H-M      'C 2/c'
_cod_database_code               7710842
_shelx_shelxl_version_number     2014/7
_shelx_space_group_comment
;
The symmetry employed for this shelxl refinement is uniquely defined
by the following loop, which should always be used as a source of
symmetry information in preference to the above space-group names.
They are only intended as comments.
;
_shelx_estimated_absorpt_t_min   0.080
_shelx_estimated_absorpt_t_max   0.428
_shelx_res_file
;

    CdCl-ONDI.res created by SHELXL-2014/7

TITL CdCl-ONDI in C2/c
CELL 1.54186  20.7322   3.8637  20.6366  90  110.650  90
ZERR 4         0.0013   0.0002   0.0014   0    0.005   0
LATT 7
SYMM -X,+Y,0.5-Z
SFAC C H Cd Cl N O
UNIT 56 16 8 8 8 24
SIZE 0.04 0.1 0.2
TEMP -93.15
OMIT  1 1 0
OMIT  -2 136
fmap 2 53
L.S. 10
PLAN  -5
CONF
BOND $H
list 4
MORE -1
acta

WGHT    0.105500   45.610294
FVAR       0.16580
CD1   3    0.302333    0.780846    0.197838    11.00000    0.02794    0.04593 =
         0.03112    0.00054    0.00950    0.00133
CL1   4    0.350281    0.281025    0.150270    11.00000    0.05055    0.04956 =
         0.05535    0.00199    0.02939    0.00300
C1    1    0.410939    0.692695    0.347400    11.00000    0.03322    0.10967 =
         0.03035    0.00483    0.01136   -0.00420
C2    1    0.346264    0.345861    0.411309    11.00000    0.03865    0.10122 =
         0.03698    0.00462    0.01357   -0.01265
C3    1    0.407690    0.364129    0.473006    11.00000    0.02609    0.07595 =
         0.03104    0.00474    0.00534    0.00080
C4    1    0.406674    0.237242    0.535049    11.00000    0.02572    0.04317 =
         0.02996    0.00053    0.01132   -0.00359
AFIX  43
H4    2    0.364639    0.152153    0.537588    11.00000   -1.20000
AFIX   0
C5    1    0.465237    0.231139    0.593404    11.00000    0.02615    0.03449 =
         0.03288    0.00205    0.01055   -0.00217
AFIX  43
H5    2    0.462507    0.150060    0.635821    11.00000   -1.20000
AFIX   0
C6    1    0.526756    0.338771    0.591438    11.00000    0.03492    0.06976 =
         0.03518   -0.00010    0.01249   -0.00317
C7    1    0.529733    0.494318    0.529231    11.00000    0.04457    0.03830 =
         0.04416    0.00137    0.01577   -0.00582
N1    5    0.352216    0.528851    0.352747    11.00000    0.03865    0.12422 =
         0.03696    0.01814    0.00016   -0.01734
O1    6    0.408030    0.802181    0.292877    11.00000    0.03855    0.08745 =
         0.04544    0.01600    0.01307   -0.00479
O2    6    0.293256    0.551072    0.295216    11.00000    0.04004    0.22399 =
         0.05055    0.04443   -0.00061   -0.02677
O3    6    0.291741    0.253651    0.407956    11.00000    0.03585    0.10500 =
         0.03675    0.00018    0.01019   -0.01131
HKLF 4 1   -1 0 0   0 -1 0   1 0 1

REM  CdCl-ONDI in C2/c
REM R1 =  0.0695 for    1201 Fo > 4sig(Fo)  and  0.0788 for all    1411 data
REM    118 parameters refined using      0 restraints

END

WGHT      0.1055     45.6117

REM Highest difference peak  1.984,  deepest hole -1.446,  1-sigma level  0.293
Q1    1   0.2027  0.5487  0.2008  11.00000  0.05    1.98
Q2    1   0.3033  0.5735  0.1969  11.00000  0.05    1.95
Q3    1   0.3389  0.7616  0.2417  11.00000  0.05    1.79
Q4    1   0.3549  1.0540  0.3561  11.00000  0.05    1.72
Q5    1   0.4770  0.0039  0.4747  11.00000  0.05    1.50
;
_shelx_res_checksum              54673
_shelx_hkl_file
;
 -24   0  17    6.36    3.90   0
 -23  -1  13    9.01    3.65   0
 -22   0  12  151.80    6.13   0
 -20  -2  10   70.75    4.71   0
 -18   0   6  215.17    5.80   0
 -16   0   4  465.64    7.71   0
 -24   0  18   79.59    4.32   0
 -22  -2  14   22.16    7.27   0
 -20   0   9    7.13    5.95   0
 -19   1  12  495.30    8.78   0
 -17   1   9   16.25    5.60   0
 -24   0  19   -7.32    3.44   0
 -21  -1  10  375.77    6.70   0
 -24   0  20  172.60    4.16   0
 -24   0  21   -1.60    2.58   0
 -23  -1  14  175.13    4.83   0
 -22   0  13   -4.63    5.07   0
 -19   1  13   22.35    5.29   0
 -18   0   7    3.18    6.00   0
 -17  -1   5    2.91    4.88   0
 -15  -1   3    6.31    4.42   0
 -22  -2  15    7.78    7.12   0
 -20  -2  11   19.07    4.37   0
 -20   0  10  133.21    7.09   0
 -17   1  10  451.01    8.40   0
 -16   0   5   -0.00    4.54   0
 -23  -1  15    1.63    3.72   0
 -21  -1  11   16.03    3.42   0
 -19  -1   8   60.35    4.30   0
 -22  -2  16   52.37    7.11   0
 -20   0  11   -1.12    6.05   0
 -18   0   8  522.40    8.69   0
 -17   1  11    7.30    5.51   0
 -23  -1  16   23.41    3.83   0
 -20  -2  12  155.84    5.36   0
 -18  -2   9   40.15    4.78   0
 -16   0   6  362.11    7.23   0
 -15  -1   4  522.22    7.22   0
 -22  -2  17   30.32    6.37   0
 -21  -1  12   38.37    4.63   0
 -19  -1   9   -1.53    4.64   0
 -23  -1  17    0.07    3.71   0
 -20   0  12  597.90    9.34   0
 -18   0   9   -1.34    5.91   0
 -17   1  12  225.15    6.78   0
 -16  -2   7   16.33    4.27   0
 -22  -2  18  105.23    6.56   0
 -22   0  17   -3.94    4.41   0
 -20  -2  13   18.77    4.32   0
 -23  -1  18   17.04    3.73   0
 -22  -2  19   12.53    6.17   0
 -21  -1  13    2.31    4.47   0
 -18  -2  10  247.30    6.07   0
 -16   0   7   -2.87    4.63   0
 -15  -1   5    1.17    4.15   0
 -23  -1  19    4.05    3.55   0
 -22   0  18  222.87    6.11   0
 -19  -1  10   32.54    5.43   0
 -23  -1  20  164.63    4.48   0
 -22   0  19   -0.80    4.31   0
 -20  -2  14  113.49    4.97   0
 -18   0  10  520.03    8.67   0
 -23  -1  21    9.04    3.55   0
 -22   0  20    1.17    4.14   0
 -22   0  23    2.18    2.57   0
 -21  -1  14   30.39    3.57   0
 -16  -2   8   34.62    4.42   0
 -23  -1  22   94.97    3.74   0
 -23  -1  23   -2.39    3.31   0
 -22   0  21   -3.72    3.43   0
 -22   0  22   73.01    3.43   0
 -19  -1  11   -0.03    4.92   0
 -18  -2  11   41.59    4.86   0
 -16   0   8   74.63    5.01   0
 -21  -1  15    4.12    4.70   0
 -20  -2  15    2.73    4.05   0
 -18   0  11    3.77    5.15   0
 -21  -1  16  188.63    5.73   0
 -20  -2  16    2.46    3.85   0
 -19  -1  12  434.44    7.57   0
 -18  -2  12   -1.38    4.45   0
 -17  -1   9   11.40    4.49   0
 -16  -2   9    2.60    4.20   0
 -20   0  16    4.10    5.40   0
 -16   0   9   -3.58    4.66   0
 -21  -1  17   19.11    4.63   0
 -20  -2  17    0.30    3.79   0
 -14  -2   7   73.27    4.62   0
 -20   0  17   -2.71    5.19   0
 -19  -1  13    9.97    4.93   0
 -21  -1  18  239.31    6.09   0
 -20   0  18  185.79    6.02   0
 -18  -2  13    3.64    4.39   0
 -17  -1  10  429.64    7.03   0
 -16  -2  10  106.90    5.12   0
 -16   0  10  300.08    6.77   0
 -21  -1  19    6.98    3.05   0
 -20   0  19   -5.85    4.80   0
 -20   0  24   15.60    2.68   0
 -19  -1  14  242.86    6.29   0
 -21  -1  20  125.73    4.87   0
 -20  -2  23    8.98    6.42   0
 -20   0  20  524.83    7.30   0
 -20   0  21   -4.43    3.88   0
 -20   0  22  311.30    5.35   0
 -20   0  23    0.22    2.96   0
 -18  -2  14   68.68    5.14   0
 -14  -2   8  549.79    6.90   0
 -21  -1  21    6.42    3.72   0
 -21  -1  22   15.98    3.87   0
 -21  -1  23   -3.07    3.86   0
 -21  -1  24    8.40    3.08   0
 -20  -2  22  122.61    7.84   0
 -17  -1  11   -1.11    3.59   0
 -16  -2  11   30.09    4.75   0
 -19  -1  15    2.83    3.26   0
 -18  -2  15   54.83    4.87   0
 -18   0  15    9.45    5.02   0
 -19  -1  16   12.44    4.58   0
 -18  -2  16  355.85    6.67   0
 -18   0  16  370.64    7.76   0
 -17  -1  12  255.65    6.39   0
 -16  -2  12  593.47    7.90   0
 -14  -2   9  110.99    4.99   0
 -19  -1  17   22.57    4.58   0
 -18  -2  17   34.97    4.88   0
 -18   0  17    0.91    5.13   0
 -18   0  18  972.47   10.26   0
 -18   0  25    0.88    2.74   0
 -17  -1  13    7.27    4.61   0
 -16  -2  13   81.41    5.37   0
 -14  -2  10  511.39    6.95   0
 -19  -1  19   -0.20    4.60   0
 -18   0  19    0.46    4.73   0
 -18   0  24   81.98    3.49   0
 -19  -1  20   26.02    4.62   0
 -18  -2  20   24.09    4.10   0
 -18  -2  24   65.32    6.11   0
 -18   0  20   89.57    3.95   0
 -18   0  21   -1.22    4.19   0
 -18   0  22    5.10    3.50   0
 -18   0  23   -1.84    3.31   0
 -17  -1  14   30.84    3.69   0
 -16  -2  14  316.54    6.91   0
 -16   0  14  466.81    7.65   0
 -19  -1  21    1.78    4.53   0
 -19  -1  22  160.42    5.52   0
 -19  -1  23   11.92    3.85   0
 -19  -1  24  184.79    4.77   0
 -18  -2  21    5.00    3.94   0
 -18  -2  22   20.83    4.11   0
 -18  -2  23    5.52    4.04   0
 -15  -1  11   -1.27    3.65   0
 -17  -1  15    4.97    4.24   0
 -16   0  15   -5.76    5.05   0
 -14  -2  11   47.71    4.63   0
 -16  -2  15   38.74    5.12   0
 -17  -1  16   78.46    4.81   0
 -17  -1  27    9.27    2.80   0
 -16   0  16   87.62    5.38   0
 -15  -1  12   11.26    3.64   0
 -16  -2  16   10.80    4.77   0
 -14  -2  12   73.91    4.95   0
 -13  -3  19   37.00    3.12   0
 -17  -1  17    8.16    4.35   0
 -16   0  17    6.72    4.55   0
 -16   0  25   -2.68    2.81   0
 -16  -2  25   39.77    6.54   0
 -16   0  18   14.99    4.91   0
 -15  -1  13    6.04    3.89   0
 -17  -1  18  138.94    4.54   0
 -16  -2  24   76.16    4.04   0
 -16   0  19   -3.41    4.56   0
 -16   0  24   97.68    3.77   0
 -14  -2  13    9.02    4.48   0
 -17  -1  19   10.94    5.06   0
 -16   0  20  150.44    5.24   0
 -16   0  21    0.95    3.86   0
 -16   0  22  238.32    5.12   0
 -16   0  23   -0.46    3.37   0
 -17  -1  20  485.06    7.65   0
 -17  -1  21   24.61    5.17   0
 -17  -1  22  288.21    6.38   0
 -17  -1  23   13.65    4.08   0
 -17  -1  24    4.26    2.70   0
 -16  -2  20  107.31    4.99   0
 -16  -2  21   45.64    4.60   0
 -16  -2  22  210.23    5.30   0
 -16  -2  23   13.39    2.74   0
 -15  -1  14  223.42    5.40   0
 -15  -1  27    2.53    3.38   0
 -14  -2  14   20.62    4.89   0
 -14  -2  26   75.99    6.42   0
 -15  -1  15   14.82    2.99   0
 -14  -2  15   19.56    4.95   0
 -14   0  25    0.63    3.54   0
 -12  -2  11   11.37    4.08   0
 -11  -3  19   40.78    4.01   0
 -11  -3  20    8.61    3.41   0
 -14  -2  25  -10.51    4.99   0
 -11  -3  18  136.27    3.90   0
 -15  -1  16  259.42    4.87   0
 -14  -2  16   96.82    5.19   0
 -15  -1  17    2.52    4.17   0
 -14  -2  24    6.81    3.39   0
 -14   0  17   -3.77    4.64   0
 -14   0  24    0.31    3.44   0
 -12  -2  12  130.73    5.28   0
 -15  -1  18  717.36    8.64   0
 -14  -2  23    8.35    3.47   0
 -14   0  18  351.88    6.57   0
 -14   0  23   -5.83    3.39   0
 -13  -1  27    5.66    3.40   0
 -12  -2  26   83.87    6.53   0
 -15  -1  19    9.81    5.07   0
 -14  -2  19   61.24    5.18   0
 -14  -2  22  112.45    4.69   0
 -14   0  19    0.12    4.26   0
 -14   0  22   72.91    3.96   0
 -15  -1  20   16.73    5.28   0
 -15  -1  21    1.94    5.00   0
 -15  -1  22  188.14    6.06   0
 -15  -1  23    2.45    3.20   0
 -14  -2  20  165.14    5.99   0
 -14  -2  21   59.04    5.05   0
 -14   0  20  252.45    5.64   0
 -14   0  21   -2.23    3.85   0
 -12  -2  13   35.30    4.53   0
  -9  -3  20   13.39    4.18   0
 -13  -1  26   -3.03    3.85   0
 -12  -2  25   34.32    4.80   0
 -12  -2  14  216.65    5.93   0
 -11  -1  27   12.84    3.92   0
  -9  -3  17   13.93    4.00   0
  -9  -3  18    7.41    3.33   0
  -9  -3  19   -5.05    3.32   0
 -12  -2  24  237.33    4.95   0
 -12  -2  15   44.29    4.52   0
 -12   0  24  317.32    5.51   0
 -12  -2  23   35.93    3.97   0
  -7  -3  20   99.99    6.22   0
 -13  -1  16   28.54    3.81   0
 -12  -2  16   59.85    4.62   0
 -12   0  23    6.47    3.47   0
 -13  -1  17   37.41    4.36   0
 -13  -1  23    9.30    4.74   0
 -12  -2  21    0.63    4.34   0
 -12   0  22  555.25    6.55   0
 -11  -1  26  147.06    5.12   0
  -7  -3  19   46.47    3.66   0
 -13  -1  18  163.09    5.59   0
 -13  -1  22  432.95    7.33   0
 -12  -2  19   22.27    5.27   0
 -12  -2  20   -3.08    4.87   0
 -12   0  21    2.87    3.67   0
 -13  -1  19   23.55    5.00   0
 -13  -1  20  463.74    7.59   0
 -13  -1  21   38.69    5.16   0
 -12   0  19    4.06    3.82   0
 -12   0  20   13.87    3.77   0
 -10  -2  24    6.45    3.66   0
  -8  -2  25   10.51    6.74   0
  -7  -3  16    1.64    4.36   0
  -7  -3  17   89.11    4.90   0
  -7  -3  18  121.76    4.56   0
 -10   0  24    8.74    3.92   0
  -9  -1  26  114.87    4.85   0
 -10  -2  23   23.44    3.99   0
  -5  -3  19    1.46    4.29   0
  -7  -1  26   62.84    4.11   0
 -10  -2  14   86.78    3.70   0
 -10  -2  22  161.62    5.16   0
 -10   0  23   -0.88    3.60   0
  -8  -2  24   81.14    4.12   0
  -5  -3  18   58.38    4.67   0
 -11  -1  23    6.73    4.92   0
 -10  -2  15   14.25    4.31   0
 -10  -2  21   66.14    4.71   0
 -11  -1  22   -6.03    4.91   0
 -10  -2  16   30.90    4.98   0
 -10  -2  20  362.17    6.84   0
 -10   0  22  554.80    6.65   0
  -6  -2  24   61.08    6.85   0
  -5  -3  17   59.86    4.37   0
 -10  -2  19   66.35    4.99   0
 -10   0  21    4.19    3.67   0
  -8  -2  23   15.28    4.05   0
  -5  -3  16   84.06    4.54   0
  -3  -3  18   94.24    4.77   0
 -11  -1  17   65.68    4.32   0
 -11  -1  18  513.47    7.08   0
 -11  -1  20  104.66    5.45   0
 -11  -1  21    3.56    3.81   0
 -10   0  20 1016.56    8.31   0
  -7  -1  25    3.30    4.12   0
 -11  -1  19   12.88    3.39   0
 -10   0  19    1.43    3.77   0
  -8  -2  22  126.65    5.20   0
  -8   0  23    0.69    4.20   0
  -5  -1  25    0.64    3.37   0
  -6  -2  23   24.95    3.96   0
  -3  -3  17   15.75    3.97   0
  -8  -2  21    4.63    4.35   0
  -8  -2  20   -7.29    4.60   0
  -8   0  22   88.21    4.49   0
  -3  -3  16    3.77    3.64   0
  -1  -3  17   35.73    3.88   0
  -9  -1  22  393.66    7.29   0
  -8  -2  14  403.96    6.51   0
  -6  -2  22  214.50    5.53   0
  -3  -3  15   10.91    4.10   0
  -9  -1  21   -1.08    4.77   0
  -8  -2  15   87.84    5.25   0
  -8  -2  18  225.75    5.64   0
  -8  -2  19   14.97    3.27   0
  -8   0  21    1.43    3.62   0
  -6   0  23   -2.83    4.28   0
  -1  -3  16  117.86    5.07   0
  -6  -2  21   26.06    4.55   0
  -4  -2  22   10.23    3.83   0
  -3  -1  24   11.82    3.48   0
  -2  -2  22   95.54    6.99   0
  -9  -1  20   94.81    5.70   0
  -8   0  20   27.94    3.62   0
  -1  -3  15   84.23    4.90   0
  -9  -1  18    2.63    3.85   0
  -9  -1  19    5.03    3.29   0
  -6   0  22  327.29    6.46   0
  -8   0  19   -0.05    3.52   0
  -7  -1  22  232.71    7.17   0
   1  -3  15    8.53    2.98   0
  -6  -2  19   37.05    5.02   0
  -4  -2  21    7.92    3.00   0
  -1  -1  23    0.22    3.05   0
   0  -2  21    3.28    6.59   0
  -7  -1  21   24.80    4.93   0
  -6   0  21    3.66    4.11   0
  -2  -2  21   11.34    3.48   0
  -6  -2  18  157.37    4.40   0
  -4  -2  20  122.45    5.28   0
  -4   0  22   10.72    4.10   0
  -7  -1  20  566.76    8.03   0
  -6  -2  14  416.88    6.47   0
   1  -1  22   37.59    3.54   0
  -6  -2  15   33.40    3.17   0
  -6   0  20  329.90    5.93   0
  -2  -2  20   15.17    3.99   0
  -7  -1  19    6.29    3.45   0
  -4  -2  19   35.75    4.94   0
  -4   0  21    5.39    4.98   0
   0  -2  20  188.66    5.33   0
  -7  -1  18  518.77    7.11   0
  -6   0  19   -0.99    3.46   0
  -5  -1  21   -3.08    5.31   0
  -7  -1  17   -3.90    3.71   0
  -4  -2  18  252.17    5.13   0
  -2  -2  19    0.31    4.26   0
   2  -2  19   -8.20    4.75   0
  -5  -1  20   25.01    5.34   0
  -4  -2  17   89.68    4.82   0
  -2   0  21    2.66    3.82   0
   0   0  21    1.69    3.42   0
  -4   0  20  161.92    5.50   0
  -3  -1  21    9.96    5.07   0
   0  -2  19   36.44    2.91   0
   4  -2  18   70.43    7.25   0
  -5  -1  19   11.62    5.01   0
  -2  -2  18   12.89    4.54   0
  -4  -2  14  132.39    4.28   0
  -5  -1  18  171.29    5.64   0
  -4   0  19   -3.90    3.81   0
  -3  -1  20  623.83    9.21   0
  -2  -2  17   25.44    4.29   0
  -2   0  20  133.32    5.10   0
   0  -2  18  209.97    5.55   0
   2  -2  18   25.11    3.73   0
   2   0  20   -1.83    3.28   0
 -18  -2  20   18.97    4.15   0
 -18  -2  21    3.07    3.64   0
 -18  -2  22   13.39    4.08   0
 -17  -1  15    0.97    4.05   0
 -17  -1  25   -3.52    4.08   0
 -14   0  24    2.60    4.73   0
 -17  -1  16   66.29    6.01   0
 -17  -1  24   -0.77    4.42   0
 -14   0  23   -2.23    4.52   0
 -13  -1  27    1.63    3.30   0
 -12   0  24  256.29    8.38   0
 -17  -1  23    5.25    4.86   0
 -16  -2  25   27.72    8.23   0
 -17  -1  18  218.61    6.97   0
 -17  -1  22  285.39    7.03   0
 -14   0  22   68.51    4.54   0
 -17  -1  19    8.05    4.48   0
 -17  -1  20  484.51    8.68   0
 -17  -1  21   28.64    5.75   0
 -16  -2  15   18.49    4.34   0
 -14   0  21    6.84    4.04   0
 -16  -2  24   67.42    4.78   0
 -15  -1  13    1.55    4.96   0
 -14  -2  26   93.32    7.57   0
 -14   0  17    2.55    4.78   0
 -14   0  18  325.95    7.11   0
 -14   0  20  269.99    6.00   0
 -12   0  23    2.41    4.81   0
 -16  -2  16    4.02    4.40   0
 -13  -1  26    4.12    4.01   0
 -16  -2  23   28.75    4.12   0
 -15  -1  14  236.83    6.58   0
 -15  -1  24  254.70    6.10   0
 -12   0  22  604.56    8.14   0
 -11  -1  26   97.67    5.42   0
 -16  -2  17   -0.14    4.59   0
 -16  -2  22  180.67    5.50   0
 -16  -2  18    7.12    4.62   0
 -16  -2  19   14.57    4.42   0
 -15  -1  23    6.39    4.96   0
 -14  -2  25    4.22    4.67   0
 -13  -1  25   -1.32    4.87   0
 -12   0  21   -1.74    4.20   0
 -15  -1  22  197.22    6.10   0
 -15  -1  16  276.09    6.31   0
 -15  -1  17    4.05    5.18   0
 -15  -1  21   -2.25    4.90   0
 -14  -2  24    7.44    4.40   0
 -13  -3  21   60.23    7.15   0
 -12   0  20   13.58    2.89   0
 -15  -1  18  729.52    9.37   0
 -15  -1  19   18.13    5.51   0
 -15  -1  20   28.12    5.15   0
 -12   0  18  245.03    5.75   0
 -12   0  19    1.94    2.88   0
 -11  -1  25    0.85    4.19   0
 -14  -2  13   -4.98    3.77   0
 -13  -3  20   56.66    5.57   0
 -12  -2  25   43.52    4.59   0
 -10   0  21    0.32    4.74   0
  -9  -1  25   -3.65    3.81   0
 -14  -2  23    4.65    4.64   0
 -13  -3  17    3.19    3.85   0
 -13  -3  18   60.24    4.01   0
 -13  -3  19   45.34    3.68   0
 -14  -2  14   14.62    4.13   0
 -14  -2  22  106.65    5.35   0
 -10   0  20 1075.76    9.27   0
 -14  -2  15   12.12    4.37   0
 -12  -2  24  265.40    6.56   0
 -11  -1  24   48.22    5.77   0
 -14  -2  16   93.55    5.41   0
 -14  -2  21   62.56    5.49   0
 -13  -1  22  277.93    5.91   0
 -10   0  19    0.22    3.84   0
 -14  -2  17    9.78    5.28   0
 -14  -2  18  288.54    6.72   0
 -14  -2  20  140.98    6.12   0
 -13  -1  21   29.36    5.41   0
  -7  -1  24    1.78    3.84   0
 -13  -1  20  537.76    8.26   0
 -12  -2  23   39.96    5.39   0
 -11  -1  23   -4.84    5.84   0
 -13  -1  16   36.43    4.62   0
 -13  -1  17   40.40    5.03   0
 -13  -1  18  156.03    5.55   0
 -13  -1  19   19.83    4.81   0
 -10  -2  24    4.39    4.93   0
 -11  -3  20    8.28    3.93   0
  -8   0  19    2.60    4.33   0
 -12  -2  22  161.40    6.34   0
 -11  -3  19   45.70    3.80   0
  -9  -1  23   34.94    5.81   0
 -12  -2  12  109.54    4.63   0
 -11  -3  18  134.95    4.91   0
  -7  -1  23   -1.36    4.48   0
 -12  -2  21    1.99    3.78   0
 -11  -3  16   85.27    5.11   0
 -11  -3  17   36.09    4.28   0
 -10  -2  23    8.37    3.92   0
  -9  -3  21   29.33    7.12   0
 -12  -2  13   36.25    4.48   0
 -12  -2  20    1.95    5.39   0
 -11  -1  20  100.43    5.40   0
  -9  -1  22  501.23    9.04   0
 -12  -2  14  186.71    5.76   0
 -12  -2  19   21.74    5.86   0
  -9  -3  20   17.79    4.25   0
 -12  -2  15   46.94    5.02   0
 -12  -2  16   65.19    5.10   0
 -12  -2  18  236.14    6.60   0
 -11  -1  19   25.71    4.68   0
 -10  -2  22  129.03    5.56   0
  -7  -3  21   39.72    7.62   0
  -6  -2  23   10.71    4.54   0
 -11  -1  18  441.11    7.29   0
  -9  -1  21    4.38    5.66   0
  -7  -1  22  205.02    6.65   0
 -11  -1  17   46.40    3.53   0
 -10  -2  21   93.66    6.09   0
  -8  -2  22  114.69    6.41   0
 -10  -2  20  387.80    8.04   0
  -9  -3  18    7.35    4.04   0
  -7  -3  20   81.64    5.02   0
  -7  -1  21   11.39    5.68   0
  -4  -2  22    9.15    4.06   0
  -9  -3  17    7.94    4.62   0
 -10  -2  19   63.55    5.90   0
  -9  -3  16    9.40    4.35   0
  -8  -2  21   -1.14    6.05   0
  -5  -3  20   -1.09    4.52   0
  -5  -1  21    4.20    4.69   0
 -10  -2  18  226.99    7.29   0
  -9  -3  13  101.52    5.65   0
  -9  -3  14  125.62    5.46   0
  -9  -3  15   47.28    4.91   0
  -9  -1  18   -0.85    4.37   0
  -7  -3  19   52.87    3.33   0
 -10  -2  17   56.68    6.01   0
  -7  -1  20  522.05    8.33   0
  -2  -2  21    4.85    3.91   0
 -10  -2  13   62.08    4.84   0
 -10  -2  14  139.20    5.13   0
 -10  -2  16   26.35    5.11   0
  -8  -2  20    2.57    6.18   0
  -7  -3  18  136.09    5.40   0
  -4  -2  21   -0.16    5.17   0
  -7  -1  19   16.21    5.87   0
  -5  -3  19    6.30    3.18   0
  -5  -1  20   20.81    5.40   0
  -3  -3  19   56.57    4.63   0
  -3  -1  20  547.47    8.24   0
   0  -2  20  104.68    4.95   0
  -8  -2  19   17.26    5.72   0
  -6  -2  20  225.94    7.69   0
  -8  -2  18  243.47    6.91   0
  -7  -3  16    7.38    4.79   0
  -7  -1  18  522.38    7.81   0
  -5  -3  18   60.76    4.81   0
  -5  -1  19    5.86    5.48   0
  -2  -2  20   20.42    4.60   0
  -7  -3  15    1.91    4.43   0
  -1  -3  18   45.84    4.26   0
  -8  -2  17   76.84    5.94   0
  -7  -3  14    6.85    4.39   0
  -6  -2  19   55.29    7.14   0
  -5  -3  17   69.02    5.08   0
  -3  -3  18   95.91    5.04   0
  -3  -1  19   33.69    4.90   0
  -8  -2  16  591.73    8.90   0
  -7  -3  11   40.66    5.13   0
  -7  -3  12   16.82    4.83   0
  -7  -3  13    2.83    4.51   0
   0  -2  19   30.30    4.35   0
  -8  -2  15   81.50    5.54   0
  -5  -1  18  190.82    6.85   0
   0  -4  11   25.61    7.91   0
   1  -3  17   -1.70    3.82   0
  -6  -2  18  244.15    8.09   0
  -5  -3  16   82.97    5.41   0
  -3  -3  17   14.73    4.89   0
  -2  -2  19   -0.99    4.92   0
   2  -2  18   19.74    4.03   0
   4  -2  17    0.38    3.55   0
  -3  -1  18  740.62    9.48   0
  -1  -3  17   38.89    4.76   0
  -1  -1  18  223.43    6.20   0
  -6  -2  17   29.39    6.12   0
  -5  -1  17    1.41    3.75   0
  -4  -2  18  344.58    9.23   0
  -3  -3  16   -5.24    4.84   0
   0  -4   9   34.35    4.17   0
  -6  -2  16   34.31    5.42   0
   0  -2  18  174.36    6.84   0
   1  -3  16    7.19    3.93   0
  -5  -3  13   23.11    4.90   0
  -3  -1  17   55.59    5.69   0
  -1  -3  16  108.27    5.30   0
  -6  -2  15   58.64    5.36   0
  -5  -3  12   20.96    4.73   0
  -4  -2  17  104.45    7.79   0
  -3  -3  15    7.14    5.24   0
  -1  -1  17   68.23    5.65   0
   2  -4   9   39.50    7.57   0
   2  -2  17   25.61    4.64   0
   3  -3  15    4.71    3.84   0
  -5  -3   9    4.15    4.67   0
  -5  -3  10   -2.81    4.37   0
  -5  -3  11   -5.49    4.32   0
   5  -3  14   19.92    3.85   0
   6  -2  15    2.31    3.47   0
  -6  -2  14  323.93    5.71   0
  -3  -3  14   91.62    5.79   0
  -3  -1  16   62.13    5.47   0
  -1  -3  15   62.11    5.54   0
   0  -2  17   22.67    5.52   0
   1  -3  15   10.42    4.55   0
   2  -4   8   17.56    4.31   0
   4  -2  16    7.57    4.06   0
  -4  -2  16   76.35    6.88   0
   2  -4   7   27.01    4.89   0
   4  -4   8   -8.44    8.20   0
  -1  -1  16  413.33    7.46   0
  -4  -2  15    1.77    5.58   0
  -2  -2  16   85.54    7.01   0
  -1  -3  14  164.00    6.40   0
   2  -2  16  343.76    7.37   0
   3  -3  14    5.39    4.04   0
   4  -4   7   19.34    8.57   0
  -3  -3  12  202.78    6.47   0
   1  -3  14   61.51    5.34   0
   5  -3  13   14.76    4.00   0
   7  -3  12   59.27    4.12   0
  -4  -2  14  168.63    6.32   0
  -3  -3  11  101.65    5.51   0
   4  -4   6    8.53    4.96   0
   4  -2  15   -3.61    4.66   0
   8  -2  13    2.11    3.51   0
  -1  -3  13   11.87    5.65   0
  -1  -1  15    3.10    5.07   0
   6  -4   6   22.29    8.32   0
   6  -2  14   81.96    4.86   0
  -4  -2  13   -5.71    4.39   0
  -3  -3   9   40.18    4.39   0
  -2  -2  15    5.98    5.22   0
   1  -3  13   41.57    5.95   0
   1  -1  15    7.99    4.61   0
   3  -3  13    5.46    4.40   0
   4  -4   5   15.64    4.34   0
  -3  -3   8   32.73    4.06   0
  -1  -3  12   -3.51    5.48   0
   2  -2  15   48.03    5.74   0
   6  -4   5   52.36    8.08   0
   9  -3  10    7.50    3.63   0
   5  -3  12   30.66    4.52   0
   7  -3  11   31.63    4.36   0
  10  -2  11    0.69    3.83   0
  -2  -2  14  191.63    6.43   0
   1  -3  12  189.79    7.07   0
   6  -4   4   -1.99    4.58   0
   1  -1  14  231.08    6.36   0
   3  -3  12    7.75    5.27   0
   4  -2  14   72.20    4.29   0
  -2  -2  13   22.06    5.37   0
  -1  -3  10  102.20    5.85   0
   0  -2  14   13.48    5.97   0
   6  -4   3    4.24    4.29   0
   6  -2  13    8.36    4.42   0
   8  -2  12  107.06    5.11   0
   1  -3  11  165.70    7.19   0
   5  -3  11   -1.38    4.57   0
  12  -2   9    1.99    3.06   0
  -1  -3   9  101.06    5.99   0
   3  -3  11   47.17    5.44   0
   7  -3  10   91.71    5.03   0
   9  -3   9   11.22    3.88   0
  -1  -3   8  307.43    6.54   0
   0  -2  13    2.47    5.95   0
   4  -2  13   46.54    5.84   0
   8  -4   1   15.45    4.71   0
  -1  -3   7  112.44    5.20   0
   1  -3  10  208.54    5.72   0
   3  -1  13   -1.99    4.50   0
  10  -2  10   67.73    5.28   0
  -1  -3   6   85.67    4.36   0
   3  -3  10   85.12    6.58   0
   5  -3  10   36.64    5.35   0
   6  -2  12    4.42    4.82   0
  11  -3   7   -3.14    3.70   0
   0  -2  12  132.98    6.52   0
   7  -3   9   20.91    5.26   0
   8  -2  11   26.14    4.71   0
   9  -3   8   67.23    4.80   0
   1  -3   8   -4.14    5.15   0
   2  -2  12   90.68    5.96   0
   3  -3   9   89.14    6.38   0
   5  -3   9   10.64    5.41   0
  12  -2   8   10.45    3.77   0
   0  -2  11   83.05    5.97   0
   1  -3   7   11.50    3.80   0
   3  -3   8  260.98    7.19   0
   6  -2  11    9.01    5.39   0
   7  -3   8   42.72    5.44   0
  10  -2   9   17.70    4.61   0
  11  -3   6   41.69    4.35   0
  14  -2   6    1.70    3.31   0
   1  -3   6  127.49    5.36   0
   2  -2  11    3.24    5.23   0
   5  -3   8    4.94    5.59   0
   8  -2  10  243.72    6.48   0
   9  -3   7   25.10    3.78   0
   1  -3   5   91.81    4.93   0
   5  -1  11    6.05    4.74   0
  13  -3   4    8.53    3.97   0
   1  -3   4  345.25    6.12   0
   7  -3   7   18.91    5.19   0
   5  -3   7    5.74    6.29   0
   9  -3   6  106.31    5.68   0
  11  -3   5   22.84    4.80   0
  12  -2   7    4.55    4.27   0
   2  -2  10   36.50    4.11   0
   3  -3   6  177.93    6.48   0
   4  -2  10  516.41    8.51   0
   8  -2   9   21.93    5.35   0
  10  -2   8  185.02    6.02   0
  13  -3   3   -0.43    4.11   0
   3  -3   5   23.77    5.49   0
   5  -3   6  105.28    6.20   0
   7  -3   6    3.39    4.17   0
  14  -2   5   -0.72    3.86   0
  15  -3   1   11.84    5.32   0
   9  -3   5   23.52    5.82   0
  11  -3   4  100.82    5.36   0
  16  -2   3   -2.56    3.44   0
   3  -3   4    8.62    4.70   0
   4  -2   9   52.22    5.77   0
   7  -3   5   -7.32    5.80   0
   3  -3   3   22.58    4.47   0
   7  -1   9    7.06    4.71   0
  12  -2   6   69.05    5.23   0
  13  -3   2   43.21    5.07   0
   3  -3   2  204.62    5.64   0
   9  -3   4   42.74    5.90   0
  10  -2   7   22.75    5.36   0
  11  -3   3   44.51    5.68   0
  15  -3   0   25.56    4.30   0
   5  -3   4  300.74    6.23   0
   6  -2   8  620.54    8.75   0
   7  -3   4    0.32    5.50   0
  14  -2   4   33.16    4.74   0
   4  -2   8   55.95    3.86   0
  13  -3   1   37.66    5.30   0
  17  -3  -3   35.87    8.12   0
  18  -2   0   21.40    3.59   0
   5  -3   3  103.21    5.23   0
   9  -3   3    5.28    5.88   0
  11  -3   2  104.68    6.16   0
  15  -3  -1    1.64    4.35   0
  16  -2   2    1.53    3.97   0
   5  -3   2  163.15    6.19   0
  12  -2   5   19.25    5.13   0
   6  -2   7  114.26    6.10   0
   5  -3   1   97.07    5.96   0
   7  -3   2  122.93    6.37   0
   9  -3   2    3.09    5.82   0
   9  -1   7    5.36    4.82   0
  11  -3   1   26.24    6.06   0
  13  -3   0   99.47    5.81   0
  14  -2   3   16.22    4.51   0
   5  -3   0   46.94    4.68   0
  15  -3  -2   56.63    4.85   0
  18  -2  -1   -2.53    4.72   0
   7  -3   1  212.01    7.86   0
   8  -2   6  252.32    5.79   0
  16  -2   1   -0.86    4.77   0
  -1  -1 -20  107.77    5.02   0
   1  -1 -20   22.36    5.78   0
   2  -2 -17   11.65    5.21   0
   5  -1 -17    0.97    5.31   0
  -2   0 -19    5.70    5.16   0
   3  -1 -19   20.16    6.23   0
  -4  -2 -17    3.09    4.52   0
  -3  -1 -19   -0.40    5.05   0
   0   0 -19    1.61    6.01   0
   2  -2 -16   75.50    5.84   0
  -4   0 -18  151.43    6.37   0
  -2  -2 -17   42.13    5.54   0
   0  -2 -17   20.51    5.37   0
   1  -1 -19    0.66    5.88   0
   3  -1 -18  710.06    9.67   0
  -8   0 -16   26.49    4.12   0
  -7  -1 -17   -1.71    3.80   0
  -5  -1 -18   14.45    4.28   0
  -1  -1 -19    2.90    5.14   0
   2  -2 -15   12.63    4.65   0
  -6   0 -17   -0.08    4.04   0
  -2   0 -18  181.95    6.88   0
   0   0 -18  898.44   12.40   0
  -4  -2 -16    5.87    4.53   0
   0  -2 -16    7.13    4.84   0
   1  -1 -18  213.84    7.36   0
   2  -2 -14  177.34    5.51   0
   3  -1 -17   28.53    5.73   0
  -3  -1 -18  245.25    7.14   0
  -2  -2 -16  352.27    7.89   0
  -6  -2 -15    9.68    4.48   0
  -4   0 -17    9.15    4.56   0
  -1  -1 -18   88.17    5.27   0
   2  -2 -13    4.59    3.84   0
   3  -1 -16   54.36    4.71   0
 -10   0 -14    2.65    3.52   0
  -9  -1 -15   -1.67    3.67   0
  -8  -2 -14   29.50    8.66   0
  -5  -1 -17    4.03    4.59   0
  -2   0 -17    1.09    5.39   0
   0  -2 -15   -2.88    4.60   0
   1  -1 -17   78.80    6.13   0
  -8   0 -15   -7.93    4.09   0
  -7  -1 -16   18.16    4.17   0
  -6   0 -16  155.42    6.00   0
  -4  -2 -15    6.93    4.80   0
  -3  -1 -17   -2.16    5.09   0
  -2  -2 -15   20.66    5.97   0
  -1  -1 -17   13.89    5.10   0
   0  -2 -14   15.30    4.62   0
 -12   0 -12   28.38    3.45   0
   1  -1 -16  376.52    7.46   0
  -6  -2 -14   97.07    5.33   0
  -4   0 -16    3.02    5.12   0
  -2   0 -16  338.37    7.65   0
  -8  -2 -13    7.74    4.21   0
  -5  -1 -16  173.19    6.68   0
  -2  -2 -14  306.59    7.29   0
   0  -2 -13    7.39    4.15   0
 -10   0 -13   -1.89    3.83   0
  -9  -1 -14  161.74    5.23   0
  -7  -1 -15   -2.26    4.26   0
  -6   0 -15   -2.33    4.62   0
  -4  -2 -14   95.25    5.43   0
  -3  -1 -16   27.24    5.11   0
  -1  -1 -16   63.29    4.56   0
   1  -1 -15    8.62    4.29   0
 -13  -1 -11   -2.27    4.90   0
  -8   0 -14   91.92    5.40   0
   0  -2 -12  103.26    5.06   0
  -6  -2 -13    6.49    4.38   0
  -4   0 -15    4.58    4.86   0
  -2  -2 -13   25.37    4.85   0
  -2   0 -15   -3.17    4.84   0
  -5  -1 -15    5.39    5.43   0
  -4  -2 -13   53.73    5.68   0
  -1  -1 -15   12.02    4.82   0
 -12   0 -11    1.32    3.88   0
 -11  -1 -12  239.62    5.36   0
  -8  -2 -12  153.63    5.27   0
  -3  -1 -15    2.58    4.92   0
  -9  -1 -13   -0.21    4.35   0
  -7  -1 -14   56.15    5.11   0
  -6   0 -14  214.50    5.78   0
  -2  -2 -12   65.98    5.00   0
  -2   0 -14  462.15    7.70   0
 -10   0 -12  114.86    5.21   0
  -8   0 -13    5.06    4.68   0
  -6  -2 -12    5.32    4.62   0
  -4   0 -14  137.64    6.22   0
  -1  -1 -14  227.57    6.30   0
 -14   0  -9   -4.07    3.64   0
  -5  -1 -14  235.09    6.66   0
  -4  -2 -12  608.30    9.13   0
 -13  -1 -10   23.79    3.90   0
  -8  -2 -11    9.77    4.55   0
  -3  -1 -14   38.84    4.11   0
  -2  -2 -11    4.88    4.21   0
 -10  -2 -10   72.37    4.70   0
  -7  -1 -13    2.38    5.07   0
  -6   0 -13   -2.92    4.90   0
 -15  -1  -8    0.95    3.33   0
 -12   0 -10    8.55    4.35   0
 -11  -1 -11    8.00    4.17   0
  -9  -1 -12   30.56    5.20   0
  -6  -2 -11   16.86    4.95   0
  -4  -2 -11  118.55    6.13   0
  -4   0 -13    4.97    4.48   0
 -10   0 -11   -4.47    4.83   0
  -8   0 -12  493.77    8.37   0
  -5  -1 -13    8.99    4.70   0
  -3  -1 -13   -8.04    4.65   0
  -8  -2 -10  226.28    6.39   0
 -14   0  -8   68.41    4.72   0
 -13  -1  -9    4.08    3.90   0
 -10  -2  -9   16.53    4.60   0
  -6   0 -12   54.01    5.10   0
  -4  -2 -10  450.30    7.49   0
 -16   0  -6  188.33    4.84   0
  -7  -1 -12  376.45    6.66   0
  -6  -2 -10  107.93    6.05   0
  -4   0 -12  991.75   10.09   0
 -15  -1  -7   -2.56    3.71   0
 -12   0  -9    0.07    4.48   0
 -11  -1 -10  353.60    7.26   0
  -9  -1 -11    3.60    5.00   0
  -8   0 -11    4.19    4.88   0
  -5  -1 -12  258.40    6.66   0
  -3  -1 -12    9.63    3.12   0
 -17  -1  -5   -0.09    3.44   0
 -10   0 -10  128.77    5.81   0
  -8  -2  -9   24.21    4.99   0
 -12  -2  -7    3.91    4.53   0
 -10  -2  -8  186.00    5.93   0
  -6  -2  -9   46.12    5.47   0
  -4  -2  -9   26.20    3.55   0
 -13  -1  -8  295.63    6.49   0
  -7  -1 -11   26.28    5.07   0
  -6   0 -11    0.91    3.42   0
 -14   0  -7   -4.17    4.29   0
  -9  -1 -10   35.62    5.12   0
  -5  -1 -11    5.86    4.42   0
 -18  -2  -1    3.63    7.80   0
 -18   0  -3    0.56    4.28   0
 -16   0  -5   -3.32    4.16   0
 -11  -1  -9   13.39    3.79   0
  -8  -2  -8   17.98    5.31   0
  -8   0 -10  498.07    8.29   0
 -15  -1  -6   52.57    4.53   0
 -12  -2  -6   71.46    5.21   0
 -12   0  -8   44.76    5.39   0
 -10   0  -9   -1.60    5.09   0
  -6  -2  -8  607.29    8.57   0
 -17  -1  -4    1.13    3.78   0
 -10  -2  -7   19.78    3.78   0
  -7  -1 -10  407.93    7.32   0
 -13  -1  -7    6.30    5.02   0
  -5  -1 -10  113.09    5.05   0
 -20   0   0  214.50    5.14   0
 -14  -2  -4   29.71    4.85   0
 -14   0  -6    2.33    4.80   0
 -11  -1  -8   77.56    5.85   0
  -9  -1  -9    5.47    4.73   0
  -8  -2  -7   -1.91    5.21   0
  -8   0  -9    3.98    4.60   0
 -18  -2   0   32.04    8.95   0
 -19  -1  -1    1.55    3.77   0
 -18   0  -2  345.12    6.18   0
 -16  -2  -2    1.62    4.59   0
 -16   0  -4   27.80    4.67   0
 -15  -1  -5   -1.00    4.72   0
 -12  -2  -5   23.62    5.10   0
 -12   0  -7   -2.73    3.92   0
 -10  -2  -6   92.54    4.40   0
 -10   0  -8  469.74    8.30   0
  -7  -1  -9    8.25    4.86   0
 -17  -1  -3  -10.45    4.36   0
 -13  -1  -6  365.89    7.61   0
  -9  -1  -8  414.09    7.37   0
  -8  -2  -6  289.98    6.44   0
 -14  -2  -3    3.94    4.89   0
 -14   0  -5    0.52    5.52   0
 -11  -1  -7    0.95    3.53   0
  -8   0  -8   73.89    5.10   0
 -20   0   1    2.91    4.13   0
 -18  -2   1    0.05    4.89   0
 -16  -2  -1    4.16    4.58   0
 -15  -1  -4  330.26    7.11   0
 -12  -2  -4  203.53    6.20   0
 -12   0  -6  233.94    7.21   0
 -10  -2  -5   18.85    3.79   0
 -10   0  -7   -0.22    5.12   0
  -7  -1  -8  281.15    6.04   0
 -19  -1   0   52.00    4.37   0
 -16   0  -3    0.33    5.02   0
 -22   0   4  192.88    4.56   0
 -20  -2   4   27.59    7.86   0
 -18   0  -1    4.45    4.77   0
 -17  -1  -2  116.36    5.27   0
 -13  -1  -5    9.03    5.12   0
  -9  -1  -7    5.09    4.47   0
  -8  -2  -5   41.48    4.93   0
 -14  -2  -2  151.29    5.94   0
 -11  -1  -6  169.38    6.12   0
 -10  -2  -4   17.90    5.09   0
 -21  -1   3   -1.83    3.98   0
 -18  -2   2    3.02    4.36   0
 -16  -2   0   24.99    4.79   0
 -14   0  -4   93.68    6.03   0
 -12  -2  -3   24.13    5.08   0
 -15  -1  -3   14.33    5.96   0
 -12   0  -5   -3.57    5.30   0
 -10   0  -6  365.31    7.05   0
  -8  -2  -4  649.71    7.84   0
 -20  -2   5   13.94    7.74   0
 -20   0   2  363.04    6.57   0
 -19  -1   1   -0.96    4.65   0
 -17  -1  -1    5.98    5.08   0
 -16   0  -2    8.12    5.26   0
 -22   0   5   -1.01    3.67   0
 -18   0   0  280.52    6.67   0
 -14  -2  -1   30.19    5.26   0
 -13  -1  -4   40.87    5.57   0
 -11  -1  -5   18.40    4.85   0
 -10  -2  -3    9.91    4.46   0
  -9  -1  -6  276.78    5.47   0
 -18  -2   3    2.27    4.64   0
 -16  -2   1    7.46    4.81   0
 -12  -2  -2  237.20    6.58   0
 -23  -1   7   19.20    5.79   0
 -21  -1   4   -0.15    3.95   0
 -14   0  -3   14.25    5.46   0
 -20  -2   6   -4.58    4.59   0
 -15  -1  -2  523.36    7.66   0
 -12   0  -4  462.62    8.02   0
 -20   0   3    0.26    4.76   0
 -19  -1   2  111.22    5.49   0
 -17  -1   0  314.51    7.24   0
 -16   0  -1   -0.13    5.32   0
 -14  -2   0  350.05    7.12   0
 -13  -1  -3    5.16    5.01   0
 -10  -2  -2  276.87    5.94   0
 -22   0   6  228.67    5.68   0
 -18  -2   4   46.91    5.23   0
 -18   0   1   -4.13    5.25   0
 -16  -2   2  148.23    5.80   0
 -12  -2  -1   12.48    4.92   0
 -11  -1  -4  545.44    7.96   0
 -23  -1   8    9.68    4.79   0
 -21  -1   5    1.04    4.36   0
 -20  -2   7    1.22    4.00   0
 -15  -1  -1    7.72    5.29   0
 -14   0  -2  422.31    8.18   0
 -24   0  10  200.82    4.89   0
 -22  -2  11    0.08    7.86   0
 -19  -1   3    3.10    5.82   0
 -17  -1   1   47.98    6.20   0
 -14  -2   1   83.75    5.83   0
 -12   0  -3   -0.81    4.87   0
 -10  -2  -1   93.79    5.60   0
 -20   0   4   44.26    5.28   0
 -18  -2   5    3.49    4.73   0
 -16  -2   3   33.23    5.28   0
 -16   0   0   53.61    5.99   0
 -13  -1  -2  199.45    6.39   0
 -12  -2   0  194.55    5.64   0
 -11  -1  -3   27.50    4.93   0
 -23  -1   9    4.26    3.82   0
 -22   0   7   -8.21    4.50   0
 -21  -1   6   58.95    4.96   0
 -20  -2   8   19.93    3.99   0
 -18   0   2   10.62    5.33   0
 -22  -2  12   15.27    8.54   0
 -15  -1   0  254.24    7.04   0
 -14  -2   2  215.13    6.25   0
 -24   0  11    0.22    3.65   0
 -19  -1   4  360.56    7.43   0
 -18  -2   6   69.80    5.43   0
 -14   0  -1    3.38    5.41   0
 -22  -2  13   -1.76   10.20   0
 -20  -2   9   10.26    3.88   0
 -20   0   5    5.46    4.92   0
 -17  -1   2  532.55    7.86   0
 -16  -2   4  195.28    6.32   0
 -13  -1  -1   45.88    5.37   0
 -12  -2   1    6.51    3.39   0
 -23  -1  10   18.17    4.06   0
 -22   0   8   80.03    5.33   0
 -21  -1   7    8.20    4.74   0
 -18   0   3    8.62    5.75   0
 -16   0   1    0.27    5.53   0
 -14  -2   3   39.13    4.98   0
 -24   0  12   36.48    4.25   0
 -22  -2  14   42.88    8.69   0
 -20  -2  10   67.21    4.95   0
 -19  -1   5   30.04    5.67   0
 -18  -2   7   12.39    5.01   0
 -16  -2   5   20.56    4.77   0
 -15  -1   1   15.11    5.34   0
 -12  -2   2  282.73    5.76   0
 -23  -1  11    5.88    4.37   0
 -22  -2  15    5.97    9.29   0
 -17  -1   3   15.42    5.85   0
 -14   0   0  228.68    6.86   0
 -22   0   9    1.95    5.20   0
 -21  -1   8  341.04    7.27   0
 -20   0   6   11.94    4.09   0
 -13  -1   0  228.33    6.38   0
 -20  -2  11   21.54    4.68   0
 -18  -2   8  172.41    6.26   0
 -18   0   4  108.01    6.35   0
 -16   0   2  367.44    6.80   0
 -14  -2   4   24.37    4.95   0
 -24   0  13   -1.60    4.16   0
 -23  -1  12  301.32    6.47   0
 -19  -1   6  401.52    8.52   0
 -16  -2   6  107.36    5.46   0
 -15  -1   2  207.12    6.76   0
 -12  -2   3   39.72    4.58   0
 -21  -1   9    4.50    5.67   0
 -17  -1   4   51.34    5.86   0
 -22   0  10   14.90    5.07   0
 -20  -2  12  159.38    5.92   0
 -20   0   7    0.73    5.63   0
 -18  -2   9   39.61    5.22   0
 -14   0   1   -2.16    3.74   0
 -13  -1   1    5.39    4.78   0
 -24   0  14    7.25    4.22   0
 -23  -1  13    7.93    4.65   0
 -18   0   5    5.59    5.90   0
 -16  -2   7    9.64    4.92   0
 -16   0   3   -3.12    5.61   0
 -14  -2   5    6.57    4.41   0
 -20  -2  13   14.35    4.94   0
 -19  -1   7   22.40    5.99   0
 -15  -1   3    5.11    5.39   0
 -12  -2   4  621.29    7.46   0
 -21  -1  10  432.47    8.31   0
 -18  -2  10  246.59    6.79   0
 -17  -1   5   12.92    5.41   0
 -24   0  15   -1.97    4.27   0
 -23  -1  14  208.95    6.37   0
 -22   0  11    1.03    5.29   0
 -20  -2  14  122.95    6.33   0
 -20   0   8   52.41    6.13   0
 -14  -2   6  258.12    6.04   0
 -16  -2   8   32.07    4.91   0
 -21  -1  11   15.59    6.19   0
 -20  -2  15    3.97    5.27   0
 -19  -1   8   60.64    5.15   0
 -18  -2  11   34.95    5.68   0
 -18   0   6  241.46    7.36   0
 -16   0   4  469.80    8.18   0
 -23  -1  15    2.46    4.91   0
 -17  -1   6  184.34    7.24   0
 -15  -1   4  512.83    7.41   0
 -20  -2  16    0.36    4.10   0
 -16  -2   9   -0.52    5.15   0
 -14  -2   7   66.64    5.14   0
 -23  -1  16   21.52    4.81   0
 -21  -1  12   33.40    6.30   0
 -19  -1   9    9.53    6.02   0
 -18  -2  12    8.97    4.95   0
 -20  -2  17    8.06    3.76   0
 -23  -1  17    4.97    4.38   0
 -20  -2  18   20.07    3.80   0
 -20  -2  19   13.73    4.28   0
 -18  -2  13    2.59    5.05   0
 -17  -1   7   13.93    6.19   0
 -16  -2  10   96.41    6.00   0
 -16   0   5   -0.65    3.70   0
 -15  -1   5    4.79    5.23   0
 -14  -2   8  551.03    8.10   0
 -21  -1  13   -0.21    5.90   0
 -23  -1  18   15.61    4.48   0
 -19  -1  10   40.28    4.67   0
 -18  -2  14   68.91    5.64   0
 -23  -1  19    3.39    4.68   0
 -21   1  14   59.34    5.36   0
 -16  -2  11   24.35    5.47   0
 -21  -1  14   54.36    6.25   0
 -19   1  11    3.81    5.31   0
 -17  -1   8  348.18    6.92   0
 -15  -1   6  339.97    7.07   0
 -14  -2   9  125.69    5.93   0
 -24   0  21    5.09    4.27   0
 -23  -1  20  165.18    5.63   0
 -19  -1  11   17.04    6.17   0
 -24   0  22   47.72    4.20   0
 -23  -1  21    9.31    7.27   0
 -23  -1  22   98.34    8.69   0
 -21  -1  15    0.01    5.85   0
 -21   1  15    1.86    5.01   0
 -16  -2  12  578.02    8.37   0
 -19  -1   0   63.10    4.33   0
 -16   0  -2   10.80    5.60   0
 -14  -2  -4   34.05    4.68   0
 -11  -1  -7   -3.40    5.31   0
  -9  -1  -8  397.20    7.42   0
 -20   0   3   -1.13    4.48   0
 -17  -1  -2  120.46    5.30   0
 -15  -1  -4  328.85    6.84   0
 -21  -1   3   -5.24    3.54   0
 -10   0  -6  310.97    5.97   0
 -20  -2   3   12.19    7.12   0
 -18   0   1    2.34    4.94   0
 -13  -1  -5    6.44    5.27   0
 -12  -2  -5   14.68    4.63   0
 -10  -2  -6  100.28    5.17   0
  -8  -2  -7   -2.07    4.00   0
 -16   0  -1    1.15    5.64   0
 -20   0   4   30.31    5.29   0
 -19  -1   1    2.75    4.25   0
 -15  -1  -3   24.22    5.33   0
 -11  -1  -6  163.04    6.41   0
  -9  -1  -7    3.53    4.67   0
 -21  -1   4    2.04    3.88   0
 -18  -2   1    4.32    4.11   0
 -17  -1  -1    4.33    5.00   0
 -14  -2  -3    5.28    3.19   0
 -14   0  -2  418.93    7.89   0
 -23  -1   8   12.91    3.49   0
 -20  -2   4   24.78    6.86   0
 -18   0   2   14.70    5.17   0
 -16   0   0   56.16    5.85   0
 -13  -1  -4   45.55    5.49   0
 -12  -2  -4  192.05    5.71   0
 -10  -2  -5   14.69    4.58   0
  -8  -2  -6  277.93    5.68   0
 -20   0   5   -5.64    4.76   0
 -19  -1   2  114.35    5.24   0
 -11  -1  -5   13.20    5.20   0
 -17  -1   0  303.91    6.90   0
 -15  -1  -2  624.82    8.62   0
 -14  -2  -2  146.62    5.41   0
  -9  -1  -6  275.55    5.38   0
 -18  -2   2    0.13    4.10   0
 -23  -1   9   -5.66    3.29   0
 -18   0   3    2.75    5.07   0
 -16   0   1    2.95    5.54   0
 -14   0  -1    1.28    5.02   0
 -20  -2   5    2.97    4.32   0
 -20   0   6   12.14    4.67   0
 -19  -1   3    5.79    4.88   0
 -13  -1  -3   -2.96    3.87   0
 -12  -2  -3   29.04    4.87   0
 -10  -2  -4   32.81    4.35   0
  -8  -2  -5   47.18    4.19   0
 -15  -1  -1    0.78    4.99   0
 -11  -1  -4  545.69    7.89   0
 -22  -2   9    7.16    7.85   0
 -18  -2   3    5.19    3.97   0
 -17  -1   1   37.54    5.63   0
 -14  -2  -1   25.08    5.13   0
 -23  -1  10   15.74    3.46   0
 -20   0   7    5.82    5.65   0
 -18   0   4   92.33    5.74   0
 -14   0   0  248.45    6.39   0
 -20  -2   6    1.68    3.58   0
 -17  -3   6    6.97    4.41   0
 -16   0   2  409.13    7.70   0
 -13  -1  -2  205.17    5.85   0
 -12  -2  -2  256.77    6.16   0
 -19  -1   4  275.14    5.55   0
 -15  -3   4   74.49    4.07   0
 -10  -2  -3    8.14    4.19   0
  -8  -2  -4  659.33    7.06   0
 -23  -1  11   -0.94    3.55   0
 -22  -2  10   15.09    6.39   0
 -17  -1   2  626.48    8.80   0
 -15  -1   0  232.93    6.46   0
 -11  -1  -3   36.81    4.33   0
 -20   0   8   56.90    5.06   0
 -18  -2   4   27.52    3.17   0
 -18   0   5    0.45    4.96   0
 -14  -2   0  339.06    6.91   0
 -14   0   1    2.38    4.58   0
 -20  -2   7    5.82    3.77   0
 -17  -3   7   15.11    3.39   0
 -16   0   3   -6.65    5.05   0
 -19  -1   5    8.61    3.73   0
 -13  -1  -1   43.13    4.68   0
 -12  -2  -1    7.12    4.76   0
 -23  -1  12  273.77    5.13   0
 -22  -2  11   -2.19    4.40   0
 -18   0   6  240.30    6.63   0
 -17  -1   3   14.81    5.46   0
 -15  -3   5   52.52    3.38   0
 -15  -1   1   19.00    4.77   0
 -10  -2  -2  293.80    5.62   0
 -20   0   9   -4.79    4.61   0
 -18  -2   5    7.47    4.32   0
 -14  -2   1   83.64    5.58   0
 -23  -1  13    8.65    4.25   0
 -20  -2   8   14.53    2.84   0
 -19  -1   6  365.04    7.47   0
 -17  -3   8   67.61    3.70   0
 -16   0   4  468.92    7.50   0
 -22  -2  12   23.75    4.03   0
 -13  -1   0  222.70    5.56   0
 -20   0  10  123.12    5.54   0
 -18   0   7    6.66    4.85   0
 -17  -1   4   48.85    5.45   0
 -15  -3   6   81.84    3.98   0
 -12  -2   0  211.94    5.71   0
 -23  -1  14  164.69    4.52   0
 -20  -2   9    9.09    4.00   0
 -18  -2   6   51.34    3.84   0
 -15  -1   2  174.87    4.76   0
 -10  -2  -1  119.41    5.16   0
 -22  -2  13    1.35    3.53   0
 -19  -1   7   10.13    4.90   0
 -17  -3   9   40.10    3.47   0
 -16  -2   4  208.46    6.04   0
 -16   0   5   -0.88    4.59   0
 -20   0  11   -1.36    4.41   0
 -23  -1  15   -2.44    3.42   0
 -22  -2  14   35.64    3.77   0
 -20  -2  10   64.33    4.38   0
 -18  -2   7   21.93    4.55   0
 -18   0   8  505.44    7.75   0
 -17  -1   5   -6.00    5.04   0
 -15  -3   7   23.90    3.43   0
 -13  -3   5    7.39    3.20   0
 -13  -1   1   -0.38    3.92   0
 -17  -3  10   79.17    3.97   0
 -15  -1   3    2.12    4.60   0
 -12  -2   1   10.04    3.25   0
 -23  -1  16   21.00    3.44   0
 -19  -1   8   90.24    5.34   0
 -16  -2   5   24.02    4.83   0
 -16   0   6  359.80    6.67   0
 -22  -2  15    7.21    3.57   0
 -23  -1  17   -0.67    3.30   0
 -20  -2  11   18.58    4.42   0
 -18  -2   8  189.63    5.91   0
 -18   0   9    7.00    4.62   0
 -17  -3  11   28.63    3.70   0
 -17  -1   6  168.03    6.19   0
 -15  -3   8   33.61    3.65   0
 -13  -3   6   -0.10    3.32   0
 -22  -2  16   61.43    3.94   0
 -15  -1   4  572.32    7.61   0
 -12  -2   2  336.11    6.06   0
 -23  -1  18   11.41    3.26   0
 -19  -1   9   -3.51    3.47   0
 -16  -2   6  120.01    5.25   0
 -16   0   7    0.06    4.17   0
 -23  -1  19    3.64    3.10   0
 -22  -2  17   24.78    3.71   0
 -21  -1  13   -1.12    4.23   0
 -20  -2  12  106.43    3.90   0
 -18  -2   9   30.28    4.86   0
 -17  -3  12   21.80    3.77   0
 -15  -3   9    8.23    3.55   0
 -23  -1  20  125.59    3.89   0
 -22  -2  18  112.91    4.31   0
 -18   0  10  488.57    7.57   0
 -17  -1   7   14.70    5.15   0
 -13  -3   7    4.17    3.26   0
 -23  -1  21    3.79    2.76   0
 -22  -2  19   -0.49    3.64   0
 -20  -2  13   23.79    4.17   0
 -22  -2  20   12.12    4.92   0
 -21  -1  14   52.89    4.51   0
 -17  -3  13    7.89    3.52   0
 -16  -2   7   19.50    4.61   0
 -15  -3  10   22.24    4.68   0
 -15  -1   5    7.06    3.06   0
 -12  -2   3   52.07    4.39   0
 -18  -2  10  245.76    6.38   0
 -18   0  11   -3.18    4.43   0
 -21  -1  15    4.34    4.00   0
 -20  -2  14  126.46    4.91   0
 -17  -3  14   11.73    3.76   0
 -17  -1   8  429.63    7.18   0
 -13  -3   8    3.53    3.65   0
 -16  -2   8   30.78    5.07   0
 -20  -2  15    3.38    4.22   0
 -18  -2  11   38.26    5.09   0
 -18   0  12   68.04    5.45   0
 -17  -3  15    5.97    3.70   0
 -15  -3  11   10.31    3.98   0
 -15  -1   6  315.71    6.02   0
 -21  -1  16  182.05    5.09   0
 -12  -2   4  591.56    6.45   0
 -20  -2  16    3.07    3.91   0
 -17  -3  16   -0.51    3.82   0
 -17  -1   9   23.71    4.49   0
 -15  -3  12   10.75    4.07   0
 -13  -3   9   16.29    3.94   0
 -21  -1  17   19.33    4.08   0
 -18  -2  12    6.16    4.67   0
 -17  -3  17   37.19    5.85   0
 -16  -2   9   -0.45    5.25   0
 -20  -2  17   -2.11    4.01   0
 -18   0  13  -12.39    4.60   0
 -17  -3  18   38.27    6.30   0
 -15  -1   7    9.18    3.80   0
 -21  -1  18  230.95    5.40   0
 -17  -1  10  395.10    6.94   0
 -15  -3  13   11.43    4.04   0
 -13  -3  10   96.33    4.48   0
 -12  -2   5  125.25    5.10   0
 -21  -1  19    8.51    3.71   0
 -20  -2  18   30.66    4.16   0
 -18  -2  13    2.03    4.71   0
 -16  -2  10  103.69    5.70   0
 -20  -2  19   19.45    3.64   0
 -15  -3  14   59.47    4.20   0
 -21  -1  21    5.65    3.49   0
 -21  -1  24    6.98    2.53   0
 -20  -2  20  215.89    4.67   0
 -18  -2  14   93.30    5.62   0
 -15  -1   8  289.16    5.38   0
 -13  -3  11   39.86    4.40   0
 -21  -1  22   17.74    3.48   0
 -21  -1  23    1.44    2.98   0
 -20  -2  21   49.50    3.63   0
 -20  -2  22  126.59    4.29   0
 -20  -2  23    1.23    4.46   0
 -17  -1  11    5.42    4.37   0
 -15  -3  15   46.77    3.86   0
 -16  -2  11   34.64    5.40   0
 -12  -2   6  385.38    5.36   0
 -18  -2  15   30.62    3.98   0
 -15  -3  16   95.28    3.84   0
 -13  -3  12  188.89    5.55   0
 -17  -1  12  266.84    5.99   0
 -15  -3  17   63.01    3.39   0
 -15  -1   9    6.58    3.64   0
 -18  -2  16  361.89    6.88   0
 -16  -2  12  633.02    8.60   0
 -15  -3  18  103.93    3.64   0
 -15  -3  19   12.22    5.32   0
 -15  -3  20    2.75    6.10   0
 -13  -3  13  113.52    4.69   0
 -19  -1  17   13.36    4.38   0
 -18  -2  17   30.38    4.73   0
 -12  -2   7   38.61    4.08   0
 -16  -2  13   91.14    6.04   0
 -13  -3  14  133.07    4.74   0
 -19  -1  18   99.46    5.00   0
 -18  -2  18  230.82    5.93   0
 -14  -2  10  534.26    7.69   0
 -11  -3  11   28.76    4.16   0
 -19  -1  26  106.27    3.71   0
 -18  -2  19   16.68    4.27   0
 -13  -3  15   35.66    3.70   0
 -19  -1  19   -3.81    4.11   0
 -18  -2  20   21.89    4.02   0
 -18  -2  24   51.46    4.02   0
 -16  -2  14  339.39    7.35   0
 -13  -3  16   -1.12    4.00   0
 -12  -2   8   64.31    4.64   0
 -11  -3  12    5.26    3.63   0
 -19  -1  20   19.25    3.96   0
 -19  -1  25    6.59    3.22   0
 -18  -2  21    0.02    4.28   0
 -18  -2  22   22.90    3.89   0
 -18  -2  23    8.74    3.21   0
 -14  -2  11   50.47    5.10   0
 -13  -3  17    3.92    3.76   0
 -13  -3  21   35.19    6.27   0
 -19  -1  21    7.34    3.71   0
 -19  -1  22  149.31    4.79   0
 -19  -1  23    7.41    3.39   0
 -19  -1  24  182.52    4.40   0
 -16  -2  15   40.65    5.34   0
 -15  -1  11   -1.56    2.82   0
 -13  -3  18   64.99    3.59   0
 -13  -3  19   35.76    3.59   0
 -13  -3  20   99.50    5.95   0
 -11  -3  13    2.30    3.53   0
 -16  -2  16    7.85    4.85   0
 -16   0  15    0.84    3.76   0
 -14  -2  12   71.53    5.29   0
 -15  -1  12    7.02    3.86   0
 -11  -3  14   70.30    3.94   0
 -16  -2  17    3.16    4.45   0
 -11  -3  21   13.33    7.24   0
 -17  -1  27   11.92    2.49   0
 -16  -2  18    6.54    4.58   0
 -16  -2  25    1.97    4.39   0
 -14  -2  13    3.29    4.82   0
 -11  -3  16   88.26    4.57   0
 -16  -2  24   70.13    3.39   0
 -15  -1  13   -1.93    3.66   0
 -11  -3  17   33.29    3.95   0
 -11  -3  19   53.15    4.29   0
 -11  -3  20    5.58    3.63   0
 -17  -1  26   80.51    3.61   0
 -16  -2  19    7.20    3.41   0
 -16  -2  20  122.97    5.81   0
 -16  -2  23   22.95    3.77   0
 -16   0  17   -1.98    3.25   0
 -14  -2  14   14.20    5.45   0
 -11  -3  18  150.63    4.63   0
 -16  -2  21   51.25    5.01   0
 -16  -2  22  197.04    5.21   0
 -17  -1  25    4.89    3.39   0
 -16   0  18    8.26    3.37   0
 -15  -1  14  215.88    5.13   0
 -14  -2  26   92.26    5.96   0
  -9  -3  14  115.99    4.72   0
 -17  -1  21   16.45    4.57   0
 -17  -1  22  237.45    5.56   0
 -17  -1  23    5.97    3.53   0
 -17  -1  24   -0.42    3.83   0
 -14  -2  15    8.43    3.64   0
  -9  -3  20    5.88    3.72   0
 -14  -2  16   83.84    5.40   0
  -9  -3  15   48.05    3.98   0
  -9  -3  19    4.25    4.13   0
 -15  -1  15   12.26    2.96   0
 -14  -2  25   -4.31    4.01   0
  -9  -3  16    7.24    3.86   0
  -9  -3  17   10.15    3.89   0
  -9  -3  18    5.24    3.88   0
 -15  -1  27    1.41    3.01   0
 -14  -2  17   24.47    4.79   0
 -14  -2  18  338.54    7.28   0
 -14  -2  24   11.80    3.26   0
 -14  -2  19   64.64    6.03   0
 -14  -2  22   95.47    4.52   0
 -14  -2  23    8.11    3.69   0
 -15  -1  26  140.06    4.43   0
 -14  -2  20  131.93    5.01   0
 -14  -2  21   65.87    4.94   0
 -12  -2  14  156.46    4.46   0
 -15  -1  25    9.02    3.81   0
 -12  -2  15   23.11    3.40   0
 -13  -1  27    0.25    3.64   0
 -12  -2  16   70.85    5.17   0
 -12  -2  24  223.19    4.83   0
 -14   0  18  278.26    5.76   0
 -12  -2  23   40.91    3.79   0
 -14   0  24    1.24    3.73   0
 -12  -2  17    4.30    4.04   0
 -12  -2  18  269.45    7.34   0
 -12  -2  22  168.49    5.04   0
 -10  -2  25   20.44    6.32   0
 -14   0  19    3.83    4.27   0
 -14   0  20  275.54    5.85   0
 -14   0  23   -2.98    3.74   0
 -12  -2  19   27.58    5.32   0
 -12  -2  20   -2.27    4.87   0
 -12  -2  21    2.10    4.26   0
 -14   0  21   -1.20    4.13   0
 -14   0  22   78.46    4.63   0
 -13  -1  16   44.67    4.19   0
 -10  -2  24    3.74    3.80   0
  -8  -2  25   17.38    6.65   0
 -13  -1  17   43.49    4.43   0
 -10  -2  23   13.93    2.79   0
 -23  -1  11    8.14    4.04   0
 -21  -1   7   11.94    4.92   0
 -20   0   8   53.03    6.10   0
 -22   0  13   -2.23    4.30   0
 -17  -1   2  606.95    8.98   0
 -16   0   3   -1.55    5.52   0
 -15  -1   0  234.48    6.69   0
 -14   0   1    8.45    4.86   0
 -11  -1  -3   25.15    4.50   0
 -18  -2   4   31.90    4.50   0
 -22   0  14  119.51    4.99   0
 -21  -1   8  344.37    7.00   0
 -20   0   9   -6.21    5.54   0
 -19  -1   5   24.27    5.70   0
 -18   0   6  232.14    7.55   0
 -14  -2   0  319.55    6.18   0
 -16  -2   2  130.62    5.14   0
 -22  -2  11   14.28    6.26   0
 -17  -1   3   17.48    5.74   0
 -15  -1   1    8.16    5.57   0
 -21  -1   9   12.08    5.24   0
 -20   0  10  124.14    6.41   0
 -12  -2  -1   10.39    4.04   0
 -23  -1  14  160.42    5.09   0
 -20  -2   8   14.78    4.04   0
 -19  -1   6  382.89    8.01   0
 -18  -2   5    6.11    4.22   0
 -18   0   7    2.34    4.12   0
 -17  -3   7   22.11    3.66   0
 -22  -2  12   10.76    5.22   0
 -20   0  11   -5.15    5.80   0
 -16  -2   3   28.05    4.64   0
 -14  -2   1   77.02    4.95   0
 -23  -1  15   -1.09    3.94   0
 -21  -1  10  400.95    7.71   0
 -17  -1   4   48.14    5.72   0
 -20   0  12  574.08    8.79   0
 -19  -1   7    6.15    5.69   0
 -18   0   8  509.22    9.19   0
 -23  -1  16   17.67    4.11   0
 -22  -2  13   -1.51    3.84   0
 -20  -2   9    5.30    3.78   0
 -23  -1  17    4.63    4.25   0
 -21  -1  11   24.30    5.22   0
 -20   0  13   -4.44    5.19   0
 -17  -3   8   59.02    3.57   0
 -16   0   6  362.26    7.79   0
 -12  -2   0  194.68    5.36   0
 -23  -1  18   24.58    4.21   0
 -22  -2  14   48.12    3.97   0
 -18   0   9    2.26    4.18   0
 -17  -1   5    3.34    5.16   0
 -16  -2   4  194.21    5.93   0
 -14  -2   2  214.56    5.73   0
 -23  -1  19    5.51    3.26   0
 -23  -1  20  129.86    4.01   0
 -20  -2  10   60.83    4.17   0
 -20   0  14  262.78    6.75   0
 -19  -1   8   80.98    6.25   0
 -15  -1   3    8.14    5.32   0
 -13  -1   1   -0.85    3.49   0
 -22  -2  15    7.63    3.66   0
 -21  -1  12   43.13    5.20   0
 -18   0  10  535.84    8.88   0
 -15  -3   6   81.38    4.15   0
 -19  -3  13   26.90    6.79   0
 -17  -3   9   41.83    3.78   0
 -16   0   7   -0.25    3.71   0
 -22  -2  16   58.83    4.15   0
 -20  -2  11   20.74    4.07   0
 -19  -1   9   -7.32    5.79   0
 -17  -1   6  137.79    5.04   0
 -16  -2   5   14.22    4.94   0
 -12  -2   1   10.73    3.92   0
 -18  -2   8  159.40    5.63   0
 -18   0  11   -2.06    5.48   0
 -15  -1   4  587.48    8.32   0
 -14  -2   3   40.65    5.04   0
 -22  -2  17   26.84    3.72   0
 -19  -3  14   47.09    6.89   0
 -17  -3  10   80.68    4.52   0
 -16   0   8   76.75    5.84   0
 -15  -3   7   21.85    3.84   0
 -22  -2  18  124.68    3.88   0
 -22  -2  19    8.77    3.74   0
 -20  -2  12  140.68    5.21   0
 -19  -1  10   40.50    6.09   0
 -17  -1   7   16.30    5.23   0
 -21  -1  15    5.89    4.88   0
 -19  -3  15   29.82    7.36   0
 -18   0  12   44.78    4.10   0
 -18  -2   9   32.67    4.89   0
 -15  -1   5   12.83    4.66   0
 -12  -2   2  296.79    5.83   0
 -20  -2  13   19.49    4.13   0
 -19  -1  11    0.10    5.94   0
 -18   0  13   -1.98    5.05   0
 -17  -3  11   38.02    3.69   0
 -15  -3   8   40.75    4.12   0
 -14  -2   4   22.16    3.58   0
 -17  -1   8  429.67    8.06   0
 -21  -1  17   28.29    4.73   0
 -20  -2  14  104.09    4.93   0
 -18  -2  10  233.47    6.31   0
 -18   0  14  158.27    5.91   0
 -13  -3   6    7.47    4.28   0
 -21  -1  18  267.04    5.96   0
 -21  -1  22   22.95    3.57   0
 -19  -1  12  364.45    6.90   0
 -17  -3  12   22.07    3.59   0
 -15  -1   6  343.25    6.82   0
 -21  -1  19    8.71    4.42   0
 -21  -1  20  126.37    4.87   0
 -21  -1  21    2.93    3.58   0
 -20  -2  15    1.32    4.14   0
 -17  -1   9   16.17    5.70   0
 -15  -3   9   14.73    4.24   0
 -14  -2   5    4.45    4.36   0
 -12  -2   3   46.60    4.32   0
 -18  -2  11   38.49    4.87   0
 -17  -3  13    5.82    3.62   0
 -20  -2  16    7.16    4.21   0
 -20  -2  17    3.63    3.81   0
 -17  -1  10  474.57    8.35   0
 -15  -3  10   24.31    4.04   0
 -15  -1   7   20.90    4.27   0
 -13  -3   7   -5.11    4.21   0
 -18  -2  12   -2.79    4.49   0
 -17  -3  14    8.69    3.81   0
 -14  -2   6  277.13    6.20   0
 -20  -2  18   27.94    4.18   0
 -19  -1  15    3.06    5.35   0
 -16  -2   9   -1.77    4.53   0
 -12  -2   4  656.92    7.49   0
 -20  -2  19   29.42    3.88   0
 -20  -2  20  218.71    4.66   0
 -18  -2  13   -0.41    4.49   0
 -17  -1  11    8.17    5.18   0
 -19  -1  16   26.22    5.10   0
 -15  -3  11   11.10    3.94   0
 -15  -1   8  306.72    6.14   0
 -13  -3   8   -0.97    4.28   0
 -19  -1  17   22.04    4.90   0
 -18  -2  14   72.05    5.25   0
 -17  -3  18   61.36    7.09   0
 -17  -3  19   39.57    7.88   0
 -17  -1  12  299.47    7.12   0
 -16  -2  10   86.37    4.22   0
 -15  -3  12   11.58    4.07   0
 -19  -1  18  107.49    5.42   0
 -19  -1  23    6.58    3.23   0
 -15  -1   9    1.77    4.22   0
 -13  -3   9   15.48    4.12   0
 -12  -2   5  123.27    4.73   0
 -19  -1  19   -3.39    4.55   0
 -19  -1  20   14.34    4.27   0
 -19  -1  21    6.99    4.84   0
 -19  -1  22  141.48    4.59   0
 -18  -2  15   59.33    5.10   0
 -16  -2  11   19.97    3.64   0
 -15  -3  13   11.86    4.18   0
 -18  -2  17   49.22    5.35   0
 -18  -2  24   44.76    3.06   0
 -16  -2  12  555.30    8.05   0
 -15  -3  14   61.82    4.34   0
 -13  -3  10   78.77    4.79   0
 -12  -2   6  411.26    6.06   0
 -18  -2  18  226.50    5.93   0
 -18  -2  19   31.26    4.52   0
 -17  -1  15    0.73    5.10   0
 -13  -3  11   27.27    4.40   0
 -11  -3   8  247.01    5.90   0
 -18  -2  20   12.72    2.75   0
 -18  -2  21   -4.14    3.77   0
 -16  -2  13  113.03    5.38   0
 -15  -1  11    1.69    4.46   0
 -17  -1  16   93.74    5.45   0
 -15  -3  21   -2.88    5.92   0
 -12  -2   7   22.32    3.87   0
 -17  -1  17    4.29    5.05   0
 -17  -1  24   -0.64    2.43   0
 -16  -2  14  289.62    6.32   0
 -15  -3  18  112.01    4.67   0
 -15  -3  19   22.90    3.88   0
 -15  -3  20    8.70    5.35   0
 -14  -2  10  467.16    6.88   0
 -13  -3  12  192.30    5.78   0
 -17  -1  23   14.31    4.02   0
 -16  -2  25    8.33    2.73   0
 -15  -1  12    9.16    4.52   0
 -11  -3   9  152.80    5.17   0
 -17  -1  18  141.39    4.86   0
 -17  -1  19    9.37    4.49   0
 -17  -1  22  351.38    6.43   0
 -16  -2  15   35.05    4.89   0
 -13  -3  13  120.80    4.85   0
 -17  -1  20  539.20    7.54   0
 -17  -1  21   21.83    4.30   0
 -14  -2  11   44.41    4.52   0
 -16  -2  16    4.59    3.33   0
 -16  -2  24   68.30    3.72   0
 -13  -3  14  162.99    5.52   0
 -11  -3  10  236.20    5.92   0
 -16  -2  17    4.25    4.71   0
 -13  -3  22   75.54    6.54   0
 -16  -2  18    8.98    4.65   0
 -14  -2  12   45.10    3.71   0
 -16  -2  19   16.35    4.24   0
 -16  -2  20  110.27    5.06   0
 -16  -2  21   42.53    4.07   0
 -13  -3  21   68.39    5.98   0
 -11  -3  11   23.54    4.27   0
  -9  -3   8    5.77    3.71   0
 -15  -1  15   22.32    4.36   0
 -14  -2  13    5.12    4.40   0
 -13  -3  18   66.16    4.14   0
 -13  -3  19   51.64    3.79   0
 -13  -3  20   86.31    4.26   0
 -15  -1  24  210.09    4.44   0
 -14  -2  25    5.07    3.02   0
 -11  -3  12    6.98    4.17   0
 -15  -1  16  260.60    5.39   0
 -14  -2  14   16.02    4.44   0
 -12  -2  10   38.26    4.01   0
  -9  -3   9    4.82    3.60   0
 -15  -1  17    4.94    4.49   0
 -15  -1  23   -0.44    3.62   0
 -11  -3  13    8.56    4.43   0
 -11  -3  22    7.24    6.35   0
 -15  -1  18  745.41    8.33   0
 -15  -1  22  178.44    4.91   0
 -14  -2  15   15.46    4.50   0
 -15  -1  19   11.15    4.56   0
 -15  -1  20   21.43    4.39   0
 -15  -1  21   -1.78    4.29   0
 -14  -2  16   84.83    5.02   0
 -12  -2  11    5.18    3.66   0
 -11  -3  14  106.00    5.33   0
 -11  -3  21   -7.49    5.27   0
  -9  -3  10   83.25    4.58   0
 -14  -2  17    8.91    4.45   0
 -11  -3  15   62.98    4.88   0
 -14  -2  18  271.77    6.30   0
 -14  -2  21   36.53    4.51   0
 -14  -2  22   88.60    4.39   0
 -12  -2  25   38.59    3.43   0
 -11  -3  19   34.09    3.58   0
 -11  -3  20   11.73    3.63   0
 -14  -2  19   58.74    4.78   0
 -14  -2  20  166.13    5.64   0
 -12  -2  12  124.51    4.77   0
 -11  -3  18  144.77    4.39   0
  -9  -3  11   86.10    4.93   0
 -13  -1  24   40.47    3.62   0
 -12  -2  13   36.06    4.30   0
  -9  -3  12  222.15    6.20   0
  -9  -3  21   40.70    6.16   0
 -13  -1  16   41.02    4.04   0
 -13  -1  23    3.18    3.85   0
 -12  -2  14  205.43    5.61   0
 -10  -2  25    2.70    2.91   0
  -9  -3  13  106.79    5.53   0
  -9  -3  20   17.81    3.86   0
  -7  -3   9  117.30    4.69   0
 -13  -1  22  373.45    5.97   0
  -9  -3  14  139.92    5.53   0
 -13  -1  17   21.34    3.12   0
 -13  -1  18  159.18    5.08   0
 -13  -1  21   23.10    3.96   0
 -12  -2  15   24.71    3.16   0
 -12  -2  22  168.33    4.80   0
  -9  -3  15   54.72    4.41   0
  -9  -3  19   -2.01    3.79   0
  -7  -3  10  162.58    5.27   0
  -7  -3  21   39.87    6.66   0
 -13  -1  19   20.51    4.42   0
 -13  -1  20  421.35    6.50   0
 -12  -2  16   63.48    4.35   0
 -12  -2  21    2.39    4.21   0
 -12  -2  17    5.64    2.98   0
 -12  -2  18  237.81    6.32   0
 -12  -2  19   18.15    5.07   0
 -12  -2  20   -0.36    4.80   0
 -11  -1  24   28.97    3.61   0
  -7  -3  11   42.11    4.55   0
  -7  -3  20  106.68    4.51   0
  -7  -3  12   23.00    4.22   0
 -11  -1  23    1.79    3.73   0
  -7  -3  19   58.15    4.39   0
 -10  -2  13   55.58    4.14   0
  -7  -3  13   10.26    3.93   0
  -7  -3  14    2.89    3.80   0
  -5  -3  20    8.21    6.73   0
 -11  -1  22    1.50    3.95   0
 -10  -2  22  116.28    3.77   0
  -7  -3  15    3.12    3.88   0
  -5  -3   9   -0.91    3.69   0
 -10  -2  14  111.94    4.69   0
 -10  -2  21   63.40    4.76   0
 -11  -1  21    7.08    3.85   0
 -10  -2  15   13.73    3.62   0
 -10  -2  20  356.88    6.60   0
  -9  -1  24  257.38    5.05   0
  -8  -2  23   24.83    3.92   0
  -5  -3  10    6.75    3.92   0
 -11  -1  17   69.53    4.20   0
 -11  -1  18  484.60    6.51   0
 -11  -1  19   21.16    3.86   0
 -11  -1  20   72.92    4.35   0
 -10  -2  16   28.34    4.08   0
 -10  -2  17   41.23    4.82   0
 -10  -2  18  222.74    6.35   0
 -10  -2  19   64.16    5.04   0
  -5  -3  11   -2.78    3.75   0
 -20  -2  19   14.26    4.14   0
 -20  -2  20  227.46    5.08   0
 -19  -1  16   18.93    6.29   0
 -16   0  15   -1.04    5.45   0
 -16   0  17   -7.33    5.43   0
 -16   0  18   22.07    5.48   0
 -19  -1  17   14.27    5.76   0
 -19  -1  20   17.37    4.95   0
 -19  -1  21    3.78    4.46   0
 -17  -1  24   -2.70    4.54   0
 -19  -1  18   91.96    6.12   0
 -19  -1  19   -2.48    5.07   0
 -18  -2  12    3.37    3.89   0
 -17  -1  11    1.08    4.08   0
 -14   0  20  225.26    6.56   0
 -18  -2  13    1.33    4.25   0
 -17  -1  23   12.22    4.36   0
 -14   0  19    0.83    4.02   0
 -18  -2  23    2.96    3.66   0
 -17  -3  14   10.93    3.20   0
 -15  -1  24  204.97    6.89   0
 -14   0  18  343.31    6.82   0
 -18  -2  14   82.80    4.62   0
 -17  -1  13    3.77    5.47   0
 -17  -1  22  313.39    6.29   0
 -14   0  17  -10.17    4.80   0
 -18  -2  22   22.98    3.87   0
 -17  -3  15   -3.12    3.36   0
 -17  -1  14   39.06    6.35   0
 -18  -2  15   63.49    5.03   0
 -18  -2  21    0.46    4.42   0
 -17  -3  16   -1.69    4.58   0
 -17  -3  17   36.57    8.62   0
 -18  -2  20   28.05    4.32   0
 -17  -1  15    0.10    4.17   0
 -17  -1  16   81.39    5.43   0
 -16  -2  10   83.11    4.55   0
 -15  -1  23    4.40    4.90   0
 -18  -2  17   34.30    3.59   0
 -18  -2  18  225.98    5.81   0
 -18  -2  19   31.40    4.49   0
 -17  -1  17    4.97    4.79   0
 -17  -1  18  222.87    6.20   0
 -17  -1  19    9.99    3.60   0
 -16  -2  11   18.05    4.45   0
 -15  -1  22  164.15    5.80   0
 -13  -1  23    0.89    4.33   0
 -14  -2  24    2.45    3.96   0
 -16  -2  12  546.89    7.54   0
 -16  -2  22  206.47    5.24   0
 -15  -3  12   10.45    3.55   0
 -15  -3  21   10.99    6.35   0
 -15  -1  12   12.30    4.92   0
 -15  -1  21   -1.69    4.19   0
 -15  -1  20   18.21    4.36   0
 -12  -2  24  164.90    5.42   0
 -16  -2  13  100.89    5.27   0
 -16  -2  21   54.19    4.63   0
 -15  -3  13   11.85    3.71   0
 -15  -3  20  -11.94    4.69   0
 -15  -1  13    2.53    3.20   0
 -13  -1  22  466.40    8.08   0
 -16  -2  20  117.70    5.55   0
 -15  -3  19   17.73    3.91   0
 -15  -1  14  194.08    4.89   0
 -15  -1  15   11.88    4.34   0
 -15  -1  18  654.01    7.41   0
 -14  -2  23    6.94    3.99   0
 -16  -2  15   34.45    4.95   0
 -16  -2  19   14.45    4.43   0
 -15  -3  14   48.53    3.81   0
 -15  -3  18  108.90    4.58   0
 -15  -1  16  365.51    6.55   0
 -15  -1  17   -2.89    4.19   0
 -14  -2   9   97.79    4.52   0
 -16  -2  16    6.14    3.83   0
 -16  -2  17   -3.72    4.76   0
 -16  -2  18    0.83    4.75   0
 -15  -3  15   52.03    4.40   0
 -13  -1  21   32.57    4.66   0
 -12  -2  23   39.71    5.05   0
 -14  -2  10  441.23    6.61   0
 -13  -1  20  515.64    7.11   0
 -13  -3  10   85.56    5.32   0
 -10  -2  23    9.86    4.19   0
 -14  -2  11   42.70    4.63   0
 -13  -3  20  109.79    4.06   0
 -13  -1  19   16.58    4.12   0
 -11  -1  21   12.10    4.67   0
 -14  -2  20  202.99    6.00   0
 -13  -1  18  133.96    4.37   0
 -12  -2  22  197.75    5.70   0
 -14  -2  12   68.73    4.66   0
 -14  -2  19   47.78    5.45   0
 -13  -3  11   33.24    4.30   0
 -13  -3  19   63.87    4.00   0
 -11  -3  21    3.51    3.19   0
 -13  -3  12  186.47    5.17   0
 -13  -3  18   66.29    4.04   0
 -13  -1  16   23.40    2.81   0
 -11  -1  20   97.28    4.85   0
 -14  -2  14   17.42    4.61   0
 -14  -2  15   17.34    4.89   0
 -14  -2  16   93.24    5.40   0
 -14  -2  17   17.55    4.47   0
 -14  -2  18  210.08    5.19   0
 -13  -3  13   94.70    4.59   0
 -13  -3  17    6.13    3.74   0
 -12  -2  21   -2.50    4.29   0
 -10  -2  22  154.36    5.73   0
 -13  -3  14  131.59    5.11   0
 -13  -3  16   -0.10    4.15   0
 -11  -3  20   12.91    3.87   0
 -11  -1  19   20.87    4.02   0
  -9  -3  21   12.93    3.18   0
 -11  -1  18  495.59    6.31   0
 -11  -3  19   51.35    4.30   0
 -10  -2  21   75.15    5.16   0
 -12  -2  19   11.33    4.77   0
 -11  -3   9  117.76    4.95   0
 -11  -1  17   67.82    3.73   0
  -9  -1  19    2.41    4.86   0
 -12  -2  10   30.91    3.04   0
 -12  -2  18  251.73    6.47   0
 -11  -3  18  153.73    5.08   0
  -8  -4  10   14.02    3.36   0
 -12  -2  11    9.71    3.89   0
 -11  -3  10  218.40    5.57   0
  -8  -4  11    7.03    2.96   0
  -8  -4  13   10.43    6.33   0
  -8  -2  21   -1.03    4.03   0
  -7  -3  20  110.66    4.63   0
 -12  -2  16   59.96    4.53   0
 -12  -2  17   -3.44    3.69   0
 -11  -3  17   34.07    3.34   0
 -10  -2  20  303.01    5.64   0
  -9  -1  18   -2.01    3.81   0
 -12  -2  13   29.91    4.45   0
 -12  -2  14  203.59    5.88   0
 -12  -2  15   41.13    4.28   0
 -11  -3  11   26.37    4.03   0
 -11  -3  12    3.10    4.21   0
 -11  -3  16   85.00    4.78   0
  -9  -3  19    6.41    3.83   0
 -11  -3  15   44.46    3.82   0
 -10  -2  19   55.23    5.22   0
  -9  -3  18   12.06    4.45   0
  -8  -2  20    0.71    4.62   0
  -6  -4  14   61.19    6.81   0
  -9  -3   7   30.44    4.13   0
  -9  -3  17    9.11    4.63   0
  -6  -2  20  195.41    5.61   0
  -5  -3  19   12.83    3.32   0
 -10  -2  17   51.43    4.93   0
  -8  -2  19   24.57    5.04   0
  -6  -4   8    0.59    2.94   0
  -6  -4  12   80.67    4.30   0
  -9  -3   8    5.87    3.90   0
  -9  -3  16   14.69    4.38   0
  -7  -3  18  153.29    5.17   0
  -6  -4   9   11.96    3.27   0
  -6  -4  10   38.88    3.33   0
  -6  -4  11   70.47    3.89   0
  -4  -4  14   13.01    6.37   0
 -10  -2  16   20.78    3.79   0
 -10  -2  14  138.34    4.75   0
 -10  -2  15   11.11    4.23   0
  -9  -3   9    6.74    3.93   0
  -9  -3  14  137.85    5.72   0
  -9  -3  15   39.80    3.62   0
  -8  -2  18  232.50    6.35   0
  -6  -2  19   44.68    5.26   0
 -10  -2  13   67.07    4.09   0
  -9  -3  10   80.62    4.64   0
  -9  -3  11   81.04    5.31   0
  -9  -3  13  106.46    5.69   0
  -7  -3  17   82.73    5.21   0
  -4  -4  13   -0.45    6.11   0
  -7  -3  16   11.05    4.63   0
  -4  -4  12   -0.39    3.85   0
  -2  -4  13   30.72    6.72   0
  -6  -2  18  232.73    6.41   0
  -4  -4   6   21.17    3.17   0
  -1  -3  17   33.51    4.12   0
  -7  -3  15   12.63    4.58   0
  -4  -4   7   74.90    3.95   0
  -4  -4   8  116.63    4.86   0
  -4  -4   9   86.15    3.97   0
  -4  -4  10   43.88    3.94   0
  -3  -3  17   16.74    3.94   0
  -7  -3   6  107.20    4.52   0
  -4  -2  18  307.89    6.77   0
  -2  -4  12   16.49    5.12   0
  -8  -2  15   65.45    3.79   0
  -7  -3  14    4.70    4.49   0
  -6  -2  17   41.09    5.80   0
  -5  -3  16   93.51    5.53   0
   0  -4  12   37.89    6.95   0
   1  -3  16   -1.60    2.99   0
  -8  -2  14  411.03    6.41   0
  -7  -3   7   85.33    4.28   0
  -7  -3  13    7.28    4.56   0
  -7  -3   8  258.64    5.82   0
  -7  -3   9  118.86    5.62   0
  -7  -3  12   17.47    4.84   0
  -6  -2  16   30.84    5.14   0
  -5  -3  15   36.75    5.34   0
  -4  -2  17   99.16    5.66   0
  -1  -3  16   98.21    4.52   0
   2  -4  11    0.46    6.37   0
  -2  -4   5   80.63    4.55   0
  -2  -4   9    7.85    4.20   0
  -2  -2  17   19.67    4.48   0
  -5  -3  14  145.67    5.96   0
  -2  -4   6   26.16    3.89   0
  -2  -4   7   15.18    3.94   0
  -2  -4   8   -1.97    4.25   0
  -3  -3  15   10.17    4.68   0
   0  -4  10   16.94    4.20   0
   1  -3  15    4.15    3.76   0
  -6  -2  14  366.81    6.74   0
  -5  -3  13   16.88    4.90   0
  -4  -2  16   61.57    4.31   0
  -1  -3  15   59.43    4.64   0
   2  -4  10   -9.34    6.50   0
  -5  -3  12   21.48    4.72   0
  -3  -3  14   81.56    5.64   0
   0  -4   9   40.81    4.49   0
   3  -3  14    3.89    3.34   0
  -5  -3   5  110.12    4.21   0
  -5  -3  11   -1.29    4.55   0
  -2  -2  16   74.77    5.32   0
   2  -4   9    4.81    4.59   0
   4  -4   9   16.26    6.95   0
   5  -3  13    7.42    2.86   0
  -5  -3   6   88.50    4.66   0
  -5  -3  10   -3.42    4.14   0
  -4  -2  15    2.41    5.09   0
   0  -4   3   15.13    4.15   0
   0  -4   7   48.27    4.62   0
  -5  -3   7   11.02    3.42   0
  -5  -3   8   49.66    4.91   0
  -3  -3  13   98.28    5.74   0
   0  -4   4   -0.40    3.84   0
   0  -4   5    8.69    4.29   0
   0  -4   6   33.11    4.35   0
   1  -3  14   58.04    4.46   0
   2  -4   8   15.92    4.59   0
   4  -4   8   -1.11    6.20   0
  -4  -2  14  148.57    4.78   0
  -3  -3  12  206.23    6.36   0
  -2  -2  15    9.25    3.75   0
   0  -2  15    2.90    4.28   0
   3  -3  13   -5.40    3.67   0
   6  -4   7   55.09    6.93   0
  -1  -3  13   16.43    5.10   0
  -3  -3  11  111.21    5.41   0
   2  -4   1    8.38    4.08   0
   4  -4   7   -7.87    4.61   0
   5  -3  12   19.79    3.48   0
   7  -3  11   21.85    3.14   0
  -3  -3  10  169.54    5.67   0
  -2  -2  14  254.12    6.64   0
  -1  -3  12   -0.37    5.05   0
   2  -4   2   20.59    3.83   0
   2  -4   4   49.43    5.66   0
   2  -4   5   36.97    5.42   0
   6  -4   6   59.76    7.26   0
   2  -4   3   44.59    4.70   0
   4  -4   6    6.77    4.47   0
  -3  -3   4   37.22    4.54   0
  -3  -3   9   35.12    3.55   0
   0  -2  14   18.25    4.61   0
   1  -3  12  205.30    6.03   0
   2  -2  14  280.55    6.01   0
   3  -3  12    2.86    4.06   0
  -3  -3   5   17.79    4.41   0
  -3  -3   6   -1.02    4.06   0
  -3  -3   7   16.70    4.03   0
  -2  -2  13   15.53    5.03   0
  -1  -3  11   12.99    4.91   0
   6  -4   5    5.66    5.11   0
   4  -4   4   19.68    4.66   0
   5  -3  11    3.11    4.06   0
   9  -3   9    6.71    3.06   0
  -1  -3  10   88.85    5.22   0
   1  -3  11  150.44    6.56   0
   4  -4   0   36.67    4.13   0
   4  -4   1   52.24    5.09   0
   4  -4   2   40.45    4.97   0
   4  -4   3   23.83    5.08   0
   7  -3  10   82.90    4.01   0
   0  -2  13    5.84    4.76   0
   8  -4   3   89.65    8.55   0
  -1  -3   9  103.08    5.66   0
   2  -2  13   19.33    4.75   0
  11  -3   7   -0.67    3.13   0
  -1  -3   8  295.92    6.50   0
   1  -3  10  244.10    6.66   0
   6  -4   2   30.45    4.74   0
  -1  -3   7  115.50    4.92   0
   3  -3  10   86.02    5.45   0
   6  -4  -1    7.36    4.61   0
   6  -4   0   -0.82    4.42   0
   6  -4   1    7.62    4.78   0
   8  -4   1   38.26    6.04   0
   9  -3   8   69.18    4.56   0
   0  -2  12  105.02    4.23   0
   1  -3   9   38.43    4.99   0
   4  -2  12  564.42    7.54   0
   7  -3   9   30.18    4.05   0
  -1  -3   4   53.14    4.02   0
  -1  -3   5   11.95    3.66   0
   2  -2  12   83.34    5.00   0
   8  -4  -3   21.13    4.37   0
   8  -4  -2   39.10    4.31   0
   8  -4  -1   -2.88    4.33   0
   8  -4   0   50.63    4.76   0
  10  -4  -1   59.88    9.43   0
   1  -3   8    4.31    4.43   0
   3  -3   9   74.99    5.79   0
   5  -3   9   -4.32    4.46   0
  10  -4  -4    4.00    4.27   0
  10  -4  -2   34.73    8.15   0
   1  -1  16   73.97    9.28   0
   2  -2  15   44.16    6.55   0
   3  -1  16   23.86    7.83   0
   8   0  13    2.12    6.85   0
  10  -2  12   20.53   10.01   0
  11  -1  12  218.40    6.88   0
  12   0  10    7.24    6.34   0
   0  -2  14   11.23    6.47   0
   5  -1  15   -6.69    7.58   0
   8  -2  13    8.63    6.15   0
   6   0  13    1.06    6.91   0
   7  -1  14   40.72    7.52   0
   9  -1  13   -0.40    5.94   0
  10   0  11   -0.79    8.22   0
   1  -1  15   -4.42    5.71   0
   2  -2  14  273.08    8.83   0
   3  -1  15    8.37    7.71   0
   4  -2  14   82.57    6.93   0
   8   0  12  522.37   11.02   0
  15  -1   8    9.68    4.66   0
   0  -2  13   -4.53    6.36   0
   4   0  13    2.87    6.89   0
  12   0   9    7.66    6.50   0
   1  -1  14  267.76    9.25   0
   5  -1  14  194.04    7.40   0
  10  -2  11    4.76    5.78   0
  11  -1  11    9.69    5.86   0
   0  -2  12   82.63    6.15   0
   2  -2  13   10.69    6.71   0
   3  -1  14   56.30    8.09   0
   4  -2  13   44.95    7.47   0
   6   0  12   43.09    7.70   0
   7  -1  13    1.39    7.96   0
   9  -1  12   31.54    7.22   0
  10   0  10  133.13    8.35   0
  14   0   7  -13.18    6.49   0
   4   0  12 1018.18   13.68   0
   8   0  11    9.69    7.60   0
  12  -2   9   -0.16    5.86   0
  17  -1   5    4.87    4.06   0
   2  -2  12   58.65    6.88   0
   5  -1  13    1.38    7.28   0
  15  -1   7   -0.21    5.05   0
   3  -1  13    3.53    5.28   0
   4  -2  12  565.60   11.31   0
   6   0  11    0.44    6.55   0
  10  -2  10   60.84    6.07   0
  11  -3   6    4.43    7.53   0
  11  -1  10  368.03    9.06   0
  12   0   8   48.27    7.65   0
  14  -2   7   -6.96    8.90   0
   7  -1  12  393.53    8.55   0
   8   0  10  506.34   10.65   0
   9  -3   7   37.31    5.02   0
   9  -1  11    2.17    7.46   0
  10   0   9   -3.46    7.25   0
  14   0   6   18.53    8.45   0
   2  -2  11   -0.14    6.28   0
   3  -1  12   20.85    6.37   0
   5  -1  12  286.02    9.05   0
   6  -2  11    1.75    7.44   0
  12  -2   8   18.81    5.67   0
   4  -2  11  106.62    8.59   0
  17  -1   4   -2.24    4.81   0
   7  -1  11   20.68    7.54   0
   9  -3   6   70.37    5.50   0
  10  -2   9   25.63    6.44   0
  11  -3   5   16.90    5.00   0
  11  -1   9   10.45    7.78   0
  12   0   7    8.26    7.40   0
  14  -2   6    2.05    5.45   0
   8   0   9    2.28    4.71   0
   9  -1  10   31.33    6.10   0
  10   0   8  466.78   10.99   0
  16  -2   4   -3.56    7.19   0
   5  -1  11    9.23    6.47   0
   6  -2  10   99.83    7.81   0
  14   0   5    8.28    7.34   0
   4  -2  10  486.22   10.20   0
  12  -2   7   -0.85    6.09   0
  13  -1   7   14.42    6.97   0
  19  -1   1    0.74    4.69   0
   7  -1  10  433.46    9.92   0
  10  -2   8  183.27    8.15   0
  12   0   6  254.17    9.29   0
   8   0   8   72.29    7.31   0
   9  -3   5   25.09    5.71   0
   9  -1   9    1.39    8.01   0
  10   0   7   -0.61    7.02   0
  11  -3   4   79.11    6.07   0
  11  -1   8   85.22    8.21   0
  17  -1   3   -0.61    5.52   0
  18  -2   1   14.14    9.28   0
   5  -1  10  136.61    7.47   0
   6  -2   9   52.29    7.51   0
  14  -2   5   -0.76    4.34   0
  16  -2   3   -4.34    5.25   0
   4  -2   9   29.47    6.73   0
  14   0   4  101.91    8.55   0
  12  -2   6   80.01    7.31   0
  13  -3   2   38.44    5.60   0
  13  -1   6  346.35    9.80   0
  16   0   2    9.45    6.69   0
   7  -1   9   13.32    4.94   0
   9  -3   4   28.13    6.10   0
  10  -2   7   16.93    7.43   0
  11  -3   3   42.08    6.47   0
  11  -1   7   -3.96    8.06   0
  12   0   5    1.34    7.33   0
  15  -3   0   31.91   10.87   0
  19  -1   0   51.04    5.38   0
  10   0   6  370.61    9.71   0
  14  -2   4   33.73    7.06   0
  17  -1   2  120.95    6.93   0
  21  -1  -3   -0.90    4.48   0
   6  -2   8  488.96    8.98   0
  16  -2   2    8.96    6.22   0
  18  -2   0   28.92    5.53   0
  12  -2   5   15.47    7.78   0
  13  -3   1   38.53    5.96   0
  14   0   3    5.42    7.71   0
   7  -1   8  307.17    8.74   0
   9  -3   3    7.66    5.84   0
  10  -2   6  103.74    8.21   0
  11  -3   2  104.71    7.57   0
  13  -1   5    5.84    5.58   0
  15  -3  -1   -3.69    6.80   0
  16   0   1   -7.73    8.28   0
  20  -2  -3   12.77    8.37   0
   9  -1   7    3.48    7.55   0
  11  -1   6  163.44    9.72   0
  12   0   4  481.33   10.43   0
  19  -1  -1   -4.67    5.62   0
   6  -2   7   98.01    7.55   0
  14  -2   3   24.89    7.24   0
  17  -1   1    4.35    6.84   0
  18  -2  -1   -1.36    5.94   0
  21  -1  -4   -5.24    4.93   0
  13  -3   0   83.24    6.66   0
  16  -2   1    4.34    6.82   0
  17  -3  -4   24.29   13.08   0
   8  -2   6  292.41    9.17   0
  12  -2   4  202.87    9.44   0
  13  -1   4   52.19    7.84   0
  14   0   2  454.21   10.93   0
  15  -3  -2   47.60    6.85   0
  20  -2  -4   11.64    6.50   0
  16   0   0   51.75    8.73   0
   6  -2   6  453.89    9.27   0
   9  -1   6  316.81    9.26   0
  11  -1   5   19.85    8.09   0
  12   0   3   -5.23    7.70   0
  14  -2   2  134.28    8.81   0
  19  -1  -2  105.55    7.58   0
  13  -3  -1   56.65    7.11   0
  16  -2   0   16.60    7.24   0
  18  -2  -2    1.12    7.02   0
  21  -1  -5    1.44    5.30   0
   8  -2   5   65.72    7.43   0
  11  -3   0  137.73    8.47   0
  12  -2   3   39.62    8.64   0
  15  -3  -3   27.79    6.01   0
  13  -1   3    0.22    7.82   0
  20  -2  -5   -0.17    5.61   0
  11  -1   4  524.26   10.64   0
  16   0  -1    4.24    8.09   0
  19  -1  -3    9.86    6.54   0
  23  -1  -9   -3.96    4.47   0
  13  -3  -2  103.38    7.43   0
  14  -2   1   32.52    8.55   0
  17  -3  -6  -13.15    9.32   0
  18  -2  -3   -4.27    6.68   0
  11  -3  -1   36.26    6.88   0
  15  -3  -4   90.47    6.83   0
  16  -2  -1    9.72    7.85   0
  21  -1  -6   56.91    5.93   0
  22  -2  -9   -4.51    9.12   0
  12  -2   2  257.96    9.70   0
  20  -2  -6   -2.51    6.24   0
  13  -1   2  193.22    8.98   0
  14   0   0  261.15    9.44   0
  23  -1 -10   12.25    4.80   0
  11  -1   3   26.51    7.07   0
  13  -3  -3   37.55    7.24   0
  14  -2   0  372.81   10.67   0
  16   0  -2  457.95   10.90   0
  17  -3  -7   11.53    7.12   0
  18  -2  -4   32.08    7.39   0
  19  -1  -4  354.39    8.96   0
  11  -3  -2   13.99    6.64   0
  15  -3  -5   59.28    7.21   0
  16  -2  -2  161.72    8.91   0
  21  -1  -7    6.59    6.55   0
  22  -2 -10    5.25    7.05   0
  12  -2   1    9.99    7.88   0
  20  -2  -7    5.82    6.77   0
  13  -1   1   38.79    7.86   0
  17  -3  -8   55.68    6.83   0
  23  -1 -11   10.25    5.11   0
  13  -3  -4   49.67    7.20   0
  14  -2  -1   91.92    9.53   0
  14   0  -1    2.71    7.87   0
  15  -3  -6   92.11    7.36   0
  18  -2  -5   14.26    7.79   0
  19  -1  -5   22.39    7.35   0
  22  -2 -11  -14.15    7.80   0
  11  -3  -3    3.06    6.53   0
  16  -2  -3   20.55    9.23   0
  16   0  -3   -1.04    8.16   0
  21  -1  -8  291.83    8.69   0
  12  -2   0  210.29    9.02   0
  17  -3  -9   47.02    6.67   0
  20  -2  -8   25.80    7.56   0
  15  -3  -7   26.35    8.62   0
  22  -2 -12   25.48    6.78   0
  23  -1 -12  256.49    7.01   0
  11  -3  -4  -12.59    7.78   0
  13  -1   0  227.02    8.55   0
  14  -2  -2  226.08   10.12   0
  18  -2  -6   64.69    8.72   0
  16  -2  -4  230.89   10.24   0
  17  -3 -10   92.13    6.91   0
  19  -1  -6  285.30    8.10   0
  20  -2  -9   -1.05    7.31   0
  21  -1  -9   23.77    6.82   0
  13  -3  -6   -1.42    8.53   0
  15  -1  -2  208.52    9.16   0
  16   0  -4  507.06   11.15   0
  22  -2 -13    1.93    6.85   0
  23  -1 -13    2.08    5.45   0
  15  -3  -8   51.34    7.29   0
  17  -3 -11   34.55    6.44   0
  10  -2   0  536.86    9.99   0
  18  -2  -7   16.44    8.20   0
  20  -2 -10   72.29    7.85   0
  13  -1  -1   -0.83    6.50   0
  14  -2  -3   31.86    6.77   0
  15  -3  -9   19.09    8.30   0
  16  -2  -5   13.39    8.97   0
  19  -1  -7   12.22    8.34   0
  21  -1 -10  375.48    9.17   0
  22  -2 -14   36.83    6.58   0
  23  -1 -14  187.35    7.80   0
  13  -3  -7   -5.30    6.91   0
  15  -1  -3    3.80    7.45   0
  17  -3 -12   26.31    6.29   0
  16   0  -5    4.04    7.23   0
  18  -2  -8  201.77    9.41   0
  22  -2 -15  -11.14    6.48   0
  15  -3 -10   20.76    6.97   0
  17  -3 -13   11.72    6.22   0
  20  -2 -11    8.10    5.56   0
  23  -1 -15    0.09    5.36   0
  13  -3  -8    5.56    7.07   0
  14  -2  -4   39.56    6.09   0
  16  -2  -6  130.17    9.43   0
  17  -3 -14    5.61    7.57   0
  21  -1 -11   22.53    6.87   0
  22  -2 -16   58.16    7.25   0
  15  -3 -11    7.93    6.90   0
  15  -1  -4  546.99   10.90   0
  17  -3 -15   -2.21    6.26   0
  18  -2  -9   34.86    8.63   0
  20  -2 -12  110.85    6.46   0
  22  -2 -17    5.94    7.77   0
  23  -1 -16   23.36    5.78   0
  13  -3  -9    9.28    7.24   0
  16  -2  -7   23.11    8.36   0
  16   0  -6  368.13    8.93   0
  21  -1 -12   45.41    7.36   0
  14  -2  -5    1.14    5.94   0
  15  -3 -12   21.57    6.58   0
  20  -2 -13   18.98    7.22   0
  22  -2 -18  103.98   10.59   0
  23  -1 -17    4.76    6.34   0
  13  -3 -10   81.10    7.53   0
  18  -2 -10  284.41   10.47   0
  22  -2 -19   22.31   11.62   0
  15  -3 -13    0.36    6.64   0
  15  -1  -5    3.76    7.12   0
  18   0  -9    3.18    7.94   0
  21  -1 -13   -5.16    6.95   0
  22  -2 -20    4.74   10.47   0
  14  -2  -6  268.45    9.19   0
  16  -2  -8   27.48    8.62   0
  20  -2 -14  114.73    8.08   0
  23  -1 -18   14.85    5.45   0
  13  -3 -11   26.45    7.19   0
  15  -3 -14   55.65    7.33   0
  18  -2 -11   45.85    8.37   0
  23  -1 -19    7.90    6.24   0
  15  -3 -15   43.73    6.44   0
  20  -2 -15    0.26    7.10   0
  21  -1 -14   53.64    7.18   0
  15  -3 -16  103.46    7.16   0
  16  -2  -9    8.99    8.36   0
  18   0 -10  404.21    9.63   0
  23  -1 -20  132.44    6.22   0
  14  -2  -7   58.52    8.08   0
  15  -1  -6  309.48    8.75   0
  18  -2 -12   -1.63    8.76   0
  20  -2 -16   12.18    6.78   0
  23  -1 -21   -2.68    5.26   0
  23  -1 -22   80.04    5.28   0
  20  -2 -17   -6.73    6.82   0
  16  -2 -10  107.62    9.26   0
  18  -2 -13    1.45    8.12   0
  14  -2  -8  586.80   10.99   0
  15  -1  -7    6.21    6.36   0
  18   0 -11    1.90    6.30   0
  20  -2 -18   32.66    6.74   0
 -20   0  19    1.51    5.71   0
 -17   1  17   15.63    8.23   0
 -16   0  11    0.44    6.07   0
 -15   1  13   -1.41    7.10   0
 -20   0  20  653.63   11.29   0
 -20   0  26   22.90    4.72   0
 -20   0  21   -9.75    7.38   0
 -20   0  25    1.35    5.47   0
 -19  -1  17   11.97    6.34   0
 -18  -2  20   11.43    5.23   0
 -18  -2  21   -2.28    5.43   0
 -18   0  15   -1.84    7.21   0
 -17  -1  13    6.61    5.83   0
 -17   1  18  251.62    9.55   0
 -17   1  24    8.65    4.63   0
 -20   0  22  225.35    6.74   0
 -20   0  23   -5.44    5.94   0
 -20   0  24   23.54    5.98   0
 -18  -2  22    7.28    4.42   0
 -17   1  19   15.69    7.66   0
 -16   0  12 1112.47   12.88   0
 -15   1  14  254.27    9.11   0
 -18   0  16  375.65   10.00   0
 -17   1  20  527.17   10.37   0
 -17   1  21   19.12    6.36   0
 -17   1  22  266.06    7.28   0
 -17   1  23    6.90    4.65   0
 -19  -1  27  -11.60    9.86   0
 -17  -1  14   43.76    6.70   0
 -15   1  15   14.97    7.67   0
 -18   0  17   -3.89    7.57   0
 -16   0  13   -3.11    6.23   0
 -19  -1  26  128.71    9.76   0
 -15   1  16  425.49   10.36   0
 -19  -1  25   10.31    5.72   0
 -18   0  18  988.44   13.64   0
 -17  -1  15    3.61    5.78   0
 -19  -1  22  130.45    6.57   0
 -19  -1  23    8.22    5.14   0
 -19  -1  24  193.39    6.21   0
 -18   0  19    1.63    7.94   0
 -16   0  14  527.05   10.31   0
 -15   1  17    1.64    7.71   0
 -17  -1  16   50.40    6.51   0
 -18   0  20   87.74    6.75   0
 -18   0  21    2.12    7.71   0
 -18   0  25    5.38    5.60   0
 -16  -2  18   16.01    5.45   0
 -15   1  18  535.45    9.36   0
 -15   1  19    6.63    7.34   0
 -15   1  23   11.66    4.65   0
 -18   0  22   12.71    7.10   0
 -18   0  23    3.96    6.55   0
 -18   0  24  102.57    6.46   0
 -16  -2  19    7.34    7.10   0
 -16   0  15    3.76    6.55   0
 -16   0  28    0.98    4.18   0
 -15   1  20   28.06    7.14   0
 -15   1  21   -2.73    6.31   0
 -15   1  22  172.57    6.62   0
 -16  -2  20  143.47    7.51   0
 -15  -1  13    6.64    5.16   0
 -17  -1  27    9.77    8.90   0
 -16  -2  21   24.82    6.07   0
 -16  -2  22  165.69    5.85   0
 -16  -2  23   19.05    4.50   0
 -16   0  16   87.61    7.52   0
 -16   0  27    1.49    4.71   0
 -17  -1  26   85.89    5.75   0
 -16   0  17    2.38    7.84   0
 -15  -1  14  191.67    6.58   0
 -17  -1  20  512.25   10.21   0
 -17  -1  25    0.50    5.80   0
 -15  -1  28   41.32   12.83   0
 -14   0  28  391.40    7.03   0
 -17  -1  21   21.72    6.63   0
 -17  -1  22  266.57    7.90   0
 -17  -1  23    4.86    5.91   0
 -17  -1  24   -3.35    5.70   0
 -16   0  18   16.05    7.66   0
 -13   1  17   53.05    7.51   0
 -16   0  19   -0.20    7.38   0
 -15  -1  15    7.96    5.47   0
 -14  -2  25    6.01    8.76   0
 -13   1  18  171.41    8.02   0
 -13   1  22  354.60    7.76   0
 -16   0  20  153.86    9.02   0
 -16   0  21    0.49    7.56   0
 -16   0  23  -12.62    6.61   0
 -13   1  19   23.89    6.86   0
 -13   1  20  517.84    9.53   0
 -13   1  21   36.16    5.80   0
 -16   0  22  161.10    6.74   0
 -15  -1  27   -3.54    5.44   0
 -14  -2  17   11.53    5.52   0
 -14  -2  24    3.22    5.53   0
 -14   0  27   -3.03    5.50   0
 -14  -2  18  280.21    7.80   0
 -15  -1  26  161.50    6.26   0
 -14  -2  19   35.65    6.67   0
 -14  -2  23    7.49    4.44   0
 -13  -1  28   78.36   10.09   0
 -14  -2  20  195.14    7.58   0
 -14  -2  21   45.95    6.08   0
 -14  -2  22   85.78    5.38   0
 -14   0  26  156.51    6.32   0
 -15  -1  25   13.23    5.83   0
 -15  -1  19   10.33    6.48   0
 -15  -1  24  257.57    8.52   0
 -14   0  17   -0.77    6.37   0
 -12  -2  25   34.83    9.83   0
 -12   0  27   -3.24    5.45   0
 -15  -1  20   29.86    7.11   0
 -15  -1  21   -2.17    6.72   0
 -15  -1  22  179.37    7.72   0
 -15  -1  23   -0.90    6.59   0
 -14   0  18  344.04    8.98   0
 -13  -1  27    2.50    5.38   0
 -14   0  19    2.00    6.50   0
 -11   1  19   12.34    5.60   0
 -14   0  20  318.02    8.81   0
 -14   0  21    0.76    6.45   0
 -13  -1  26    4.04    6.17   0
 -12  -2  24  207.82    5.86   0
 -12   0  26  243.73    7.53   0
 -10   0  27    5.71    4.65   0
 -12  -2  16   65.91    5.62   0
 -12  -2  17   -1.44    5.52   0
 -12  -2  23   41.89    4.95   0
 -11  -1  27   21.57    5.87   0
 -10  -2  25   -1.49    9.32   0
 -13  -1  25   -6.38    5.81   0
 -12  -2  18  199.31    7.59   0
 -12  -2  22  169.82    6.29   0
 -12   0  25   -5.31    5.21   0
 -13  -1  24   52.93    6.77   0
 -12  -2  19   16.25    6.55   0
 -12  -2  20    0.91    6.00   0
 -12  -2  21   -6.97    5.45   0
 -10   0  26   57.21    6.46   0
 -12   0  24  331.58    7.75   0
 -13  -1  18  136.53    6.89   0
 -13  -1  22  404.00    9.42   0
 -13  -1  23    1.24    5.01   0
 -11  -1  26  146.33    7.20   0
 -10  -2  24   -1.74    5.01   0
 -13  -1  19    9.33    4.71   0
 -13  -1  20  498.79    9.43   0
 -13  -1  21   29.16    6.65   0
  -8   0  26  112.23    6.33   0
  -6   0  26   14.93    4.06   0
 -12   0  18  243.70    7.79   0
 -12   0  19   -3.49    6.59   0
 -11  -1  25    5.21    6.09   0
 -10  -2  23   22.25    5.32   0
 -10   0  25    2.47    6.64   0
  -9  -1  26  115.87    6.75   0
 -10  -2  15    3.56    5.09   0
 -10  -2  22  169.00    6.48   0
 -10   0  24   -0.24    6.03   0
 -11  -1  24   33.65    5.18   0
 -10  -2  21   46.12    5.70   0
  -8   0  25    6.18    6.22   0
  -7  -1  26  102.14    7.03   0
 -11  -1  23   -7.39    6.56   0
 -10  -2  16   26.30    5.87   0
 -10  -2  20  318.84    7.37   0
 -10   0  23    9.54    5.63   0
  -4   0  25    0.77    3.76   0
 -10  -2  17   43.42    6.58   0
 -10  -2  18  206.29    7.70   0
 -10  -2  19   53.89    5.97   0
  -9  -1  25    4.13    6.49   0
  -8  -2  23   13.73    5.23   0
  -6   0  25    5.43    4.79   0
 -11  -1  22    4.08    5.03   0
 -10   0  22  615.92    9.52   0
  -8   0  24  155.72    8.34   0
 -11  -1  17   66.82    5.89   0
 -11  -1  18  453.82    8.47   0
 -11  -1  20  103.26    6.91   0
 -11  -1  21    9.64    5.01   0
 -11  -1  19   10.21    4.43   0
  -9  -1  24  265.06    8.82   0
  -8  -2  22  100.06    6.27   0
  -7  -1  25    0.35    5.95   0
  -8   0  23    2.82    6.28   0
  -6   0  24  105.07    6.75   0
  -5  -1  25    3.15    5.12   0
  -9  -1  23   43.11    7.08   0
  -8  -2  21    4.20    5.11   0
  -4   0  24    9.44    4.72   0
  -8  -2  20    3.54    5.12   0
  -7  -1  24    9.45    6.43   0
  -9  -1  22  410.43    9.37   0
  -8  -2  19   14.33    5.36   0
  -8   0  22   70.68    6.57   0
  -8  -2  15   66.96    5.95   0
  -8  -2  18  201.50    6.64   0
  -6   0  23   -3.01    6.63   0
  -9  -1  21    8.02    4.43   0
  -8  -2  16  536.35    8.87   0
  -8  -2  17   73.47    6.21   0
  -8   0  21   -1.77    4.21   0
  -7  -1  23   -0.66    7.33   0
  -5  -1  24  218.68    8.09   0
  -3  -1  24   12.15    5.14   0
  -2   0  23    8.88    5.29   0
  -9  -1  20   94.56    7.46   0
  -8   0  20   26.29    5.64   0
  -6  -2  21   19.93    5.78   0
  -4   0  23    2.69    5.42   0
  -9  -1  18   -2.67    5.34   0
  -9  -1  19    1.78    4.80   0
  -8   0  19   -2.90    5.04   0
  -6   0  22  345.81    9.75   0
  -7  -1  22  226.67    9.14   0
  -6  -2  20  192.04    7.00   0
  -5  -1  23    1.59    6.79   0
  -1  -1  23    6.84    4.37   0
   0   0  22   62.19    5.08   0
  -7  -1  21   14.94    6.93   0
  -6  -2  19   40.59    5.98   0
  -6   0  21   -3.99    6.78   0
  -4   0  22   12.10    6.32   0
  -3  -1  23   -2.96    5.64   0
  -6  -2  18  198.39    6.83   0
  -2   0  22  275.76    8.63   0
   1  -1  22   49.52    5.23   0
  -7  -1  20  562.33    9.68   0
  -6  -2  17   32.28    5.49   0
  -6   0  20  348.44    8.12   0
  -5  -1  22  342.74    9.90   0
  -4  -2  20  117.90    6.96   0
  -6  -2  16   35.95    5.57   0
  -4   0  21    2.70    7.08   0
  -7  -1  19    9.01    4.58   0
  -6  -2  15   28.56    3.94   0
  -6   0  19    1.44    5.32   0
  -5  -1  21    5.07    7.68   0
  -4  -2  19   34.35    6.15   0
  -3  -1  22  172.01    8.29   0
  -1  -1  22   14.37    5.85   0
  -7  -1  18  506.05    9.25   0
  -2   0  21    9.54    6.37   0
   0   0  21    3.40    5.17   0
  -7  -1  17    5.52    5.10   0
  -6   0  18  141.02    4.98   0
  -4   0  20  190.26    8.84   0
  -5  -1  20   32.29    7.28   0
  -4  -2  18  260.11    8.08   0
  -3  -1  21   10.71    7.67   0
   1  -1  21   -0.78    5.58   0
  -1  -1  21    2.73    6.34   0
   2   0  20    1.08    4.95   0
  -5  -1  19    2.35    6.61   0
  -4  -2  17   60.66    5.15   0
  -4   0  19    0.26    6.77   0
  -2   0  20  147.95    7.58   0
   3  -1  20  125.76    6.01   0
   4  -2  18   71.83    9.58   0
   4   0  19    7.39    5.32   0
  -4  -2  16   52.57    6.14   0
  -3  -1  20  645.07   12.39   0
  -2  -2  18    9.72    6.34   0
   0   0  20  548.80   10.27   0
   5  -1  19    3.45    4.33   0
  -5  -1  18  182.59    7.18   0
  -4  -2  15   -5.82    5.14   0
  -4   0  18  332.64    8.04   0
  -4  -2  14  126.76    5.85   0
  -2   0  19    9.43    7.02   0
  -1  -1  20   26.70    7.49   0
   1  -1  20  110.99    7.11   0
  -5  -1  17    0.30    5.31   0
  -3  -1  19   37.19    7.81   0
  -2  -2  17   19.23    6.29   0
   2   0  19   -1.68    5.53   0
   0   0  19    1.69    6.24   0
  -2  -2  16   83.80    6.76   0
  -2   0  18   23.37    7.06   0
   3  -1  19    4.84    5.89   0
  -3  -1  18  762.22   12.46   0
  -1  -1  19    4.29    7.87   0
   1  -1  19   13.48    7.03   0
   4   0  18  114.92    7.48   0
   5  -1  18   19.25    5.61   0
   7  -1  17    5.33    4.46   0
   8   0  16   18.37    4.31   0
  -2  -2  15   13.43    5.86   0
   6   0  17    0.29    4.88   0
  -3  -1  17   64.27    7.04   0
  -2   0  17    4.28    6.22   0
   0  -2  16    3.03    6.55   0
   0   0  18  865.54   13.13   0
   2   0  18  161.70    7.87   0
  -2  -2  14  184.08    6.72   0
  -1  -1  18  262.42    9.77   0
   3  -1  18  211.27    8.82   0
  -3  -1  16   45.16    6.35   0
  -2  -2  13    8.21    4.98   0
   1  -1  18  115.07    8.70   0
  -6   0  22  299.05    9.40   0
  -4   0  22   10.42    5.63   0
 -11  -1  21   -7.14    4.53   0
 -10  -2  22  168.28    6.76   0
  -7  -1  24    6.16    5.97   0
  -1  -1  23   -2.52    3.80   0
  -9  -1  23   34.78    6.70   0
 -11  -1  17   68.64    5.63   0
 -11  -1  18  504.12    8.80   0
 -10  -2  21   60.46    6.10   0
  -8   0  19    6.38    4.72   0
  -6   0  21    3.52    6.90   0
  -2   0  21   -2.30    4.80   0
  -9  -1  22  441.18    9.60   0
  -4   0  21   -4.08    6.73   0
 -10  -2  20  312.81    7.59   0
  -7  -1  23    4.56    6.93   0
  -6  -2  23   10.66    6.09   0
  -6   0  20  318.49    9.64   0
  -3  -1  23    0.24    5.52   0
 -10  -2  19   55.61    5.98   0
  -9  -1  21    1.87    6.72   0
  -5  -1  23    7.25    6.04   0
 -10  -2  17   24.02    5.39   0
 -10  -2  18  186.34    6.82   0
  -4   0  20  151.68    8.25   0
  -2   0  20  119.50    6.61   0
  -9  -1  20  121.26    6.85   0
  -7  -1  22  201.77    8.72   0
  -6   0  19   10.51    5.77   0
  -1  -1  22    3.30    5.06   0
  -6  -2  22  214.11    7.81   0
  -5  -3  19    1.57    4.46   0
  -2  -2  22   77.85    6.62   0
   1  -1  21    4.73    4.35   0
  -9  -1  19    7.38    5.31   0
  -5  -1  22  282.70    9.76   0
  -4  -2  22   12.02    5.53   0
  -4   0  19    7.82    6.45   0
  -9  -1  18   -1.25    5.28   0
  -8  -2  20    6.57    6.35   0
  -7  -1  21    4.85    6.73   0
  -3  -3  19   53.59   10.62   0
  -2   0  19    6.97    6.07   0
  -6  -2  21   47.90    6.66   0
  -5  -3  18   59.78    4.85   0
  -8  -2  19    4.66    6.85   0
  -7  -1  20  596.53   10.37   0
  -5  -1  21    3.06    7.24   0
  -4   0  18  391.98    9.00   0
  -1  -1  21   -1.69    5.79   0
  -4  -2  21   15.57    6.46   0
  -2  -2  21    3.05    5.20   0
   0   0  18  804.75   10.07   0
  -8  -2  18  222.97    7.60   0
  -7  -1  19   17.06    5.93   0
  -5  -3  17   61.46    5.26   0
  -2   0  18   22.55    6.15   0
   1  -1  20   92.65    7.04   0
   3  -1  19   -1.71    4.59   0
  -8  -2  17   66.27    6.26   0
  -5  -1  20   15.57    7.21   0
  -3  -3  18   99.72    5.56   0
  -1  -3  18   39.34   10.87   0
  -8  -2  16  564.66    8.79   0
  -7  -1  18  554.85    9.05   0
  -5  -3  16   63.06    6.01   0
   0  -2  20  217.44    6.83   0
  -8  -2  15   84.86    5.59   0
  -4  -2  20  145.37    8.05   0
  -3  -1  20  552.82   11.37   0
  -2   0  17   -1.28    6.40   0
  -1  -1  20   36.58    6.51   0
   0   0  17    3.00    5.45   0
  -7  -1  17   -3.19    4.62   0
  -5  -1  19   -0.70    6.82   0
  -3  -3  17   20.97    4.81   0
  -2  -2  20   26.86    6.28   0
   2  -2  19    0.74    4.40   0
   1  -1  19   -5.87    5.80   0
  -4  -2  19   42.36    7.68   0
  -3  -1  19   36.45    7.38   0
  -1  -3  17   42.64    5.56   0
   3  -1  18  216.24    7.65   0
   5  -1  17   -2.63    4.83   0
  -5  -1  18  198.00    7.47   0
  -3  -3  16    0.66    4.94   0
   0  -2  19   23.78    6.31   0
   0   0  16   78.29    5.92   0
  -6  -2  17   33.21    6.56   0
  -2  -2  19    3.67    6.63   0
  -5  -1  17   -4.61    5.74   0
  -4  -2  18  344.26    9.94   0
  -6  -2  16   40.15    6.01   0
  -3  -3  15    6.51    5.13   0
  -3  -1  18  724.76   12.22   0
  -1  -3  16  118.31    5.62   0
   1  -1  18   95.24    7.18   0
   2  -2  18   20.87    4.01   0
  -6  -2  15   39.77    5.54   0
  -2  -2  18   -5.82    7.12   0
   4  -2  17   -7.59    4.86   0
   7  -1  15    2.72    4.63   0
  -4  -2  17  111.34    8.03   0
   0  -2  18  188.69    6.74   0
   3  -3  15   25.41   10.25   0
   3  -1  17   -0.14    5.63   0
   5  -1  16  194.73    7.06   0
  -6  -2  14  372.09    7.46   0
  -3  -3  14   68.58    5.39   0
  -3  -1  17   47.95    6.97   0
  -1  -3  15   60.29    5.40   0
  -1  -1  17   62.85    7.62   0
   1  -3  15    4.59    5.08   0
   1  -1  17    9.58    6.51   0
   2  -2  17   21.80    6.12   0
  -3  -3  13   57.64    5.38   0
  -2  -2  17   16.41    7.39   0
   8  -2  14   20.64    4.20   0
  -3  -1  16   39.85    4.68   0
  -1  -3  14  146.97    6.37   0
   0  -2  17   21.28    5.16   0
   3  -1  16   26.34    6.15   0
   4  -2  16    2.62    4.86   0
  -4  -2  15    4.49    6.21   0
   7  -1  14   50.59    5.47   0
  -2  -2  16  105.76    8.71   0
  -1  -1  16  390.06    8.99   0
   1  -3  14   72.26    5.20   0
   5  -1  15    1.90    5.52   0
  10  -2  12   11.76    3.68   0
  -1  -3  13   13.22    5.21   0
   0  -2  16    7.75    6.76   0
   2  -2  16  351.54    8.75   0
   5  -3  13    6.93    5.33   0
   7  -3  12   49.49    8.93   0
  -4  -2  14  136.49    5.22   0
  -2  -2  15    7.37    6.73   0
  -1  -1  15   13.44    5.34   0
   1  -3  13   44.06    5.31   0
   3  -1  15   -3.47    6.19   0
   4  -2  15   -7.26    5.62   0
  -1  -3  12    0.95    5.34   0
   6  -2  14   94.69    5.68   0
   9  -1  12   29.07    4.87   0
   0  -2  15   -2.88    6.73   0
   2  -2  15   44.35    6.97   0
   5  -3  12   24.78    4.74   0
   5  -1  14  223.24    7.52   0
   7  -1  13    5.36    5.33   0
   9  -3  10    6.82    8.44   0
  -1  -3  11   -3.72    4.87   0
   7  -3  11   16.83    5.46   0
   1  -3  12  185.77    6.58   0
   3  -1  14   45.42    6.00   0
   4  -2  14   84.65    6.80   0
  10  -2  11    3.15    4.36   0
   0  -2  14   17.55    6.80   0
  -1  -3  10   81.04    5.21   0
   2  -2  14  308.74    8.57   0
   6  -2  13    4.36    4.14   0
  12  -2   9    3.91    3.79   0
   1  -3  11  143.80    6.47   0
   5  -3  11    8.52    4.90   0
   5  -1  13   -5.29    4.47   0
   7  -1  12  447.10    8.42   0
   9  -3   9    2.24    5.20   0
   9  -1  11    2.73    5.22   0
  14  -2   7    0.65    3.26   0
   3  -3  11   29.00    5.66   0
   7  -3  10   77.18    5.32   0
   0  -2  13   13.75    6.07   0
   3  -1  13    6.27    5.12   0
   4  -2  13   39.86    5.14   0
   1  -3  10  225.99    6.63   0
   2  -2  13   25.97    4.65   0
   6  -2  12   -0.26    6.08   0
  11  -1   9   12.24    4.80   0
   3  -3  10   78.41    5.88   0
   5  -1  12  261.37    7.57   0
   8  -2  11   10.29    3.94   0
   0  -2  12  124.26    6.53   0
   1  -3   9   37.04    5.42   0
   7  -3   9   23.15    5.12   0
   7  -1  11   21.46    5.76   0
   9  -3   8   73.23    5.09   0
   9  -1  10   36.57    5.42   0
  12  -2   8    9.68    4.56   0
  13  -3   5   29.26    8.54   0
   2  -2  12   79.83    6.62   0
   3  -1  12   13.44    5.35   0
   4  -2  12  578.86    9.75   0
  16  -2   4   10.14    3.91   0
   3  -3   9   63.36    6.22   0
  14  -2   6    4.43    3.87   0
   1  -3   8    5.93    4.77   0
   6  -2  11   10.35    4.85   0
   8  -2  10  229.99    7.37   0
  11  -3   6   31.73    4.69   0
   5  -1  11    2.32    5.24   0
   7  -3   8   38.77    5.36   0
   9  -3   7   39.04    4.91   0
  11  -1   8   76.35    5.36   0
   1  -3   7    9.45    4.58   0
   2  -2  11    1.23    5.72   0
   3  -3   8  243.32    6.76   0
   4  -2  11  128.40    6.95   0
   7  -1  10  407.43    7.94   0
  13  -3   4    7.57    5.34   0
   5  -3   8    8.08    5.49   0
   9  -1   9    9.30    5.28   0
   6  -2  10  108.54    6.72   0
   2  -2  10   32.16    5.43   0
   3  -3   7  114.47    6.02   0
   8  -2   9   30.93    6.40   0
   9  -3   6   90.03    5.83   0
  10  -2   8  152.78    5.26   0
  11  -3   5   19.25    4.70   0
  14  -2   5    6.20    4.41   0
  16  -2   3   -6.20    4.08   0
   4  -2  10  455.39    7.28   0
   5  -3   7    7.18    5.59   0
   7  -1   9    5.06    5.16   0
  11  -1   7    1.43    5.05   0
  13  -3   3   -9.85    4.51   0
  15  -3   1   25.03    7.51   0
   3  -3   6  167.41    6.00   0
   6  -2   9   53.89    6.29   0
   9  -1   8  386.24    7.77   0
   4  -2   9   44.69    5.94   0
   5  -3   6   93.86    6.47   0
   8  -2   8   23.14    6.24   0
   9  -3   5   28.08    5.52   0
  10  -2   7   16.63    6.01   0
  11  -3   4  101.37    5.43   0
  18  -2   0   18.13    3.78   0
  13  -1   5    4.46    4.71   0
  14  -2   4   30.07    5.00   0
  16  -2   2    3.20    4.15   0
   3  -3   5   27.61    5.04   0
  13  -3   2   49.05    5.15   0
   5  -3   5   61.51    6.25   0
   6  -2   8  618.28    9.10   0
   7  -3   5    8.99    5.97   0
  11  -1   6  147.88    6.41   0
  15  -3   0   26.19    4.70   0
  15  -1   3    2.86    4.37   0
   3  -3   4    2.39    4.53   0
   4  -2   8   57.19    5.27   0
   9  -1   7    3.28    5.22   0
  11  -3   3   53.24    5.85   0
   8  -2   7    4.27    4.70   0
  10  -2   6  103.59    7.07   0
  18  -2  -1    4.01    4.80   0
   7  -3   4    4.25    5.48   0
  13  -3   1   45.38    5.31   0
  17  -3  -3   60.80    8.79   0
   5  -3   4  276.78    6.09   0
   6  -2   7  115.89    6.28   0
  13  -1   4   33.60    5.16   0
  15  -3  -1   -5.74    4.50   0
  16  -2   1    3.50    4.74   0
  20  -2  -4   14.43    3.51   0
  11  -3   2   90.14    4.80   0
  12  -2   4  210.75    7.07   0
  15  -1   2  588.86    9.00   0
   5  -3   3  111.83    6.09   0
   8  -2   6  303.81    7.66   0
   9  -1   6  316.48    7.21   0
  10  -2   5    9.51    6.53   0
  11  -1   5   13.79    5.23   0
  17  -3  -4  -13.19    8.41   0
   7  -3   3   18.92    4.31   0
  13  -3   0  110.16    5.93   0
   6  -2   6  448.73    7.78   0
  11  -3   1   43.44    6.42   0
  15  -3  -2   43.46    3.89   0
  18  -2  -2    9.21    4.53   0
   5  -3   2  161.47    6.06   0
  13  -1   3   -1.33    5.70   0
  20  -2  -5    1.08    4.19   0
   7  -3   2  119.22    6.82   0
   8  -2   5   65.73    5.91   0
  12  -2   3   10.84    7.06   0
  13  -3  -1   57.64    6.08   0
  17  -3  -5    1.57    5.92   0
   9  -3   1   -0.34    6.12   0
  10  -2   4   30.60    4.89   0
  11  -1   4  522.55    8.43   0
  15  -3  -3   31.03    5.48   0
  15  -1   1   -2.09    5.26   0
  17  -1  -1   43.63    6.33   0
   5  -3   1   82.72    6.05   0
  14  -2   1   16.34    6.73   0
   7  -3   1  221.77    7.74   0
  17  -3  -6   39.37    5.86   0
  19  -3  -9   -7.70    9.55   0
   8  -2   5   65.02    5.85   0
  16  -2  -4  139.68    6.10   0
  17  -3  -7   33.84    5.08   0
  17  -1  -9   19.17    6.61   0
  18  -2  -8  128.50    5.05   0
   7  -3   5   -2.84    5.27   0
  10  -4  -1   87.83    9.65   0
  12  -2   1   20.48    6.74   0
  15  -1  -5    8.94    8.25   0
  13  -3  -1   36.17    4.56   0
  15  -3  -4   81.83    6.31   0
  17  -3  -8   70.41    5.81   0
  18  -2  -9   45.11    5.75   0
   9  -3   3    6.05    6.07   0
  11  -3   1   35.64    6.49   0
  14  -2  -2  211.34    7.83   0
  16  -2  -5   14.08    5.01   0
  15  -1  -6  353.73   10.23   0
  18  -2 -10  226.75    7.07   0
   8  -2   4  673.37    9.55   0
  12  -2   0  199.98    7.65   0
  13  -3  -2   98.84    7.26   0
  15  -3  -5   55.24    6.79   0
  17  -3  -9   51.79    6.03   0
   7  -3   4   -1.79    5.57   0
   8  -4   0   60.97    5.75   0
  10  -4  -2   15.88    8.27   0
  18  -2 -11   39.45    5.77   0
  14  -2  -3   35.58    5.03   0
  18  -2 -12    1.61    5.23   0
   9  -3   2   20.29    6.15   0
  15  -3  -6   88.73    6.99   0
  18  -2 -13   -2.67    5.39   0
  12  -2  -1   11.82    6.25   0
  13  -3  -3   30.74    6.86   0
  10  -4  -3   15.47    6.36   0
  10  -2   1  135.70    7.26   0
  12  -4  -6   48.22   10.56   0
  14  -2  -4   27.73    6.58   0
  17  -3 -12   23.50    5.23   0
   8  -4  -1    3.51    4.88   0
  15  -3  -7   17.17    6.61   0
  16  -2  -8   32.69    6.20   0
  17  -3 -13    5.98    5.10   0
   7  -3   3   13.33    5.85   0
   9  -3   1    5.93    6.29   0
  12  -4  -7   34.22    9.69   0
  13  -3  -4   50.12    6.81   0
  17  -3 -15    8.69    4.29   0
  17  -3 -14    8.55    4.80   0
  10  -4  -4   -1.61    5.62   0
  12  -2  -2  309.19    7.64   0
  14  -2  -5   15.31    6.60   0
  15  -3  -8   36.45    6.46   0
  16  -2  -9    7.07    5.67   0
   5  -3   4  345.06    7.58   0
   6  -4   0    4.13    5.03   0
   8  -4  -2   51.65    5.13   0
  10  -2   0  506.17    8.53   0
  11  -3  -2   25.55    6.69   0
  16  -2 -10   87.84    6.57   0
  13  -3  -5   10.01    4.99   0
  14  -2  -6  266.74    7.52   0
  15  -3  -9   15.78    6.24   0
   7  -3   2  123.26    6.68   0
   9  -3   0   21.58    6.38   0
  12  -4  -9  -21.25    7.32   0
  12  -2  -3   38.54    4.24   0
  16  -2 -11   30.83    5.51   0
  15  -3 -10   25.57    6.01   0
   6  -4  -1    3.51    5.11   0
   8  -4  -3   27.69    4.95   0
  11  -3  -3    5.59    6.79   0
  13  -3  -6    5.32    5.23   0
  16  -2 -12  607.51    8.93   0
   5  -3   3  134.25    6.41   0
  12  -4 -11   -5.56    6.81   0
  12  -2  -4  650.36    9.21   0
  16  -2 -13   85.10    5.89   0
   7  -3   1  252.95    7.66   0
  12  -4 -13   31.74    6.75   0
  12  -4 -12   32.13    6.44   0
  13  -3  -7   10.89    6.55   0
  16  -2 -14  274.43    6.76   0
   4  -4   0   49.72    5.63   0
   8  -4  -4   29.96    5.54   0
  10  -4  -7   22.91    5.67   0
  11  -3  -4    9.47    6.57   0
  15  -3 -18  110.29    5.73   0
  15  -3 -13   18.54    5.09   0
   6  -4  -2   49.33    5.43   0
  15  -3 -17   82.92    5.70   0
  15  -3 -14   65.70    6.09   0
  10  -4  -8   19.61    5.40   0
  12  -2  -5   70.43    4.47   0
  13  -3  -8    6.48    6.44   0
  14  -2  -9  104.96    6.11   0
  15  -3 -16  129.27    5.53   0
  15  -3 -15   58.98    5.41   0
   5  -3   2  168.17    5.95   0
  11  -3  -5   14.20    6.40   0
   7  -3   0  482.77    8.66   0
  10  -4  -9   32.69    5.00   0
  13  -3  -9   35.07    6.46   0
   4  -4  -1   43.57    4.90   0
   6  -4  -3   59.19    5.27   0
  10  -4 -10   23.78    5.03   0
  12  -2  -6  395.00    7.26   0
  14  -2 -10  368.62    6.48   0
   9  -3  -3  110.57    6.56   0
  11  -3  -6   96.63    6.71   0
  13  -3 -10   99.95    7.45   0
  10  -4 -12   31.21    4.69   0
  10  -4 -11   30.81    4.80   0
  14  -2 -11   47.86    5.13   0
   5  -3   1  105.27    5.91   0
   6  -4  -4   49.44    5.65   0
   7  -3  -1   99.20    6.10   0
   8  -4  -7   35.50    5.64   0
  10  -4 -13   43.59    4.96   0
  12  -2  -7   29.40    5.24   0
  13  -3 -11   50.47    6.32   0
  14  -2 -12   65.71    5.30   0
   4  -4  -2   22.34    5.08   0
  11  -3  -7   99.84    6.79   0
  13  -3 -19   34.95    4.18   0
   8  -4  -8   40.45    5.31   0
   9  -3  -4  345.37    8.49   0
  14  -2 -13    1.92    4.76   0
   2  -4  -1   19.55    5.34   0
   6  -4  -5   59.36    5.18   0
  13  -3 -18   68.67    4.75   0
  13  -3 -14  143.53    6.32   0
  14  -2 -14   15.03    4.74   0
   3  -3   2  230.29    5.70   0
   4  -4  -3    7.23    4.80   0
   8  -4  -9   43.16    5.30   0
  11  -3  -8  239.37    6.25   0
  13  -3 -17    2.57    4.48   0
  13  -3 -16   -3.48    4.98   0
  13  -3 -15   36.82    5.16   0
  14  -2 -15    8.91    4.64   0
   5  -3   0   47.86    5.01   0
   8  -4 -10   21.36    4.91   0
   9  -3  -5  155.75    6.86   0
  12  -2  -9   -6.26    4.37   0
   8  -4 -15   30.32    5.58   0
   8  -4 -11    9.30    4.63   0
  11  -3  -9  171.17    7.16   0
   2  -4  -2   52.70    4.82   0
   4  -4  -4   13.41    5.05   0
   8  -4 -14   62.76    5.20   0
   8  -4 -13    7.03    4.26   0
   8  -4 -12    4.87    4.27   0
  11  -3 -20   13.70    3.74   0
   9  -3  -6  177.00    7.07   0
  11  -3 -10  270.12    7.67   0
  12  -2 -10   32.16    4.27   0
   3  -3   1  168.47    5.34   0
   5  -3  -1   15.86    4.70   0
   6  -4  -8   -0.59    4.88   0
  11  -3 -11   26.46    6.19   0
   2  -4  -3  121.45    5.49   0
   4  -4  -5   10.66    4.91   0
  11  -3 -19   40.18    3.93   0
  12  -2 -11   -0.35    4.24   0
   6  -4 -15   36.80    6.59   0
   6  -4  -9   22.32    4.62   0
   7  -3  -4   18.48    4.66   0
   9  -3  -7   18.61    4.07   0
  11  -3 -12   14.14    5.11   0
   4  -4  -6   22.74    5.00   0
   6  -4 -14   57.24    5.42   0
   6  -4 -10   43.25    5.09   0
  11  -3 -18  158.92    4.88   0
  12  -2 -12  110.05    4.75   0
   0  -4  -2   42.17    4.57   0
   2  -4  -4  166.05    5.79   0
   5  -3  -2  216.48    6.08   0
   6  -4 -13  104.05    4.87   0
   6  -4 -12   95.92    5.16   0
   6  -4 -11   98.90    5.37   0
   9  -3  -8    5.01    5.01   0
  11  -3 -17   44.52    4.39   0
  11  -3 -16   93.53    4.64   0
  11  -3 -15   55.51    4.99   0
  12  -2 -13   25.36    4.21   0
   3  -3   0  405.71    6.53   0
   7  -3  -5   10.58    4.87   0
   9  -3 -20   16.86    3.38   0
   9  -3  -9    4.70    5.18   0
  12  -2 -14  162.09    5.07   0
   0  -4  -3   22.02    4.30   0
   2  -4  -5  115.87    5.86   0
   4  -4 -14   33.38    7.75   0
  12  -2 -16   64.32    4.47   0
  12  -2 -15   39.65    4.42   0
   4  -4 -13   -9.79    5.45   0
   4  -4 -10   27.90    5.11   0
   4  -4  -9  107.96    5.51   0
   5  -3  -3  127.43    5.33   0
   7  -3  -6  115.13    5.80   0
   9  -3 -10   91.84    6.29   0
   0  -4  -4    1.75    4.51   0
   2  -4  -6   27.53    5.14   0
   3  -3  -1  147.28    5.13   0
   4  -4 -12   -2.74    4.50   0
   4  -4 -11   16.75    4.60   0
   9  -3 -19    3.39    3.49   0
   2  -4  -7    4.96    4.69   0
   9  -3 -11   49.14    4.52   0
  -2  -4  -3   40.55    4.21   0
   0  -4  -5   -0.96    4.44   0
   2  -4 -13   38.51    8.12   0
   7  -3 -20   97.34    4.02   0
   7  -3  -7  111.59    5.86   0
   9  -3 -18    6.15    3.55   0
   9  -3 -12  214.32    6.90   0
   2  -4 -12   13.66    6.57   0
   9  -3 -17   17.91    3.67   0
   9  -3 -16   12.69    4.01   0
   9  -3 -13  120.51    5.64   0
  -2  -4  -4   46.21    4.27   0
   0  -4  -6   24.58    4.69   0
   2  -4 -11   54.85    5.10   0
   2  -4 -10   20.79    5.01   0
   3  -3  -2  148.15    5.13   0
   7  -3  -8  301.74    6.60   0
   0  -4 -12   18.92    8.27   0
   0  -4  -7   44.20    4.85   0
   5  -3  -5  140.71    5.65   0
  -4  -4  -4   10.70    4.06   0
  -2  -4  -5   35.21    4.50   0
   0  -4  -8   27.60    4.85   0
   5  -3 -20   -2.12    2.59   0
   7  -3 -19   59.11    3.89   0
   7  -3  -9  140.21    5.66   0
  -4  -4  -5   13.88    4.69   0
  -2  -4  -6   23.55    4.34   0
  -4  -4  -8    3.70    8.17   0
  -4  -4  -7   22.98    8.19   0
  -4  -4  -6    0.63    3.98   0
  -2  -4  -9   27.62    8.52   0
  -2  -4  -7    9.01    4.69   0
   3  -3  -3   42.55    4.15   0
   5  -3  -6   92.61    5.11   0
   7  -3 -18  108.68    4.32   0
   7  -3 -10  150.33    5.78   0
  10  -2 -14  117.35    4.76   0
   7  -3 -17   60.13    3.69   0
   7  -3 -11   48.10    5.47   0
  10  -2 -17   51.24    4.37   0
  10  -2 -16   25.02    4.32   0
  10  -2 -15   16.53    3.99   0
   5  -3 -19    8.30    3.39   0
   5  -3  -7   13.21    4.76   0
   7  -3 -12   27.50    5.05   0
   3  -3  -4   46.14    4.29   0
   7  -3 -14    7.79    4.38   0
   7  -3 -13    4.25    3.78   0
   3  -3 -19   53.86    3.68   0
   5  -3  -8   41.35    5.06   0
   5  -3 -18   65.63    3.91   0
   5  -3  -9    8.45    4.43   0
   1  -3  -3    9.54    4.05   0
   3  -3 -18  101.52    4.16   0
   3  -3  -6   -2.94    4.69   0
   5  -3 -10   -0.29    3.44   0
   5  -3 -15   44.50    4.45   0
   5  -3 -14  141.24    5.70   0
   5  -3 -13   14.49    5.01   0
   5  -3 -12   23.72    5.33   0
   5  -3 -11    0.82    3.51   0
   8  -2 -18  225.27    5.64   0
  11  -3 -14   69.30    5.30   0
  15  -1 -19    6.83    6.01   0
  15  -1 -18  684.02    9.86   0
  11  -3 -21   -5.25    8.09   0
  12  -2 -11    1.58    5.03   0
  14  -2 -23    3.76    5.09   0
  15  -1 -20   30.85    5.48   0
  11  -3 -20    7.70    4.34   0
  13  -1 -25    3.93    4.93   0
  14  -2 -22   98.22    6.78   0
  14  -2 -17   16.61    6.30   0
  11  -3 -19   31.13    3.92   0
  11  -3 -17   39.62    6.02   0
  11  -3 -16   92.74    5.58   0
  11  -1 -26  126.00    5.08   0
  12  -2 -25   38.81    4.61   0
  14  -2 -21   66.10    7.16   0
  14  -2 -20  171.88    7.76   0
  14  -2 -19   38.76    6.97   0
  14  -2 -18  310.41    8.59   0
  11  -3 -18  143.11    5.37   0
  12  -2 -12   71.79    4.17   0
  13  -1 -24   44.47    5.16   0
  12   0 -20   21.89    6.19   0
  12   0 -19    4.70    6.44   0
  12  -2 -24  187.91    5.82   0
  12  -2 -13   29.59    5.26   0
  13  -1 -23    1.23    5.27   0
  10  -2 -25   -4.35    4.13   0
  11  -1 -25    7.70    4.72   0
  12  -2 -23   50.70    5.15   0
  12  -2 -14  193.81    6.71   0
  13  -1 -22  420.26    8.68   0
  13  -1 -16   16.09    3.82   0
   9  -3 -20   13.45    4.17   0
   9  -3 -13  100.95    5.56   0
  12  -2 -22  181.11    6.73   0
  13  -1 -19   15.96    5.13   0
  13  -1 -18  134.56    6.05   0
  13  -1 -17   15.21    4.01   0
   9  -3 -19    0.09    3.77   0
   9  -3 -14  129.97    5.87   0
  11  -1 -24   45.83    5.47   0
   9  -3 -18    9.97    4.27   0
   9  -3 -15   46.71    5.09   0
   9  -1 -25    7.94    4.63   0
  10  -2 -24    8.03    4.57   0
  12  -2 -21   -2.80    4.63   0
  12  -2 -20    4.40    6.39   0
  12  -2 -17   -1.35    6.03   0
  12  -2 -16   57.86    6.05   0
   9  -3 -17    9.78    4.50   0
   9  -3 -16    8.88    4.64   0
  12  -2 -19   22.76    6.54   0
  12  -2 -18  256.17    8.15   0
   7  -1 -25    1.33    3.62   0
  10  -2 -23   14.12    4.62   0
  11  -1 -23    1.15    4.86   0
   8  -2 -24   79.05    4.90   0
   9  -1 -24  278.39    6.94   0
  11  -1 -22   -8.93    5.35   0
   6  -2 -24   42.50    4.12   0
   7  -3 -19   53.94    4.11   0
  10  -2 -22  118.64    4.65   0
  11  -1 -21    4.08    5.78   0
   7  -3 -18  121.39    5.04   0
  10  -2 -21   72.32    5.83   0
  10  -2 -13   62.36    5.04   0
   7  -3 -17   53.36    4.52   0
   7  -3 -13    8.08    4.79   0
   7  -1 -24   -1.15    4.51   0
   8  -2 -23   21.60    4.96   0
   9  -1 -23   33.02    5.17   0
  10  -2 -20  400.72    8.55   0
  11  -1 -18  479.57    7.55   0
  11  -1 -17   58.12    4.70   0
   5  -1 -24  138.98    5.99   0
   7  -3 -16    8.76    4.88   0
   7  -3 -15   -3.38    4.73   0
   7  -3 -14    3.96    4.78   0
  10  -2 -19   64.45    6.45   0
   6  -2 -23   25.99    4.93   0
   8  -2 -22  106.82    5.71   0
  10  -2 -18  236.05    7.85   0
  10  -2 -17   47.69    6.69   0
  10  -2 -16   34.96    5.50   0
   4  -2 -23    1.15    3.56   0
   9  -1 -22  386.68    7.55   0
   5  -3 -18   59.40    4.65   0
   7  -1 -23    8.77    5.35   0
   8  -2 -21   -2.73    4.97   0
   9  -1 -21   11.86    5.07   0
   5  -3 -17   70.65    4.85   0
   6  -2 -22  248.79    6.70   0
   9  -1 -20   99.45    6.17   0
   3  -1 -23    3.73    3.71   0
   5  -3 -16   86.77    5.16   0
   5  -3 -11    5.46    3.90   0
   5  -1 -23   10.70    4.49   0
   7  -1 -22  177.50    6.85   0
   8  -2 -20   -1.22    4.14   0
   2  -2 -22   80.29    4.42   0
   4  -2 -22   10.19    4.64   0
   5  -3 -15   40.83    4.92   0
   5  -3 -14  139.37    5.71   0
   5  -3 -13   17.03    4.90   0
   5  -3 -12   23.85    4.91   0
   8  -2 -19   21.03    5.83   0
   6  -2 -21   31.95    5.86   0
   8  -2 -18  256.14    7.86   0
   3  -3 -17   18.94    4.36   0
   7  -1 -21   13.57    5.39   0
   8  -2 -17   82.59    6.60   0
   8  -2 -16  609.20    8.94   0
   8  -2 -15   74.08    5.52   0
   0  -2 -21   14.50    3.55   0
   5  -1 -22  339.49    7.41   0
   6  -2 -20  189.64    6.45   0
   1  -1 -22   11.09    3.69   0
   3  -3 -16   -3.35    4.11   0
   3  -1 -22  153.83    5.72   0
   4  -2 -21    9.62    5.43   0
   2  -2 -21   12.16    4.25   0
   3  -3 -15    9.77    4.60   0
   7  -1 -20  395.76    6.66   0
   3  -3 -14   76.71    5.10   0
   5  -1 -21    4.12    5.31   0
   6  -2 -19   23.38    4.04   0
   7  -1 -19   12.11    5.20   0
  -1  -1 -21    0.80    3.43   0
   1  -3 -16  111.65    4.97   0
   3  -3 -13   78.19    5.48   0
   3  -3 -12  199.07    5.99   0
   3  -3 -11  105.50    5.64   0
   4  -2 -20  157.72    7.03   0
   6  -2 -18  231.28    7.03   0
  -1  -3 -16    4.37    4.78   0
  -3  -1 -20  109.61    4.65   0
   0  -2 -20  216.51    6.16   0
   1  -3 -15   59.43    4.95   0
   1  -1 -21    3.39    4.01   0
   2  -2 -20   29.94    5.02   0
   3  -1 -21    1.89    5.25   0
   5  -1 -20   21.62    5.44   0
   6  -2 -17   26.43    4.62   0
  -3  -3 -15    6.21    8.72   0
   4  -2 -19   31.32    6.13   0
   6  -2 -16   33.93    4.40   0
   6  -2 -15   61.41    5.31   0
  -1  -3 -15    7.69    4.00   0
   1  -3 -14  142.30    5.51   0
   6  -2 -14  291.00    5.75   0
  -2  -2 -19    2.42    3.67   0
   1  -3 -13    8.03    4.83   0
   2  -2 -19   -3.27    6.07   0
   4  -2 -18  306.12    7.19   0
   5  -1 -19    7.43    4.91   0
  -4  -2 -18   87.37    4.59   0
  -1  -3 -14   59.64    4.81   0
  -1  -1 -20  105.60    5.69   0
   0  -2 -19   20.22    5.04   0
   1  -3 -12    1.60    4.83   0
   3  -1 -20  587.64    9.34   0
  -3  -3 -14    9.92    3.97   0
   1  -3 -11    9.59    4.63   0
   1  -3 -10   91.62    5.34   0
   1  -1 -20   20.25    4.91   0
   4  -2 -17  109.22    5.86   0
   5  -1 -18  192.21    6.00   0
  -5  -3 -13   35.42    8.90   0
  -1  -3 -13   52.97    4.86   0
   2  -2 -18   21.10    6.17   0
  -3  -1 -19    9.93    4.33   0
  -2  -2 -18   23.95    4.67   0
   3  -1 -19   37.01    5.47   0
   4  -2 -16   57.05    4.77   0
  -3  -3 -13   -1.51    3.91   0
  -1  -3 -12  173.70    6.15   0
   0  -2 -18  257.19    7.77   0
   4  -2 -15   13.72    5.37   0
  -5  -1 -18    9.45    3.60   0
  -1  -3 -11  126.06    5.68   0
   1  -1 -19    1.64    5.11   0
   2  -2 -17   28.52    5.39   0
   4  -2 -14  168.70    5.56   0
  -5  -3 -12   20.22    3.93   0
  -4  -2 -17   -0.12    3.88   0
  -3  -3 -12    9.86    4.33   0
  -1  -3 -10  214.02    6.21   0
  -1  -1 -19    2.95    4.55   0
   3  -1 -18  743.49    9.29   0
  -7  -3 -11   52.81    7.52   0
  -6  -2 -16   62.24    4.22   0
  -1  -3  -9   28.57    5.02   0
   0  -2 -17   32.53    6.26   0
   2  -2 -16   98.95    5.52   0
  -3  -3 -11   36.67    4.61   0
  -2  -2 -17   33.17    4.18   0
  -5  -3 -11    1.78    4.16   0
  -3  -1 -18  237.79    6.46   0
   1  -1 -18  227.02    7.15   0
   2  -2 -15   11.67    5.49   0
   3  -1 -17   44.72    3.83   0
  -9  -3  -9   19.03    7.78   0
  -7  -3 -10   72.36    4.09   0
  -4  -2 -16    6.06    4.49   0
  -3  -3 -10   82.48    5.08   0
  -1  -1 -18  103.68    5.95   0
   0  -2 -16    7.23    6.04   0
  -9  -1 -15    1.16    2.83   0
  -5  -3 -10   24.75    4.25   0
  -5  -1 -17   -9.84    3.95   0
  -3  -3  -9   69.18    5.49   0
   2  -2 -14  238.13    6.79   0
  -8  -2 -14   41.00    4.52   0
  -7  -1 -16    7.16    3.57   0
  -6  -2 -15   21.35    4.49   0
  -3  -3  -8  228.56    6.40   0
   1  -1 -17   86.29    5.74   0
   2  -2 -13   12.68    4.54   0
  -9  -3  -8   67.24    4.36   0
  -7  -3  -9   21.48    4.07   0
  -5  -3  -9    2.36    4.55   0
   0  -2 -15   -5.87    5.03   0
  -4  -2 -15   -0.83    5.28   0
  -3  -1 -17   -2.77    4.83   0
  -2  -2 -15   55.93    6.21   0
  -1  -1 -17   17.90    5.02   0
 -11  -3  -6    3.33    4.72   0
  -5  -3  -8    3.42    4.80   0
   0  -2 -14   15.25    5.27   0
   1  -1 -16  367.72    7.25   0
 -10  -2 -12   17.97    4.82   0
  -9  -3  -7   24.92    3.87   0
  -7  -3  -8   29.97    4.13   0
  -6  -2 -14  100.09    5.23   0
  -5  -3  -7    9.05    4.73   0
  -8  -2 -13   13.41    4.44   0
  -5  -1 -16  179.33    5.85   0
  -2  -2 -14  313.86    7.66   0
   0  -2 -13   10.81    5.04   0
 -11  -3  -5   11.23    3.37   0
  -9  -1 -14  121.63    4.56   0
  -7  -3  -7   10.39    4.56   0
  -7  -1 -15   -0.81    3.91   0
  -4  -2 -14   92.77    6.28   0
  -3  -1 -16   20.26    4.99   0
  -1  -1 -16   73.59    5.32   0
 -12  -2 -10   19.76    9.27   0
  -9  -3  -6   72.38    4.54   0
  -7  -3  -6    4.05    4.72   0
   0  -2 -12  113.19    5.19   0
  -6  -2 -13    4.65    5.10   0
  -2  -2 -13   17.73    6.03   0
 -10  -2 -11    5.06    4.23   0
  -9  -3  -5   23.15    4.45   0
  -4  -2 -13   43.76    5.93   0
  -1  -1 -15    5.09    4.67   0
  -8  -2 -12  117.92    4.28   0
  -5  -1 -15    7.72    4.45   0
  -3  -1 -15    1.89    4.83   0
 -11  -1 -12  229.06    5.10   0
  -2  -2 -12   60.23    4.41   0
  -9  -1 -13    2.32    4.14   0
  -7  -1 -14   41.50    4.48   0
  -6  -2 -12   -1.66    4.94   0
  -4  -2 -12  585.68    8.86   0
 -12  -2  -9   -1.83    3.91   0
  -2  -2 -11    3.47    4.27   0
 -14  -2  -7   34.29    6.99   0
 -10  -2 -10   65.45    4.61   0
  -8  -2 -11   16.39    3.72   0
  -5  -1 -14  221.13    6.36   0
  -2  -2  14  189.32    8.62   0
   6  -2  13    9.10    7.40   0
  11  -1   9   19.23    7.37   0
  13  -1   7    9.89    6.79   0
  16  -2   4    6.41    4.10   0
   0  -2  14   25.20    7.81   0
   2  -2  14  320.10   10.44   0
   3  -3  12    5.66    5.80   0
   3  -1  13    7.97    6.59   0
  10  -2  10   83.06    6.45   0
   9  -3   9   11.41   10.31   0
  -2  -2  13    6.44    6.35   0
   4  -2  13   38.68    7.87   0
   5  -3  11    4.28    5.49   0
   5  -1  12  242.87    7.91   0
   7  -1  11   28.23    7.91   0
   8  -2  11   17.97    7.68   0
  12  -2   8   13.41    5.70   0
  14  -2   6    4.15    5.05   0
  15  -1   4  323.15    8.34   0
   6  -2  12   -1.43    5.65   0
  11  -1   8   91.76    7.90   0
  13  -1   6  360.67    9.14   0
   0  -2  13    5.35    6.79   0
   2  -2  13   16.23    7.31   0
   3  -1  12   21.27    5.91   0
   3  -3  11   26.19    6.12   0
  10  -2   9   19.21    6.85   0
  13  -3   5   15.61    9.79   0
  16  -2   3   -3.39    4.68   0
   4  -2  12  568.72   10.83   0
   5  -1  11    1.09    6.75   0
   7  -1  10  420.63    9.89   0
  18  -2   0   15.63    3.83   0
   5  -3  10   21.92    5.67   0
   6  -2  11    3.03    7.51   0
   8  -2  10  243.79    8.86   0
   9  -3   8   73.53    6.22   0
  11  -1   7   -7.66    7.31   0
  12  -2   7    1.43    5.80   0
  14  -2   5    0.01    5.23   0
  15  -1   3   17.44    6.39   0
   0  -2  12  112.13    7.12   0
   2  -2  12   67.81    7.35   0
  13  -1   5    4.94    6.88   0
  11  -3   6   37.59    5.56   0
   3  -3  10   77.29    6.08   0
   5  -1  10  116.42    6.98   0
  10  -2   8  198.34    7.82   0
  13  -3   4    5.13    5.92   0
   4  -2  11  125.12    8.03   0
   7  -1   9   14.00    4.87   0
  16  -2   2    5.70    4.81   0
   2  -2  11   -5.85    6.31   0
   5  -3   9   13.18    6.02   0
   6  -2  10  100.48    8.06   0
   8  -2   9    8.77    5.28   0
   9  -3   7   41.65    5.52   0
  11  -1   6  162.22    8.20   0
  12  -2   6   68.18    6.56   0
  15  -1   2  602.10    9.80   0
  18  -2  -1   -1.84    3.88   0
  13  -1   4   44.56    7.28   0
   3  -3   9   66.19    6.54   0
   9  -1   7   16.35    6.50   0
  11  -3   5   11.35    5.43   0
   7  -1   8  280.86    8.60   0
  10  -2   7   15.74    5.20   0
  13  -3   3    0.28    4.86   0
   5  -3   8    7.38    5.67   0
   6  -2   9   48.24    7.46   0
   8  -2   8   22.26    6.66   0
   9  -3   6   88.55    6.12   0
  12  -2   5   16.39    6.34   0
  16  -2   1    7.41    5.13   0
   2  -2  10   44.80    5.93   0
  11  -1   5   18.72    6.69   0
  15  -1   1   -2.77    6.65   0
  18  -2  -2    5.90    4.34   0
   3  -3   8  218.48    7.01   0
  13  -1   3   -1.59    6.43   0
   9  -1   6  315.50    8.16   0
  10  -2   6  108.77    7.55   0
  11  -3   4   93.76    6.38   0
  15  -3   0   30.16    5.07   0
  10  -4   0  113.75    9.16   0
  13  -3   2   36.56    5.83   0
  16  -2   0   12.75    5.26   0
  17  -3  -3   24.50    4.77   0
   5  -3   7    0.29    5.74   0
   6  -2   8  611.97   10.41   0
   8  -4   1   36.22    5.05   0
   8  -2   7    4.12    6.21   0
   9  -3   5   26.17    6.06   0
  11  -1   4  527.05    9.36   0
  12  -2   4  191.48    7.98   0
   7  -3   6    1.72    6.23   0
  13  -1   2  193.46    7.55   0
  15  -1   0  222.38    7.63   0
  18  -2  -3   -5.66    4.71   0
   3  -3   7   99.75    6.52   0
  11  -3   3   44.36    6.35   0
  15  -3  -1    5.88    4.84   0
  10  -4  -1   85.49   10.04   0
  10  -2   5   17.90    7.10   0
  13  -3   1   46.49    5.73   0
  20  -2  -7    0.09    3.63   0
   5  -3   6  109.77    6.30   0
   6  -2   7  100.20    7.38   0
   8  -4   0   51.55    4.94   0
   8  -2   6  293.97    7.96   0
   9  -3   4   26.92    6.43   0
  16  -2  -1    3.18    5.47   0
  17  -3  -4    6.70    4.40   0
   7  -3   5    3.36    6.17   0
  11  -1   3   31.82    6.49   0
  12  -2   3   40.19    6.88   0
  18  -2  -4   33.29    5.01   0
   3  -3   6  174.89    6.57   0
  10  -4  -2   45.01   10.27   0
  13  -1   1   49.33    6.16   0
  15  -1  -1    7.04    5.91   0
  10  -2   4   39.68    6.95   0
  11  -3   2   91.39    5.43   0
  12  -4  -4   74.82    9.52   0
  13  -3   0   95.40    6.41   0
  15  -3  -2   47.16    5.74   0
  20  -2  -8   11.22    4.94   0
   8  -4  -1    5.06    4.67   0
  16  -2  -2  143.06    6.36   0
  17  -3  -5    1.27    4.71   0
   5  -3   5   71.84    5.15   0
   6  -2   6  453.76    8.34   0
   7  -3   4   -2.35    6.36   0
   8  -2   5   49.80    6.22   0
   9  -3   3    4.89    4.74   0
  12  -2   2  231.21    8.54   0
  18  -2  -5   12.97    6.19   0
   3  -3   5   22.66    6.63   0
  10  -4  -3   11.26    6.06   0
  12  -4  -5   61.25    9.81   0
  15  -1  -2  199.42    7.17   0
   8  -4  -2   43.14    5.01   0
  11  -3   1   40.42    6.67   0
  13  -1   0  214.15    7.59   0
  15  -3  -3   19.31    5.72   0
  20  -2  -9    5.66    4.87   0
  10  -2   3    6.84    6.41   0
  13  -3  -1   33.53    5.13   0
  17  -3  -6   30.74    5.60   0
   5  -3   4  345.35    7.79   0
   9  -3   2   10.36    6.71   0
  10  -4  -4    5.22    5.42   0
  12  -4  -6   47.83   10.23   0
  16  -2  -3   27.96    6.10   0
   7  -3   3   15.12    4.69   0
   8  -4  -3   33.05    5.92   0
   8  -2   4  614.51    8.24   0
  12  -2   1   14.72    6.60   0
  15  -3  -4   90.15    6.69   0
  18  -2  -6   66.86    5.81   0
   3  -3   4   10.86    5.35   0
  11  -3   0  133.65    7.68   0
  13  -3  -2  101.25    7.29   0
  15  -1  -3    6.70    6.08   0
  17  -3  -7   26.04    5.56   0
  20  -2 -10   53.95    4.65   0
  10  -4  -5   -0.49    6.29   0
  12  -4  -7   29.76   10.44   0
   5  -3   3  115.86    6.74   0
   9  -3   1    8.48    6.68   0
  10  -2   2  259.47    6.43   0
  16  -2  -4  191.09    7.71   0
   7  -3   2  131.39    7.08   0
   8  -4  -4   19.56    5.18   0
   8  -2   3  125.10    6.72   0
  12  -2   0  221.81    7.70   0
  15  -3  -5   63.10    6.29   0
  18  -2  -7   23.93    5.39   0
   3  -3   3   25.34    5.23   0
  10  -4  -6    9.63    5.38   0
  11  -3  -1   42.91    7.52   0
  12  -4  -8   17.53   10.55   0
  13  -3  -3   40.98    6.60   0
  17  -3  -8   66.30    6.02   0
  20  -2 -11    7.49    4.72   0
   8  -4  -5   36.56    5.92   0
   5  -3   2  142.32    6.68   0
  10  -2   1  144.40    7.10   0
  12  -4  -9    4.34   10.83   0
  16  -2  -5   21.84    6.42   0
   7  -3   1  235.34    8.25   0
  10  -4  -7   12.09    5.15   0
  15  -3  -6   99.59    6.86   0
  17  -3  -9   44.05    5.77   0
  18  -2  -8  158.22    6.62   0
  20  -2 -12  112.03    5.51   0
   8  -4  -6   20.42    5.17   0
  11  -3  -2   35.90    6.98   0
  12  -4 -10   -2.14   10.77   0
  12  -2  -1   13.57    5.92   0
  13  -3  -4   37.73    7.12   0
  10  -4  -8   22.63    5.12   0
  12  -4 -11    2.31   11.68   0
   8  -4  -7   40.37    6.12   0
  15  -3  -7   29.34    6.89   0
  15  -1  -5    7.14    4.05   0
  16  -2  -6  116.50    7.06   0
  17  -3 -10   95.10    5.78   0
  18  -2  -9   26.58    6.23   0
  20  -2 -13    7.59    4.78   0
   5  -3   1   83.00    6.51   0
   7  -3   0  468.63    8.74   0
  10  -4  -9   29.99    5.58   0
  10  -2   0  527.22    8.53   0
   8  -4  -8   34.03    6.19   0
  11  -3  -3   -1.38    5.03   0
  12  -2  -2  326.30    7.99   0
  13  -3  -5    5.44    4.99   0
  10  -4 -10   -1.99    6.41   0
  15  -3  -8   34.47    6.62   0
  17  -3 -11   15.28    4.30   0
  20  -2 -14   83.26    5.29   0
  10  -4 -11   55.16    9.33   0
  16  -2  -7   15.90    6.00   0
  18  -2 -10  238.99    7.18   0
   5  -3   0   50.72    5.53   0
   7  -3  -1   96.37    6.91   0
  10  -4 -12   23.11   10.05   0
  11  -3  -4    3.55    6.74   0
  13  -3  -6    5.18    7.04   0
  17  -3 -12   25.33    5.46   0
  15  -3  -9   12.34    6.31   0
  20  -2 -15    8.71    4.47   0
  12  -2  -3   46.95    4.38   0
  17  -3 -13    2.10    5.28   0
  18  -2 -11   35.06    5.76   0
  13  -3  -7    5.77    6.20   0
  16  -2  -8   22.96    6.03   0
  20  -2 -16   -5.23    4.53   0
   5  -3  -1   19.62    5.26   0
   7  -3  -2  199.37    6.94   0
  11  -3  -5   19.70    6.59   0
  15  -3 -10   10.99    6.51   0
  17  -3 -14    4.75    5.03   0
  18  -2 -12   -2.43    5.55   0
  20  -2 -17   -3.96    4.29   0
  12  -2  -4  669.54    9.06   0
  13  -3  -8    8.11    6.33   0
  17  -3 -15    1.99    4.73   0
  11  -3  -6  102.80    7.15   0
  15  -3 -11    7.52    6.24   0
  16  -2  -9    3.40    5.68   0
  20  -2 -18   25.64    4.39   0
   5  -3  -2  211.51    6.36   0
   7  -3  -3   49.39    6.00   0
  17  -3 -16   16.38    4.99   0
  18  -2 -13    3.76    5.31   0
  20  -2 -19   18.86    4.67   0
  13  -3  -9   18.22    6.32   0
  15  -3 -12    2.53    6.13   0
  17  -3 -17   -2.67    4.98   0
  11  -3  -7   76.16    7.13   0
  12  -2  -5  112.50    5.72   0
  16  -2 -10   92.02    6.21   0
  17  -3 -18   35.78    4.41   0
  20  -2 -21   15.84    3.93   0
  15  -3 -13    8.96    5.78   0
  18  -2 -14   74.80    5.66   0
   5  -3  -3  116.93    6.04   0
   7  -3  -4    8.50    5.14   0
  13  -3 -10   90.78    6.72   0
  -8  -2  19   11.77    7.16   0
  -7  -1  17    3.77    5.71   0
 -10  -2  17   36.62    5.95   0
  -9  -3  17   15.90    5.44   0
  -7  -3  18  142.87    6.36   0
  -6  -2  19   33.43    7.20   0
  -4  -2  19   28.21    6.38   0
  -3  -1  17   50.77    6.25   0
  -5  -1  17   -4.78    4.69   0
  -3  -3  18  109.71    5.54   0
 -10  -2  16   29.96    5.57   0
  -9  -3  16    0.22    5.45   0
  -8  -2  18  253.13    8.76   0
  -5  -3  18   63.23    5.90   0
  -2  -2  18   13.96    6.56   0
  -1  -1  16  390.49    8.27   0
   3  -3  15    0.14    3.41   0
 -10  -2  15    3.22    5.16   0
  -1  -3  17   29.11    5.13   0
   0  -2  17   14.84    5.42   0
   1  -3  16    6.15    4.97   0
   1  -1  15    6.07    5.41   0
   2  -2  16  341.29    7.37   0
  -9  -3  15   40.64    5.26   0
  -8  -2  17   70.75    6.80   0
  -6  -4  12   59.26    5.31   0
  -6  -2  18  218.10    8.77   0
  -4  -2  18  298.02    9.97   0
  -3  -1  16   57.89    5.64   0
 -10  -2  14  133.04    5.73   0
  -3  -3  17   19.98    5.46   0
  -9  -3  14  119.29    6.00   0
  -5  -3  17   63.29    6.46   0
  -4  -4  13    8.29    8.57   0
   5  -3  13   11.15    3.52   0
  -6  -2  17   16.20    6.76   0
  -1  -1  15    8.78    3.80   0
   4  -2  14   77.49    6.16   0
  -9  -3  13   76.80    5.29   0
  -4  -2  17   70.58    7.87   0
  -1  -3  16  122.37    5.79   0
   1  -1  14  236.26    6.77   0
  -5  -3  16   85.65    6.76   0
  -4  -4  12  -19.96    7.21   0
   0  -2  16    5.15    4.35   0
   2  -2  15   35.36    5.59   0
   3  -3  14    3.25    4.22   0
  -7  -3  15   -1.69    4.50   0
  -6  -2  16   40.98    6.79   0
  -3  -3  16    2.10    4.25   0
  -2  -2  16   88.45    7.15   0
   0  -4  12   23.19    7.86   0
  -8  -2  14  380.68    7.24   0
  -7  -3  14    2.05    6.19   0
  -4  -4  11   16.18    5.10   0
  -4  -2  16   71.22    7.24   0
  -1  -3  15   60.34    5.93   0
   2  -4  11   -4.21    7.48   0
  -6  -2  15   48.37    6.43   0
  -5  -3  15   34.07    4.96   0
  -3  -3  15   12.81    5.80   0
   0  -2  15    2.03    5.93   0
   4  -2  13   45.59    6.31   0
   5  -3  12   17.54    4.31   0
  -7  -3  13   10.35    5.37   0
   1  -3  14   64.94    5.55   0
   2  -2  14  271.59    7.47   0
   3  -3  13    3.46    4.64   0
  -4  -4  10   40.56    4.48   0
  -4  -2  15   -0.86    5.79   0
  -2  -2  15   13.23    6.31   0
   0  -4  11    7.13    7.32   0
  -6  -2  14  408.14    7.94   0
   7  -3  10   52.99    4.62   0
  -7  -3  12   20.07    5.46   0
  -4  -4   9   88.69    4.94   0
  -3  -3  14   83.47    6.67   0
  -1  -3  14  154.51    6.82   0
   2  -4  10  -14.22    6.49   0
   4  -4   9    3.86    6.14   0
  -2  -4  10   15.75    4.60   0
  -7  -3  11   23.24    5.53   0
  -4  -4   8  116.47    4.87   0
  -4  -2  14  159.76    6.98   0
  -2  -2  14  229.34    7.54   0
   0  -4  10   26.28    4.90   0
   1  -3  13   35.76    5.93   0
   2  -2  13   22.59    5.80   0
   4  -2  12  539.79    8.48   0
   5  -3  11    3.75    4.37   0
  -7  -3  10  143.77    5.43   0
  -5  -3  12   28.90    6.20   0
  -3  -3  13   79.85    5.58   0
  -2  -4   9    7.36    4.43   0
  -1  -3  13   12.48    6.05   0
   2  -4   9   -3.18    4.49   0
   6  -4   7   31.19    4.78   0
  -4  -2  13   -4.51    5.06   0
   0  -4   9   38.93    4.96   0
   4  -4   8    6.92    4.55   0
   7  -3   9   20.33    4.40   0
  -2  -2  13   15.18    5.86   0
   1  -3  12  184.48    7.44   0
   6  -2  10   89.89    5.19   0
  -5  -3  11    2.76    6.26   0
  -3  -3  12  233.91    7.88   0
  -2  -4   8   -2.05    4.46   0
  -1  -3  12    5.14    5.57   0
   2  -2  12   71.69    6.01   0
   4  -2  11  139.20    6.24   0
   5  -3  10   25.40    4.92   0
   9  -3   7   17.47    4.33   0
   2  -4   8   21.11    4.55   0
  -2  -4   7    3.41    4.56   0
   4  -4   7   -3.30    4.04   0
   6  -4   6   38.68    4.18   0
  -5  -3  10    4.58    3.80   0
  -3  -3  11  120.68    6.57   0
   1  -3  11  152.09    7.40   0
  -2  -4   6   25.57    4.65   0
  -1  -3  11    8.24    5.80   0
   2  -4   7   27.48    4.52   0
   7  -3   8   33.69    4.80   0
   8  -4   4   62.91    4.22   0
  -5  -3   9   -1.95    4.78   0
   2  -2  11    2.65    5.15   0
   3  -3  10   78.66    5.95   0
   5  -3   9    0.25    5.59   0
   6  -2   9   46.78    5.18   0
  -2  -4   5   93.10    5.11   0
   4  -4   6    9.31    4.40   0
   4  -2  10  458.15    7.65   0
   6  -4   5   22.91    4.23   0
   9  -3   6   92.15    4.68   0
  -5  -3   8   47.58    4.81   0
  -2  -4   4  178.99    5.70   0
   0  -4   6   32.64    4.94   0
   1  -3  10  252.23    7.06   0
  11  -3   4   72.30    4.25   0
  -1  -3  10   89.10    5.07   0
   2  -4   6   33.45    4.45   0
  -5  -3   7   17.34    4.33   0
  -3  -3   9   53.51    6.07   0
   2  -2  10   39.32    5.02   0
   3  -3   9   69.80    6.46   0
   7  -3   7    3.43    4.56   0
   8  -4   3   41.88    4.10   0
   0  -4   5    6.03    4.56   0
   4  -4   5   14.76    3.19   0
   6  -4   4   13.37    4.23   0
  -1  -3   9  124.46    6.83   0
   1  -3   9   40.07    5.42   0
   4  -2   9   41.03    4.75   0
   6  -2   8  542.25    7.48   0
  -3  -3   8   45.28    5.36   0
   0  -4   4    9.06    4.72   0
   9  -3   5   16.12    4.42   0
   3  -3   8  258.94    7.24   0
   4  -4   4   19.11    4.64   0
   8  -4   2   21.03    4.39   0
  11  -3   3   30.19    4.69   0
  -1  -3   8  340.80    7.14   0
   0  -4   3   22.11    4.64   0
   5  -3   7    8.08    5.43   0
   6  -4   3   -3.67    3.24   0
   7  -3   6    4.72    4.75   0
  10  -4   0  106.90    4.37   0
  -3  -3   7   18.24    3.43   0
   1  -3   8    3.46    3.54   0
   8  -2   6  261.05    5.93   0
   0  -4   2   52.68    4.69   0
   2  -4   3   45.80    5.27   0
   4  -4   3   38.91    4.69   0
   6  -2   7  114.48    5.23   0
   8  -4   1   45.47    4.54   0
  -3  -3   6    3.18    4.28   0
   0  -4   1  125.79    5.29   0
   3  -3   7  129.32    6.39   0
   6  -4   2   32.76    4.78   0
   9  -3   4   39.58    4.79   0
  12  -4  -3   31.06    4.11   0
   0  -4   0  129.64    4.83   0
   1  -3   7   11.98    5.15   0
   2  -4   2   24.04    4.70   0
   5  -3   6   95.43    6.10   0
  10  -4  -1   61.36    4.45   0
  11  -3   2  105.55    4.93   0
  -3  -3   5   13.37    4.14   0
   4  -4   2   38.27    4.89   0
  13  -3   0   77.30    4.39   0
   2  -4   1   12.80    4.72   0
   6  -4   1   20.61    4.63   0
   8  -4   0   59.29    4.68   0
   3  -3   6  179.83    6.03   0
   8  -2   5   46.26    4.15   0
   9  -3   3   12.45    4.62   0
  10  -4  -2   23.63    4.27   0
  12  -4  -4   56.97    4.30   0
  -3  -3   4   38.82    4.14   0
   1  -3   6  130.89    5.86   0
   2  -4   0   -1.56    4.76   0
   5  -3   5   89.89    6.05   0
  15  -3  -3   17.04    3.60   0
  -1  -3   5   11.66    4.43   0
   6  -4   0   -3.73    4.57   0
   8  -4  -1    3.03    4.81   0
  11  -3   1   37.85    4.63   0
   2  -4  -1   11.42    4.92   0
  10  -4  -3   22.36    4.36   0
  13  -3  -1   35.75    4.63   0
   1  -3   5   95.12    5.75   0
   2  -4  -2   55.68    4.96   0
   3  -3   5   30.34    3.75   0
   6  -4  -1   13.00    4.65   0
   8  -4  -2   46.71    4.95   0
  -1  -3   4   69.53    4.58   0
   2  -4  -3  119.46    5.34   0
   4  -4  -1   36.08    5.08   0
   5  -3   4  333.01    7.40   0
   8  -2   4  640.07    7.61   0
   9  -3   2    2.76    5.27   0
   7  -3   3   16.46    5.01   0
  10  -4  -4    8.81    4.39   0
  12  -4  -6   34.78    4.88   0
  15  -3  -4   84.85    4.37   0
   1  -3   4  403.44    7.26   0
   3  -3   4   18.82    4.59   0
   4  -4  -2   27.62    4.81   0
   6  -4  -2   45.76    3.82   0
   8  -4  -3   18.87    5.01   0
  11  -3   0  121.74    5.33   0
  13  -3  -2   99.24    5.12   0
  17  -3  -7    8.31    3.52   0
  -1  -3   3   -0.90    4.25   0
   4  -4  -3    2.66    5.11   0
  10  -4  -5    0.93    4.46   0
  12  -4  -7   12.68    4.75   0
   4  -4  -4    3.32    5.99   0
   5  -3   3  118.54    6.42   0
   8  -4  -4   34.51    4.98   0
  10  -2   2  266.97    5.95   0
   4  -4  -5    2.49    6.13   0
   6  -4  -4   50.06    5.87   0
   7  -3   2  119.58    6.25   0
  12  -4  -8   -0.93    5.66   0
   3  -3   3   30.38    5.14   0
   4  -4  -7   78.54    5.81   0
   4  -4  -6   25.54    4.77   0
   8  -4  -5   31.37    5.13   0
  10  -4  -6    8.96    4.77   0
  11  -3  -1   41.95    5.54   0
  15  -3  -5   37.23    4.42   0
  17  -3  -8   68.23    4.61   0
   6  -4  -5   49.88    6.07   0
  12  -4  -9  -17.53    7.39   0
  13  -3  -3   35.70    5.10   0
   1  -3   2  185.78    5.74   0
   5  -3   2  177.08    6.10   0
   6  -4  -6   38.01    5.32   0
  10  -4  -7   19.02    3.48   0
  12  -4 -10   19.18    9.28   0
   3  -3   2  227.18    6.34   0
   6  -4  -7    8.95    5.51   0
   7  -3   1  220.69    7.59   0
  10  -4  -8   21.32    5.52   0
  12  -4 -11    7.34   11.43   0
   6  -4 -10   35.10    4.76   0
   6  -4  -9    3.17    5.57   0
   6  -4  -8    3.24    5.21   0
  10  -4  -9   19.37    5.94   0
  10  -2   1   90.76    4.26   0
  12  -4 -12   26.25   10.25   0
  15  -3  -6   99.96    5.21   0
   1  -3   1   60.56    5.02   0
   5  -3   1   96.51    6.07   0
   8  -4  -8   41.51    6.01   0
  10  -4 -13   13.91   11.72   0
  13  -3  -4   37.26    5.56   0
  17  -3  -9   29.36    4.47   0
   3  -3   1  169.66    6.76   0
   7  -3   0  474.25    8.78   0
   8  -4 -11    0.85    5.40   0
   8  -4 -10   18.80    5.43   0
   8  -4  -9   34.90    5.57   0
   9  -3  -1    0.33    5.63   0
  10  -4 -12   19.15   11.14   0
  10  -4 -11   -1.21    8.31   0
   4  -2   9   29.56    6.25   0
  11  -1   5   17.10    6.98   0
  14  -2   3   18.26    6.56   0
  17  -1  -1   48.28    6.83   0
   7  -3   6   -2.17    5.64   0
   9  -3   5   27.67    5.92   0
  10  -2   6  111.37    8.36   0
  15  -3   0   11.94    6.89   0
  19  -1  -4  318.50    7.56   0
  20  -2  -5    2.05    4.33   0
   6  -2   8  519.08    8.30   0
   9  -1   6  325.72    8.36   0
  15  -1   1    3.08    7.46   0
  12  -2   4  194.16    8.17   0
  17  -3  -3   48.20    9.93   0
  11  -3   3   43.38    6.05   0
  14  -2   2  144.25    7.39   0
  16  -2   0   19.32    5.94   0
  11  -1   4  534.07    9.70   0
  15  -3  -1   -3.35    5.64   0
  17  -1  -2  573.14   10.14   0
  19  -1  -5    8.09    6.03   0
  20  -2  -6    5.68    4.54   0
   6  -2   7  110.91    6.98   0
   7  -3   5    0.67    5.41   0
   9  -3   4   42.98    6.03   0
  10  -2   5   17.02    7.13   0
  15  -1   0  262.40    8.90   0
  17  -3  -4  -10.21    7.25   0
  12  -2   3   22.37    6.67   0
  16  -2  -1   -0.40    6.17   0
  11  -3   2  115.24    6.41   0
  11  -1   3   34.16    6.45   0
  14  -2   1   22.10    7.03   0
  15  -3  -2   42.14    5.70   0
  17  -1  -3   24.18    6.77   0
  19  -1  -6  362.36    8.23   0
  20  -2  -7    5.57    4.55   0
   9  -3   3    6.27    5.63   0
  10  -2   4   42.10    6.84   0
   6  -2   6  453.77    8.13   0
   7  -3   4    0.35    5.50   0
  13  -1   1   44.43    6.68   0
  15  -1  -1   11.08    6.98   0
  17  -3  -5    6.29    5.07   0
  12  -2   2  243.81    8.05   0
  16  -2  -2  135.27    7.30   0
  11  -3   1   30.87    6.46   0
  14  -2   0  359.71    8.88   0
  17  -1  -4   52.21    7.01   0
  19  -3  -9   13.62    7.72   0
  19  -1  -7    3.58    6.00   0
  20  -2  -8   20.74    4.62   0
  13  -3  -1   59.00    6.34   0
  15  -3  -3   14.23    4.08   0
   7  -3   3    9.31    5.53   0
   9  -3   2   17.81    5.85   0
  10  -2   3    5.96    6.63   0
  13  -1   0  234.46    7.37   0
  15  -1  -2  209.71    7.91   0
  17  -3  -6   34.83    5.31   0
  19  -3 -10   -2.95    6.16   0
  20  -2  -9    7.08    4.63   0
  11  -3   0  124.00    6.88   0
  12  -2   1   13.41    6.13   0
  14  -2  -1   89.93    7.44   0
  15  -3  -4   92.39    6.05   0
  16  -2  -3   22.50    5.43   0
  17  -1  -5    2.58    6.10   0
  13  -3  -2  107.28    6.49   0
  17  -3  -7   21.35    5.44   0
   9  -3   1   -2.81    5.81   0
  15  -1  -3   -3.98    6.16   0
   7  -3   2  125.69    6.63   0
  10  -2   2  260.55    6.50   0
  13  -1  -1   -4.13    5.56   0
  20  -2 -10   52.54    5.19   0
  12  -2   0  202.60    7.31   0
  15  -3  -5   65.68    6.39   0
  16  -2  -4  158.59    6.48   0
  17  -1  -6  162.48    7.23   0
  11  -3  -1   30.07    5.09   0
  13  -3  -3   41.76    6.35   0
  14  -2  -2  220.92    8.20   0
  17  -3  -8   76.02    5.92   0
  20  -2 -11   11.09    4.86   0
   9  -3   0    4.97    5.98   0
  10  -2   1  158.73    7.11   0
  15  -1  -4  546.59    8.83   0
  16  -2  -5   22.68    6.63   0
   7  -3   1  184.45    7.49   0
  15  -3  -6   94.32    6.56   0
  17  -3  -9   52.81    6.41   0
  17  -1  -7   22.04    5.54   0
  12  -2  -1   13.48    5.64   0
  13  -3  -4   42.06    6.36   0
  14  -2  -3   38.72    7.16   0
  19  -3 -14   36.97    5.48   0
  20  -2 -12  140.16    6.00   0
   9  -3  -1    5.22    5.93   0
  15  -3  -7   41.27    6.45   0
  15  -1  -5    8.65    5.77   0
  16  -2  -6  120.67    7.10   0
  17  -3 -10   92.75    6.45   0
  19  -3 -15    6.84    5.74   0
  20  -2 -13   21.81    6.32   0
   7  -3   0  449.41    7.86   0
  10  -4  -9    0.37    4.20   0
  10  -2   0  526.40    8.04   0
  17  -1  -8  390.87    8.01   0
  12  -2  -2  336.39    7.81   0
  13  -3  -5   15.77    6.03   0
  14  -2  -4   31.93    6.64   0
  19  -3 -16   19.05    5.73   0
  15  -3  -8   41.18    6.28   0
  17  -3 -11   19.44    4.26   0
  20  -2 -14  104.14    5.73   0
   9  -3  -2  161.33    6.97   0
  16  -2  -7   19.87    6.02   0
  18  -2 -10  223.69    7.82   0
  10  -4 -11   -2.77    7.37   0
  13  -3  -6    6.98    6.30   0
  15  -1  -6  252.14    5.74   0
  17  -3 -12   21.42    5.73   0
  17  -1  -9   16.62    5.39   0
  20  -2 -15   -0.60    4.44   0
   7  -3  -1   90.13    5.79   0
  14  -2  -5   11.33    5.97   0
  15  -3  -9    4.56    6.18   0
  12  -2  -3   43.32    4.22   0
  17  -3 -13    5.28    5.40   0
  18  -2 -11   40.03    6.16   0
  20  -2 -16    0.29    4.55   0
   9  -3  -3  101.31    6.69   0
  16  -2  -8   28.63    4.69   0
  13  -3  -7    9.00    4.61   0
  15  -3 -10   30.51    6.30   0
  17  -3 -14   17.80    4.95   0
  17  -1 -10  401.12    7.50   0
  20  -2 -17    3.43    4.36   0
   7  -3  -2  195.69    6.53   0
  14  -2  -6  266.90    8.18   0
  18  -2 -12    5.62    5.65   0
  12  -2  -4  696.59    9.27   0
  16  -2  -9    1.65    6.17   0
  17  -3 -15    1.35    4.69   0
  20  -2 -18   30.37    4.54   0
   9  -3  -4  351.50    8.07   0
  13  -3  -8   13.20    6.47   0
  15  -3 -11   12.04    6.15   0
  20  -2 -20  232.31    6.18   0
  20  -2 -19   10.08    4.45   0
  17  -3 -16    1.33    4.80   0
  17  -1 -11    4.95    4.94   0
  18  -2 -13   -4.23    4.24   0
  20  -2 -21   20.34    4.19   0
   7  -3  -3   47.96    5.38   0
  14  -2  -7   84.70    6.68   0
  15  -3 -12   11.01    6.02   0
  17  -3 -17    4.92    4.44   0
  12  -2  -5  138.56    6.20   0
  13  -3  -9   22.24    6.70   0
  17  -3 -19   28.81    5.63   0
  17  -3 -18   37.02    4.79   0
  18  -2 -14   95.66    6.37   0
   9  -3  -5  162.20    7.37   0
  17  -1 -12  239.67    6.15   0
  15  -3 -13    9.16    4.50   0
  18  -2 -15   48.84    5.84   0
   7  -3  -4   12.79    4.86   0
  13  -3 -10   79.58    5.62   0
  14  -2  -8  501.28    8.10   0
  15  -3 -14   65.41    5.95   0
  12  -2  -6  434.99    7.61   0
  18  -2 -16  337.56    7.52   0
   9  -3  -6  173.75    7.35   0
  13  -3 -11   39.88    6.83   0
  15  -3 -15   61.31    5.60   0
  17  -1 -13   13.80    4.12   0
  14  -2  -9  121.50    6.92   0
  18  -2 -17   42.32    5.40   0
   7  -3  -5   14.46    4.90   0
  13  -3 -12  205.73    7.58   0
  15  -3 -16   94.14    4.63   0
   9  -3  -7   33.03    6.42   0
  12  -2  -7   37.38    5.02   0
  15  -3 -21   15.14    7.29   0
  15  -3 -18  112.98    5.62   0
  15  -3 -17   63.99    5.73   0
  17  -1 -14   45.48    4.67   0
  18  -2 -18  192.80    6.72   0
  14  -2 -10  476.54    8.82   0
  15  -3 -20   -3.86    4.51   0
  15  -3 -19   29.61    4.39   0
  18  -2 -23    3.31    4.69   0
  18  -2 -19   26.67    5.11   0
  13  -3 -13   76.23    5.27   0
  18  -2 -22    9.83    4.30   0
  18  -2 -21   -7.71    4.26   0
  18  -2 -20   21.85    4.97   0
   7  -3  -6  115.97    5.99   0
   9  -3  -8    8.02    5.48   0
  13  -3 -14  144.19    6.94   0
  17  -1 -15    2.47    3.98   0
  12  -2  -8   60.70    5.00   0
   5  -3  -5  144.91    5.79   0
  13  -3 -15   37.37    5.83   0
  14  -2 -11   28.84    4.32   0
  17  -1 -16   56.89    4.57   0
   7  -3  -7  102.80    5.86   0
   9  -3  -9   14.04    5.33   0
  13  -3 -16   -4.93    5.56   0
  13  -3 -21   86.76    7.33   0
  13  -3 -17    0.61    5.48   0
  12  -2  -9    3.41    4.44   0
  13  -3 -20   99.01    4.99   0
  13  -3 -19   62.18    4.96   0
  13  -3 -18   71.22    5.32   0
  14  -2 -12   49.53    4.45   0
  17  -1 -17    6.84    4.13   0
   5  -3  -6   97.27    4.90   0
   9  -3 -10   95.25    6.12   0
  11  -3 -13   10.63    5.76   0
  16  -2 -25   14.59    3.25   0
  17  -1 -18  205.94    6.23   0
   7  -3  -8  299.38    7.17   0
  11  -3 -22    4.81    6.54   0
  14  -2 -13    0.49    5.47   0
   9  -3 -11   77.49    6.18   0
  11  -3 -14   71.36    4.83   0
  12  -2 -10   38.93    4.77   0
  16  -2 -24   63.90    4.34   0
  17  -1 -19    3.82    4.30   0
   5  -3  -7   12.25    4.53   0
  11  -3 -21   27.47    7.05   0
  11  -3 -15   68.96    6.00   0
  16  -2 -23   27.19    4.10   0
  16  -2 -22  170.84    5.30   0
   7  -3  -9   91.02    4.64   0
   9  -3 -21   -4.60    5.94   0
   9  -3 -11   90.03    6.93   0
  10  -2 -24    7.09    4.47   0
  11  -1 -23   -1.40    4.97   0
  12  -2 -14  209.52    7.34   0
   9  -3 -20   19.70    4.21   0
   9  -3 -12  249.71    7.71   0
  12  -2 -21   10.25    5.87   0
  12  -2 -15   56.96    6.30   0
   9  -3 -19    1.42    4.29   0
   9  -3 -13   94.29    6.73   0
  12  -2 -20   -0.28    6.68   0
  12  -2 -19   17.58    7.13   0
  12  -2 -17   -3.48    6.10   0
  12  -2 -16   76.09    6.53   0
   8  -2 -24   81.71    4.59   0
   9  -3 -18   14.97    4.29   0
   9  -3 -14  147.48    7.04   0
  10  -2 -23   13.02    5.26   0
  11  -1 -22   -0.48    5.07   0
  12  -2 -18  184.09    6.67   0
   7  -3  -9  106.99    6.06   0
   9  -3 -17   15.04    5.12   0
   7  -3 -20  114.13    4.98   0
  11  -1 -21    6.44    5.08   0
   9  -1 -23   33.30    5.16   0
  11  -1 -20  109.12    6.17   0
   7  -3 -10  163.03    6.52   0
   8  -2 -23   21.03    4.61   0
  10  -2 -21   67.97    5.60   0
  11  -1 -19   18.32    5.64   0
   5  -3 -20  -21.53    7.57   0
   7  -3 -19   55.79    4.81   0
   7  -3 -11   37.89    5.33   0
  10  -2 -13   46.65    4.98   0
   7  -3 -18  130.35    4.93   0
   9  -1 -22  451.28    7.41   0
  10  -2 -20  379.88    8.35   0
   4  -2 -23    1.89    3.51   0
   6  -2 -23   21.23    4.38   0
   7  -3 -17   70.05    4.78   0
   7  -3 -12   17.64    5.62   0
  10  -2 -19   75.84    6.74   0
  10  -2 -15    9.17    5.09   0
  10  -2 -14   93.29    4.61   0
   5  -3 -19   14.12    3.95   0
   7  -3 -14    3.88    5.36   0
   7  -3 -13    7.19    5.40   0
  10  -2 -18  156.68    6.11   0
  10  -2 -17   62.35    5.97   0
  10  -2 -16   31.26    5.47   0
   9  -1 -21   -0.18    4.74   0
   5  -3 -18   58.63    4.28   0
   5  -3  -9    0.62    4.67   0
   6  -2 -22  220.90    5.96   0
   7  -1 -22  229.25    6.04   0
   9  -1 -20   94.04    5.25   0
   2  -2 -22   75.76    4.36   0
   5  -3 -17   53.07    4.51   0
   8  -2 -20    0.32    4.96   0
   9  -1 -19    3.79    4.75   0
   4  -2 -22   13.29    3.96   0
   5  -3 -10    1.76    4.66   0
   8  -2 -19   20.82    5.63   0
   9  -1 -18   -1.11    4.70   0
   3  -3 -18  102.23    4.52   0
   5  -3 -16   76.43    4.74   0
   5  -3 -11   14.96    4.98   0
   5  -3 -14  153.31    6.38   0
   5  -3 -13   26.99    5.22   0
   5  -3 -12   23.71    5.21   0
   5  -1 -22  347.22    6.51   0
   7  -1 -21   12.93    4.73   0
   8  -2 -18  242.69    7.57   0
   3  -3 -17   20.14    4.18   0
   8  -2 -17   55.10    4.90   0
   8  -2 -16  618.88    8.58   0
   8  -2 -15   90.29    5.43   0
   8  -2 -14  411.99    7.08   0
   6  -2 -20  192.95    6.25   0
   7  -1 -20  550.34    7.65   0
   1  -3 -17   48.26    4.43   0
   2  -2 -21    6.56    3.77   0
   3  -3 -16   -1.94    3.91   0
   3  -3  -8   34.45    4.76   0
   5  -1 -21    2.93    4.39   0
   6  -2 -19   46.16    5.38   0
   7  -1 -19   11.34    4.44   0
   3  -3  -9   47.17    4.67   0
   1  -3 -16  108.97    4.65   0
   3  -3 -13   90.63    5.35   0
   3  -3 -12  209.42    6.23   0
   3  -3 -11   99.49    5.58   0
   3  -3 -10  165.11    5.86   0
   6  -2 -18  199.20    6.77   0
   7  -1 -18  577.17    7.58   0
  -1  -3 -16    5.75    4.31   0
   3  -1 -21   13.10    4.11   0
   5  -1 -20   18.08    5.48   0
   6  -2 -17   49.54    5.95   0
   1  -3 -15   64.88    4.45   0
   4  -2 -19   38.82    5.45   0
   6  -2 -16   38.81    5.51   0
  -3  -3 -15   29.86    7.08   0
  -1  -3 -15    6.79    4.05   0
   6  -2 -15   60.12    5.00   0
   6  -2 -14  391.11    6.75   0
   5  -1 -19   -5.32    4.39   0
   2  -2 -19    0.44    5.03   0
   3  -1 -20  595.66    8.03   0
   4  -2 -18  226.62    5.53   0
  -3  -3 -14    6.62    4.25   0
   1  -3 -12    1.33    4.68   0
   1  -3 -11   14.51    4.90   0
   1  -3 -10   92.03    5.31   0
   1  -3  -9   96.79    5.45   0
   1  -3  -8  274.52    6.26   0
   1  -1 -20   23.51    4.06   0
   4  -2 -17   70.98    4.49   0
   5  -1 -18  168.50    5.39   0
   2  -2 -18   26.16    5.60   0
   4  -2 -16   57.56    6.05   0
  -3  -1 -19    1.59    3.25   0
  -1  -3 -12  183.08    5.75   0
   0  -2 -18  249.82    6.77   0
   3  -1 -19   25.89    4.91   0
   5  -1 -17   -0.28    4.51   0
   4  -2 -15    5.66    3.43   0
  -5  -1 -18    9.94    2.98   0
  -4  -2 -17    1.42    3.75   0
  -1  -3 -11  165.06    6.17   0
  -1  -3 -10  224.19    6.39   0
   1  -1 -19   -2.52    4.36   0
   2  -2 -17   13.23    4.03   0
   4  -2 -14  127.53    4.16   0
   4  -2 -13   -1.20    3.77   0
  -7  -3 -11   17.02    6.48   0
  -6  -2 -16   50.50    4.57   0
  -1  -3  -9   37.64    5.11   0
  -1  -3  -8   -2.27    5.00   0
  -1  -3  -7    0.79    4.66   0
  -1  -1 -19    1.36    3.92   0
   3  -1 -18  682.63    8.32   0
  -3  -3 -11   34.58    4.73   0
  -2  -2 -17   38.88    4.96   0
   0  -2 -17   27.04    5.94   0
   2  -2 -16   92.32    5.74   0
  -9  -3  -9   13.85    8.44   0
  -5  -3 -11    6.34    3.81   0
  -7  -3 -10   73.20    4.10   0
  -3  -3 -10   76.58    5.20   0
  -3  -1 -18  211.36    6.67   0
   1  -1 -18  229.24    6.20   0
   2  -2 -15   10.92    5.14   0
   3  -1 -17   63.43    4.69   0
  -5  -3 -10   25.51    4.63   0
  -4  -2 -16    8.79    4.23   0
  -3  -3  -9   77.41    5.59   0
   0  -2 -16    7.25    5.57   0
   2  -2 -14  228.12    6.01   0
  -7  -3  -9   18.91    4.79   0
  -3  -3  -8  262.03    6.71   0
  -3  -3  -7  131.16    6.27   0
  -3  -3  -6  154.31    5.54   0
  -2  -2 -16  402.11    8.23   0
  -1  -1 -18   97.70    5.02   0
   3  -1 -16   47.74    4.54   0
  -9  -3  -8   70.11    3.83   0
  -8  -2 -14   24.38    3.89   0
  -6  -2 -15   24.27    4.08   0
  -5  -3  -9    5.47    4.64   0
  -5  -1 -17    3.50    3.59   0
   0  -2 -15    1.85    4.98   0
   2  -2 -13   14.23    4.07   0
 -11  -3  -6    0.23    4.83   0
  -7  -1 -16   12.29    3.22   0
  -5  -3  -8   -2.05    5.16   0
   1  -1 -17   85.62    5.28   0
  -9  -3  -7   29.88    3.97   0
  -7  -3  -8   29.02    4.70   0
  -5  -3  -7    6.61    5.17   0
  -4  -2 -15    4.21    5.00   0
  -2  -2 -15   44.47    6.11   0
 -11  -3  -5    7.80    4.22   0
  -7  -3  -7   10.72    4.66   0
  -5  -3  -6   91.21    5.94   0
  -5  -3  -5   59.91    5.66   0
  -3  -1 -17    3.05    3.99   0
  -1  -1 -17    7.82    4.50   0
   0  -2 -14   15.59    3.60   0
 -10  -2 -12   22.83    4.75   0
  -9  -3  -6   82.37    5.11   0
  -6  -2 -14  101.92    5.34   0
   1  -1 -16  387.74    6.59   0
 -11  -3  -4   66.44    4.96   0
  -8  -2 -13   13.96    4.05   0
  -7  -3  -6    5.74    5.17   0
  -2  -2 -14  309.85    7.15   0
   0  -2 -13    8.17    3.39   0
  -9  -3  -5   19.42    5.00   0
  -7  -3  -5   -0.89    5.05   0
  -7  -3  -4   -0.47    4.43   0
  -5  -1 -16  191.82    5.58   0
  -4  -2 -14   85.43    4.59   0
   0  -2 -12  108.35    5.02   0
 -12  -2 -10   23.55    7.49   0
  -9  -3  -4   32.88    5.01   0
  -7  -1 -15    0.00    4.49   0
  -3  -1 -16   21.08    4.54   0
  -1  -1 -16   72.33    5.22   0
   1  -1 -15    6.66    4.27   0
  -9  -1 -14  131.81    4.55   0
  -6  -2 -13    3.31    4.97   0
  -2  -2 -13   22.86    3.71   0
 -10  -2 -11    2.13    4.04   0
  -8  -2 -12  143.92    5.34   0
  -4  -2 -13   52.42    5.52   0
  -2  -2 -12   66.00    5.06   0
  -1  -1 -15   10.86    4.51   0
  -6  -2 -12    6.60    4.84   0
  -5  -1 -15    7.65    4.38   0
  -3  -1 -15    1.84    4.73   0
 -12  -2  -9   -6.42    3.65   0
  -4  -2 -12  533.19    7.46   0
  -2  -2 -11    6.82    4.48   0
 -14  -2  -7   15.78    6.93   0
 -11  -1 -12  251.25    5.22   0
 -10  -2 -10   62.98    4.30   0
  -8  -2 -11   24.25    4.72   0
  -7  -1 -14   43.26    4.60   0
  -1  -1 -14  251.22    6.04   0
  -9  -1 -13   -0.81    4.23   0
  -4  -2 -11  137.83    6.46   0
  -2  -2 -10   26.40    3.99   0
  -6  -2 -11   19.01    3.74   0
   2  -4   4   56.97    5.00   0
   8  -4  -1    5.10    5.76   0
  12  -4  -7   32.97    4.99   0
   3  -3   6  200.08    7.05   0
   6  -4   1   21.89    5.48   0
   9  -3   1   -9.54    5.25   0
  15  -3  -9    1.13    5.80   0
   1  -3   7   15.07    5.57   0
  10  -4  -4    6.67    4.18   0
  10  -2   0  513.48    8.46   0
  12  -4  -8   -0.91    4.51   0
  14  -2  -6  252.26    7.35   0
   4  -4   2   43.17    5.73   0
  11  -3  -2   14.03    5.39   0
  12  -2  -3   52.08    5.93   0
   5  -3   4  390.98    8.36   0
   6  -4   0    3.30    5.31   0
   8  -4  -2   51.41    5.61   0
  10  -4  -5    9.63    5.48   0
  12  -4  -9   -1.38    4.26   0
  15  -3 -10   20.71    5.36   0
   2  -4   3   49.35    4.85   0
   7  -3   2  123.75    7.01   0
   9  -3   0    7.30    4.92   0
  14  -2  -7   69.10    5.57   0
  15  -3 -11   10.10    5.31   0
   3  -3   5   34.66    5.85   0
  11  -3  -3   -9.27    6.85   0
   1  -3   6  132.12    5.76   0
   4  -4   1   66.00    5.78   0
   8  -4  -3   35.31    5.58   0
  10  -4  -6    8.29    5.16   0
  12  -4 -12   27.53    3.91   0
  12  -2  -4  612.76    8.74   0
  15  -3 -12   24.39    4.91   0
   9  -3  -1    3.42    5.92   0
  14  -2  -8  470.61    7.52   0
  15  -3 -13   15.87    4.70   0
   2  -4   2   28.80    5.01   0
   5  -3   3  106.41    5.25   0
   7  -3   1  276.14    8.14   0
  10  -4  -7   19.80    5.37   0
  11  -3  -4   -2.52    6.24   0
  15  -3 -14   45.33    4.67   0
   8  -4  -4   26.60    5.27   0
  12  -2  -5  105.86    5.70   0
  13  -3  -8    6.03    5.67   0
  14  -2  -9  108.86    5.11   0
   3  -3   4    9.36    5.00   0
   4  -4   0   58.00    5.71   0
  10  -4  -8   25.07    4.97   0
   9  -3  -2  161.06    6.93   0
  11  -3  -5    9.68    6.40   0
   1  -3   5  109.90    5.35   0
   2  -4   1   19.37    5.08   0
   7  -3   0  451.34    9.04   0
   8  -4  -5   40.64    5.44   0
  10  -4  -9   30.88    4.73   0
  13  -3  -9   19.38    5.64   0
  14  -2 -10  424.51    6.93   0
   0  -4   2   54.76    4.84   0
   6  -4  -3   48.87    5.37   0
   4  -4  -1   33.74    5.33   0
   8  -4  -6   26.23    5.33   0
  10  -4 -10   28.98    4.96   0
  11  -3  -6   99.98    6.50   0
  13  -3 -10  103.34    6.17   0
   3  -3   3   26.89    5.01   0
   9  -3  -3   66.99    4.81   0
  10  -4 -11   36.88    4.50   0
   2  -4   0    2.95    4.79   0
   6  -4  -4   42.95    5.46   0
   7  -3  -1   96.49    6.37   0
   8  -4  -7   42.08    5.16   0
  10  -4 -12   27.27    4.24   0
  13  -3 -11   37.75    5.34   0
   0  -4   1  138.57    5.48   0
   1  -3   4  409.62    6.96   0
   4  -4  -2   30.34    5.31   0
  11  -3  -7  102.84    6.57   0
  13  -3 -12  219.88    6.73   0
   8  -4  -8   40.81    5.42   0
   9  -3  -4  334.92    8.11   0
   2  -4  -1   19.06    5.15   0
   6  -4  -5   61.82    5.59   0
  13  -3 -13  129.05    5.60   0
   0  -4   0  145.16    6.30   0
   3  -3   2  227.71    6.03   0
   7  -3  -2  185.44    6.69   0
   8  -4  -9   39.96    5.31   0
  13  -3 -15   38.29    5.16   0
  13  -3 -14  117.99    5.61   0
   6  -4  -6   35.10    5.40   0
   8  -4 -10   27.34    4.86   0
   9  -3  -5  166.72    7.07   0
  13  -3 -16    3.44    3.73   0
   1  -3   3  154.52    5.47   0
   8  -4 -11   -1.42    4.55   0
   2  -4  -2   56.19    4.17   0
   6  -4  -7    5.98    5.01   0
   8  -4 -14   66.86    4.02   0
   8  -4 -13   15.42    3.95   0
   8  -4 -12    2.53    4.60   0
  -2  -4   0   -0.99    3.80   0
   0  -4  -1  150.00    5.94   0
   3  -3   1  170.73    5.63   0
   7  -3  -3   38.29    3.92   0
   9  -3  -6  181.45    6.83   0
  11  -3 -10  262.39    7.21   0
   2  -4  -3  142.54    5.74   0
   4  -4  -5   11.88    5.14   0
   5  -3  -1   12.25    3.57   0
   6  -4  -8   -5.03    5.19   0
  11  -3 -11   36.92    5.36   0
  -2  -4  -1    4.50    4.05   0
   0  -4  -2   48.27    5.08   0
   1  -3   2  163.26    5.25   0
   4  -4  -6   22.72    5.08   0
   6  -4  -9    9.57    5.32   0
   7  -3  -4    7.55    4.58   0
   9  -3  -7   34.27    5.83   0
   2  -4  -4  180.69    6.50   0
   5  -3  -2  211.03    5.98   0
   6  -4 -10   43.48    5.54   0
  11  -3 -12    5.42    4.94   0
   3  -3   0  402.33    5.97   0
   4  -4  -7  100.41    5.68   0
   6  -4 -13  107.87    5.20   0
   6  -4 -12   89.44    5.18   0
   6  -4 -11   88.07    5.65   0
   9  -3  -8    2.04    5.30   0
  11  -3 -13   -0.64    4.85   0
  -2  -4  -2   23.85    4.30   0
   0  -4  -3   18.69    4.74   0
   7  -3  -5    4.90    4.73   0
  11  -3 -18  127.95    4.38   0
  11  -3 -14   92.47    5.12   0
   4  -4  -8  123.58    6.22   0
  11  -3 -17   32.90    3.95   0
  11  -3 -16   88.92    4.74   0
  11  -3 -15   71.15    4.73   0
   0  -4  -4    6.45    4.88   0
   4  -4 -14   20.92    6.87   0
   4  -4  -9  106.99    5.85   0
   5  -3  -3  142.99    5.69   0
   9  -3  -9    8.82    5.13   0
  -2  -4  -3   49.53    4.66   0
   4  -4 -13   -4.02    4.54   0
   4  -4 -10   39.89    5.38   0
   7  -3  -6  114.28    5.59   0
   0  -4  -5    2.49    4.99   0
   4  -4 -12   -1.55    4.46   0
   4  -4 -11   15.59    3.54   0
   9  -3 -20   17.28    3.55   0
  -4  -4  -4   22.18    4.91   0
  -2  -4  -4   50.55    4.93   0
   2  -4  -8   -7.65    5.01   0
   0  -4  -6   28.38    5.28   0
   2  -4 -13   40.17    8.89   0
   2  -4  -9   11.06    4.64   0
   5  -3  -4  335.42    6.02   0
   7  -3  -7  121.55    5.84   0
  -4  -4  -5   22.21    4.07   0
  -2  -4  -5   38.81    4.84   0
   0  -4  -7   44.63    4.94   0
   2  -4 -11   56.45    5.27   0
   2  -4 -10   15.83    4.80   0
   9  -3 -19    4.78    3.10   0
  -4  -4  -8    0.05    8.35   0
  -4  -4  -7    3.27    7.12   0
  -4  -4  -6    4.78    4.10   0
  -2  -4  -6   20.48    4.81   0
   0  -4 -12   35.50    8.98   0
   7  -3  -8  302.51    7.37   0
   9  -3 -18    9.56    3.23   0
   9  -3 -13  105.45    5.84   0
  -2  -4 -10    1.89    9.24   0
  -2  -4  -7    9.64    4.85   0
   0  -4 -11   46.83    9.46   0
   5  -3  -5  107.86    4.51   0
   9  -3 -17   11.90    3.78   0
   9  -3 -14  143.35    5.99   0
  -2  -4  -9   -1.15    7.84   0
  -2  -4  -8   26.88    4.82   0
   3  -3  -3   48.77    4.77   0
   7  -3 -20  100.52    4.15   0
   9  -3 -16   10.22    4.03   0
   9  -3 -15   53.26    4.60   0
   7  -3  -9  100.61    4.97   0
   5  -3  -6   87.72    4.12   0
   7  -3 -10  187.90    6.77   0
   3  -3  -4   50.22    4.51   0
   7  -3 -19   49.06    3.41   0
   1  -3  -2    0.89    4.14   0
   5  -3 -20    2.03    3.18   0
   5  -3  -7   17.88    4.81   0
   7  -3 -11   44.60    5.46   0
   7  -3 -18  113.17    4.21   0
   3  -3  -5   18.45    4.65   0
   5  -3  -8   46.89    4.91   0
   7  -3 -17   73.86    4.34   0
  10  -2 -14  106.33    4.70   0
   1  -3  -3    9.37    4.31   0
   7  -3 -16    5.57    4.18   0
   7  -3 -15    6.07    4.97   0
  10  -2 -15   11.05    3.95   0
   5  -3 -19    8.04    3.27   0
   5  -3  -9    2.99    5.04   0
  -3  -3   0  381.89    5.37   0
   3  -3  -6    0.99    4.64   0
  -1  -3  -2  159.45    5.34   0
   3  -3 -19   61.15    3.78   0
   5  -3 -18   58.81    4.04   0
   5  -3 -10   -6.64    5.49   0
   3  -3  -7   18.93    5.21   0
   5  -3 -11    0.22    5.72   0
  -3  -3  -1  172.63    5.52   0
   5  -3 -12   35.31    5.90   0
   3  -3  -8   34.03    5.55   0
   5  -3 -13   30.36    6.11   0
  -1  -3  -3  143.81    5.67   0
   1  -3 -18   37.37    3.56   0
   3  -3 -17   23.79    4.56   0
   3  -3  -9   58.83    5.81   0
  -3  -3  -2  213.74    5.88   0
  -1  -3 -17   -1.04    4.33   0
  -1  -3  -4  387.72    7.21   0
   1  -3  -6  100.39    4.69   0
   3  -3 -16    6.75    4.43   0
   3  -3 -10  176.43    6.75   0
   9  -1   6  284.26    7.23   0
  11  -1   4  569.65   11.09   0
  15  -3   0   16.22    4.83   0
  15  -1  -1   18.78    9.36   0
  17  -1  -5   -7.48    7.32   0
   7  -3   8   21.40    4.52   0
   8  -2   8   21.91    6.20   0
  14  -2   2  116.81    6.72   0
  16  -2  -1    0.91    5.53   0
  12  -2   4  184.81    7.52   0
  17  -3  -4    4.45    4.44   0
  17  -1  -6  169.78    7.89   0
  18  -2  -5    9.15    5.08   0
   6  -2   9   45.27    5.92   0
  13  -3   2   30.77    5.28   0
  13  -1   1   46.44    6.37   0
  15  -1  -2  215.46    9.85   0
   9  -3   6   89.32    5.58   0
  11  -1   3   40.72    7.49   0
  15  -3  -1   -1.57    5.05   0
  17  -1  -7   15.50    6.67   0
  18  -2  -6   53.84    5.49   0
  14  -2   1   17.31    6.68   0
  16  -2  -2  109.34    6.48   0
   8  -2   7    1.09    6.15   0
  12  -2   3   21.70    7.03   0
  15  -1  -3   -0.75    6.05   0
   7  -3   7    5.76    5.61   0
  10  -2   5   21.90    6.46   0
  13  -3   1   38.61    5.49   0
  18  -2  -7   16.95    5.15   0
   6  -2   8  599.68    9.63   0
   8  -4   3   54.13   10.27   0
  14  -2   0  301.08    8.64   0
  15  -3  -2   44.90    5.64   0
  15  -1  -4  618.40   11.81   0
   4  -2   9   26.45    5.67   0
   5  -3   8    6.64    5.09   0
   9  -3   5   20.35    5.52   0
  18  -2  -8  150.16    6.43   0
   8  -2   6  253.78    8.19   0
  12  -2   2  220.78    7.93   0
  10  -2   4   38.35    6.82   0
  13  -3   0  100.84    6.33   0
  15  -3  -3   15.03    5.83   0
  15  -1  -5    7.67    7.67   0
  17  -3  -7   26.25    5.16   0
  18  -2  -9   34.58    5.69   0
   6  -4   4   -0.91    4.45   0
   7  -3   6   -0.91    5.61   0
  14  -2  -1   70.92    7.41   0
  18  -2 -10  227.44    7.52   0
   6  -2   7  109.07    6.66   0
  11  -3   2  106.78    6.92   0
  17  -3  -8   61.54    5.75   0
   8  -4   2   20.85    8.28   0
   9  -3   4   48.20    6.27   0
  12  -4  -3   38.54   10.42   0
  12  -2   1    3.23    6.33   0
  15  -3  -4   83.19    6.22   0
  16  -2  -5    8.64    4.56   0
   5  -3   7   10.86    5.38   0
  13  -3  -1   45.87    7.17   0
  14  -2  -2  208.96    8.18   0
  17  -3  -9   51.50    5.19   0
  10  -2   3    3.15    5.11   0
  16  -2  -6   97.81    6.75   0
   6  -4   3    8.34    5.13   0
   7  -3   5   -1.21    5.71   0
  11  -3   1   42.34    6.85   0
  12  -4  -4   88.42   10.17   0
  15  -3  -5   52.52    6.13   0
  17  -3 -10   80.10    5.30   0
   6  -2   6  448.97    8.40   0
   8  -4   1   51.69    5.83   0
  12  -2   0  187.75    7.58   0
  14  -2  -3   42.63    6.44   0
  17  -3 -11   35.68    4.93   0
  13  -3  -2   93.43    5.86   0
  16  -2  -7   12.65    5.95   0
  17  -3 -12   12.47    4.69   0
   5  -3   6  106.00    6.25   0
  10  -2   2  271.78    8.45   0
  12  -4  -5   69.15    9.44   0
  15  -3  -6   93.04    6.62   0
  17  -3 -13    8.20    4.44   0
  10  -4  -2   22.79    6.50   0
  11  -3   0  128.46    7.86   0
  16  -2  -8   27.17    5.94   0
   6  -4   2   43.07    5.83   0
   7  -3   4    2.63    6.29   0
  12  -2  -1   11.77    6.51   0
  13  -3  -3   36.56    6.79   0
   8  -4   0   53.79    5.66   0
  12  -4  -6   39.29    6.48   0
  16  -2  -9   -2.39    5.61   0
   8  -2   3  132.63    7.01   0
  10  -4  -3   20.86    6.08   0
  10  -2   1  150.25    6.87   0
   4  -4   3   41.22    4.81   0
  11  -3  -1   51.89    7.13   0
  12  -2  -2  318.26    8.13   0
  13  -3  -4   39.75    7.14   0
  14  -2  -5    4.82    4.71   0
  16  -2 -10  111.31    6.09   0
   5  -3   5   71.52    4.94   0
  12  -4  -7   31.02    5.67   0
   6  -4   1   28.33    5.41   0
   7  -3   3   17.83    6.14   0
   9  -3   1   -5.31    6.43   0
  14  -2  -6  261.05    7.46   0
  15  -3  -9    7.51    5.90   0
  16  -2 -11   35.69    5.52   0
   3  -3   6  193.55    6.44   0
  10  -4  -4    5.81    4.09   0
  10  -2   0  502.05    8.43   0
  12  -4  -8    7.92    4.82   0
  13  -3  -5   15.37    7.30   0
  11  -3  -2   19.57    5.25   0
  12  -4  -9   -4.48    4.73   0
  12  -2  -3   44.29    6.03   0
  15  -3 -10   28.27    5.90   0
   4  -4   2   47.60    5.39   0
  10  -4  -5    6.52    5.18   0
  14  -2  -7   70.71    6.19   0
  15  -3 -11   -0.93    5.73   0
   5  -3   4  305.50    6.45   0
   6  -4   0    9.65    5.35   0
   7  -3   2  124.34    6.99   0
   9  -3   0   19.47    6.75   0
  12  -4 -10   -5.27    4.40   0
  13  -3  -6   -3.14    6.94   0
  11  -3  -3   -5.58    6.44   0
  12  -4 -11    1.77    4.30   0
  12  -2  -4  653.34    9.12   0
  15  -3 -12   17.79    5.28   0
   3  -3   5   33.17    5.37   0
   8  -4  -3   38.50    5.41   0
  10  -4  -6    9.49    5.36   0
  13  -3  -7   -4.67    6.18   0
  14  -2  -8  526.99    8.44   0
  15  -3 -15   43.25    4.87   0
  15  -3 -14   63.18    5.45   0
  15  -3 -13   12.44    5.37   0
   4  -4   1   70.15    5.52   0
   9  -3  -1    8.71    6.64   0
   5  -3   3  137.65    6.65   0
   6  -4  -1   15.80    5.54   0
  10  -4  -7   34.32    5.48   0
  11  -3  -4    9.76    5.87   0
  14  -2  -9  115.27    6.26   0
   8  -4  -4   38.40    5.30   0
  10  -4  -8   24.53    5.28   0
  14  -2 -10  508.70    7.52   0
   4  -4   0   45.21    5.26   0
   6  -4  -2   54.45    5.78   0
   9  -3  -2  153.67    7.73   0
  11  -3  -5   20.65    6.52   0
   3  -3   4    6.13    4.64   0
   8  -4  -5   35.51    5.35   0
  10  -4  -9   41.66    5.02   0
  12  -2  -6  358.07    6.19   0
  14  -2 -11   40.65    4.91   0
   5  -3   2  170.88    6.58   0
  10  -4 -10   19.23    5.04   0
  13  -3 -10   95.34    6.58   0
   2  -4   1   11.71    4.68   0
   8  -4  -6   20.64    5.27   0
  10  -4 -11   34.43    4.85   0
  11  -3  -6  106.17    6.91   0
  13  -3 -11   41.79    5.70   0
  14  -2 -12   56.90    5.04   0
   4  -4  -1   41.55    5.65   0
   9  -3  -3   76.78    5.21   0
  10  -4 -12   23.78    4.24   0
  12  -2  -7   21.38    3.31   0
   8  -4  -7   31.87    5.29   0
  11  -3  -7   81.16    6.78   0
  13  -3 -12  207.10    6.73   0
   3  -3   3   29.66    4.66   0
   5  -3   1  105.39    5.76   0
   6  -4  -4   48.58    5.85   0
   7  -3  -1   68.27    4.49   0
  13  -3 -16    6.92    4.71   0
  13  -3 -14  150.78    5.86   0
  13  -3 -13  136.20    6.10   0
   2  -4   0   -6.03    4.78   0
   4  -4  -2   34.31    5.04   0
   8  -4  -8   31.94    5.18   0
   9  -3  -4  323.89    7.66   0
  13  -3 -15   35.14    4.72   0
  15  -3 -15   56.05    5.37   0
  17  -1 -15    1.95    4.93   0
  18  -2 -22   24.77    5.60   0
  18  -2 -21    2.29    6.27   0
  18  -2 -20   34.37    6.21   0
  18  -2 -19   41.89    6.20   0
  15  -3 -16  112.39    5.57   0
  15  -1 -11   -1.72    3.76   0
  17  -1 -24   -1.41    4.84   0
  17  -1 -16   81.50    7.57   0
  15  -3 -17   35.56    4.80   0
  14  -2 -10  460.44    8.40   0
  15  -3 -18  101.03    5.18   0
  15  -1 -12    6.88    5.16   0
  17  -1 -23   17.37    5.02   0
  17  -1 -17    7.95    5.20   0
  13  -3 -12  181.40    6.35   0
  17  -1 -22  301.25    7.35   0
  17  -1 -21    7.37    5.89   0
  17  -1 -18  132.98    5.68   0
  16  -2 -24   66.99    4.55   0
  16  -2 -15   36.82    6.08   0
  13  -3 -13  122.60    6.73   0
  14  -2 -11   30.43    5.44   0
  15  -1 -25    3.05    4.61   0
  15  -1 -13    0.97    4.98   0
  16  -2 -16   -8.34    6.20   0
  14   0 -18  377.50    9.30   0
  16  -2 -23   12.52    4.47   0
  15  -1 -14  226.34    6.58   0
  16  -2 -22  195.09    6.40   0
  16  -2 -17  -11.44    6.09   0
  13  -3 -14  118.04    5.81   0
  14  -2 -12   60.72    5.60   0
  15  -1 -24  234.00    5.95   0
  16  -2 -21   46.13    5.99   0
  16  -2 -20  112.98    6.74   0
  16  -2 -19   11.03    5.70   0
  16  -2 -18    3.20    4.41   0
  13  -3 -21   43.94    7.54   0
  13  -3 -15   31.72    4.84   0
  15  -1 -15   32.36    5.55   0
  13  -3 -16   -4.24    4.70   0
  15  -1 -23    3.46    4.82   0
  15  -1 -16  409.54    8.02   0
  11  -3 -11   21.92    4.67   0
  13  -3 -18   59.66    4.58   0
  13  -3 -17    4.64    4.78   0
  13  -1 -25   -1.09    3.81   0
  15  -1 -22  183.99    6.85   0
  15  -1 -17    4.97    5.31   0
  14  -2 -24    2.57    4.41   0
  15  -1 -21    3.46    5.41   0
  15  -1 -20   18.75    5.55   0
  11  -3 -22   -5.91    7.49   0
  11  -3 -12    1.08    4.66   0
  12  -2 -25   32.74    3.72   0
  12  -2 -10   28.23    3.44   0
  13  -1 -24   49.46    4.56   0
  14  -2 -23   13.13    4.33   0
  14  -2 -15   11.61    5.84   0
  14  -2 -22   98.77    5.58   0
  14  -2 -16   80.85    6.13   0
  11  -3 -21   15.78    6.53   0
  11  -3 -13    1.48    4.94   0
  12  -2 -11    3.38    4.36   0
  14  -2 -21   58.72    5.97   0
  14  -2 -17   16.06    5.76   0
  13  -1 -23   10.25    4.49   0
  14  -2 -20  176.24    7.01   0
  14  -2 -19   50.17    6.23   0
  14  -2 -18  282.30    7.53   0
  10  -2 -25    1.01    3.00   0
  11  -3 -20   11.99    3.95   0
  11  -3 -14   85.31    5.56   0
  13  -1 -22  368.07    6.90   0
  11  -3 -16   82.93    5.07   0
  11  -3 -15   65.60    5.46   0
  11  -3 -17   45.18    4.65   0
  11  -1 -24   37.56    4.53   0
  12  -2 -23   42.95    4.88   0
  13  -1 -21   36.97    5.62   0
  13  -1 -16   28.73    5.11   0
  13  -1 -20  456.35    8.10   0
  13  -1 -19   24.36    5.45   0
   9  -3 -11   61.84    5.17   0
  12  -2 -22  173.39    6.16   0
  11  -1 -23    1.78    4.82   0
  12  -2 -14  131.62    4.75   0
   9  -3 -20   21.02    4.20   0
   9  -3 -12  198.25    6.31   0
  12  -2 -21    5.29    3.97   0
  12  -2 -15   36.29    5.81   0
   7  -3 -21   35.61    7.74   0
   8  -2 -24   68.95    4.85   0
   9  -3 -19   -0.11    4.03   0
  11  -1 -22    1.08    4.83   0
  12  -2 -20    1.50    4.50   0
  12  -2 -19   25.40    5.94   0
  12  -2 -18  240.54    7.35   0
  12  -2 -17   -5.49    5.61   0
  12  -2 -16   67.44    6.02   0
   9  -3 -13  106.66    5.90   0
   6  -2 -24   35.07    3.30   0
   9  -3 -16   13.09    4.68   0
   9  -3 -15   41.40    5.11   0
   9  -3 -14  117.14    5.88   0
  11  -1 -21    6.05    4.84   0
   7  -3 -20  100.02    5.37   0
   9  -1 -23   28.02    4.80   0
  10  -2 -22  188.19    6.02   0
  11  -1 -19    8.20    5.60   0
   7  -3 -10  164.52    5.67   0
  10  -2 -21   74.27    5.65   0
  11  -1 -18  506.86    7.55   0
   7  -3 -19   55.90    4.47   0
   9  -1 -22  455.71    7.60   0
  10  -2 -20  364.64    7.85   0
  10  -2 -13   33.00    5.16   0
   4  -2 -23    1.25    3.46   0
   6  -2 -23   20.73    4.18   0
   7  -3 -18  121.64    4.86   0
   7  -3 -11   44.51    5.41   0
   7  -1 -23    8.89    4.42   0
   7  -3 -12   19.91    5.03   0
  10  -2 -19   35.07    4.62   0
  10  -2 -18  215.97    7.38   0
  10  -2 -15   11.87    5.35   0
  10  -2 -14   93.53    4.42   0
   5  -3 -19    6.32    4.19   0
   7  -3 -13    5.71    4.82   0
   9  -1 -21    7.02    4.58   0
  10  -2 -17   59.71    5.82   0
  10  -2 -16   29.95    5.55   0
   7  -3 -15    5.85    4.60   0
   7  -3 -14    2.07    4.66   0
   8  -2 -21    0.21    5.02   0
   7  -1 -22  218.68    6.19   0
   9  -1 -20   85.96    5.43   0
   2  -2 -22   70.25    3.85   0
   5  -3 -18   64.73    4.54   0
   8  -2 -20    5.60    5.07   0
   9  -1 -19    0.04    4.52   0
   4  -2 -22   14.88    3.86   0
   5  -3  -9    2.49    4.46   0
   9  -1 -18    1.99    4.69   0
   5  -3 -17   72.57    4.32   0
   5  -1 -22  325.67    6.32   0
   6  -2 -21   29.75    5.26   0
   7  -1 -21   18.80    4.97   0
   8  -2 -19   14.69    5.38   0
   3  -3 -18  103.53    4.74   0
   5  -3 -10   -2.45    4.53   0
   8  -2 -18  229.82    7.01   0
   5  -3 -11    9.88    4.58   0
   8  -2 -17   67.87    5.64   0
   3  -3 -17   19.43    3.80   0
   5  -3 -14  139.49    5.33   0
   5  -3 -13   24.09    4.72   0
   5  -3 -12   26.91    4.57   0
   6  -2 -20  199.41    6.17   0
   7  -1 -20  519.38    7.41   0
   8  -2 -16  585.29    8.31   0
   8  -2 -15   87.33    5.54   0
   8  -2 -14  401.54    6.88   0
   2  -2 -21    5.07    3.61   0
   5  -1 -21    8.63    4.51   0
   1  -3 -17   43.83    4.21   0
   3  -3 -16   -0.23    3.55   0
   6  -2 -19   32.00    5.04   0
   7  -1 -19   14.50    4.17   0
 -14   0 -10  138.42    4.90   0
 -13  -1 -11   10.07    7.65   0
 -10  -2 -11   -2.53    4.24   0
  -8  -2 -12  121.79    5.25   0
  -7   1 -12  446.76    8.51   0
  -6   0 -15    1.23    4.22   0
  -9   1 -11    5.86    5.51   0
  -5  -1 -15   11.08    5.93   0
  -4   0 -15    4.90    6.43   0
  -2   0 -15    5.71    6.11   0
  -5   1 -12  255.30    7.94   0
  -3  -1 -15   -1.08    5.67   0
 -12  -2  -9   -1.02    9.05   0
 -11  -1 -12  256.90    6.31   0
  -9  -1 -13   -2.46    5.46   0
  -7  -1 -14   54.00    5.91   0
  -6  -2 -12    6.36    5.06   0
  -4  -2 -12  519.74    8.74   0
  -6   0 -14  249.19    8.04   0
  -2   0 -14  452.79    8.93   0
 -10  -2 -10   70.38    4.90   0
  -8  -2 -11   11.37    4.97   0
  -7   1 -11   31.33    6.29   0
  -5  -1 -14  229.65    7.88   0
  -4   0 -14  143.21    7.35   0
  -3  -1 -14   43.01    5.89   0
 -14  -2  -7   -1.48    9.30   0
 -13  -1 -10   18.38    4.67   0
  -9   1 -10   33.57    6.31   0
  -5   1 -11   -3.73    5.63   0
 -14   0  -9   -1.45    4.75   0
  -7  -1 -13    7.18    6.29   0
  -6  -2 -11   17.14    5.19   0
  -4  -2 -11   78.02    6.04   0
 -16   0  -7    1.38    3.90   0
 -15  -1  -8    6.98    7.98   0
 -11  -1 -11    4.11    5.36   0
  -9  -1 -12   43.34    6.04   0
  -6   0 -13   -3.69    6.46   0
 -12  -2  -8   15.01    4.87   0
  -8  -2 -10  218.66    6.54   0
  -7   1 -10  434.42    8.77   0
  -5  -1 -13    6.61    6.14   0
  -4   0 -13   -9.85    5.81   0
 -10  -2  -9   12.24    5.26   0
 -13  -1  -9    5.03    4.82   0
  -9   1  -9    0.66    5.94   0
  -6  -2 -10   94.74    5.97   0
 -14  -2  -6   -5.37    5.17   0
 -14   0  -8   72.95    5.65   0
  -7  -1 -12  460.32    9.31   0
  -6   0 -12   44.30    6.43   0
 -18   0  -4  200.17    6.04   0
 -16  -2  -4   29.59    9.22   0
 -11  -1 -10  365.28    8.37   0
  -9  -1 -11    5.49    6.13   0
  -8  -2  -9   22.96    5.41   0
  -7   1  -9    5.31    6.15   0
  -5  -1 -12  264.74    7.74   0
  -4   0 -12  998.95   11.83   0
 -17  -1  -5  -15.82    6.81   0
 -16   0  -6  213.86    6.44   0
 -15  -1  -7    7.68    4.53   0
 -12  -2  -7   -1.60    4.97   0
  -8   0 -11   -6.08    6.62   0
 -10  -2  -8  178.53    6.30   0
  -6  -2  -9   39.09    5.63   0
 -11   1  -7    4.12    4.42   0
  -7  -1 -11   15.31    6.63   0
  -6   0 -11   -0.64    5.59   0
 -14  -2  -5    0.38    4.58   0
 -13  -1  -8  237.19    5.89   0
  -9  -1 -10   46.20    6.36   0
  -5  -1 -11   -5.20    5.55   0
 -11  -1  -9   16.27    6.03   0
  -8  -2  -8   25.64    5.28   0
  -6  -2  -8  529.06    8.47   0
 -19  -1  -2   70.03    8.15   0
 -18   0  -3   -2.92    5.67   0
 -16   0  -5   -5.18    5.12   0
 -15  -1  -6   58.70    5.59   0
 -12  -2  -6   84.89    5.89   0
 -10  -2  -7   14.56    5.55   0
  -8   0 -10  488.06    9.67   0
 -17  -1  -4    4.37    4.43   0
  -7  -1 -10  408.96    8.79   0
  -6   0 -10  271.70    7.63   0
 -13  -1  -7   11.63    6.05   0
 -14  -2  -4   39.54    5.52   0
 -11  -1  -8   69.82    6.71   0
  -9  -1  -9    8.22    6.09   0
  -8  -2  -7    3.94    4.98   0
 -20   0   0  237.49    6.30   0
 -18  -2   0   23.05    9.75   0
 -16  -2  -2    6.26    4.74   0
 -12  -2  -5   16.37    5.29   0
 -10  -2  -6   97.23    5.87   0
 -15  -1  -5    8.74    5.38   0
  -7  -1  -9   15.44    5.25   0
 -19  -1  -1    0.40    4.36   0
 -18   0  -2  352.25    7.33   0
 -17  -1  -3    3.76    5.08   0
 -16   0  -4   25.43    4.30   0
 -13  -1  -6  378.53    8.62   0
  -9  -1  -8  410.28    8.84   0
  -8  -2  -6  262.97    6.68   0
 -21  -1   2   61.46    7.49   0
 -14  -2  -3    9.58    5.48   0
 -11  -1  -7    3.29    6.04   0
 -18  -2   1   -3.46    5.31   0
 -16  -2  -1    5.99    5.24   0
 -12  -2  -4  183.72    6.49   0
 -10  -2  -5   22.32    5.16   0
  -7  -1  -8  262.85    6.92   0
 -20   0   1    0.48    4.82   0
 -15  -1  -4  326.48    7.78   0
 -22   0   4  195.65    5.36   0
 -20  -2   4   29.91    8.36   0
 -19  -1   0   55.02    5.02   0
 -18   0  -1   -8.89    5.43   0
 -17  -1  -2  118.09    6.18   0
  -8  -2  -5   35.17    5.41   0
 -14  -2  -2  143.19    6.60   0
 -13  -1  -5   -5.77    6.22   0
 -11  -1  -6  148.98    7.18   0
  -9  -1  -7    7.33    4.04   0
 -21  -1   3  -12.10    4.44   0
 -18  -2   2    3.53    5.50   0
 -12  -2  -3   22.10    5.39   0
 -10  -2  -4   29.06    4.83   0
 -16  -2   0   19.84    5.36   0
 -15  -1  -3    8.00    6.12   0
 -20   0   2  378.11    7.41   0
 -22   0   5    2.05    4.50   0
 -20  -2   5   18.00    8.43   0
 -19  -1   1    2.38    3.85   0
 -18   0   0  260.70    7.52   0
 -17  -1  -1    5.70    5.65   0
 -14  -2  -1   24.43    5.71   0
 -13  -1  -4   40.55    6.36   0
  -9  -1  -6  310.23    6.87   0
 -12  -2  -2  224.55    6.59   0
 -11  -1  -5   10.38    5.91   0
 -10  -2  -3    6.22    4.97   0
 -23  -1   7   28.17    7.67   0
 -21  -1   4    0.72    4.23   0
 -18  -2   3    0.98    5.22   0
 -16  -2   1   12.05    5.58   0
 -15  -1  -2  627.00    9.52   0
 -20  -2   6    8.44    4.72   0
 -20   0   3    9.19    5.27   0
 -19  -1   2  115.94    6.12   0
 -17  -1   0  300.33    7.70   0
 -22   0   6  255.15    6.60   0
 -18   0   1   -7.49    6.34   0
 -14  -2   0  323.20    7.57   0
 -13  -1  -3   -1.55    6.19   0
 -11  -1  -4  519.95    8.64   0
 -10  -2  -2  272.50    6.08   0
 -23  -1   8   -5.25    5.86   0
 -21  -1   5    0.04    4.58   0
 -18  -2   4   25.10    5.65   0
 -16  -2   2  152.77    6.66   0
 -12  -2  -1    7.61    5.13   0
 -15  -1  -1    4.00    6.20   0
 -24   0  10  191.97    5.18   0
 -20  -2   7  -11.35    4.64   0
 -20   0   4   40.32    5.79   0
 -19  -1   3   12.25    5.77   0
 -17  -1   1   19.00    5.05   0
 -14  -2   1   85.63    6.19   0
 -13  -1  -2  195.28    7.36   0
 -23  -1   9   -0.67    3.89   0
 -18   0   3   10.45    4.35   0
 -17  -1   1   31.56    6.12   0
 -16   0   1    0.59    6.31   0
 -15   1   4  570.73    9.17   0
 -12   0  -2  643.75    8.72   0
 -22   0   9   -0.25    5.37   0
 -21  -1   6   61.05    4.89   0
 -20  -2   6    3.58    4.82   0
 -23  -1  10   15.58    4.03   0
 -18   0   4   97.71    6.89   0
 -15   1   5    4.26    5.01   0
 -14  -2   0  338.52    6.62   0
 -14   0   0  247.78    7.10   0
 -11  -1  -3   24.93    4.75   0
 -22   0  10   11.94    5.39   0
 -19  -1   4  276.98    6.04   0
 -18  -2   4   33.61    4.66   0
 -16  -2   2  158.03    5.63   0
 -16   0   2  420.49    9.14   0
 -21  -1   7    9.57    4.98   0
 -20  -2   7    4.87    4.24   0
 -17  -1   2  502.05    7.73   0
 -12  -2  -1   10.68    3.64   0
 -23  -1  11    7.77    4.16   0
 -22   0  11    4.74    5.04   0
 -14   0   1    2.66    5.06   0
 -21  -1   8  346.09    7.00   0
 -20   0   8   64.12    6.34   0
 -19  -1   5   18.10    5.53   0
 -18  -2   5    3.74    4.79   0
 -16   0   3    5.61    5.57   0
 -14  -2   1   88.95    5.48   0
 -22   0  12  140.72    6.34   0
 -20  -2   8   14.66    4.30   0
 -17  -1   3   24.37    5.68   0
 -16  -2   3   34.75    5.22   0
 -15  -1   1   10.35    3.97   0
 -23  -1  12  263.60    5.46   0
 -20   0   9    4.51    5.81   0
 -12  -2   0  200.99    5.66   0
 -23  -1  13    7.89    4.17   0
 -22   0  13    2.36    5.23   0
 -21  -1   9    7.49    5.31   0
 -19  -1   6  304.98    6.38   0
 -18  -2   6   77.13    5.12   0
 -16   0   4  492.01    8.57   0
 -17  -1   4   39.16    6.28   0
 -15  -1   2  213.24    6.46   0
 -14  -2   2  237.32    6.08   0
 -22  -2  13   27.57    7.80   0
 -22   0  14  143.24    5.97   0
 -16  -2   4  186.12    5.89   0
 -23  -1  14  207.06    5.43   0
 -21  -1  10  415.22    7.59   0
 -20   0  10  112.41    6.64   0
 -19  -1   7   13.91    5.49   0
 -22   0  15  -11.66    4.74   0
 -18  -2   7   20.56    4.46   0
 -12  -2   1   14.48    4.43   0
 -23  -1  15   -4.19    4.28   0
 -22  -2  14   38.54    6.83   0
 -17  -1   5   -2.77    5.43   0
 -22   0  16  186.44    5.38   0
 -21  -1  11   20.62    5.22   0
 -20   0  11   -4.10    5.67   0
 -18   0   8  534.14    8.88   0
 -16  -2   5   24.02    4.80   0
 -15  -1   3    4.24    3.44   0
 -14  -2   3   49.62    4.89   0
 -23  -1  16   15.25    4.05   0
 -22  -2  15    1.81    6.55   0
 -19  -1   8   83.00    5.56   0
 -22   0  17    2.06    4.00   0
 -20   0  12  619.59    8.96   0
 -18  -2   8  192.01    5.72   0
 -22  -2  16   68.23    6.60   0
 -22   0  18  182.95    4.91   0
 -21  -1  12   41.76    5.10   0
 -18   0   9   -7.00    5.40   0
 -17  -1   6  168.50    6.21   0
 -12  -2   2  306.42    5.40   0
 -19  -1   9   -1.59    4.81   0
 -16  -2   6  105.07    5.47   0
 -15  -1   4  565.54    7.71   0
 -22  -2  17   34.16    6.17   0
 -20  -2  12  155.33    5.37   0
 -20   0  13    4.24    5.35   0
 -14  -2   4   27.10    4.45   0
 -21  -1  13    2.57    4.84   0
 -18  -2   9   32.87    5.03   0
 -16   0   7   -2.25    3.60   0
 -23  -1  20  162.77    4.33   0
 -22  -2  18  126.15    6.71   0
 -20   0  14  284.36    6.84   0
 -18   0  10  437.67    7.10   0
 -17  -1   7   14.92    4.59   0
 -23  -1  21    6.22    3.02   0
 -22  -2  19   -0.82    5.94   0
 -20  -2  13   15.92    4.19   0
 -19  -1  10   45.93    4.90   0
 -17  -3  13    2.77    3.20   0
 -16  -2   7   12.08    4.52   0
 -15  -1   5   10.97    4.26   0
 -22  -2  20    3.53    5.84   0
 -21  -1  14   42.38    4.75   0
 -16   0   8   84.56    4.99   0
 -14  -2   5    4.94    4.08   0
 -12  -2   3   46.75    3.99   0
 -20   0  15   -2.34    4.74   0
 -18   0  11   -1.55    4.98   0
 -21  -1  15    1.74    4.83   0
 -20  -2  14  111.43    4.84   0
 -19  -1  11   11.53    4.67   0
 -17  -3  14    5.67    3.21   0
 -17  -1   8  414.01    6.84   0
 -20   0  16    4.86    4.49   0
 -16  -2   8   29.43    4.39   0
 -21  -1  16  187.82    5.50   0
 -20  -2  15   -1.18    4.02   0
 -20   0  17    9.94    5.11   0
 -18   0  12   59.54    5.30   0
 -17  -3  15   -3.16    3.21   0
 -15  -1   6  265.51    4.97   0
 -19  -1  12  485.14    7.70   0
 -17  -1   9   17.36    4.40   0
 -14  -2   6  268.41    5.73   0
 -12  -2   4  645.49    7.09   0
 -21  -1  17   21.62    4.35   0
 -20  -2  16    7.81    3.85   0
 -20   0  18  170.17    5.35   0
 -20   0  19   -0.00    3.76   0
 -18   0  13    0.01    3.56   0
 -16  -2   9    6.18    4.36   0
 -15  -3  12   15.30    3.34   0
 -20  -2  17   -5.08    3.79   0
 -19  -1  13    7.40    4.95   0
 -17  -3  17   13.18    5.45   0
 -15  -1   7    9.20    3.79   0
 -18   0  14  142.68    5.68   0
 -17  -3  18   33.87    5.35   0
 -17  -1  10  438.57    6.79   0
 -14  -2   7   73.73    4.49   0
 -21  -1  24    7.21    2.82   0
 -20  -2  18   28.46    3.80   0
 -19  -1  14  230.51    6.39   0
 -18  -2  13    8.17    4.25   0
 -15  -3  13   12.78    3.49   0
 -21  -1  21    3.09    3.59   0
 -21  -1  22   18.07    3.64   0
 -21  -1  23    5.49    3.00   0
 -20  -2  19   29.07    3.50   0
 -16  -2  10  108.67    5.15   0
 -20  -2  20  209.73    4.42   0
 -20  -2  21   26.64    3.48   0
 -20  -2  23   24.00    5.50   0
 -18  -2  14   87.05    4.98   0
 -18   0  15   -1.62    4.49   0
 -17  -1  11    9.21    4.28   0
 -15  -3  14   60.54    4.76   0
 -15  -1   8  279.25    5.59   0
 -19  -1  15   10.10    4.82   0
 -14  -2   8  570.96    7.30   0
 -18   0  16  352.25    6.74   0
 -19  -1  16   18.64    5.00   0
 -18  -2  15   71.92    5.23   0
 -17  -1  12  274.80    6.49   0
 -15  -3  15   40.60    3.87   0
 -18   0  17    6.50    4.29   0
 -15  -3  16  121.91    4.67   0
 -15  -1   9    6.02    2.66   0
 -19  -1  17   13.74    4.74   0
 -18  -2  16  375.67    6.82   0
 -18   0  18  933.02    8.98   0
 -14  -2   9  107.53    5.35   0
 -13  -3  12  205.43    5.15   0
  -6  -2  18  220.55    6.14   0
  -4  -2  20  138.40    5.81   0
  -3  -3  13   70.49    4.53   0
  -3  -3  14   76.89    4.70   0
  -1  -3  16  124.70    4.73   0
   1  -1  21    1.42    3.00   0
  -3  -3  11   89.44    3.97   0
  -3  -3  12  182.94    4.99   0
  -6  -2  17   26.89    3.32   0
  -5  -1  20   11.34    5.30   0
  -3  -1  21    5.51    3.37   0
  -2  -2  20   18.62    4.02   0
  -1  -3  15   71.52    4.37   0
  -1  -1  21   -3.94    3.86   0
   0  -2  20  187.02    5.29   0
  -6  -2  15   53.74    4.21   0
  -6  -2  16   32.13    4.44   0
  -4  -2  19   29.73    5.00   0
  -6  -2  14  390.57    6.15   0
  -1  -3  14  147.68    5.24   0
   1  -3  15    6.99    3.70   0
  -5  -1  19    1.02    4.12   0
  -4  -2  18  295.43    6.48   0
  -3  -1  20  589.32    8.62   0
  -2  -2  19   -2.24    4.36   0
   2  -2  19    3.31    3.01   0
   5  -3  14   29.84    6.21   0
  -1  -3  13    8.55    4.16   0
   0  -2  19   24.53    4.20   0
   4  -2  18   89.73    3.83   0
  -5  -1  18  172.59    5.24   0
  -4  -2  17  102.40    5.14   0
  -1  -3  10   80.54    4.81   0
  -1  -3  11    9.16    3.99   0
  -1  -3  12   -3.55    4.20   0
  -1  -1  20   20.41    4.34   0
   1  -3  14   60.86    4.39   0
   3  -3  14    9.22    3.59   0
  -2  -2  18   16.26    4.70   0
  -5  -1  17    3.11    3.76   0
  -4  -2  16   49.30    4.87   0
  -3  -1  19   28.59    5.60   0
   1  -3  13   44.72    4.70   0
   2  -2  18   22.21    3.92   0
   3  -1  19    6.35    3.38   0
   5  -3  13   16.80    6.45   0
   7  -3  12   59.58    6.63   0
  -4  -2  15    8.25    4.27   0
   0  -2  18  205.96    6.14   0
   3  -3  13    1.48    4.06   0
   5  -1  18   10.72    3.49   0
  -4  -2  14  151.35    4.96   0
  -2  -2  17   15.08    4.91   0
  -1  -1  19   -0.04    5.16   0
   1  -3  12  185.04    5.78   0
   1  -1  19    6.67    4.22   0
  -4  -2  13    0.41    4.06   0
  -3  -1  18  741.56    9.53   0
   1  -3  11  164.65    6.24   0
   4  -2  17    0.26    3.73   0
   5  -3  12   19.95    4.00   0
  -2  -2  16   87.46    5.31   0
   0  -2  17   18.26    5.20   0
   1  -3  10  236.80    6.28   0
   3  -3  12   12.28    4.28   0
   6  -2  16   46.20    3.86   0
   7  -3  11   51.40    7.09   0
  -3  -1  17   80.05    5.47   0
   1  -3   8    2.18    3.83   0
   1  -3   9   38.99    4.40   0
   2  -2  17   21.91    3.76   0
  -2  -2  15   10.13    4.80   0
  -1  -1  18  243.31    7.94   0
   3  -3  11   35.17    5.03   0
   3  -1  18  205.67    6.47   0
   5  -3  11    0.22    4.17   0
   0  -2  16   12.58    5.08   0
   1  -1  18  110.57    5.87   0
   3  -3  10   79.09    5.15   0
   4  -2  16    6.84    3.99   0
   9  -3   9   14.87    8.76   0
  -3  -1  16   46.28    4.70   0
  -2  -2  14  216.42    5.89   0
   2  -2  16  333.56    6.90   0
   5  -1  17    0.31    3.57   0
   7  -3  10   88.51    4.45   0
  -1  -1  17   99.00    6.16   0
   3  -3   9   68.36    5.20   0
   5  -3  10   28.59    4.37   0
   6  -2  15   17.64    3.70   0
   7  -1  16   12.97    3.48   0
   8  -2  14   28.49    3.59   0
  -2  -2  13    9.86    2.82   0
   0  -2  15    0.35    4.12   0
   3  -3   8  239.66    5.98   0
   1  -1  17   13.81    4.71   0
   2  -2  15   39.53    4.55   0
   3  -1  17    3.12    3.85   0
   4  -2  15    0.40    3.93   0
   5  -3   9    3.12    3.73   0
   7  -3   9   24.81    3.81   0
   9  -3   8   57.79    3.91   0
  -1  -1  16  404.06    7.10   0
   0  -2  14   10.20    4.23   0
 -17  -1  17   10.16    4.69   0
 -15  -1  13    0.48    3.53   0
 -14  -2  15    6.29    4.01   0
 -18   0  21   -1.10    4.95   0
 -18   0  26  118.95    4.02   0
 -12  -2  12  102.64    4.37   0
 -18   0  22   11.56    5.03   0
 -18   0  23    4.11    4.36   0
 -18   0  24   95.99    4.82   0
 -18   0  25   -4.33    4.14   0
 -17  -1  18  229.85    6.56   0
 -17  -1  27   -2.97    4.88   0
 -14  -2  16   93.76    5.47   0
 -14  -2  25   -3.26    7.86   0
 -17  -1  19    9.19    5.55   0
 -15  -1  14  212.59    5.81   0
 -17  -1  26   94.00    4.60   0
 -16   0  28    7.20    2.97   0
 -14  -2  17   17.30    5.40   0
 -14  -2  24    4.50    4.86   0
 -12  -2  13   21.23    4.28   0
 -17  -1  21   17.23    5.29   0
 -17  -1  25   -2.74    5.07   0
 -14  -2  18  342.41    7.73   0
 -17  -1  22  282.06    6.75   0
 -17  -1  23   12.20    5.51   0
 -17  -1  24    6.81    4.87   0
 -15  -1  15   19.39    4.93   0
 -15  -1  28   65.61    8.13   0
 -14  -2  19   52.66    5.72   0
 -14  -2  23    8.53    3.92   0
 -16   0  27   -1.01    3.85   0
 -14  -2  20  167.85    5.95   0
 -14  -2  21   54.73    5.04   0
 -14  -2  22   94.61    4.44   0
 -12  -2  14  190.37    5.83   0
 -15  -1  16  396.38    7.59   0
 -12  -2  25   30.79    7.89   0
 -16   0  26   46.55    4.33   0
 -15  -1  27    4.89    4.47   0
 -12  -2  15   27.45    4.84   0
 -15  -1  17    1.55    5.48   0
 -16   0  21    4.11    5.92   0
 -16   0  24  129.19    5.70   0
 -16   0  25   -4.44    4.22   0
 -15  -1  26  153.78    5.18   0
 -14   0  28  344.72    5.03   0
 -13  -1  28   51.10    9.12   0
 -12  -2  16   71.86    5.32   0
 -12  -2  24  201.58    5.05   0
 -16   0  22  264.30    7.35   0
 -16   0  23    2.90    5.22   0
 -15  -1  18  690.36    9.23   0
 -15  -1  19   11.91    5.35   0
 -15  -1  25   11.96    4.58   0
 -12  -2  17  -12.30    5.04   0
 -12  -2  23   37.37    3.89   0
 -15  -1  20   28.45    4.91   0
 -15  -1  21    0.64    4.82   0
 -15  -1  23   -2.16    5.03   0
 -15  -1  24  234.26    6.49   0
 -14   0  27    4.57    3.71   0
 -12  -2  18  225.61    6.06   0
 -12  -2  19   13.98    4.44   0
 -12  -2  21    1.20    3.87   0
 -12  -2  22  154.21    4.77   0
 -13  -1  27   -2.55    4.52   0
 -12  -2  20   -1.68    4.12   0
 -12   0  28    3.43    3.14   0
 -10  -2  14  117.97    4.83   0
 -10  -2  24   -3.09    3.61   0
 -14   0  26  154.85    5.12   0
 -14   0  25   -2.68    4.51   0
 -13  -1  16   42.06    4.58   0
 -13  -1  26    7.35    4.30   0
 -10  -2  15    9.65    4.29   0
 -10  -2  23    9.52    4.07   0
  -8  -2  24   79.82    7.24   0
 -13  -1  17   32.60    5.34   0
 -13  -1  25    2.90    4.54   0
 -12   0  27    0.11    4.17   0
 -11  -1  27    4.55    5.99   0
 -10  -2  16   30.37    5.10   0
 -10  -2  22  158.20    5.40   0
 -13  -1  18  158.04    6.52   0
 -13  -1  24   50.05    6.16   0
 -10  -2  17   40.71    5.45   0
 -10  -2  21   61.84    5.24   0
  -6  -4  -4   12.60    4.26   0
  -4  -4  -3   33.83    5.09   0
  -4  -4  -2   43.86    4.73   0
  -3  -3 -12   16.39    4.26   0
   1  -3 -11   12.80    4.95   0
  -6  -4   2   28.17    3.79   0
   0  -2 -14   18.04    3.80   0
   2  -2 -13   18.86    3.89   0
  -8  -4  -3   89.06    7.24   0
  -6  -4   1   13.40    3.90   0
  -5  -3 -11    7.65    3.44   0
  -1  -3 -11  153.55    5.70   0
   1  -3 -10   87.15    4.36   0
  -9  -3  -9    7.53    2.65   0
  -8  -4   3   19.42    4.24   0
  -6  -4  -2   34.51    4.51   0
  -6  -4  -1   21.98    4.22   0
  -6  -4   0    0.54    4.11   0
   1  -3  -9  114.60    4.62   0
  -8  -4  -1   39.36    5.03   0
  -7  -3 -10   73.55    3.59   0
   1  -3  -8  307.32    5.53   0
   6  -2  12   -8.07    6.93   0
  10   0   7    1.41    6.46   0
  11  -3   7   -3.95   10.04   0
   5  -1  12  263.89    8.24   0
   8   0   8   63.83    5.05   0
   9  -1  10   45.81    6.86   0
  12  -2   8   10.69    5.44   0
  15  -1   5    4.88    6.51   0
   7  -1  11   29.70    4.99   0
   9  -3   8   68.96    5.96   0
  12   0   5   -0.56    6.36   0
  14  -2   6    2.72    4.91   0
  14   0   3   -1.59    6.37   0
  16  -2   4    4.07    4.75   0
   4  -2  12  567.66   10.02   0
   7  -3   9   18.04    4.84   0
  -9  -1  19    5.14    5.52   0
  -8   0  19    2.32    5.04   0
  -6   0  22  305.40   10.46   0
  -3   1  18  752.23   10.82   0
  -9  -1  18    7.32    5.04   0
  -1  -1  23    1.86    5.20   0
   0   0  22   62.95    6.08   0
  -6  -2  20  193.89    8.04   0
  -6   0  21   -3.58    9.29   0
  -5  -1  23    3.39    4.45   0
  -4   0  22   13.17    9.49   0
  -3   1  17   59.36    6.10   0
  -1   1  18  240.67    8.19   0
   2   0  21   -9.52    5.98   0
   4   0  20   82.78    4.87   0
  -3  -1  23  -12.01   22.98   0
 -21  -1   4   -1.89    3.25   0
 -14  -2  -2  151.21    5.73   0
 -13  -1  -4   36.32    4.73   0
 -18  -2   2    4.07    4.39   0
 -17  -3   6   14.01    4.41   0
 -13  -3   2   97.41    4.48   0
 -11  -3   1   39.05    4.61   0
  -8  -2  -5   40.61    3.63   0
 -16  -2   0   11.52    3.93   0
 -15  -3   4   90.50    4.43   0
 -12  -2  -3   24.61    5.79   0
 -10  -2  -4   28.94    5.48   0
 -20  -2   5    3.32    3.60   0
 -19  -1   2  112.72    4.46   0
 -15  -1  -2  597.59    7.65   0
  -6   0   2  845.03    5.05   0
  -7   1   5    7.11    1.90   0
  -9   1   5  161.76    3.83   0
  -4   0   2 1009.93    3.81   0
   5   1  -2 1399.27    6.62   0
   8   0  -9    1.09    2.70   0
  -1  -1  -7   -4.77    2.16   0
  -8   0   3    1.58    2.75   0
  -6   0   3   -0.18    2.76   0
   8   0 -10 1358.74    6.62   0
  -3  -1  -5    4.93    2.82   0
  -1  -1  -6 1320.96    5.67   0
   1  -1  -8 2125.52    5.93   0
   4   0  -4   72.36    2.28   0
   5   1  -3   11.50    2.51   0
  -3  -1  -4  156.82    3.41   0
  -5   1   5   11.81    1.00   0
  -1  -1  -5  156.02    3.53   0
   3   1  -1   -1.45    3.30   0
   8   0 -11    2.09    2.39   0
   1  -1  -7   38.56    1.45   0
  -3  -1  -3   31.61    2.95   0
   8   0 -12   81.30    2.98   0
  -6   0   4 1414.14    5.57   0
   2   0  -2 2229.28    3.58   0
  -4   0   3   -3.43    1.57   0
   5   1  -4 2054.75    8.15   0
  -6   0  17   -0.17    7.90   0
  -5  -1   7   10.13    4.21   0
  -5  -1   8  318.89    6.72   0
  -3   1  15   -3.92    7.06   0
  -1   1  12   41.39    6.68   0
  -9  -1  15   43.30    6.78   0
  -5  -1   5   10.50    2.38   0
   0   0   7    3.40    5.88   0
   1   1   8   51.71    5.01   0
  -7  -1  13   11.13    6.21   0
  -5  -1   9    8.91    5.40   0
  -4   0  15    2.35    7.79   0
  -2   0  12 1269.01   12.09   0
  -9  -1  16   77.36    7.25   0
  -6   0  18  259.88    9.48   0
  -5  -1  10   -0.23    4.11   0
  -3   1  16   53.47    7.42   0
  -1   1  13    3.65    6.29   0
   0   0   8 1359.87    9.23   0
   1   1   9   12.19    4.87   0
  -7  -1  14   -1.05    6.77   0
  -5  -1  11   10.01    5.97   0
  -4   0  16  443.91    9.97   0
  -2   0  13  -10.38    7.37   0
   0   0   9   -4.08    6.10   0
  -9  -1  17    7.43    6.97   0
  -7  -1  15   12.69    6.78   0
  -5  -1  12   97.22    6.59   0
  -1   1  14  573.75    9.46   0
   1   1  10 1294.65   10.28   0
  -4   0  17    2.97    7.28   0
  -2   0  14  417.98    8.30   0
   0   0  10 1256.63    9.96   0
  -9  -1  18    9.53    6.86   0
  -7  -1  16   86.00    7.20   0
  -5  -1  13    4.89    4.48   0
  -3  -1   7   19.66    4.57   0
  -3  -1   8  293.56    6.40   0
   0   0  11    7.01    6.63   0
   1   1  11   34.37    5.58   0
  -5  -1  14  620.25    9.90   0
  -3  -1   6   -0.14    3.86   0
  -3  -1   9   28.00    4.22   0
  -2   0  15   -8.88    6.73   0
  -1   1  15    1.48    6.66   0
  -7  -1  17    0.96    7.23   0
  -5  -1  15    8.76    6.68   0
  -3  -1   5    5.48    2.90   0
   0   0  12  555.06    9.56   0
   1   1  12  958.97   10.12   0
   3   1   4  156.02    3.70   0
  -2   0  16  653.40   10.97   0
   2   0   5    3.13    5.02   0
   3   1   3   22.51    2.65   0
   3   1   5   -0.33    3.18   0
   0   0  13    8.84    6.33   0
   2   0   4 1521.87    7.89   0
   2   0   6  783.43    6.66   0
   3   1   6  612.78    5.87   0
  -5  -1  16  818.82   11.32   0
   2   0   7    0.66    3.83   0
   3   1   7   40.78    3.98   0
   1   1  13   12.66    5.52   0
   2   0   3   -1.99    3.08   0
   2   0   8  866.22    8.83   0
  -5  -1  17    8.40    6.98   0
   0   0  14   88.56    7.30   0
   2   0   9    5.66    5.82   0
   3   1   2 1220.99    4.53   0
   3   1   8 1600.36    9.68   0
  -3  -1   4  150.72    2.33   0
  -1  -1   8 2094.93   10.37   0
  -1  -1   9   87.68    5.98   0
   1   1  14  193.21    7.42   0
   2   0   2 1084.15    5.53   0
   2   0  10   84.89    6.77   0
   3   1   9   16.16    4.72   0
  -1  -1  10 1060.35   10.13   0
  -1  -1  11   21.36    6.60   0
   3   1  10  570.00    8.20   0
  -1  -1  12   40.66    6.68   0
  -1  -1  13   11.13    6.13   0
   3   1  11    2.59    3.77   0
  -1  -1   4  137.94    3.77   0
  -1  -1  14  586.18    9.95   0
   2   0   1    0.25    2.49   0
  -1  -1  15   11.81    6.74   0
   1  -1   7    4.87    4.77   0
   1  -1   8   45.09    3.82   0
   1  -1   9   11.41    5.59   0
   1  -1  10 1438.28   11.85   0
   2   0  14  488.38    9.80   0
   1  -1   6 1270.06    7.98   0
   1  -1  11   36.34    6.88   0
   4   0   9   -1.18    4.56   0
  -3  -1   3    0.06    1.48   0
   1  -1   5  164.63    4.67   0
   1  -1  12 1144.46   12.16   0
   4   0  10 1374.86   11.67   0
   1  -1  13   10.71    6.65   0
   4   0   3   -3.21    3.02   0
  -1  -1   3   19.53    3.34   0
   4   0  11    0.01    4.41   0
   5   1   5    1.91    3.70   0
   1  -1   4 1665.18    8.09   0
   4   0   2  765.77    5.84   0
   5   1   4 2210.59    8.53   0
   3  -1   8 1710.64   11.48   0
   3  -1   6  587.02    6.65   0
   3  -1   7   61.70    3.73   0
   3  -1   9   28.66    4.35   0
   3  -1  10  606.10    9.35   0
   1  -1   3   92.52    4.53   0
   3  -1  11    3.46    6.12   0
   3  -1   5    7.94    3.14   0
   3  -1  12   11.10    6.54   0
   5   1   3   32.20    2.62   0
   6   0   5   -1.18    5.07   0
   6   0   6  449.89    7.25   0
   6   0   7    0.04    5.17   0
   6   0   8 1482.13   11.55   0
   3  -1   4  163.17    5.24   0
   4   0   1    5.51    3.38   0
   6   0   9   -3.43    5.37   0
   6   0   4  207.09    4.43   0
   6   0  10  246.59    7.34   0
  -2  -2  11   81.80    6.65   0
  -2  -2  12  216.16    7.82   0
  -2  -2  13   13.88    6.53   0
  -2  -2  10  416.57    7.80   0
   2   0   0 2568.41    4.95   0
   3  -1   3   40.15    4.77   0
   6   0   3    3.29    4.69   0
  -2  -2   9   11.16    4.93   0
   5  -1   6  506.19    7.48   0
   5  -1   7   15.56    5.39   0
   5  -1   8   10.80    3.91   0
   5  -1   9    5.28    5.78   0
  -1  -1   2   12.19    2.19   0
   5  -1   5   12.93    4.63   0
   5  -1  10  121.74    6.83   0
   5   1   2 2011.13    6.04   0
   0  -2  10  551.25    8.94   0
   0  -2  11   79.55    7.06   0
   0  -2  12  110.51    7.28   0
  -2  -2   8    4.83    3.84   0
   0  -2   9   85.43    6.15   0
   5  -1   4 2274.24   12.08   0
   3  -1   2 1189.26    6.94   0
   0  -2   8  529.24    7.73   0
   4   0   0 2926.36    7.67   0
   5  -1   3   38.47    5.22   0
  -2  -2   7   22.47    3.26   0
   8   0   6  391.81    7.21   0
   8   0   7    0.40    5.05   0
   0  -2   7   91.06    4.86   0
   2  -2   9   18.10    5.71   0
   2  -2  10   36.61    6.06   0
   8   0   4 1984.45   11.61   0
   8   0   5   -0.67    3.27   0
   8   0   8   70.88    6.12   0
   2  -2   8  264.62    6.74   0
   5  -1   2 1945.22   10.00   0
   7  -1   6    0.02    5.33   0
   7  -1   7   -1.30    5.23   0
   7  -1   8  283.62    7.58   0
   7  -1   5   14.62    6.02   0
   8   0   3    4.67    4.99   0
   0  -2   6  104.10    4.11   0
   2  -2   7   37.62    4.04   0
   3  -1   1  477.45    6.05   0
   7  -1   4    2.99    5.46   0
   2  -2   6  158.15    5.49   0
   8   0   2 2304.42   11.05   0
   7  -1   3    4.79    3.81   0
   4  -2   8   56.94    6.10   0
   5  -1   1    8.98    3.87   0
   0  -2   5    2.29    3.53   0
   2  -2   5   12.21    4.30   0
   4  -2   7    1.73    5.29   0
   5   1   1    5.43    1.77   0
   7  -1   2  904.27    8.22   0
   4  -2   6   86.92    5.09   0
   8   0   1    2.37    2.71   0
   9  -1   6  299.01    8.15   0
   2  -2   4  681.01    7.10   0
   3  -1   0 9688.07   15.56   0
   4  -2   5   12.57    3.30   0
   7  -1   1   95.45    5.60   0
   9  -1   4  263.79    7.34   0
   9  -1   5    9.33    4.73   0
  10   0   5   -0.45    4.83   0
  10   0   6  303.44    7.11   0
   4   0  -1   -5.35    2.74   0
   5  -1   0   78.68    3.76   0
   9  -1   3    3.04    5.84   0
  10   0   4   57.24    5.04   0
   0  -2   4   11.65    3.09   0
   4  -2   4  246.44    5.92   0
   8   0   0 1014.67    7.29   0
  10   0   3   -3.12    5.08   0
   9  -1   2   73.31    5.41   0
  10   0   2  790.72    8.20   0
   7  -1   0 3601.47   13.67   0
  -1  -1   1   44.97    1.48   0
   2  -2   3   65.21    4.47   0
   4  -2   3   43.73    5.11   0
   9  -1   1   -1.22    5.27   0
  10   0   1    0.94    4.13   0
   5  -1  -1    3.39    4.28   0
   8   0  -1   -4.05    4.01   0
   7  -1  -1  135.94    5.68   0
   9  -1   0   14.78    5.58   0
   0  -2   3   23.59    2.85   0
   4  -2   2  348.31    5.41   0
  10   0   0 3082.65   13.07   0
   2  -2   2  292.12    4.66   0
   3  -1  -1   13.25    3.60   0
   6  -2   2  133.65    6.10   0
   8  -2   3  113.16    6.75   0
   9  -1  -1    6.19    5.10   0
   2   0  -1    1.72    1.37   0
  10   0  -1   -7.03    4.30   0
   4  -2   1  334.22    6.87   0
   6  -2   1  131.05    6.21   0
   7  -1  -2 2029.08   10.02   0
   8   0  -2  190.93    4.56   0
  11  -1   0  311.89    7.10   0
   5  -1  -2 1382.71    7.46   0
  12   0   1   -4.52    4.40   0
   9  -1  -2 1025.95    8.58   0
   2  -2   1   87.64    4.03   0
  11  -1  -1    4.36    3.58   0
  12   0   0   40.30    4.77   0
   0  -2   2  786.70    5.31   0
   6  -2   0  829.55    7.99   0
  10   0  -2 2712.00   11.77   0
   4  -2   0 2198.55   10.84   0
   4   0  -2  983.15    4.07   0
  11  -1  -2   71.83    5.59   0
   7  -1  -3   95.66    5.20   0
   9  -1  -3   89.52    5.24   0
  12   0  -1   -4.85    4.70   0
   8   0  -3    4.50    3.72   0
  10  -2   0  543.46    9.08   0
   3  -1  -2  823.96    4.82   0
   6  -2  -1   38.04    5.24   0
  13  -1  -1    2.52    5.81   0
   5  -1  -3   25.51    4.18   0
  10   0  -3    4.07    4.28   0
  11  -1  -3   -6.80    3.95   0
  12   0  -2  903.48    8.60   0
  10  -2  -1   59.15    6.30   0
   2  -2   0   46.40    3.73   0
   4  -2  -1  102.69    4.82   0
   9  -1  -4 2307.13   11.61   0
   7  -1  -4  131.12    5.18   0
  11  -1  -4    4.70    5.21   0
   6  -2  -2  408.94    5.70   0
  10  -2  -2  660.67    8.60   0
  12   0  -3    3.21    4.30   0
   8   0  -4  252.50    4.70   0
  10   0  -4  317.90    5.48   0
   9  -1  -5  203.11    6.05   0
  10  -2  -3   63.26    6.78   0
   4  -2  -2  349.40    5.63   0
  11  -1  -5   31.97    4.37   0
  12   0  -4 2245.88   11.68   0
   5  -1  -4 1949.08    8.45   0
   6  -2  -3  108.69    5.47   0
  -5   1  -8    6.02    3.14   0
  -4   0  -6 1152.30    6.99   0
  -4   0  -5   -3.19    3.12   0
  -2   0 -13   -4.08    2.95   0
   1  -1 -11   23.20    3.08   0
   1  -1  -7   73.15    3.12   0
  -5   1  -2 2032.37    6.22   0
  -4   0  -8  215.92    4.61   0
  -4   0  -7   -0.41    2.53   0
  -4   0  -4  213.55    3.53   0
   1  -1 -12   39.77    3.36   0
  -5   1  -9   -6.05    3.46   0
   1  -1  -6  758.06    4.39   0
   3  -1 -16   47.35    4.26   0
  -4   0  -9   -1.72    2.81   0
  -4   0  -3    0.26    2.71   0
   1  -1 -13    6.04    3.25   0
   3  -1  -5    0.59    1.01   0
  -5   1 -10  117.46    4.31   0
  -4   0 -10 1270.69    8.81   0
  -5   1  -1    9.81    1.78   0
  -4   0 -11   -2.89    2.82   0
  -4   0  -2  771.30    4.39   0
   1  -1 -15   11.10    3.93   0
   1  -1  -5   28.73    2.30   0
  -4   0 -12 1072.22    9.59   0
  -6   0  -5    0.35    3.50   0
  -7   1  -6   -1.20    3.24   0
  -7   1  -5   19.18    2.90   0
  -6   0  -4  247.77    4.09   0
  -4   0  -1    0.79    1.81   0
  -7   1  -7   -0.41    3.39   0
  -7   1  -4    4.60    2.51   0
   1  -1  -4  154.39    2.22   0
  -7   1  -3    3.93    2.76   0
  -6   0  -3   -1.00    3.05   0
  -3  -1 -10  550.81    6.27   0
  -3  -1  -9   38.23    3.55   0
  -3  -1  -8 1749.08    8.90   0
  -3  -1  -7   93.90    3.86   0
  -2   0   0 2420.86    3.95   0
  -5   1   0   82.77    1.71   0
  -3  -1 -11    2.94    3.86   0
  -3  -1  -6  664.52    5.60   0
  -3  -1 -12    4.25    4.44   0
  -7   1  -2  868.93    4.85   0
  -6   0  -2  151.41    3.02   0
  -3  -1  -5   10.60    3.23   0
   3  -1  -4  172.27    1.26   0
  -4   0   0 2993.92    6.37   0
  -3  -1  -4  147.85    2.90   0
  -8   0  -7    1.60    3.39   0
  -8   0  -6  392.89    5.52   0
  -8   0  -5   -0.25    3.56   0
  -7   1  -1   82.07    2.54   0
  -5  -1  -9    5.87    3.39   0
  -5  -1  -8   11.02    3.62   0
  -5  -1  -7    5.74    3.71   0
  -8   0  -8   66.57    4.41   0
  -8   0  -4 2161.46   10.01   0
  -5  -1 -10  122.06    4.85   0
  -5  -1  -6  534.34    5.64   0
  -8   0  -3   -5.47    3.37   0
  -5  -1  -5    2.84    3.27   0
  -3  -1  -3   30.67    3.23   0
   1  -1  -3   14.50    1.75   0
  -8   0  -2 2365.79    9.43   0
  -5  -1  -4 2191.92    9.05   0
  -5  -1  -3   34.81    3.38   0
  -8   0  -1   -1.00    3.48   0
  -7  -1  -8  285.07    5.93   0
  -7  -1  -7    3.00    3.64   0
  -7   1   0 3695.45    7.77   0
  -3  -1  -2 1264.91    5.72   0
  -7  -1  -6    0.54    2.61   0
  -7  -1  -5    4.45    3.87   0
  -7  -1  -4    2.75    3.58   0
 -10   0  -6  329.54    5.63   0
 -10   0  -5   -6.62    3.83   0
 -10   0  -4   51.02    3.75   0
  -5  -1  -2 2052.97    8.00   0
  -4   0   1   -2.69    2.02   0
 -10   0  -3    1.94    3.40   0
  -8   0   0 1143.38    6.81   0
  -7  -1  -3    1.64    3.57   0
 -10   0  -2  880.65    6.93   0
  -7  -1  -2  906.36    6.05   0
  -5  -1  -1   12.71    3.10   0
  -5   1   1    2.41    0.94   0
  -3  -1  -1  477.82    4.71   0
  -2  -2 -10   41.66    4.68   0
  -2  -2  -9    8.79    4.14   0
 -10   0  -1   -2.60    3.66   0
  -9  -1  -6  272.26    4.80   0
  -9  -1  -5   16.85    3.62   0
  -9  -1  -4  211.34    4.17   0
  -8   0   1   -3.78    3.36   0
  -2  -2  -8  282.43    5.34   0
  -9  -1  -3    4.56    3.82   0
  -7  -1  -1   70.61    2.91   0
  -2  -2  -7   33.14    4.01   0
 -10   0   0 2713.04   10.43   0
  -4  -2  -8   65.71    4.53   0
  -9  -1  -2   64.02    3.17   0
  -4  -2  -7    0.57    3.94   0
 -12   0  -3    7.74    3.70   0
  -7  -1   0 3721.45   11.19   0
  -5  -1   0   72.19    2.48   0
  -2  -2  -6  195.06    4.24   0
 -12   0  -2  627.94    6.95   0
 -10   0   1    5.58    3.52   0
  -9  -1  -1    0.76    2.42   0
  -4  -2  -6  101.35    4.50   0
  -2   0   1    0.32    0.97   0
  -8   0   2  208.07    3.86   0
  -3  -1   0 9910.17   12.81   0
   1  -1  -2    9.83    1.06   0
 -12   0  -1   -0.84    3.44   0
 -11  -1  -3   24.57    3.89   0
  -9  -1   0   16.22    3.80   0
  -4  -2  -5   11.12    3.71   0
  -2  -2  -5   19.38    3.22   0
 -11  -1  -2  664.13    6.94   0
  -6  -2  -6  449.37    6.14   0
 -12   0   0   45.84    3.57   0
 -10   0   2 2764.99   10.41   0
  -7  -1   1  134.11    4.03   0
  -6  -2  -5   28.87    4.34   0
 -11  -1  -1   48.00    3.83   0
  -5  -1   1    4.45    2.97   0
  -4  -2  -4  261.85    4.76   0
  -4   0   2 1051.38    3.58   0
 -12   0   1    3.14    3.26   0
  -9  -1   1   11.02    3.47   0
  -6  -2  -4   66.06    4.28   0
  -2  -2  -4  731.89    5.48   0
 -11  -1   0  301.95    5.42   0
   0  -2  -5    1.28    2.22   0
  -8  -2  -4  679.94    7.84   0
  -8   0   3    0.14    2.99   0
  -6  -2  -3    4.53    3.64   0
  -4  -2  -3   50.24    3.55   0
 -12   0   2  893.47    7.06   0
 -11  -1   1    9.45    3.90   0
 -10   0   3   -4.50    3.17   0
  -7  -1   2 2039.36    8.17   0
  -9  -1   2  910.01    6.16   0
  -8  -2  -3  118.87    5.19   0
  -6  -2  -2  121.65    4.31   0
  -3  -1   1    4.92    2.54   0
  -2  -2  -3   67.04    3.06   0
 -11  -1   2   81.68    4.44   0
  -8  -2  -2  631.24    6.95   0
  -5  -1   2 1374.54    5.97   0
  -4  -2  -2  386.45    4.64   0
 -14   0   1   -1.32    3.53   0
 -12   0   3    2.78    3.30   0
  -9  -1   3   75.80    3.95   0
  -8  -2  -1   55.40    4.55   0
  -6  -2  -1  123.22    4.23   0
 -11  -1   3   -6.00    4.05   0
 -10   0   4  282.84    4.15   0
  -7  -1   3  105.26    3.80   0
 -14   0   2  613.34    6.34   0
  -8   0   4  244.45    3.46   0
  -4  -2  -1  338.63    4.87   0
  -2  -2  -2  301.20    3.63   0
 -12   0   4 2427.64   10.22   0
  -6  -2   0  841.97    6.64   0
 -14   0   3    1.71    3.06   0
 -11  -1   4    2.98    4.04   0
  -9  -1   4 2269.00    9.34   0
  -5  -1   3   16.02    2.11   0
 -14   0   4   45.01    3.56   0
 -13  -1   4  276.95    5.05   0
 -10   0   5    2.52    2.83   0
  -7  -1   4  132.83    3.75   0
  -6  -2   1   34.45    3.45   0
  -4  -2   0 2063.65    8.35   0
  -3  -1   2  874.08    4.40   0
 -12   0   5   -1.77    3.09   0
 -11  -1   5   45.88    3.40   0
 -10  -2   2  631.44    6.94   0
  -4   0   3   -2.82    1.74   0
  -2  -2  -1   86.11    2.69   0
 -13  -1   5    4.98    4.14   0
  -9  -1   5  172.82    3.70   0
 -14   0   5    0.68    3.21   0
  -8   0   5   -0.09    1.84   0
   1  -1  -1   39.55    1.14   0
 -10  -2   3   46.21    4.18   0
  -6  -2   2  424.55    4.99   0
 -12   0   6  461.01    4.98   0
 -11  -1   6  594.99    6.44   0
  -4  -2   1   82.38    3.20   0
 -13  -1   6    3.27    3.11   0
 -10   0   6 1156.15    6.13   0
  -7  -1   5   14.26    3.30   0
  -5  -1   4 1907.18    6.75   0
 -14   0   6  427.91    5.46   0
 -10  -2   4   63.46    4.07   0
  -9  -1   6  716.13    5.88   0
 -15  -1   6  397.79    6.95   0
  -2  -2   0   36.70    2.35   0
  -6  -2   3  112.99    3.71   0
 -13  -1   7    1.08    2.90   0
 -11  -1   7   31.86    4.04   0
  -3  -1   3   -2.96    2.59   0
 -15  -1   7    3.38    5.03   0
 -12  -2   5  100.02    4.41   0
 -12   0   7   -0.65    2.87   0
 -10  -2   5   -3.36    3.65   0
  -4  -2   2  317.24    4.05   0
 -14   0   7    3.87    3.23   0
  -8   0   6 1158.60    5.47   0
  -9  -1   7    7.55    3.27   0
  -7  -1   6 1570.89    7.24   0
  -2   0   2 2263.35    3.62   0
 -13  -1   8   12.03    3.81   0
 -12  -2   6  468.34    6.71   0
 -10   0   7    1.94    2.81   0
 -15  -1   8  313.75    5.63   0
 -11  -1   8 2161.03   10.47   0
 -10  -2   6   96.64    4.26   0
  -6  -2   4  664.62    5.70   0
  -5  -1   5    9.39    2.99   0
  -2  -2   1   32.13    2.32   0
 -14   0   8 1745.06    9.29   0
 -12   0   8  230.07    3.98   0
  -4  -2   3   36.48    3.03   0
 -15  -1   9    2.03    4.29   0
 -13  -1   9   15.09    3.71   0
 -12  -2   7   27.47    3.12   0
  -9  -1   8   54.93    3.66   0
  -4   0   4   76.22    2.25   0
 -10  -2   7   36.27    3.19   0
  -7  -1   7  102.30    3.82   0
  -6  -2   5  153.84    3.95   0
 -12  -2   8   68.74    4.30   0
 -11  -1   9   88.03    3.70   0
  -8   0   7   -3.19    2.85   0
  -3  -1   4  142.43    2.43   0
 -15  -1  10  159.71    5.44   0
 -14   0   9    5.93    3.17   0
 -10   0   8  777.59    5.05   0
 -13  -1  10  726.81    7.49   0
  -5  -1   6  839.62    5.25   0
 -12   0   9   -3.22    3.03   0
 -10  -2   8  290.23    5.47   0
  -4  -2   4    6.32    2.87   0
  -2  -2   2  766.64    4.79   0
 -12  -2   9   -2.96    3.71   0
 -15  -1  11    3.64    4.18   0
 -11  -1  10 1827.14   10.16   0
  -9  -1   9    1.95    2.43   0
  -6  -2   6  120.35    3.86   0
  -7  -1   8 2870.01    9.85   0
 -14   0  10 1588.40    9.23   0
 -12  -2  10   45.26    4.38   0
 -10  -2   9   79.42    3.77   0
 -10   0   9   -3.80    3.21   0
   1  -1   0 1947.60    3.65   0
 -12   0  10  107.12    3.78   0
  -8   0   8 2392.46    8.51   0
  -4  -2   5   10.46    2.94   0
  -3  -1   5    5.09    2.87   0
 -12   0  -1   -1.17    3.53   0
 -10   0   3   -0.12    3.37   0
  -9   1   7    4.83    1.92   0
  -5   1   6  872.77    2.36   0
 -13   1   6    2.70    3.58   0
 -12   0  -2  544.09    6.25   0
 -12   0   0   47.28    4.14   0
 -12   0   1    8.61    3.74   0
 -11   1   7   28.89    3.02   0
 -12   0   2  841.64    6.84   0
 -10   0   4  301.75    4.60   0
  -8   0   4  239.34    3.10   0
 -15   1   5   11.92    4.05   0
 -13   1   7    3.71    3.43   0
 -12   0   3    0.21    3.84   0
 -15   1   6  354.74    6.22   0
 -12   0   4 2289.63   10.51   0
  -6   0   4 1459.14    4.95   0
 -14   0   1    2.64    3.51   0
 -10   0   5   -1.45    3.08   0
 -14   0   2  611.94    6.88   0
 -11   1   8 2113.63    8.36   0
  -8   0   5    0.59    2.87   0
 -15   1   7   11.98    4.25   0
 -14   0   3   -4.61    3.41   0
 -13   1   8   14.01    3.21   0
 -12   0   5   -3.36    3.54   0
  -5  -1  -7   -0.49    3.77   0
  -5  -1  -6  462.82    5.62   0
  -5  -1  -5   -4.23    3.44   0
 -14   0   4   42.94    2.95   0
  -5  -1  -4 2040.76    8.96   0
  -3  -1  -6  515.23    4.62   0
  -7  -1  -6    0.72    4.17   0
  -7  -1  -5   14.00    4.26   0
  -7  -1  -4    0.72    4.10   0
  -3  -1  -5    6.13    2.64   0
  -7  -1  -7   10.92    3.72   0
  -7  -1  -3   -0.33    2.80   0
  -5  -1  -3   31.79    3.49   0
  -7  -1  -2  998.94    7.36   0
  -9  -1  -5   19.80    4.62   0
  -9  -1  -4  248.54    4.97   0
  -9  -1  -3    8.45    3.26   0
  -9  -1  -2   73.45    4.41   0
  -5  -1  -2 2045.36    8.11   0
  -3  -1  -4  134.50    2.93   0
  -1  -1  -7    0.88    1.64   0
 -12   0   7   -0.08    3.24   0
  -9  -1  -6  277.99    5.88   0
 -14   0   7    2.22    3.45   0
 -11  -1  -3   26.79    4.80   0
 -11  -1  -2  741.61    8.67   0
 -11  -1  -1   36.87    4.85   0
 -10   0   7   -1.15    2.97   0
  -7  -1   0 3792.68   11.64   0
  -3  -1  -3   38.01    2.71   0
  -1  -1  -6 1390.75    4.81   0
  -9  -1   1   10.24    3.93   0
 -11  -1   1    7.05    3.98   0
  -4   0   4   66.76    1.86   0
 -16   0   7    0.15    3.90   0
 -14   0   8 1808.88    9.90   0
 -12   0   8  261.11    4.24   0
  -7  -1   1  138.09    4.33   0
 -11  -1   2   82.95    4.65   0
  -9  -1   2 1051.97    7.37   0
  -5  -1   0   84.99    3.40   0
  -1  -1  -5  139.66    2.14   0
 -13  -1   1    6.55    4.57   0
  -3  -1  -2 1178.25    5.28   0
 -16   0   8   69.63    3.45   0
 -13  -1   2  793.25    8.46   0
 -11  -1   3   -0.04    4.16   0
 -10   0   8  982.05    5.71   0
 -14   0   9   -2.11    3.41   0
 -13  -1   3    8.54    4.15   0
  -9  -1   3   78.17    3.21   0
  -7  -1   2 2042.35    7.90   0
 -11  -1   4    5.90    3.79   0
 -16   0   9    4.54    3.71   0
 -13  -1   4  301.48    5.96   0
 -12   0   9    1.90    2.07   0
  -5  -1   1    4.03    3.13   0
  -9  -1   4 2293.39    9.66   0
  -1  -1  -4 1639.22    4.65   0
 -13  -1   5   -4.13    4.19   0
 -11  -1   5   64.76    4.21   0
  -7  -1   3  104.85    3.81   0
 -16   0  10  333.26    6.03   0
 -14   0  10 1657.52    9.33   0
 -13  -1   6    5.45    4.01   0
 -10   0   9    0.54    2.57   0
  -9  -1   5  226.61    4.73   0
  -5  -1   2 1372.78    6.22   0
 -15  -1   6  330.14    5.46   0
 -12   0  10  103.19    3.43   0
 -11  -1   6  554.32    5.43   0
  -8   0   8 2023.64    6.58   0
 -16   0  11    1.89    3.69   0
 -13  -1   7   -4.31    4.05   0
  -7  -1   4  130.03    3.03   0
  -3  -1   0 9398.28   12.63   0
 -15  -1   7   14.12    2.99   0
 -14   0  11    3.72    3.14   0
  -1  -1  -3   47.01    1.82   0
 -11  -1   7   38.31    4.03   0
  -9  -1   6  726.48    5.98   0
 -15  -1   8  332.10    6.06   0
 -13  -1   8    6.59    2.80   0
  -5  -1   3   23.33    3.15   0
 -12   0  11    1.80    2.62   0
  -7  -1   5    9.51    2.38   0
  -6   0   7    0.99    1.98   0
 -15  -1   9    5.82    4.11   0
 -11  -1   8 2096.11   10.10   0
 -10   0  10 1888.27    7.27   0
 -14   0  12  132.88    3.99   0
 -13  -1   9   10.12    3.67   0
  -9  -1   7    3.70    3.31   0
  -3  -1   1    4.50    1.92   0
  -1  -1  -2  772.97    3.46   0
  -8   0   9    3.03    2.03   0
 -10  -2  -1   83.68    5.83   0
  -7  -1   6 1611.58    7.32   0
  -5  -1   4 1886.50    7.06   0
 -11  -1   9  118.30    4.29   0
 -10  -2   0  438.60    7.33   0
  -2   0   3    0.27    0.92   0
 -10  -2   1   50.42    5.21   0
  -9  -1   8   59.26    3.56   0
  -8  -2  -1   44.52    4.41   0
 -15  -1  11    1.53    3.65   0
 -12   0  12  648.15    5.32   0
 -10  -2   2  610.74    7.68   0
  -8  -2   0   42.23    4.36   0
 -10   0  11   -2.02    2.72   0
  -8  -2   1   -1.86    3.90   0
  -6  -2  -3    2.03    3.36   0
  -3  -1   2  845.42    4.25   0
 -10  -2   3   50.67    4.55   0
  -6  -2  -2  107.36    4.15   0
 -13  -1  11   32.53    2.99   0
  -8  -2   2  135.13    4.72   0
  -7  -1   7  104.58    3.54   0
  -6  -2  -1  137.28    4.35   0
 -15  -1  12   12.18    3.79   0
  -5  -1   5    9.86    2.26   0
  -9  -1   9   -0.54    2.50   0
  -6  -2   0  772.90    6.85   0
  -6   0   8    2.76    1.82   0
 -12  -2   6  479.03    6.39   0
  -8  -2   3   25.08    3.04   0
  -8   0  10 1376.72    5.67   0
 -13  -1  12 1400.81    8.93   0
  -6  -2   1   40.06    3.81   0
  -4   0   6 1034.90    3.49   0
 -15  -1  13    4.91    3.96   0
 -12  -2   7   39.42    4.31   0
  -4  -2  -3   54.98    3.08   0
  -3  -1   3    4.45    2.00   0
 -10  -2   6   93.53    3.56   0
  -7  -1   8 2788.99    9.41   0
  -6  -2   2  404.60    4.64   0
  -5  -1   6  806.82    5.32   0
  -4  -2  -2  356.30    4.42   0
 -12  -2   8   76.13    3.60   0
  -8  -2   5   82.72    4.18   0
  -4  -2  -1  374.07    4.69   0
 -13  -1  13   68.79    4.11   0
 -10  -2   7   43.98    3.12   0
  -6  -2   3  114.26    4.22   0
 -15  -1  14  257.24    5.51   0
 -12  -2   9    4.98    3.98   0
 -11  -1  12   60.86    3.46   0
  -8  -2   6  176.13    4.79   0
  -4  -2   0 2022.86    8.70   0
  -3  -1   4  171.57    3.41   0
 -10  -2   8  275.97    4.74   0
  -7  -1   9  119.34    3.66   0
  -5  -1   7    7.09    3.04   0
  -4  -2   1   92.51    3.77   0
 -13  -1  14  744.66    7.07   0
 -12  -2  10   44.42    3.20   0
  -8  -2   7   43.46    4.34   0
  -8   0  11   -0.40    1.89   0
  -6   0   9    0.89    1.75   0
 -15  -1  15   20.37    2.79   0
 -10  -2   9  111.08    4.89   0
  -1  -1   1   27.59    1.82   0
 -11  -1  13    5.45    3.24   0
  -6  -2   5   98.12    3.21   0
  -4  -2   2  310.84    4.65   0
 -12  -2  11    5.40    3.88   0
  -2  -2  -3   81.12    2.83   0
  -8  -2   8  614.18    6.87   0
  -3  -1   5    2.94    2.97   0
 -10  -2  10  529.45    6.18   0
  -9  -1  12 1162.85    7.21   0
  -6  -2   6  125.42    4.44   0
  -4   0   7    1.53    1.54   0
  -2  -2  -2  312.86    3.62   0
  -2   0   4 3062.33    4.28   0
 -13  -1  15    5.83    3.53   0
 -11  -1  14  424.15    5.44   0
  -2  -2  -1   85.54    2.98   0
  -1  -1   2   12.52    2.61   0
   1  -1  -4  155.01    1.33   0
 -10  -2  11   42.97    3.97   0
  -8  -2   9   75.50    3.71   0
  -6  -2   7   -2.45    2.69   0
  -2  -2   0   37.42    2.97   0
  -3  -1   6   -3.69    3.01   0
 -13  -1  16   37.58    3.80   0
  -9  -1  13   58.52    3.75   0
  -8  -2  10  464.51    6.35   0
  -8   0  12   81.71    2.23   0
 -10  -2  12  261.64    5.45   0
  -6  -2   8    8.39    4.06   0
  -6   0  10 3043.05    7.13   0
  -5  -1   9    4.82    3.02   0
  -4  -2   5    9.26    3.55   0
  -2  -2   1   34.89    3.20   0
   1  -1  -3    6.74    1.20   0
 -11  -1  15   27.94    3.37   0
  -1  -1   3    9.38    2.62   0
  -8  -2  11   13.41    3.77   0
  -4  -2   6  825.26    6.86   0
  -2  -2   2  802.74    5.85   0
 -10  -2  13   81.71    4.55   0
  -7  -1  12  109.95    3.55   0
  -6  -2   9   47.26    4.28   0
  -3  -1   7   13.84    2.89   0
  -9  -1  14  665.96    6.05   0
   1  -1  -2    7.70    1.35   0
  -4   0   8 4535.83    7.88   0
 -11  -1  16  858.25    7.00   0
  -8  -2  12   15.71    3.63   0
  -4  -2   7  272.17    5.15   0
  -1  -1   4  145.67    3.16   0
  -6  -2  10  858.02    7.70   0
   0  -2  -3   26.35    1.74   0
  -7  -1  13   10.94    3.09   0
  -3  -1   8  286.08    3.94   0
   0  -2  -2  805.40    4.64   0
  -9  -1  15   34.63    3.28   0
  -6   0  11    0.64    1.96   0
  -5  -3   3  151.15    5.05   0
  -4  -2   8 1528.48    8.68   0
   0  -2  -1  261.96    3.40   0
  -8  -2  13   15.57    2.93   0
  -6  -2  11  200.33    5.15   0
  -5  -3   4  366.55    6.14   0
  -5  -1  11   29.49    3.29   0
  -2  -2   5  237.68    4.53   0
  -1  -1   5   15.57    2.89   0
   0  -2   0 3231.09    9.49   0
   1  -1   0 1946.54    5.02   0
  -4  -2   9  249.58    4.95   0
  -2  -2   6  822.47    6.72   0
   0  -2   1  262.81    4.03   0
  -7  -1  14    4.74    3.17   0
  -6  -2  12 1102.79    8.44   0
  -3  -1   9   15.22    2.15   0
  -9  -1  16   79.09    3.52   0
  -5  -1  12  102.24    3.39   0
  -4   0   9   -2.62    2.30   0
  -1  -1   6  710.08    4.65   0
   0  -2   2  810.08    5.73   0
   1  -1   1  249.52    2.89   0
  -4  -2  10  848.82    7.61   0
  -3  -3   3   54.37    3.98   0
  -2  -2   7   17.09    2.88   0
 -16   0  12 1254.45   13.19   0
 -12   0  12  644.66    7.61   0
  -8   0  10 1289.34    8.51   0
 -11   1  15   32.23    5.04   0
 -16   0  13   -1.60    5.51   0
 -14   0  13    4.97    5.34   0
 -13   1  16   40.81    5.81   0
  -9   1  14  748.52    7.65   0
 -12   0  13    4.18    5.34   0
 -10   0  12 1545.37   10.42   0
  -6   0   9   -5.47    4.22   0
  -5   1  11   28.48    3.46   0
  -2   0   4 2557.89    5.84   0
  -4   0   7   -3.20    3.71   0
 -16   0  14  562.91    9.48   0
 -14   0  14  115.91    6.23   0
  -8   0  11   -0.06    4.51   0
  -7   1  13    0.57    3.65   0
  -3   1   9   24.53    2.04   0
 -13   1  17   28.12    5.79   0
 -12   0  14  814.03    8.95   0
 -11   1  16  903.07    9.15   0
 -14   0  15    1.12    4.78   0
 -10   0  13   -0.64    3.38   0
  -9   1  15   24.01    4.42   0
  -6   0  10 4179.08   12.66   0
 -12   0  15    0.79    4.67   0
 -14   0  16  815.13   10.07   0
 -11  -1   4    2.35    4.11   0
 -11  -1   5   30.43    4.89   0
 -11  -1   6  524.72    7.14   0
  -9  -1   3   77.07    4.11   0
  -2   0   5    2.84    2.65   0
 -11  -1   7   26.31    5.09   0
  -9  -1   5  179.84    5.45   0
 -13  -1   7   -0.78    5.19   0
 -13  -1   8   14.29    5.36   0
  -9  -1   6  619.14    6.72   0
 -13  -1   9    6.63    5.45   0
 -11  -1   8 2050.88   11.97   0
 -14   0  17   -8.45    5.25   0
  -9  -1   7   -3.12    4.89   0
  -7  -1   2 2102.69    8.26   0
  -7  -1   3  122.50    3.73   0
 -15  -1   9    1.42    5.34   0
 -15  -1  10  161.37    6.54   0
 -13  -1  10  732.63    9.01   0
 -11  -1   9   83.05    4.53   0
  -7  -1   1  144.93    3.22   0
  -7  -1   4  125.98    4.30   0
  -7  -1   5   13.29    4.23   0
 -15  -1  11   -5.97    4.07   0
 -13  -1  11   41.60    4.18   0
 -15  -1  12   18.40    5.49   0
 -12   0  17    2.36    4.45   0
  -9  -1   9    9.16    4.83   0
  -8   0  14  646.76    6.86   0
  -6   0  12 1289.48    7.96   0
 -11  -1  11   50.04    5.39   0
 -15  -1  13   -2.25    5.42   0
 -10   0  16    2.58    3.18   0
  -7  -1   7  102.39    4.85   0
 -13  -1  13   62.11    4.66   0
 -11  -1  12   57.23    5.47   0
  -9  -1  10 1193.17    9.15   0
 -12   0  18  330.21    6.75   0
  -7  -1   8 2633.92   11.00   0
  -4   0  10 3520.54   10.54   0
 -13  -1  14  748.56    9.26   0
  -9  -1  11    9.45    4.80   0
  -8   0  15    4.52    3.93   0
  -5  -1   2 1495.01    6.16   0
  -5  -1   3   26.14    3.25   0
 -11  -1  13   -6.86    5.25   0
 -10   0  17   -0.49    4.21   0
  -6   0  13    0.05    3.76   0
  -7  -1   9  144.21    4.95   0
  -5  -1   1    4.07    1.76   0
 -13  -1  15    4.66    3.71   0
  -9  -1  12 1212.24    9.47   0
  -5  -1   5    4.17    2.77   0
 -11  -1  14  370.73    6.24   0
  -5  -1   6  798.99    6.26   0
 -13  -1  16   32.49    5.51   0
  -8   0  16 1130.84    8.69   0
  -7  -1  10 2105.53    9.95   0
  -5  -1   0   81.68    1.60   0
  -4   0  11    3.59    3.25   0
 -10   0  18  874.11    8.79   0
  -9  -1  13   71.50    5.30   0
  -6   0  14  581.75    5.97   0
 -11  -1  15   34.70    3.97   0
  -5  -1   7    4.30    2.82   0
  -7  -1  11   -1.96    2.99   0
  -2   0   8    3.86    2.81   0
  -9  -1  14  715.05    8.25   0
  -5  -1   8  319.87    5.35   0
  -4   0  12   89.77    3.58   0
 -10   0  19   -2.42    4.05   0
  -8   0  17   -2.04    3.78   0
  -7  -1  12   80.25    3.73   0
  -5  -1   9   -0.46    4.23   0
  -9  -1  15   36.62    4.88   0
  -6   0  15    0.02    3.51   0
 -11  -1  17   88.32    5.52   0
  -2   0   9    1.33    2.66   0
  -7  -1  13   14.27    3.15   0
  -5  -1  -1    8.37    0.87   0
  -5  -1  10    8.60    4.02   0
  -3  -1   3    3.76    1.99   0
  -3  -1   4  164.33    2.84   0
   0   0   3   -2.71    1.65   0
  -9  -1  16   78.16    4.94   0
  -4   0  13    3.85    3.11   0
  -3  -1   5   -2.77    2.41   0
  -7  -1  14    0.91    4.18   0
  -5  -1  11   39.74    4.18   0
  -3  -1   6    5.76    3.65   0
  -6   0  16    7.68    3.65   0
  -3  -1   1    7.82    1.71   0
  -3  -1   7   12.77    3.90   0
  -2   0  10  965.08    5.46   0
  -5  -1  12  101.70    4.69   0
 -12  -2  10   35.99    5.50   0
 -12  -2  11    5.66    5.20   0
  -3  -1   8  286.11    4.83   0
 -12  -2  12  104.54    5.98   0
 -10  -2   9  103.69    5.45   0
  -4   0  14  442.33    5.11   0
 -10  -2   8  277.63    6.25   0
 -10  -2  10  530.79    8.01   0
 -10  -2  11   30.70    5.22   0
  -3  -1   0 9999.99    9.77   0
  -3  -1   9   34.76    3.93   0
   0   0   5   -2.33    1.93   0
 -10  -2  12  223.48    6.56   0
  -7  -1  16   85.35    4.71   0
  -2   0  11   -0.20    2.37   0
  -8  -2   7   54.15    4.50   0
  -8  -2   8  599.92    7.30   0
  -8  -2   9  124.05    5.23   0
  -3  -1  10 2179.95    9.89   0
   0   0   6  891.72    4.13   0
  -8  -2   6  188.17    4.72   0
  -8  -2  10  388.43    6.82   0
  -7  -1  17    3.04    4.18   0
  -8  -2   5   71.25    3.67   0
  -8  -2  12   20.64    4.61   0
  -3  -1  11   73.88    3.21   0
  -8  -2  13   24.80    4.89   0
  -5  -1  15   10.56    3.86   0
  -2   0  12  819.33    5.17   0
  -1  -1   4  139.97    3.43   0
   0   0   7   -1.26    1.91   0
  -6  -2   6  112.69    4.07   0
  -6  -2   7    2.66    3.80   0
  -6  -2   8    4.96    4.43   0
  -1  -1   3   10.14    2.94   0
  -1  -1   5    6.13    2.52   0
  -8  -2  14  442.27    7.45   0
  -6  -2  10  758.68    7.88   0
  -1  -1   6  518.40    4.31   0
  -6  -2   5  139.85    4.00   0
  -6  -2  11  197.93    5.56   0
  -1  -1   2    4.54    1.92   0
  -1  -1   7   72.05    3.76   0
  -5  -1  16  766.01    7.83   0
  -3  -1  -1  554.86    2.35   0
   0   0   8 1444.13    5.19   0
  -6  -2   4  615.84    4.97   0
  -6  -2  12  949.96    9.03   0
  -3  -1  13   28.27    3.77   0
  -2   0  13   -0.08    1.78   0
  -1  -1   8 1812.27    7.89   0
  -1  -1   1   68.32    2.72   0
  -6  -2  13  103.88    4.17   0
  -1  -1   9   42.77    2.76   0
  -6  -2   3  101.10    2.82   0
  -5  -1  17    2.79    4.06   0
  -4  -2   5    8.96    2.94   0
  -4  -2   6  729.85    5.70   0
  -4  -2   8 1538.58    8.85   0
  -4  -2   9  283.06    5.72   0
  -3  -1  14  384.90    5.79   0
   0   0   9    2.56    1.91   0
  -6  -2  14  316.69    5.84   0
  -4  -2  10  768.54    7.98   0
  -4  -2   4    5.86    2.67   0
  -4  -2  11   30.93    3.62   0
  -4  -2   3   46.18    2.61   0
  -4  -2  12   17.06    4.34   0
  -3  -1  15   11.33    3.69   0
  -1  -1  11   13.19    2.58   0
   0   0  10 1565.07    6.03   0
  -4  -2  13    1.11    4.12   0
  -1  -1  12   37.39    3.92   0
  -2  -2   6  719.64    6.11   0
  -2  -2   7   26.21    4.01   0
  -4  -2   2  319.18    3.54   0
  -3  -1  16   48.93    4.09   0
  -2  -2   8    5.09    3.11   0
  -2  -2   9   13.99    4.15   0
   1  -1   4 1862.77    7.38   0
   1  -1   5  161.69    3.80   0
   1  -1   6 1482.11    7.19   0
  -2  -2   4 1377.30    6.95   0
  -2  -2  10  395.56    6.44   0
  -1  -1  13    4.54    3.47   0
   0   0  11   -1.32    1.61   0
   1  -1   3   95.52    3.60   0
   1  -1   7    6.93    3.17   0
  -2  -2   3  198.01    3.53   0
  -2  -2  11   85.82    4.70   0
   1  -1   2  789.67    4.64   0
  -2  -2   2  765.82    5.29   0
  -1  -1  14  493.88    5.92   0
   1  -1   9    8.03    2.41   0
  -1  -1  -1  306.04    2.13   0
   1  -1   1  386.06    3.70   0
   1  -1  10 1201.34    7.61   0
   0  -2   5    0.48    3.19   0
   0  -2   6   84.34    3.21   0
   0  -2   7   71.02    3.15   0
   0  -2   8  540.37    6.71   0
  -2  -2   1   34.86    3.01   0
  -1  -1  15   13.06    3.38   0
   0  -2   4    7.57    2.23   0
   0  -2   9   88.70    4.61   0
   1  -1  11   41.70    3.51   0
   0  -2  10  532.51    6.70   0
   2   0   5    0.99    2.03   0
   1  -1   0 2016.46    5.67   0
   2   0   4 1452.82    4.30   0
   2   0   6  889.07    3.84   0
   0  -2   2  807.31    5.94   0
   0  -2  11   90.10    4.71   0
   1  -1  12 1022.82    7.35   0
   2   0   7    0.03    1.71   0
   2   0   3   -1.01    1.56   0
   2   0   8  853.15    4.54   0
   3  -1   4  145.55    3.64   0
   3  -1   5    4.29    3.07   0
  -2  -2   0   39.57    2.48   0
   0  -2   1  310.42    4.15   0
   1  -1  13   13.81    2.96   0
   3  -1   3   35.52    3.07   0
   3  -1   7   76.28    3.46   0
   2  -2   5   22.79    3.70   0
   2  -2   6  177.43    4.54   0
  -3  -3   6   -0.74    3.54   0
   2  -2   4  696.85    6.34   0
   2  -2   7   41.35    4.19   0
   3  -1   2 1199.16    5.61   0
   3  -1   8 1540.26    7.93   0
   1  -1  -1   81.47    2.35   0
   2  -2   3   73.65    4.04   0
   2  -2   8  202.78    4.27   0
   3  -1   9   27.73    3.02   0
   0  -2   0 3204.97    9.66   0
   2  -2   9   12.28    3.02   0
   3  -1   1  533.13    4.53   0
   2  -2   2  272.59    4.00   0
   3  -1  10  441.87    5.05   0
  -1  -1  -2  794.80    2.40   0
   3  -1   0 9220.88   12.60   0
   3  -1  11    5.05    2.83   0
  -1  -3   4   58.88    3.44   0
 -11   1  12   57.92    5.86   0
  -9  -1   4 2414.99   10.75   0
  -9   1  11   14.61    4.53   0
 -13  -1   5   -1.00    5.22   0
 -13   1  13   51.06    6.37   0
 -12   0  11    4.11    5.62   0
 -11  -1   5   39.48    5.01   0
 -10   0  10 1808.28   10.16   0
  -5   1   8  332.39    4.29   0
  -3   1   6    3.40    2.61   0
 -16   0  12 1306.97   13.25   0
  -8   0   9    3.72    4.77   0
  -7  -1   3  106.94    4.57   0
  -2   0   3    1.09    1.60   0
 -15   1  14  292.49    8.53   0
 -14   0  12  151.79    6.71   0
 -13  -1   6    5.02    5.06   0
 -11  -1   6  622.45    7.54   0
  -9  -1   5  245.44    5.49   0
  -7   1  10 2458.33   10.50   0
  -5  -1   1    5.60    2.49   0
 -13  -1   7    6.78    5.02   0
 -16   0  13   -2.56    4.27   0
 -15  -1   7    4.76    5.86   0
 -13   1  14  787.75   10.17   0
 -12   0  12  670.09    8.63   0
 -11   1  13    4.19    5.08   0
 -10   0  11    6.19    4.78   0
 -14   0  13    3.01    5.73   0
 -11  -1   7   34.25    4.97   0
  -9   1  12 1200.70    8.94   0
  -7  -1   4  142.33    4.12   0
  -6   0   8    0.48    4.36   0
 -15  -1   8  348.83    7.76   0
 -13  -1   8    5.90    5.22   0
  -9  -1   6  747.56    7.15   0
  -8   0  10 1443.19    9.04   0
  -4   0   6  954.99    5.27   0
 -16   0  14  597.42    9.83   0
 -12   0  13   -1.40    5.66   0
  -5  -1   2 1324.00    6.07   0
 -15  -1   9    6.21    5.54   0
 -14   0  14  112.61    6.54   0
 -13  -1   9   12.08    5.37   0
 -11  -1   8 2075.48   11.90   0
 -10   0  12 1538.58   10.40   0
  -5   1   9    2.39    3.53   0
 -13   1  15    6.47    4.14   0
 -11   1  14  447.93    7.32   0
  -9  -1   7    3.62    4.54   0
  -7  -1   5   15.59    3.82   0
  -7   1  11   -0.80    3.67   0
 -15  -1  10  153.83    6.84   0
 -13  -1  10  723.23    8.96   0
 -11  -1   9  128.74    5.54   0
  -9   1  13   48.63    4.41   0
  -6   0   9   -3.27    4.35   0
 -14   0  15   -1.79    5.16   0
 -12   0  14  800.87    9.23   0
  -8   0  11   -0.43    3.31   0
 -15  -1  11    2.98    5.54   0
  -9  -1   8   56.61    5.07   0
  -5  -1   3   22.09    3.02   0
  -4   0   7   -2.06    3.96   0
  -3   1   7    5.22    1.85   0
  -2   0   4 2816.67    6.35   0
 -13  -1  11   46.13    5.44   0
 -13   1  16   51.50    5.85   0
 -10   0  13   -4.14    3.61   0
 -11  -1  10 1779.13   12.04   0
 -11   1  15   46.63    4.74   0
 -15  -1  12   19.11    3.95   0
 -14   0  16  715.95    8.75   0
 -12   0  15    5.10    4.89   0
  -7   1  12  100.58    4.07   0
 -15  -1  13    2.95    5.32   0
 -13  -1  12 1402.15   11.46   0
  -9   1  14  675.82    7.21   0
  -6   0  10 2406.07    9.85   0
  -5  -1   4 1787.55    7.39   0
  -5   1  10    4.98    2.63   0
 -10   0  14  698.04    8.17   0
 -13   1  17   29.84    5.35   0
 -14   0  17   -1.62    5.56   0
 -11   1  16  899.30    9.04   0
  -9  -1  10 1267.02    9.29   0
  -4   0   8 4974.40   12.06   0
 -15  -1  14  252.96    6.30   0
 -12   0  16  493.46    7.99   0
  -8   0  13    1.00    4.50   0
  -2   0   5   -0.88    3.05   0
  -6   0  11    0.98    4.13   0
  -9  -1  11   16.77    4.77   0
  -9   1  15   36.91    4.15   0
  -7   1  13   13.52    3.39   0
  -3   1   8  256.31    3.03   0
 -11  -1  13    4.29    4.60   0
  -7  -1   9  130.84    5.09   0
  -3  -1   0 9912.62    8.81   0
  -5   1  11   12.05    2.64   0
 -13  -1  15   16.00    5.21   0
  -4   0   9   -2.86    2.76   0
  -9  -1  12 1171.16    9.58   0
  -3  -1   1    4.88    1.48   0
 -11  -1  14  338.26    5.98   0
  -7  -1  10 2625.69   11.73   0
  -5  -1   7   11.31    4.15   0
 -12   0  18  303.45    6.93   0
  -3  -1   2  930.96    4.42   0
  -2   0   6  707.12    4.21   0
 -13  -1  16   33.68    4.14   0
  -7   1  14    6.78    3.15   0
 -11  -1  15   43.02    5.03   0
  -9  -1  13   75.28    5.28   0
 -10   0  17   -1.72    4.59   0
  -8   0  15    4.71    3.53   0
  -7  -1  11   -3.81    4.57   0
  -5  -1   8  329.30    5.49   0
  -3  -1   3   -0.67    2.68   0
  -3   1   9   20.63    2.33   0
 -11  -1  16  907.80    9.61   0
  -2   0   7    2.81    3.33   0
  -7  -1  12  107.41    5.10   0
  -5  -1   9    2.45    4.14   0
 -10   0  18  839.86    9.06   0
  -8   0  16  926.80    8.54   0
  -9  -1  15   33.46    5.10   0
  -6   0  14  596.75    6.65   0
  -3  -1   5   -0.74    2.53   0
 -11  -1  17   91.04    5.66   0
  -5  -1  10    8.03    4.15   0
  -7  -1  13    7.49    3.60   0
  -3  -1   6    4.05    3.75   0
 -10   0  19   -0.35    4.72   0
  -9  -1  16   80.26    5.43   0
  -8   0  17    1.48    4.21   0
  -4   0  12   88.29    4.11   0
 -10  -2  10  529.69    7.67   0
  -7  -1  14    0.41    4.93   0
  -6   0  15   -0.28    4.26   0
  -5  -1  11   27.60    4.25   0
  -3  -1   7   10.56    3.85   0
 -10  -2  11   20.19    4.91   0
   0   0   2 2145.86    3.86   0
  -9  -1  17    4.76    4.80   0
  -8  -2   8  540.72    6.58   0
  -5  -1  12  108.41    4.80   0
  -3  -1   8  287.31    5.01   0
 -10  -2  12  176.80    5.01   0
  -8  -2   9  109.09    4.87   0
  -8   0  18  732.80    8.12   0
  -7  -1  15    2.52    4.87   0
  -4   0  13    5.67    3.42   0
  -6   0  16   11.95    4.05   0
   0   0   3   -0.74    1.24   0
 -10  -2  13   56.31    4.04   0
  -8  -2  10  392.32    6.47   0
  -3  -1   9   45.69    4.21   0
  -5  -1  13    1.53    4.33   0
  -2   0  10  919.65    6.12   0
  -1   1   6  633.68    2.47   0
   0   0   4   60.83    2.35   0
 -10  -2  14  131.16    5.89   0
  -8  -2  11    6.53    3.31   0
  -8  -2  12   14.57    4.95   0
  -8   0  19    0.09    4.25   0
  -4   0  14  485.76    5.95   0
  -3  -1  10 2056.88   10.15   0
  -6  -2   6  108.43    3.61   0
  -6  -2   7    4.20    3.17   0
  -6   0  17   -5.24    3.92   0
  -5  -1  14  639.53    7.73   0
   0   0   5   -0.46    2.44   0
  -7  -1  17   -1.47    4.44   0
  -6  -2   8    5.70    3.86   0
  -2   0  11    1.46    3.13   0
  -8  -2  13   13.96    3.67   0
  -6  -2   9   40.98    4.54   0
  -3  -1  11  151.71    4.78   0
  -1  -1   3    8.05    1.84   0
  -1  -1   4  114.44    2.59   0
  -6  -2  10  752.21    7.71   0
  -1  -1   5   17.01    2.47   0
  -8  -2  14  409.36    7.25   0
  -5  -1  15    8.06    4.45   0
  -4   0  15    2.33    3.65   0
  -1  -1   6  658.40    5.41   0
  -6  -2  11  196.51    5.54   0
  -6   0  18  223.73    5.44   0
  -3  -1  12  845.49    7.76   0
  -2   0  12 1046.00    6.94   0
  -1  -1   7   58.02    4.05   0
  -1   1   7   38.21    1.57   0
  -1  -1   1   58.43    1.99   0
  -6  -2  12  767.05    8.68   0
  -5  -1  16  811.63    8.61   0
  -1  -1   8 2636.70   10.27   0
  -4   0  16  370.78    5.65   0
  -3  -1  13   18.18    4.48   0
  -6  -2  13  167.89    5.72   0
  -4  -2   6  769.87    5.80   0
  -4  -2   7  274.03    4.77   0
  -4  -2   8 1708.12    9.44   0
  -2   0  13   -0.30    3.14   0
  -1  -1   9   75.90    4.12   0
   0   0   8 1415.58    6.34   0
  -4  -2   5   15.26    2.40   0
  -4  -2   9  278.40    5.70   0
  -6  -2  14  386.51    6.99   0
  -5  -1  17    9.16    4.47   0
  -3  -1  14  346.77    6.35   0
  -4  -2   4    6.88    1.92   0
   0   0   9    2.21    2.76   0
  -4  -2  11   53.78    4.50   0
  -4   0  17    0.73    3.64   0
  -3  -1  15    5.76    4.38   0
  -2   0  14  268.03    4.25   0
  -1  -1   0 2001.50    3.72   0
  -1  -1  11   20.12    4.34   0
   0   0  10 1329.69    6.98   0
  -1  -1  12   25.05    3.13   0
  -2  -2   6  755.99    5.72   0
  -2  -2   7   27.18    3.61   0
  -2  -2   8   12.32    3.73   0
  -2   0  15    4.21    3.21   0
   0   0  11    0.47    2.94   0
   1  -1   5  168.03    4.17   0
  -2  -2   5  246.49    3.73   0
  -2  -2   9   11.34    4.01   0
  -1  -1  13    9.77    4.05   0
   1  -1   6 1067.01    6.26   0
   1  -1   7    4.05    3.67   0
   1  -1   3   60.89    2.68   0
  -2  -2   4 1401.65    6.15   0
   0   0  12  498.46    5.30   0
   1  -1   8   33.07    2.79   0
   1  -1   2  824.36    4.59   0
   1  -1   9   13.94    3.92   0
  -2  -2  12  226.84    6.51   0
  -2  -2   3  203.45    3.07   0
   1  -1  10 1429.46    9.34   0
   0   0  13    2.45    3.42   0
   2   0   6  950.18    5.06   0
   1  -1  11   59.95    4.41   0
   2   0   7   -0.17    2.75   0
   0  -2   6   99.87    3.77   0
   0  -2   7  113.26    4.21   0
   2   0   8  884.86    5.98   0
   0  -2   5    3.29    2.93   0
   0   0  14   85.83    4.05   0
   1  -1  12 1187.06    9.35   0
   2   0   3   -1.02    1.63   0
   0  -2  10  574.81    7.55   0
   2   0   9   -4.20    3.43   0
   0  -2   4   11.85    2.73   0
   0  -2  11   66.22    3.94   0
   2   0  10   97.98    4.10   0
   0  -2   3   35.04    3.02   0
   2   0   2 1145.77    3.91   0
   3  -1   4  173.94    4.36   0
   3  -1   5   10.73    2.71   0
   3  -1   6  459.38    4.96   0
   3  -1   7  111.89    4.39   0
   2   0  11   -2.44    3.82   0
   3  -1   3   46.11    3.58   0
   3  -1   8 1828.09   10.20   0
   3  -1   9   43.94    4.37   0
   0  -2   2  828.87    5.09   0
   2   0  12  112.09    4.89   0
   3  -1   2 1241.21    5.97   0
   0   0   6  726.15    5.43   0
  -6   0  16   20.78    6.19   0
  -2   0  11    0.77    5.45   0
  -1   1  13    5.19    5.15   0
  -8   0  18  928.03   12.20   0
  -4   0  14  619.60    9.16   0
  -3   1  16   57.34    6.00   0
   0   0   7   -8.10    4.88   0
   3   1   5    6.39    2.42   0
  -6   0  17    1.33    4.17   0
  -4   0  15   -7.57    5.40   0
  -9  -1  10 1011.52    8.97   0
  -9  -1  11    6.32    5.53   0
 -11  -1  11   43.74    5.26   0
 -11  -1  12   50.68    5.73   0
 -11  -1  13   -4.09    5.75   0
  -9  -1   9    8.92    4.23   0
  -9  -1  12 1095.45   10.29   0
  -6   0  18  345.56    8.23   0
 -11  -1  14  451.87    8.63   0
  -9  -1   8   67.35    4.20   0
  -9  -1  13   56.92    6.43   0
  -7  -1   9  156.30    6.02   0
  -7  -1  10 2391.30   12.51   0
 -11  -1  15   40.86    5.98   0
  -9  -1  14  701.71    9.57   0
  -7  -1   8 3036.11   11.77   0
  -7  -1  11    2.06    5.82   0
  -7  -1   7  109.07    4.24   0
   0   0  10 1189.03    8.09   0
 -11  -1  16  921.23   11.77   0
  -9  -1  15   24.46    6.32   0
  -2   0  14  379.30    6.39   0
 -13  -1  17   40.67    6.81   0
  -9  -1   7    0.59    1.77   0
  -4   0  17   -1.53    3.97   0
   0   0  11   -1.11    4.40   0
 -11  -1  17   68.90    5.65   0
  -9  -1  16   72.43    6.29   0
  -5  -1   7    9.63    4.26   0
  -5  -1  10    9.03    5.03   0
  -7  -1   6 1622.49    6.28   0
  -5  -1  11   31.45    3.97   0
  -2   0  15   -3.38    5.24   0
  -7  -1  15    9.00    5.39   0
  -5  -1   6  891.75    5.66   0
  -5  -1  12  102.66    5.99   0
   0   0  12  630.09    7.65   0
  -5  -1  13   -2.01    5.73   0
   2   0   5   -1.01    3.00   0
  -7  -1  16   83.07    5.83   0
  -2   0  16  731.79    9.27   0
   2   0   6  792.83    5.40   0
  -5  -1  14  673.97    8.78   0
  -3  -1   8  327.32    5.79   0
  -3  -1   9   58.37    4.88   0
   2   0   7    7.95    3.21   0
  -7  -1  17    5.00    5.36   0
  -5  -1   5    9.85    2.40   0
  -3  -1   7   13.11    4.34   0
  -3  -1  10 2365.38   11.83   0
   0   0  13    3.05    3.32   0
   2   0   8  897.49    6.58   0
  -7  -1   5   11.00    1.53   0
  -5  -1  15   10.27    5.58   0
  -3  -1   6    5.54    3.83   0
  -3  -1  11  191.75    5.82   0
  -3  -1  12 1029.36    9.49   0
   2   0   9    2.33    3.69   0
  -5  -1  16  850.95   10.20   0
   0   0  14   83.00    4.98   0
  -3  -1  13   18.61    4.09   0
   2   0   2 1118.99    3.91   0
   2   0  10   98.02    4.36   0
  -5  -1  17   -0.74    5.22   0
  -3  -1  14  395.39    7.58   0
   0   0  15   -0.46    4.58   0
  -5  -1   4 1913.87    5.40   0
  -3  -1  15    6.18    4.90   0
  -1  -1   7   86.28    4.40   0
  -1  -1   8 1855.16    8.84   0
  -1  -1   9   59.18    3.50   0
  -1  -1  10 1114.36    8.62   0
   2   0  11   -2.10    3.93   0
  -1  -1   6  692.27    5.47   0
  -1  -1  11   21.83    4.86   0
  -3  -1  16   40.06    4.01   0
  -1  -1   5   25.65    3.26   0
  -1  -1  12   36.23    3.96   0
   2   0  12   60.17    4.40   0
  -1  -1  13   10.45    4.43   0
   2   0  13    0.24    4.72   0
  -1  -1  14  568.86    8.05   0
  -1  -1   4  133.99    2.65   0
   1  -1   7    5.29    3.48   0
   1  -1   8   42.04    4.01   0
   1  -1   9   25.85    4.27   0
   2   0   1    0.46    1.23   0
   4   0   6 1126.61    6.14   0
   4   0   7   -1.45    3.53   0
  -3  -1   3    5.09    2.11   0
   1  -1   6 1246.24    6.72   0
   1  -1  10 1269.34    9.21   0
   4   0   5    0.06    2.59   0
   4   0   8  208.22    3.98   0
   4   0   4  244.35    3.22   0
   1  -1   5  149.21    3.77   0
   4   0   9   -4.25    3.21   0
  -1  -1   3   14.01    3.05   0
  -8  -2  13   20.56    5.16   0
   1  -1   4 1613.01    7.00   0
   1  -1  13   18.02    4.54   0
  -8  -2  12   23.24    4.53   0
  -6  -2  12  909.30    9.87   0
  -6  -2  13  131.22    7.56   0
  -6  -2  14  316.27    7.66   0
  -5  -1   3   20.80    1.23   0
   4   0   3    3.42    2.06   0
  -6  -2  11  174.37    6.19   0
  -6  -2  10  749.90    7.68   0
  -4  -2  11   44.95    5.28   0
  -4  -2  12    3.10    3.92   0
   1  -1   3  106.35    3.79   0
   3  -1   7   86.70    4.12   0
  -4  -2  10  801.31    8.58   0
   3  -1   6  555.57    5.39   0
   3  -1  10  571.79    7.00   0
  -6  -2   9   35.77    3.61   0
  -4  -2   9  237.02    6.27   0
   3  -1   5    9.40    3.48   0
   3  -1  11    8.28    4.36   0
   4   0   2  773.94    3.69   0
  -2  -2  11   88.88    5.75   0
  -2  -2  12  216.61    6.66   0
  -1  -1   2   10.37    2.04   0
  -4  -2   8 1526.95    8.88   0
   3  -1   4  156.43    4.17   0
   3  -1  12   14.48    4.55   0
  -6  -2   8    5.39    2.98   0
  -3  -1   2  856.03    3.42   0
   1  -1   2  786.16    4.66   0
   3  -1   3   36.23    3.56   0
  -2  -2   7   21.25    2.89   0
   0  -2   9   84.14    5.15   0
   0  -2  10  522.89    7.51   0
   0  -2  11   76.84    5.65   0
   0  -2   8  498.25    6.63   0
   6   0   5    1.47    2.63   0
  -6  -2   7   -0.03    2.79   0
  -2  -2   6  700.09    6.03   0
   0  -2   7  104.83    4.54   0
   5  -1   6  542.52    6.08   0
   5  -1   7    9.96    3.49   0
   5  -1   8    7.08    3.70   0
  -4  -2   6  778.23    6.14   0
   3  -1   2 1242.87    6.50   0
   4   0   1   -2.01    1.70   0
   5  -1   9    3.54    3.03   0
   6   0   4  275.81    3.72   0
   0  -2   6   99.60    4.07   0
   1  -1   1  375.53    4.72   0
   2  -2   9   11.23    4.72   0
  -2  -2   5  213.48    4.95   0
   2  -2   8  240.47    5.73   0
   2  -2  10   22.12    3.54   0
   6   0   3    1.99    2.48   0
   2  -2   7   34.20    3.28   0
   5  -1   3   39.08    3.70   0
  -4  -2   5    5.57    2.65   0
   2  -2   6  152.91    4.56   0
   3  -1   1  579.43    5.69   0
  -2  -2   4 1533.35    7.72   0
   2  -2   5   14.85    3.10   0
   5  -1   2 1924.49    8.14   0
   6   0   2  173.93    2.77   0
   2  -2   4  707.63    7.04   0
   4  -2   7    0.08    3.76   0
   4  -2   8   49.66    4.34   0
   7  -1   6   -0.39    4.08   0
   7  -1   7    6.36    3.87   0
   4  -2   6   79.83    4.30   0
   7  -1   5   18.81    4.12   0
   7  -1   8  280.86    5.86   0
  -4  -2   4    2.13    2.63   0
   0  -2   3   25.48    3.90   0
   1  -1   0 1949.73    6.02   0
   4  -2   5    8.11    4.04   0
   5  -1   1   10.29    3.66   0
   7  -1   4   -4.11    3.92   0
   2  -2   3   71.98    4.40   0
   3  -1   0 9542.62   14.01   0
  -2  -2   3  168.22    3.88   0
   4  -2   4  233.89    5.23   0
   7  -1   3    4.11    3.31   0
  -3  -1   1    4.79    1.06   0
   4   0   0 3086.86    5.49   0
   2  -2   2  324.62    5.33   0
   4  -2   3   47.53    4.80   0
   6   0   1   -0.11    1.78   0
   7  -1   2  944.63    6.99   0
   0  -2   2  787.67    6.18   0
   5  -1   0   69.20    2.68   0
   6  -2   6  408.78    6.58   0
   6  -2   5   28.72    4.29   0
   4  -2   2  348.07    5.11   0
   6  -2   4   57.20    4.38   0
   7  -1   1   77.47    4.20   0
  -2  -2   2  809.93    5.52   0
  -4  -2   3   33.65    2.43   0
   3  -1  -1   10.04    2.27   0
   6  -2   3    7.18    3.19   0
   0  -2   1  298.40    4.93   0
   4  -2   1  382.12    7.36   0
   5  -1  -1    2.89    3.42   0
   6  -2   2  129.77    5.37   0
   9  -1   4  242.07    5.09   0
   1  -1  -1   82.54    3.03   0
   9  -1   3    8.15    3.67   0
   6  -2   1  124.17    5.39   0
   6   0   0 1057.40    4.21   0
   8  -2   4  672.51    7.99   0
   9  -1   2   75.78    4.50   0
   4  -2   0 2247.09   10.93   0
  -1  -3   5   10.81    4.04   0
   9  -1   1    1.67    3.64   0
  -2  -2   1   41.95    2.72   0
   6  -2   0  967.81    8.67   0
   8  -2   2  629.61    8.08   0
   0  -2   0 3133.81   10.17   0
   3  -1  -2  920.82    5.22   0
   5  -1  -2 1286.42    6.09   0
   8  -2   1   68.16    4.60   0
   9  -1   0   11.05    3.52   0
   4  -2  -1   96.46    4.89   0
   8   0   1   -1.95    2.28   0
   2  -2  -1   35.24    3.99   0
   6  -2  -1   43.42    5.43   0
   7  -1  -2 2142.02    8.98   0
   1  -3   3  128.25    5.77   0
   8  -2   0   40.99    3.28   0
   9  -1  -1    6.32    3.39   0
   8  -2  -1   -3.94    4.77   0
   1  -3   2  175.50    5.07   0
   4  -2  -2  323.15    5.06   0
   6  -2  -2  463.54    6.25   0
   6   0  -1   -0.13    2.32   0
  -1  -1  -1  279.03    2.47   0
   0  -2  -1  308.50    4.35   0
   1  -1  -2   10.82    2.57   0
   5  -1  -3   25.14    3.65   0
   8   0   0 1011.95    4.80   0
   9  -1  -2 1027.51    7.23   0
  -2  -2   0   37.46    2.79   0
   2  -2  -2  765.26    5.97   0
   3  -3   1  143.15    5.81   0
   7  -1  -3   76.81    3.26   0
   8  -2  -2  158.29    5.76   0
  10  -2   0  512.93    7.11   0
  11  -1   0  287.57    5.23   0
   1  -3   1   51.84    4.17   0
   3  -1  -3    3.05    3.14   0
   6  -2  -3  110.78    4.62   0
  -5  -1   2 1381.58    3.12   0
  -4  -2   3   44.10    2.82   0
  -2  -2   2  806.18    5.77   0
   2  -2   1   91.56    4.72   0
   3  -1  -1    4.79    2.12   0
   4  -2   1  374.41    6.95   0
   5  -1  -1    5.72    3.28   0
   6  -2   2  126.28    4.87   0
   7  -1   0 3667.08   10.56   0
   1  -1  -1   94.01    3.15   0
   9  -1   3    4.12    3.54   0
   2  -2   0   48.88    4.15   0
   6  -2   1  125.23    5.27   0
   6   0   0 1165.49    3.82   0
   8  -2   4  705.57    7.99   0
   9  -1   2   78.71    4.04   0
  -3  -3   6    3.24    3.94   0
   4  -2   0 1941.37   10.19   0
   8  -2   3  142.68    5.55   0
   9  -1   1    0.46    3.17   0
  -2  -2   1   24.78    3.07   0
   0  -2   0 3119.82   10.26   0
   6  -2   0  937.16    8.34   0
   8  -2   2  650.25    7.84   0
   3  -1  -2  924.72    5.05   0
   5  -1  -2 1364.03    6.36   0
  -1  -3   4   74.23    4.45   0
   4  -2  -1   83.53    3.44   0
   8  -2   1   53.06    4.09   0
   9  -1   0   12.11    2.86   0
   1  -3   3  117.83    5.19   0
   2  -2  -1   34.14    3.43   0
   6  -2  -1   52.51    4.38   0
  -1  -3   3    1.51    3.33   0
   9  -1  -1    8.51    2.69   0
   1  -3   2  156.35    4.49   0
   4  -2  -2  299.50    4.40   0
  -2  -2   0   30.28    2.40   0
   0  -2  -1  260.05    3.96   0
   1  -1  -2   11.71    2.36   0
   4   0  -1    0.07    1.23   0
   6  -2  -2  393.51    5.26   0
   5  -1  -3   27.14    2.93   0
  10  -2   1  129.85    5.10   0
  -1  -3   2    1.06    2.96   0
   8  -2  -2  141.73    4.26   0
   9  -1  -2  924.55    5.82   0
  -3  -1   0 9013.17    8.54   0
   1  -3   1   52.17    3.84   0
  -4  -2   1   72.70    2.27   0
   3  -1  -3    0.31    1.97   0
   4  -2  -3   38.96    3.59   0
   6  -2  -3   99.54    4.24   0
   6   0  -1   -1.86    1.56   0
   3  -3   0  448.86    6.52   0
  10  -2  -1   38.26    4.37   0
   8  -2  -3   26.13    3.22   0
  -1  -3   1   11.04    3.93   0
   0  -2  -2  888.69    6.32   0
   1  -3   0   86.98    4.78   0
  10  -2  -2  722.59    8.40   0
   3  -3  -1  154.13    6.67   0
   6  -2  -4  852.32    8.03   0
   5  -1  -4 1777.33    7.92   0
   8  -2  -4  348.48    7.21   0
  10  -2  -3   70.29    5.75   0
   4  -2  -4    7.60    3.81   0
   5  -1  -6  834.64    6.61   0
   1  -1  -2    9.83    3.12   0
   9  -1  -9    3.88    4.59   0
  10  -2  -8  315.23    7.36   0
  10   0  -9   -2.32    3.67   0
  11  -1 -10 1765.16   11.45   0
  15  -1 -11    5.02    5.23   0
   8  -2  -7   55.81    5.44   0
  12  -2  -9   -1.60    5.78   0
  12   0 -10  121.13    5.24   0
   0  -2   1  220.62    3.62   0
   4  -2  -4   14.82    4.40   0
   7  -1  -8 2921.43   11.88   0
   8   0  -8 2208.58    8.77   0
  13  -1 -11   39.08    4.09   0
   2  -2  -2  874.19    7.26   0
  15  -1 -12   23.52    5.48   0
  10  -2  -9   95.34    4.88   0
  12  -2 -10   44.09    5.96   0
   4   0  -5    1.26    2.91   0
   8  -2  -8  550.00    7.17   0
   9  -1 -10 1296.86    9.42   0
   3  -1  -5    2.70    3.88   0
   5  -1  -7   12.83    4.43   0
   6   0  -7   -1.89    3.58   0
  13  -1 -12 1207.08    9.88   0
   4  -2  -5    8.62    4.37   0
   0  -2   0 3121.25    9.97   0
   7  -1  -9  140.77    5.00   0
  10   0 -10 1927.08    9.19   0
  12  -2 -11    3.41    5.59   0
  12   0 -11   -3.08    3.78   0
  15  -1 -13    1.32    5.16   0
   2  -2  -3  179.57    4.58   0
   8  -2  -9  135.00    5.61   0
  -1  -1   0 1978.82    4.92   0
   1  -1  -3   11.27    3.30   0
   2   0  -3    0.24    1.86   0
   8   0  -9   -4.30    3.50   0
   9  -1 -11   17.04    4.59   0
  13  -1 -13   68.81    4.94   0
   4  -2  -6  630.19    6.14   0
   5  -1  -8  323.98    5.50   0
  10  -2 -11   31.90    3.88   0
  15  -1 -14  255.30    6.76   0
   3  -1  -6   11.50    3.89   0
   7  -1 -10 2590.35   11.51   0
   8  -2 -10  443.88    7.32   0
   0  -2  -1  190.86    3.46   0
   2  -2  -4 1530.44    8.41   0
  10   0 -11   -4.23    3.63   0
  12   0 -12  665.63    6.78   0
   6   0  -8    1.42    3.69   0
  13  -1 -14  727.37    9.06   0
   9  -1 -12 1191.47    9.64   0
  10  -2 -12  254.91    6.73   0
   4  -2  -7  264.14    5.95   0
   4   0  -6 1076.17    5.74   0
   1  -1  -4  119.96    3.21   0
   8  -2 -11   13.36    4.99   0
   8   0 -10 1287.93    8.06   0
   5  -1  -9    6.85    3.54   0
   7  -1 -11   -2.01    5.32   0
   2  -2  -5  234.54    5.44   0
   3  -1  -7   13.06    4.99   0
  13  -1 -15   18.13    5.93   0
  10  -2 -13   69.93    5.18   0
;
_shelx_hkl_checksum              70037
loop_
_space_group_symop_operation_xyz
'x, y, z'
'-x, y, -z+1/2'
'x+1/2, y+1/2, z'
'-x+1/2, y+1/2, -z+1/2'
'-x, -y, -z'
'x, -y, z-1/2'
'-x+1/2, -y+1/2, -z'
'x+1/2, -y+1/2, z-1/2'
loop_
_atom_site_label
_atom_site_type_symbol
_atom_site_fract_x
_atom_site_fract_y
_atom_site_fract_z
_atom_site_U_iso_or_equiv
_atom_site_adp_type
_atom_site_occupancy
_atom_site_site_symmetry_order
_atom_site_calc_flag
_atom_site_refinement_flags_posn
_atom_site_refinement_flags_adp
_atom_site_refinement_flags_occupancy
_atom_site_disorder_assembly
_atom_site_disorder_group
Cd1 Cd 0.30233(4) 0.7808(2) 0.19784(4) 0.0352(4) Uani 1 1 d . . . . .
Cl1 Cl 0.35028(18) 0.2810(8) 0.15027(18) 0.0489(8) Uani 1 1 d . . . . .
C1 C 0.4109(7) 0.693(4) 0.3474(7) 0.058(4) Uani 1 1 d . . . . .
C2 C 0.3463(7) 0.346(5) 0.4113(7) 0.059(4) Uani 1 1 d . . . . .
C3 C 0.4077(6) 0.364(4) 0.4730(6) 0.046(3) Uani 1 1 d . . . . .
C4 C 0.4067(6) 0.237(3) 0.5350(6) 0.033(2) Uani 1 1 d . . . . .
H4 H 0.3646 0.1522 0.5376 0.039 Uiso 1 1 calc R U . . .
C5 C 0.4652(6) 0.231(3) 0.5934(6) 0.031(2) Uani 1 1 d . . . . .
H5 H 0.4625 0.1501 0.6358 0.037 Uiso 1 1 calc R U . . .
C6 C 0.5268(6) 0.339(4) 0.5914(7) 0.047(3) Uani 1 1 d . . . . .
C7 C 0.5297(6) 0.494(3) 0.5292(6) 0.042(3) Uani 1 1 d . . . . .
N1 N 0.3522(6) 0.529(4) 0.3527(6) 0.070(4) Uani 1 1 d . . . . .
O1 O 0.4080(5) 0.802(3) 0.2929(5) 0.058(3) Uani 1 1 d . . . . .
O2 O 0.2933(5) 0.551(5) 0.2952(6) 0.109(6) Uani 1 1 d . . . . .
O3 O 0.2917(5) 0.254(3) 0.4080(5) 0.060(3) Uani 1 1 d . . . . .
loop_
_atom_site_aniso_label
_atom_site_aniso_U_11
_atom_site_aniso_U_22
_atom_site_aniso_U_33
_atom_site_aniso_U_23
_atom_site_aniso_U_13
_atom_site_aniso_U_12
Cd1 0.0279(5) 0.0459(6) 0.0311(5) 0.0005(3) 0.0095(4) 0.0013(3)
Cl1 0.0506(18) 0.0496(17) 0.0554(19) 0.0020(13) 0.0294(15) 0.0030(12)
C1 0.033(7) 0.110(13) 0.030(6) 0.005(7) 0.011(5) -0.004(7)
C2 0.039(7) 0.101(11) 0.037(7) 0.005(7) 0.014(6) -0.013(7)
C3 0.026(5) 0.076(9) 0.031(6) 0.005(6) 0.005(5) 0.001(6)
C4 0.026(5) 0.043(6) 0.030(6) 0.001(4) 0.011(5) -0.004(4)
C5 0.026(5) 0.034(6) 0.033(6) 0.002(4) 0.011(5) -0.002(4)
C6 0.035(6) 0.070(8) 0.035(6) 0.000(6) 0.012(5) -0.003(6)
C7 0.045(6) 0.038(6) 0.044(6) 0.001(5) 0.016(5) -0.006(5)
N1 0.039(6) 0.124(12) 0.037(6) 0.018(7) 0.000(5) -0.017(7)
O1 0.039(5) 0.087(8) 0.045(6) 0.016(5) 0.013(4) -0.005(4)
O2 0.040(5) 0.224(18) 0.051(6) 0.044(9) -0.001(5) -0.027(9)
O3 0.036(5) 0.105(9) 0.037(5) 0.000(5) 0.010(4) -0.011(5)
loop_
_atom_type_symbol
_atom_type_description
_atom_type_scat_dispersion_real
_atom_type_scat_dispersion_imag
_atom_type_scat_source
C C 0.0181 0.0091 'International Tables Vol C Tables 4.2.6.8 and 6.1.1.4'
H H 0.0000 0.0000 'International Tables Vol C Tables 4.2.6.8 and 6.1.1.4'
Cd Cd 0.1185 4.6533 'International Tables Vol C Tables 4.2.6.8 and 6.1.1.4'
Cl Cl 0.3639 0.7018 'International Tables Vol C Tables 4.2.6.8 and 6.1.1.4'
N N 0.0311 0.0180 'International Tables Vol C Tables 4.2.6.8 and 6.1.1.4'
O O 0.0492 0.0322 'International Tables Vol C Tables 4.2.6.8 and 6.1.1.4'
loop_
_geom_angle_atom_site_label_1
_geom_angle_atom_site_label_2
_geom_angle_atom_site_label_3
_geom_angle
_geom_angle_site_symmetry_1
_geom_angle_site_symmetry_3
_geom_angle_publ_flag
O2 Cd1 O2 77.2(3) . 4 ?
O2 Cd1 O3 120.2(4) . 4 ?
O2 Cd1 O3 68.1(4) 4 4 ?
O2 Cd1 O1 67.8(3) . . ?
O2 Cd1 O1 120.0(4) 4 . ?
O3 Cd1 O1 170.8(3) 4 . ?
O2 Cd1 Cl1 102.3(5) . . ?
O2 Cd1 Cl1 147.3(4) 4 . ?
O3 Cd1 Cl1 85.2(3) 4 . ?
O1 Cd1 Cl1 88.4(3) . . ?
O2 Cd1 Cl1 144.3(5) . 1_565 ?
O2 Cd1 Cl1 98.3(5) 4 1_565 ?
O3 Cd1 Cl1 89.1(3) 4 1_565 ?
O1 Cd1 Cl1 85.4(2) . 1_565 ?
Cl1 Cd1 Cl1 99.87(11) . 1_565 ?
Cd1 Cl1 Cd1 99.87(11) . 1_545 ?
O1 C1 N1 118.6(12) . . ?
O1 C1 C6 125.8(12) . 5_666 ?
N1 C1 C6 114.9(12) . 5_666 ?
O3 C2 N1 117.9(13) . . ?
O3 C2 C3 126.9(12) . . ?
N1 C2 C3 113.8(12) . . ?
C4 C3 C7 118.7(11) . 5_666 ?
C4 C3 C2 120.1(11) . . ?
C7 C3 C2 121.2(11) 5_666 . ?
C5 C4 C3 121.4(10) . . ?
C5 C4 H4 119.3 . . ?
C3 C4 H4 119.3 . . ?
C6 C5 C4 121.2(11) . . ?
C6 C5 H5 119.4 . . ?
C4 C5 H5 119.4 . . ?
C5 C6 C7 119.5(12) . . ?
C5 C6 C1 120.3(12) . 5_666 ?
C7 C6 C1 120.2(11) . 5_666 ?
C7 C7 C3 120.0(14) 5_666 5_666 ?
C7 C7 C6 119.0(14) 5_666 . ?
C3 C7 C6 121.1(11) 5_666 . ?
O2 N1 C1 115.7(11) . . ?
O2 N1 C2 116.2(11) . . ?
C1 N1 C2 128.1(11) . . ?
C1 O1 Cd1 119.8(9) . . ?
N1 O2 Cd1 117.7(8) . . ?
N1 O2 Cd1 116.3(9) . 4_545 ?
Cd1 O2 Cd1 125.4(5) . 4_545 ?
C2 O3 Cd1 120.6(9) . 4_545 ?
loop_
_geom_bond_atom_site_label_1
_geom_bond_atom_site_label_2
_geom_bond_distance
_geom_bond_site_symmetry_2
_geom_bond_publ_flag
Cd1 O2 2.265(11) . ?
Cd1 O2 2.289(12) 4 ?
Cd1 O3 2.362(10) 4 ?
Cd1 O1 2.372(10) . ?
Cd1 Cl1 2.524(3) . ?
Cd1 Cl1 2.525(3) 1_565 ?
Cl1 Cd1 2.525(3) 1_545 ?
C1 O1 1.184(17) . ?
C1 N1 1.411(18) . ?
C1 C6 1.458(19) 5_666 ?
C2 O3 1.164(17) . ?
C2 N1 1.443(18) . ?
C2 C3 1.451(18) . ?
C3 C4 1.378(17) . ?
C3 C7 1.424(17) 5_666 ?
C4 C5 1.376(16) . ?
C4 H4 0.9500 . ?
C5 C6 1.356(17) . ?
C5 H5 0.9500 . ?
C6 C7 1.438(18) . ?
C6 C1 1.458(19) 5_666 ?
C7 C7 1.39(2) 5_666 ?
C7 C3 1.424(17) 5_666 ?
N1 O2 1.374(14) . ?
O2 Cd1 2.289(12) 4_545 ?
O3 Cd1 2.362(10) 4_545 ?
loop_
_geom_torsion_atom_site_label_1
_geom_torsion_atom_site_label_2
_geom_torsion_atom_site_label_3
_geom_torsion_atom_site_label_4
_geom_torsion
_geom_torsion_site_symmetry_1
_geom_torsion_site_symmetry_2
_geom_torsion_site_symmetry_3
_geom_torsion_site_symmetry_4
_geom_torsion_publ_flag
O3 C2 C3 C4 6(3) . . . . ?
N1 C2 C3 C4 172.2(14) . . . . ?
O3 C2 C3 C7 -175.4(17) . . . 5_666 ?
N1 C2 C3 C7 -9(2) . . . 5_666 ?
C7 C3 C4 C5 -3(2) 5_666 . . . ?
C2 C3 C4 C5 175.9(13) . . . . ?
C3 C4 C5 C6 -2.3(18) . . . . ?
C4 C5 C6 C7 6.3(19) . . . . ?
C4 C5 C6 C1 -175.6(12) . . . 5_666 ?
C5 C6 C7 C7 -5(2) . . . 5_666 ?
C1 C6 C7 C7 176.9(16) 5_666 . . 5_666 ?
C5 C6 C7 C3 174.8(13) . . . 5_666 ?
C1 C6 C7 C3 -3(2) 5_666 . . 5_666 ?
O1 C1 N1 O2 -8(3) . . . . ?
C6 C1 N1 O2 -179.0(16) 5_666 . . . ?
O1 C1 N1 C2 172.8(17) . . . . ?
C6 C1 N1 C2 2(3) 5_666 . . . ?
O3 C2 N1 O2 -6(3) . . . . ?
C3 C2 N1 O2 -173.4(16) . . . . ?
O3 C2 N1 C1 173.4(17) . . . . ?
C3 C2 N1 C1 6(3) . . . . ?
N1 C1 O1 Cd1 5(2) . . . . ?
C6 C1 O1 Cd1 174.4(12) 5_666 . . . ?
C1 N1 O2 Cd1 8(2) . . . . ?
C2 N1 O2 Cd1 -173.1(13) . . . . ?
C1 N1 O2 Cd1 179.2(12) . . . 4_545 ?
C2 N1 O2 Cd1 -2(2) . . . 4_545 ?
N1 C2 O3 Cd1 10(2) . . . 4_545 ?
C3 C2 O3 Cd1 176.1(13) . . . 4_545 ?
