#------------------------------------------------------------------------------
#$Date: 2022-11-03 01:52:09 +0200 (Thu, 03 Nov 2022) $
#$Revision: 278919 $
#$URL: file:///home/coder/svn-repositories/cod/cif/7/71/16/7711684.cif $
#------------------------------------------------------------------------------
#
# This file is available in the Crystallography Open Database (COD),
# http://www.crystallography.net/
#
# All data on this site have been placed in the public domain by the
# contributors.
#
data_7711684
loop_
_publ_author_name
'Wang, Ting'
'Jiang, Zhi-Jie'
'Wang, Ying'
'Wei, Rong-Jia'
'Zeng, Heng'
'Lu, Weigang'
'Li, Dan'
_publ_section_title
;
 An ato-Topology Metal-Organic Framework with Large C2H2 Adsorption and
 C2H2/CO2 Separation Capacity
;
_journal_name_full               'Dalton Transactions'
_journal_paper_doi               10.1039/D2DT02968E
_journal_year                    2022
_chemical_formula_moiety
'C16 H12 Co N4 O5, 0.5(O), C2 H6 O, C4 H9 N O, 1[H2O]'
_chemical_formula_sum            'C22 H30 Co N5 O8.5'
_chemical_formula_weight         559.44
_space_group_crystal_system      trigonal
_space_group_IT_number           148
_space_group_name_Hall           '-R 3'
_space_group_name_H-M_alt        'R -3 :H'
_atom_sites_solution_hydrogens   mixed
_atom_sites_solution_primary     iterative
_audit_creation_date             2022-10-31
_audit_creation_method
;
Olex2 1.3
(compiled 2020.11.12 svn.r5f609507 for OlexSys, GUI svn.r6408)
;
_audit_update_record
;
2022-10-31 deposited with the CCDC.	2022-11-02 downloaded from the CCDC.
;
_cell_angle_alpha                90
_cell_angle_beta                 90
_cell_angle_gamma                120
_cell_formula_units_Z            18
_cell_length_a                   41.7037(7)
_cell_length_b                   41.7037(7)
_cell_length_c                   9.8644(2)
_cell_measurement_reflns_used    3926
_cell_measurement_temperature    99.99(10)
_cell_measurement_theta_max      76.4670
_cell_measurement_theta_min      4.2460
_cell_volume                     14857.7(5)
_computing_cell_refinement       'CrysAlisPro 1.171.39.33c (Rigaku OD, 2017)'
_computing_data_collection       'CrysAlisPro 1.171.39.33c (Rigaku OD, 2017)'
_computing_data_reduction        'CrysAlisPro 1.171.39.33c (Rigaku OD, 2017)'
_computing_molecular_graphics    'Olex2 1.3 (Dolomanov et al., 2009)'
_computing_publication_material  'Olex2 1.3 (Dolomanov et al., 2009)'
_computing_structure_refinement  'SHELXL 2018/3 (Sheldrick, 2015)'
_computing_structure_solution    'olex2.solve 1.3 (Bourhis et al., 2015)'
_diffrn_ambient_temperature      100.0
_diffrn_measured_fraction_theta_full 0.994
_diffrn_measured_fraction_theta_max 0.956
_diffrn_measurement_details
;
List of Runs (angles in degrees, time in seconds):

  # Type    Start    End  Width  t~exp~   \w     \q     \k     \f   Frames
#--------------------------------------------------------------------------
  1  \w     82.00 193.00   0.50   13.76    --  105.10  39.00 -42.00  222
  2  \w     78.00 121.00   0.50   13.76    --  105.10 -40.00-157.00   86
  3  \w     -3.00  31.00   0.50    3.44    --   -0.90 -82.00  60.00   68
  4  \w    -36.00  32.00   0.50    3.44    --   -0.90 -82.00-150.00  136
  5  \w     76.00 119.00   0.50   13.76    --  105.10  77.00-120.00   86
  6  \w    138.00 194.00   0.50   13.76    --  105.10  77.00-120.00  112
  7  \w     92.00 183.00   0.50   13.76    --  105.10  38.00   0.00  182
;
_diffrn_measurement_device       'four-circle diffractometer'
_diffrn_measurement_device_type  'XtaLAB AFC12 (RINC): Kappa single'
_diffrn_measurement_method       '\w scans'
_diffrn_radiation_type           CuK\a
_diffrn_radiation_wavelength     1.54184
_diffrn_reflns_av_R_equivalents  0.0451
_diffrn_reflns_av_unetI/netI     0.0581
_diffrn_reflns_Laue_measured_fraction_full 0.994
_diffrn_reflns_Laue_measured_fraction_max 0.956
_diffrn_reflns_limit_h_max       42
_diffrn_reflns_limit_h_min       -52
_diffrn_reflns_limit_k_max       46
_diffrn_reflns_limit_k_min       -39
_diffrn_reflns_limit_l_max       12
_diffrn_reflns_limit_l_min       -12
_diffrn_reflns_number            16707
_diffrn_reflns_point_group_measured_fraction_full 0.994
_diffrn_reflns_point_group_measured_fraction_max 0.956
_diffrn_reflns_theta_full        67.684
_diffrn_reflns_theta_max         77.665
_diffrn_reflns_theta_min         4.240
_exptl_absorpt_coefficient_mu    4.464
_exptl_absorpt_correction_T_max  1.00000
_exptl_absorpt_correction_T_min  0.93468
_exptl_absorpt_correction_type   multi-scan
_exptl_absorpt_process_details
;
CrysAlisPro 1.171.39.33c (Rigaku Oxford Diffraction, 2017)
Empirical absorption correction using spherical harmonics,
 implemented in SCALE3 ABSPACK scaling algorithm.
;
_exptl_crystal_colour            violet
_exptl_crystal_colour_primary    violet
_exptl_crystal_density_diffrn    1.125
_exptl_crystal_description       block
_exptl_crystal_F_000             5256
_exptl_crystal_size_max          0.1
_exptl_crystal_size_mid          0.05
_exptl_crystal_size_min          0.05
_refine_diff_density_max         1.024
_refine_diff_density_min         -0.561
_refine_diff_density_rms         0.094
_refine_ls_extinction_method     none
_refine_ls_goodness_of_fit_ref   1.049
_refine_ls_hydrogen_treatment    constr
_refine_ls_matrix_type           full
_refine_ls_number_parameters     332
_refine_ls_number_reflns         6737
_refine_ls_number_restraints     0
_refine_ls_restrained_S_all      1.049
_refine_ls_R_factor_all          0.0847
_refine_ls_R_factor_gt           0.0718
_refine_ls_shift/su_max          0.001
_refine_ls_shift/su_mean         0.000
_refine_ls_structure_factor_coef Fsqd
_refine_ls_weighting_details
'w=1/[\s^2^(Fo^2^)+(0.1239P)^2^+41.3451P] where P=(Fo^2^+2Fc^2^)/3'
_refine_ls_weighting_scheme      calc
_refine_ls_wR_factor_gt          0.1962
_refine_ls_wR_factor_ref         0.2053
_reflns_Friedel_coverage         0.000
_reflns_number_gt                5501
_reflns_number_total             6737
_reflns_threshold_expression     'I > 2\s(I)'
_cod_data_source_file            d2dt02968e2.cif
_cod_data_source_block           as-synthesized_jnu-7_100k
_cod_original_cell_volume        14857.7(6)
_cod_original_sg_symbol_H-M      'R -3'
_cod_original_formula_sum        'C22 H30 Co N5 O8.50'
_cod_database_code               7711684
_shelx_shelxl_version_number     2018/3
_shelx_space_group_comment
;
The symmetry employed for this shelxl refinement is uniquely defined
by the following loop, which should always be used as a source of
symmetry information in preference to the above space-group names.
They are only intended as comments.
;
_shelx_estimated_absorpt_t_max   0.808
_shelx_estimated_absorpt_t_min   0.664
_olex2_refinement_description
;
1. Fixed Uiso
 At 1.2 times of:
  All C(H) groups, All C(H,H) groups
 At 1.5 times of:
  All C(H,H,H) groups, All O(H) groups, All O(H,H) groups
2. Others
 Fixed Sof: O6(0.5)
3.a Rotating group:
 O5(H5A,H5B)
3.b Secondary CH2 refined with riding coordinates:
 C18(H18A,H18B)
3.c Aromatic/amide H refined with riding coordinates:
 C3(H3), C5(H5), C7(H7), C13(H13), C14(H14), C15(H15), C16(H16)
3.d Idealised Me refined as rotating group:
 C9(H9A,H9B,H9C), C17(H17A,H17B,H17C), C19(H19A,H19B,H19C), C20(H20A,H20B,
 H20C), C22(H22A,H22B,H22C)
3.e Idealised tetrahedral OH refined as rotating group:
 O7(H7A)
;
_smtbx_masks_special_details
;
A solvent mask was calculated and 168 electrons were 
found in a volume of 4308\%A^3^ in 1 void per unit cell. 
This is consistent with the presence of 
1[H2O] per Asymmetric Unit 
which account for 180 electrons 
per unit cell.
;
_smtbx_masks_void_probe_radius   1.2
_smtbx_masks_void_truncation_radius 1.2
_shelx_res_file
;
TITL jnu-74-my_a.res in R-3
    as-synthesized_jnu-7_100k.res
    created by SHELXL-2018/3 at 10:13:18 on 31-Oct-2022
REM Old TITL JNU-74-MY in R-3
REM SHELXT solution in R-3
REM R1 0.152, Rweak 0.022, Alpha 0.048, Orientation as input
REM Formula found by SHELXT: C24 N5 O5 Co
CELL 1.54184 41.7037 41.7037 9.8644 90 90 120
ZERR 18 0.0007 0.0007 0.0002 0 0 0
LATT 3
SYMM -Y,+X-Y,+Z
SYMM +Y-X,-X,+Z
SFAC C Co H N O
UNIT 396 18 540 90 153

L.S. 20 0 0
PLAN  18
SIZE 0.1 0.05 0.05
TEMP -173.15
CONF
BOND $H
list 4
MORE -1
ABIN
fmap 2 53
acta
OMIT 0 6 0
OMIT -3 9 0
OMIT -7 11 0
OMIT 2 3 2
OMIT -1 7 1
REM <olex2.extras>
REM <HklSrc "%.\\as-synthesized_jnu-7_100k.hkl">
REM </olex2.extras>

WGHT    0.123900   41.345100
FVAR       0.12248
CO1   2    0.380007    0.481803    0.913413    11.00000    0.01840    0.02113 =
         0.01667   -0.00114    0.00007    0.00846
O1    5    0.342707    0.457513    0.760742    11.00000    0.02224    0.03100 =
         0.02035   -0.00474   -0.00309    0.01272
O2    5    0.296786    0.465663    0.838392    11.00000    0.03121    0.07940 =
         0.02372   -0.01694   -0.00280    0.03057
O3    5    0.188991    0.434229    0.549644    11.00000    0.02474    0.03728 =
         0.01878   -0.00160    0.00033    0.01878
O4    5    0.191484    0.426344    0.330307    11.00000    0.02322    0.02954 =
         0.01996   -0.00077   -0.00069    0.01455
O5    5    0.358313    0.517622    0.957095    11.00000    0.03708    0.03988 =
         0.04359   -0.01111   -0.00822    0.02477
AFIX   7
H5A   3    0.335953    0.507512    0.929875    11.00000   -1.50000
H5B   3    0.369693    0.537292    0.909785    11.00000   -1.50000
AFIX   0
N1    4    0.314519    0.431136    0.258575    11.00000    0.02165    0.02446 =
         0.01834   -0.00549    0.00095    0.00934
N2    4    0.350257    0.450527    0.081699    11.00000    0.02196    0.02327 =
         0.02157   -0.00236    0.00204    0.00820
N3    4    0.326069    0.413420    0.063526    11.00000    0.02604    0.02090 =
         0.01866    0.00060    0.00467    0.00785
N4    4    0.221981    0.288742    0.218150    11.00000    0.02156    0.02142 =
         0.02041    0.00311    0.00341    0.01195
C1    1    0.312022    0.456530    0.750754    11.00000    0.02452    0.04111 =
         0.02027   -0.00483   -0.00173    0.01620
C2    1    0.293424    0.444937    0.612857    11.00000    0.02222    0.02944 =
         0.01895   -0.00107    0.00262    0.01329
C3    1    0.258397    0.440940    0.594160    11.00000    0.02228    0.03193 =
         0.01607    0.00052    0.00162    0.01286
AFIX  43
H3    3    0.245679    0.443484    0.669593    11.00000   -1.20000
AFIX   0
C4    1    0.241896    0.433317    0.467199    11.00000    0.02058    0.02228 =
         0.02067    0.00029    0.00054    0.00978
C5    1    0.260647    0.430063    0.355937    11.00000    0.01966    0.02296 =
         0.01811    0.00088   -0.00024    0.00837
AFIX  43
H5    3    0.250092    0.425743    0.267817    11.00000   -1.20000
AFIX   0
C6    1    0.294980    0.433252    0.376337    11.00000    0.02349    0.02544 =
         0.01704    0.00015    0.00515    0.01237
C7    1    0.311775    0.440536    0.502215    11.00000    0.02076    0.02940 =
         0.02089   -0.00262   -0.00022    0.01231
AFIX  43
H7    3    0.335327    0.442508    0.513230    11.00000   -1.20000
AFIX   0
C8    1    0.205173    0.430847    0.446747    11.00000    0.02112    0.02172 =
         0.01805   -0.00082   -0.00133    0.00864
C9    1    0.364296    0.498544    0.258326    11.00000    0.03601    0.02875 =
         0.02831   -0.00540    0.00906    0.00419
AFIX 137
H9A   3    0.348635    0.509900    0.256756    11.00000   -1.50000
H9B   3    0.386828    0.513769    0.205558    11.00000   -1.50000
H9C   3    0.370989    0.496824    0.352191    11.00000   -1.50000
AFIX   0
C10   1    0.343876    0.461117    0.198818    11.00000    0.02130    0.02673 =
         0.01932   -0.00163    0.00214    0.00817
C11   1    0.304511    0.402096    0.170712    11.00000    0.02275    0.02312 =
         0.01858   -0.00170   -0.00004    0.01159
C12   1    0.275589    0.363621    0.191023    11.00000    0.02340    0.02677 =
         0.01903   -0.00059    0.00138    0.01300
C13   1    0.259117    0.348866    0.316307    11.00000    0.03078    0.02604 =
         0.01690   -0.00044    0.00065    0.01517
AFIX  43
H13   3    0.265942    0.364093    0.394763    11.00000   -1.20000
AFIX   0
C14   1    0.232718    0.311719    0.324001    11.00000    0.02878    0.02910 =
         0.01483    0.00043    0.00383    0.01603
AFIX  43
H14   3    0.221599    0.302012    0.409498    11.00000   -1.20000
AFIX   0
C15   1    0.238048    0.302626    0.097886    11.00000    0.02973    0.02682 =
         0.01673    0.00000    0.00349    0.01204
AFIX  43
H15   3    0.231064    0.286457    0.022067    11.00000   -1.20000
AFIX   0
C16   1    0.264363    0.339527    0.079897    11.00000    0.03448    0.02951 =
         0.01703   -0.00027    0.00591    0.01304
AFIX  43
H16   3    0.274731    0.348441   -0.007195    11.00000   -1.20000
AFIX   0

O6    5    0.390438    0.586575    0.843177    10.50000    0.09070    0.03707 =
         0.32405    0.02292    0.02071    0.03353
O7    5    0.078585    0.369145    0.906888    11.00000    0.07298    0.04943 =
         0.05082    0.00922    0.00016    0.02417
AFIX 147
H7A   3    0.094852    0.364340    0.933568    11.00000   -1.50000
AFIX   0
C17   1    0.029981    0.307188    0.972449    11.00000    0.04762    0.06112 =
         0.04367    0.00378    0.00685    0.01455
AFIX 137
H17A  3    0.022032    0.299559    0.878726    11.00000   -1.50000
H17B  3    0.008761    0.294055    1.033438    11.00000   -1.50000
H17C  3    0.049190    0.301206    0.996574    11.00000   -1.50000
AFIX   0
C18   1    0.045200    0.348046    0.985603    11.00000    0.06708    0.05538 =
         0.03924    0.00118    0.00156    0.03296
AFIX  23
H18A  3    0.026286    0.354177    0.955043    11.00000   -1.20000
H18B  3    0.050616    0.355175    1.082193    11.00000   -1.20000
AFIX   0
O8    5    0.123498    0.344635    1.020966    11.00000    0.04822    0.14581 =
         0.05727    0.01898    0.00464    0.04923
N5    4    0.181368    0.374277    0.940013    11.00000    0.04949    0.07214 =
         0.05277    0.00183    0.00140    0.02660
C19   1    0.169459    0.386452    0.817098    11.00000    0.06914    0.14459 =
         0.04866    0.03186    0.00246    0.05051
AFIX 137
H19A  3    0.142786    0.370254    0.803442    11.00000   -1.50000
H19B  3    0.182846    0.385082    0.737693    11.00000   -1.50000
H19C  3    0.174923    0.412016    0.829438    11.00000   -1.50000
AFIX   0
C20   1    0.221314    0.388988    0.949206    11.00000    0.05257    0.09580 =
         0.06621    0.01740    0.00438    0.03628
AFIX 137
H20A  3    0.234108    0.416107    0.949878    11.00000   -1.50000
H20B  3    0.229613    0.380553    0.870999    11.00000   -1.50000
H20C  3    0.226994    0.380163    1.032902    11.00000   -1.50000
AFIX   0
C21   1    0.157193    0.353957    1.032723    11.00000    0.06003    0.06059 =
         0.04160   -0.00096   -0.00256    0.03476
C22   1    0.170008    0.342630    1.153331    11.00000    0.05038    0.06390 =
         0.04566    0.00477   -0.00004    0.03323
AFIX 137
H22A  3    0.148564    0.323791    1.203609    11.00000   -1.50000
H22B  3    0.184403    0.364196    1.211658    11.00000   -1.50000
H22C  3    0.185571    0.332379    1.124839    11.00000   -1.50000
AFIX   0
HKLF 4




REM  jnu-74-my_a.res in R-3
REM wR2 = 0.2053, GooF = S = 1.049, Restrained GooF = 1.049 for all data
REM R1 = 0.0718 for 5501 Fo > 4sig(Fo) and 0.0847 for all 6737 data
REM 332 parameters refined using 0 restraints

END

WGHT      0.1239     41.4063

REM Highest difference peak  1.024,  deepest hole -0.561,  1-sigma level  0.094
Q1    1   0.3998  0.5995  0.7387  11.00000  0.05    1.02
Q2    1   0.1770  0.4190  0.8390  11.00000  0.05    0.86
Q3    1   0.1140  0.3865  0.9408  11.00000  0.05    0.66
Q4    1   0.1270  0.3759  1.0107  11.00000  0.05    0.65
Q5    1   0.4102  0.6049  0.7706  11.00000  0.05    0.60
Q6    1   0.3921  0.4660  0.8970  11.00000  0.05    0.57
Q7    1   0.0558  0.3289  0.9637  11.00000  0.05    0.57
Q8    1   0.1569  0.3801  0.9652  11.00000  0.05    0.54
Q9    1   0.3711  0.5004  0.9152  11.00000  0.05    0.52
Q10   1   0.3777  0.5041  0.9155  11.00000  0.05    0.51
Q11   1   0.1272  0.3334  0.9123  11.00000  0.05    0.44
Q12   1   0.1892  0.3706  1.0352  11.00000  0.05    0.44
Q13   1   0.1861  0.3629  1.0276  11.00000  0.05    0.44
Q14   1   0.3875  0.5955  0.9344  11.00000  0.05    0.41
Q15   1   0.1507  0.3665  0.9437  11.00000  0.05    0.40
Q16   1   0.1420  0.3377  0.9110  11.00000  0.05    0.39
Q17   1   0.0914  0.3418  0.9455  11.00000  0.05    0.39
Q18   1   0.1022  0.3553  0.9453  11.00000  0.05    0.38
;
_shelx_res_checksum              12754
_shelx_hkl_file
;
   0   0  -3   34.19    7.00
   0   0   3   35.86    6.95
   0   0   6 1267.22   64.78
   0   0   9   -9.73    9.58
   0   0  12  406.58   20.69
  -1   0  11   16.93    7.94
   0   1  11   17.53    7.72
   1  -1  11   17.88    8.04
   1  -1   5   59.85    8.91
   0   1   5   57.87    8.80
  -1   0   5   45.81    8.39
   1   0  -2  601.57   28.47
  -1   0   2  577.61   28.42
   0   1   2  533.45   28.58
   0  -1  -2  539.41   28.48
   1  -1   2  555.22   28.47
  -1   1  -2  567.46   28.46
   0  -1   1    6.13    2.63
  -1   1   1    4.59    3.09
   0   1  -1    6.47    2.42
  -1   1   4   76.68    8.75
   0  -1   4   75.30    8.56
   1   0   4   82.29    8.85
  -1   0  -7   11.64    7.32
   0  -1  10    9.77    9.04
   1   0  10   12.97    8.87
  -1   1  10   22.28    8.84
  -2   1  12    6.81    4.82
   1   1  12    4.36    4.97
   1  -2  12    9.71    4.86
  -2   1   9   44.38    9.79
   1  -2   9   31.57    9.60
   1  -2   6  110.50   11.00
   1   1   6  113.85   11.61
  -2   1   6  103.25   11.07
  -1  -1  -6  129.52    9.28
  -2   1   3  143.41   10.45
  -1   2  -3  143.52   10.23
  -1  -1  -3  135.59   10.78
   1   1   3  136.09   10.83
   1  -2   3  138.49   10.16
   2  -1   3  482.92   26.75
  -1   2   3  503.76   26.72
  -2   1  -3  550.25   26.91
  -1  -1   3  493.41   26.29
  -1   2   6   -1.69    7.63
  -1  -1   6   11.18    6.84
  -2   1  -6    9.35    6.49
   2  -1   6    8.13    7.42
   1  -2  -6   15.90    6.22
  -1   2   9   15.09    9.42
  -1  -1   9   26.67    9.72
  -1  -1  12   60.73    5.88
  -1   2  12   56.63    5.77
   2  -1  12   61.89    6.19
   2  -2  10  122.36   11.42
   0   2  10  141.21   11.37
  -2   0  10  101.96   11.34
   0  -2  -7   14.25    7.74
  -2   0   4   40.83    7.29
   2  -2   4   39.81    8.24
   0   2   4   49.47    8.18
  -2   2  -4   48.71    8.15
   2  -2   1 2699.11  128.26
  -2   2  -1 2671.13  128.26
  -2   2   2  140.88    9.94
   2   0   2  165.21   10.24
   0   2  -2  130.32    9.04
   0  -2   2  116.83    8.80
  -2   0  -2  156.51    9.77
  -2   2   5   82.68    9.32
   2   0   5   66.01    9.29
   0  -2   5   49.80    8.65
  -2   0  -8  135.20   12.11
   0  -2  11   22.64    8.06
   2   0  11   14.23    7.81
  -2   2  11   20.55    7.92
   1  -3  10    3.11    9.24
   2   1  10   16.37    8.90
  -3   2  10   11.17    9.10
  -2  -1  -7  744.12   37.46
   2   1   4   42.24    8.29
  -3   2   4   51.89    8.56
   1  -3   4   35.68    7.15
  -2  -1  -4   42.13    8.58
  -1   3  -4   45.26    7.80
  -1   3  -1  188.56    9.72
   1  -3   1  186.58    9.70
  -1   3   2   58.71    7.08
   3  -2   2   63.32    7.02
  -3   2  -2   56.71    6.94
  -2  -1   2   57.07    5.83
  -1   3   5   26.38    8.10
   3  -2   5   27.94    8.12
  -2  -1   5   22.54    6.88
  -3   2  -8   24.96    9.07
  -2  -1   8   26.50    8.60
  -2  -1  11   86.62    9.35
  -1   3  11   84.64    8.86
   3  -2  11   80.58    9.23
  -3   1  11   38.67    8.12
   2  -3  11   23.48    8.08
   1   2  11   39.29    7.58
  -3   1   8  475.48   25.51
   2  -3   5  977.64   51.57
   1   2   5  996.64   52.14
  -3   1   5 1059.46   51.70
   2  -3   2 7273.93  345.81
   1   2   2 6942.49  346.16
  -3   1   2 7536.41  345.90
  -2   3  -2 7207.60  345.87
  -1  -2   1 4455.20  210.46
   1   2  -1 4415.61  210.49
  -2   3   1 4405.25  210.33
   3  -1   4  275.32   17.35
  -1  -2   4  292.45   16.89
  -3   1  -4  291.71   17.71
  -2   3   4  264.02   17.43
   1   2  -7 1509.08   73.05
  -3   1  -7 1488.97   73.13
  -1  -2  10  182.98   13.90
   3  -1  10  203.14   13.81
   3  -3  12   27.00    5.34
  -3   0  12   17.77    4.99
   0   3  12   20.89    4.94
  -3   0   9   30.07    9.80
   3  -3   6   61.45    9.32
   0  -3  -6   63.39    7.23
   3   0  -6   57.63    7.23
  -3   0   6   44.48    8.55
   3  -3   3   35.75    6.45
  -3   3  -3   34.98    6.95
   0   3   3   27.17    7.77
  -3   0   3   32.60    6.22
   0  -3   3  933.97   50.03
   3   0   3 1014.66   50.92
   0   3  -3 1023.72   50.24
  -3   0  -3 1100.88   51.12
  -3   3   3 1054.83   50.65
  -3   3   6   10.72    7.38
   3  -3  -6    5.25    6.37
  -3   0  -6   10.45    6.62
   0   3  -6   13.21    5.91
   0  -3   6   -7.80    6.52
  -3   3   9   17.46    9.27
   0  -3   9    9.28    9.40
   0  -3  12   20.26    5.40
   3   0  12   21.64    4.92
  -3   3  12   12.87    4.69
   3   1  11   61.23    8.32
  -4   3  11   63.74    8.29
   1  -4  11   59.39    8.77
  -3  -1  -8  217.26   14.78
  -1   4  -8  216.14   14.64
  -4   3   8  216.13   14.15
   3   1   5   58.36    9.79
   1  -4   5   67.21    8.07
  -4   3   5   62.73    8.97
   1  -4   2 1855.44   88.74
  -1   4  -2 1833.55   88.84
  -3  -1   1    7.09    3.14
  -1   4   1    4.50    2.75
   4  -3   4   74.56    9.30
  -1   4   4   89.91    9.37
  -3  -1   4   80.00    8.34
  -4   3  -4   76.03    9.56
  -4   3  -7   23.82    8.00
   3   1  -7   48.39    7.60
  -3  -1  10    9.92    9.11
   2   2  12   -1.23    4.73
  -4   2  12    3.99    4.48
   2  -4  12    8.63    5.12
  -4   2   9  166.80   13.18
  -2  -2  -6  142.30   10.00
   2  -4   6  133.06   11.81
  -4   2   6  150.79   12.37
  -2   4  -6  151.00   10.27
  -2   4  -3 1707.27   82.26
   2  -4   3 1601.33   82.03
   2   2   3 1734.42   82.76
  -2  -2  -3 1773.46   82.92
  -4   2   3 1673.71   82.31
   2   2   0  389.45   19.26
  -2  -2   0  404.06   19.29
  -2  -2   3 3075.61  150.49
   4  -2   3 3184.18  151.15
  -4   2  -3 3087.18  151.22
  -2   4   3 3226.05  151.34
   2  -4  -6  713.45   35.30
   2   2  -6  675.12   35.21
  -2  -2   6  697.64   37.49
  -4   2  -6  738.88   35.43
  -2  -2   9   59.21   10.46
  -2   4   9   60.27    9.64
  -2  -2  12   65.29    6.49
  -2   4  12   84.79    6.14
   4  -2  12   83.74    6.71
   1   3  10   89.18   10.38
  -4   1  10   79.32   10.64
  -1  -3  -7  205.30   13.45
   3  -4   4  106.48    9.70
  -3   4  -4   95.46    9.83
  -4   1   4   97.71    9.21
   1   3   4   81.30    9.75
   4  -1  -1  913.60   44.48
  -3   4  -1  961.22   45.01
  -1  -3   2 2957.22  144.18
  -3   4   2 3071.66  144.97
   1   3  -2 3059.43  144.28
   4  -1   2 2977.89  144.97
  -4   1  -2 3042.08  144.98
  -3   4   5   38.43    8.77
  -1  -3   5   39.08    7.30
  -4   1  -5   52.62    9.51
   4  -1   5   53.06    8.91
  -4   1  -8   10.20    9.01
  -1  -3   8   24.04    8.90
  -1  -3  11   21.61    7.95
  -3   4  11   25.46    7.49
   4  -1  11   39.65    7.93
  -4   0  11   45.51    8.50
   0   4  11   59.42    7.93
  -4   0   8   26.95    9.22
  -4   4  -5  149.98   12.43
  -4   0   5  137.04   11.14
   4  -4   5  134.77   11.76
   0   4   5  148.35   12.84
  -4   4  -2   13.23    5.47
  -4   0   2   18.99    5.00
  -4   0   2   13.05    3.56
   4  -4   2   19.82    5.81
   0   4  -1 3784.58  180.19
  -4   0  -4   19.23    8.40
  -4   4   4    4.66    7.20
   0  -4   4   10.77    6.19
   4   0   4   19.65    8.31
  -4   0  -7   43.34    8.11
   0   4  -7   35.42    7.89
   4   0  10   64.30   10.14
   0  -4  10   78.76   10.56
  -4   4  10   78.88   10.09
  -5   4  12  154.80    9.33
   4   1  12  182.41    9.63
   1  -5  12  161.07    9.99
  -5   4   9  127.80   11.74
   1  -5   6 1649.53   83.41
  -1   5  -6 1690.62   81.08
  -5   4   6 1638.78   84.18
  -4  -1  -6 1681.87   81.06
  -1   5  -3   33.70    6.16
   4   1   3   50.13    8.58
   1  -5   3   45.98    6.17
  -5   4   3   47.88    7.79
  -4  -1  -3   47.93    8.76
  -4  -1   0 6702.16  306.00
   1  -5   0 6083.18  306.14
   5  -4   3  691.13   36.13
  -4  -1   3  708.21   35.54
  -1   5   3  705.47   36.57
  -5   4  -3  730.38   36.39
   1  -5  -6 2811.02  134.28
   5  -4   6 2703.71  137.40
  -4  -1   6 2789.07  136.68
   4   1  -6 2815.87  134.25
  -4  -1   9   84.99   10.69
  -1   5  12  166.72    9.74
  -4  -1  12  181.78   10.02
  -5   3  10  268.77   17.10
   3   2  10  282.81   16.99
  -2   5  -7   17.39    7.40
  -3  -2  -7   15.08    7.00
   2  -5   4   34.11    6.44
  -3  -2  -4   38.34    8.83
   3   2   4   52.61    8.69
  -2   5  -4   46.84    7.22
  -5   3   4   39.81    7.56
   3   2   1  619.77   31.05
  -3  -2  -1  626.60   31.02
   5  -3   2 5336.61  250.08
  -3  -2   2 5202.04  249.33
  -5   3  -2 5176.79  250.11
   5  -3   5   10.66    7.37
  -2   5   5    7.26    8.12
  -5   3  -5   -8.68    7.84
  -3  -2   5   -9.36    6.60
  -3  -2   8  414.79   22.07
  -5   3  -8  376.11   22.33
  -3  -2  11  -12.62    7.99
  -2   5  11   -5.03    7.02
   2   3  11   24.32    7.28
  -5   2  11    9.39    7.58
  -5   2   8    6.76    8.25
   2   3   5  322.74   19.03
   3  -5   5  307.82   17.70
  -3   5  -5  316.35   18.12
  -5   2   5  331.02   17.93
  -5   2   2  550.86   26.65
   3  -5   2  548.36   27.75
  -3   5  -2  557.52   27.83
   3  -5  -1  203.78   10.50
  -2  -3   1  213.27   11.28
  -2  -3   4   44.36    6.77
  -5   2  -4   23.80    8.39
   5  -2   4   45.35    8.92
  -3   5   4   52.88    9.02
  -5   2  -7  247.36   14.76
   2   3  -7  230.32   14.58
  -3   5  10   59.28    9.46
  -2  -3  10   55.54   10.19
  -5   1  12   38.22    5.10
   1   4  12   31.03    4.84
  -5   1   9  258.82   16.56
  -1  -4  -6   46.36    6.94
   4  -5   6   29.77    7.71
  -4   5  -3   53.00    7.24
  -5   1   3   55.84    4.53
   4  -5   3   40.22    6.97
  -5   1   3   49.10    6.69
   1   4   0  720.45   34.77
  -4   5   3  248.45   14.85
   5  -1   3  217.49   14.53
  -5   1  -3  242.67   14.89
  -1  -4   3  211.81   12.82
   1   4  -6   16.16    6.37
  -5   1  -6   21.89    6.46
  -1  -4   6   16.84    6.62
  -4   5   9  455.00   24.51
  -1  -4   9  447.04   24.92
  -4   5  12   10.26    4.02
   5  -1  12   10.46    4.83
  -1  -4  12    0.13    4.76
   0   5  10  145.58   11.66
  -5   0  10  144.77   12.49
  -5   0   7  151.68   11.16
   0   5   4   20.46    8.42
  -5   5  -4   20.65    7.14
  -5   0   4   17.35    4.04
  -5   0   4    8.99    6.50
   5  -5   4   12.58    7.24
   0   5   1   81.41    7.16
   0   5   1   75.85    6.17
   5   0  -1   84.80    5.89
   0   5  -2  240.10   12.87
   0  -5   2  243.58   12.79
  -5   0  -5   76.52   10.68
  -5   5   5   61.64    9.83
   0  -5   5   72.76    8.16
   5   0   5   86.28   10.57
  -5   5   8   36.99    8.83
  -5   0  -8   34.82    8.85
   0   5  -8   52.77    9.66
   5   0  11    9.24    7.37
   0  -5  11    9.54    8.20
  -5   5  11    7.79    6.91
  -6   5  10   94.52   10.20
   5   1  10   87.67   10.48
  -1   6  -7   55.85    8.63
  -5  -1  -7   60.71    8.65
   1  -6   4  707.64   37.28
   5   1   4  732.20   38.95
  -6   5   4  740.91   38.67
  -5  -1  -4  796.32   39.31
  -1   6  -4  733.21   37.57
   5   1   1  111.03    8.37
  -5  -1  -1  106.35    8.44
  -1   6   2  166.69    9.65
  -5  -1   2  174.33    9.68
  -6   5  -2  144.96   11.40
  -5  -1   2  176.53    9.86
  -6   5  -5   -4.43    7.89
  -5  -1   5    2.20    3.85
   6  -5   5    5.27    7.43
  -1   6   5    5.38    8.33
  -5  -1   5    7.58    5.79
  -5  -1   8   76.95   10.00
  -1   6  11   11.61    6.84
  -5  -1  11    9.43    7.56
  -6   4  11   -6.08    7.29
   4   2  11   -3.08    7.30
  -2   6  -8  379.05   21.60
  -6   4   8  377.09   21.13
  -4  -2  -8  389.25   21.34
  -6   4   5   64.23    9.51
   2  -6   5   52.38    7.66
   4   2   5   74.91   10.36
  -2   6  -2 1100.99   53.54
   4   2  -1 1125.64   52.48
  -2   6   1 1036.91   52.18
   2  -6  -1 1076.17   52.21
  -4  -2   1 1107.19   52.40
  -4  -2   4   27.94    6.27
  -6   4  -4   33.93    8.48
   6  -4   4   24.51    7.52
  -2   6   4   43.57    9.16
  -4  -2   7   59.36    8.10
  -6   4  -7   43.20    8.53
  -4  -2  10   70.22   10.44
  -2   6  10   78.75    9.71
   3   3  12  125.45    7.77
  -6   3  12  115.29    7.49
  -6   3   9   16.34    9.19
  -3  -3  -6    5.49    6.17
  -6   3   6    9.33    6.50
  -3   6  -6    1.84    6.08
  -6   3   3   33.69    2.74
  -3   6  -3   31.97    6.46
  -6   3   3   31.96    6.90
   3  -6   3   26.97    5.80
   3   3   0 1409.14   68.87
  -3  -3   0 1469.84   68.90
  -3   6   3  124.31    7.46
  -6   3  -3  122.66   11.00
  -3   6   3  139.57   11.22
  -3  -3   3  129.18    8.58
   6  -3   3  145.35   10.71
  -3  -3   6  674.79   36.35
   3   3  -6  700.41   34.37
  -6   3  -6  680.57   34.53
  -3   6   9  460.19   24.71
  -3  -3   9  475.18   25.27
  -6   3  -9  436.30   24.97
  -3   6  12    1.14    3.80
   6  -3  12    5.63    5.02
  -3  -3  12   -1.40    4.82
  -6   2  10   73.51   10.24
   2   4  10   78.00    9.93
  -6   2   7  536.45   26.82
  -4   6  -7  490.55   27.05
  -2  -4  -7  516.31   26.89
  -6   2   4 1290.78   61.01
  -4   6  -4 1233.86   60.89
   2   4   4 1282.34   61.76
  -6   2   4 1185.82   58.77
   4  -6   4 1233.25   60.81
  -2  -4  -1 1919.87   87.68
   6  -2  -1 1759.18   86.89
   2   4   1 1861.64   87.61
  -4   6   2  285.28   14.44
  -2  -4   2  308.07   14.90
  -4   6   5  286.40   16.91
  -2  -4   5  266.01   14.47
  -6   2  -5  253.66   16.71
   6  -2   5  271.63   16.73
  -2  -4   8 2335.87  112.98
  -6   2  -8 2342.72  113.25
  -4   6  11   70.65    8.05
  -2  -4  11   63.63    8.79
   6  -2  11   70.82    8.54
   1   5  11  164.34   10.95
  -6   1  11  144.93   11.10
  -6   1   8  100.82   10.37
   1   5   5  387.16   21.65
   5  -6   5  334.06   20.07
  -5   6  -5  359.52   20.72
  -6   1   5  342.27   19.89
  -6   1   5  315.12   17.01
  -5   6  -2   59.23    6.58
  -6   1   2   53.54    4.49
  -6   1  -1 3820.25  181.62
   6  -1   1 3728.08  181.56
  -1  -5   1 3837.58  181.46
  -5   6   4  166.63   13.68
  -1  -5   4  190.94   11.78
   6  -1   4  151.21   13.27
  -6   1  -7  186.82   12.81
   1   5  -7  189.01   12.65
   6  -1  10  132.96   11.94
  -5   6  10  140.22   11.50
  -6   0  12   12.68    4.41
   0   6  12   12.08    4.11
  -6   0   9   48.56   10.28
   6  -6   9   72.77   10.37
  -6   0   6   12.62    5.79
  -6   0   6    4.07    5.92
   0  -6  -6   19.90    6.20
  -6   0   3   11.80    5.36
  -6   6  -3   25.92    6.56
  -6   0   3   21.83    4.03
  -6   0   0  737.83   34.39
   0  -6   0  659.50   34.57
  -6   0  -3  110.81    9.74
   6   0   3  103.76    9.66
   0   6  -3  102.35    7.66
  -6   6   3   86.80    9.58
   0  -6   3   98.49    7.21
  -6   0  -6   82.26    8.31
   0   6  -6   83.00    8.23
  -6   6   9  248.45   15.56
  -6   6  12    4.84    3.50
   6   0  12    7.00    4.69
   0  -6  12    9.00    4.70
   6   1  11   41.48    7.49
  -7   6  11   32.94    7.21
   1  -7   8   48.21    9.83
  -7   6   8   54.86    8.84
  -6  -1  -8   60.73    9.16
  -1   7  -8   67.96   10.01
  -7   6   5  740.85   39.90
  -6  -1  -5  758.38   40.75
   6   1   5  748.08   40.31
  -1   7  -2  267.50   15.02
  -6  -1  -2  358.78   17.44
   6   1  -1  744.60   36.46
   1  -7  -1  730.38   36.41
  -1   7   1  751.18   36.48
  -1   7   4   75.16   10.23
  -6  -1   4   88.50    6.62
  -7   6  -4   87.89    9.70
  -6  -1   4   79.88    7.81
  -6  -1   7   39.98    8.07
  -6  -1  10   75.64   10.40
   7  -6  10   71.86   10.09
  -1   7  10   72.52    9.33
  -7   5  12   25.12    3.84
   5   2  12   18.91    4.86
  -7   5   9   24.76    8.56
  -7   5   6   91.01   10.28
  -5  -2  -6   81.85    8.10
  -2   7  -6   78.61    7.90
  -2   7  -3  459.64   23.93
  -7   5   3  461.09   24.86
  -5  -2   0  752.59   37.33
   5   2   0  789.70   37.82
   7  -5   3  523.47   29.72
  -2   7   3  586.41   28.25
  -7   5  -3  613.24   30.06
  -5  -2   3  567.66   28.57
  -5  -2   3  560.11   28.45
  -2   7   3  540.64   30.11
  -5  -2   6   21.98    6.15
   5   2  -6   15.76    6.57
  -7   5  -6   15.41    6.72
  -5  -2   6   10.98    5.73
  -5  -2   9   47.65   10.35
  -7   5  -9   46.91   10.20
  -5  -2  12    2.62    4.70
  -2   7  12    4.07    3.54
  -7   4  10   88.27   10.18
   4   3  10   83.64   10.38
  -7   4   7   22.59    7.16
  -3   7  -7   29.33    8.55
  -4  -3  -7   19.54    7.62
  -4  -3  -4   13.31    8.17
  -3   7  -4    6.61    6.21
   4   3   4   16.08    8.09
  -7   4   4   11.59    7.50
  -4  -3  -1  243.60   14.15
   4   3   1  263.65   14.17
  -4  -3   2 3628.82  174.76
  -4  -3   2 3672.97  175.31
  -7   4  -2 3759.69  176.07
  -3   7   2 3667.59  174.86
  -4  -3   5  180.69   10.99
  -4  -3   5  184.87   11.99
   7  -4   5  216.37   14.27
  -3   7   5  183.23   14.40
  -3   7   5  154.19    9.47
  -7   4  -5  196.23   14.67
  -7   4  -8   20.39    9.69
  -4  -3   8   13.10    9.01
  -4  -3  11   20.45    8.00
  -3   7  11   26.82    6.94
  -7   3  11   23.99    7.58
   3   4  11   22.31    7.31
  -7   3   8  126.02   11.07
  -4   7  -8  126.58   11.62
  -7   3   5   75.70    9.46
   3   4   5   87.68   11.07
  -4   7  -5   76.40    9.82
  -3  -4  -2  106.92    9.25
   3   4   2   85.75    9.03
  -4   7  -2   89.17    7.60
   4  -7  -1 5951.35  283.14
  -3  -4   1 5937.25  283.57
  -4   7   4  451.88   24.84
   7  -3   4  461.26   24.64
  -3  -4   4  408.54   22.61
  -7   3  -4  463.89   24.89
  -4   7   4  418.03   21.08
  -3  -4   7  362.59   20.56
   3   4  -7  389.72   20.58
  -7   3  -7  382.17   20.92
  -4   7  10   16.06    8.27
  -3  -4  10    1.45    9.59
  -7   2  12    3.38    4.02
   2   5  12    1.14    4.02
   5  -7   9   92.82   11.14
  -7   2   9   99.14   11.05
  -5   7  -9  106.73   11.49
  -7   2   6  592.89   32.39
  -2  -5  -6  613.93   29.98
  -7   2   6  578.23   29.65
  -5   7  -6  586.35   30.14
  -7   2   3 2602.14  121.95
  -5   7  -3 2513.98  122.04
  -7   2   3 2504.49  120.50
   2   5   0  203.82   10.91
   7  -2   3 1295.67   63.05
  -2  -5   3 1228.57   61.52
  -5   7   3 1303.54   63.18
  -7   2  -3 1308.75   63.22
  -2  -5   6   22.53    6.48
   2   5  -6   26.21    6.75
  -7   2  -6   14.35    6.80
  -7   2  -9  669.92   34.53
  -5   7   9  653.25   33.76
   7  -2  12    1.59    4.67
  -2  -5  12    3.92    4.92
   1   6  10   15.95    8.47
   6  -7  10   22.45    9.31
  -7   1  10   19.98    9.23
  -7   1   7  156.63   11.51
  -6   7  -4  120.91   10.97
  -7   1   4  122.02    9.78
  -7   1   4  117.55    7.30
   1   6   4  134.43   11.83
   1   6   1  158.76    9.38
   1   6   1  146.32    9.98
   7  -1  -1  153.65    8.95
   1   6  -2  790.70   38.30
  -6   7   5  353.92   20.96
  -1  -6   5  313.82   18.46
   7  -1   5  323.45   20.81
  -7   1  -5  329.51   21.59
  -7   1  -8    9.58    8.56
  -6   7   8   25.62    8.42
   7  -1  11   61.79    8.14
  -6   7  11   61.89    7.72
   0   7  11  104.70    8.90
   7  -7  11  105.65    9.60
  -7   0  11  108.90    9.62
  -7   0   8  103.79   10.54
   0   7   5 1129.48   54.28
  -7   0   5  979.95   50.22
  -7   0   5 1117.00   52.24
  -7   7  -5 1087.17   53.51
   0   7   5 1013.33   50.96
  -7   7  -2   22.32    6.23
   0   7   2   26.93    5.20
   0   7   2   36.19    7.59
   7   0   1 3958.63  191.87
  -7   0  -1 4056.96  191.87
  -7   7   4   25.00    8.11
   7   0   4   31.89    8.58
   0  -7   7 1269.10   63.08
   0   7  -7 1325.41   63.35
  -7   0  -7 1286.03   63.25
  -7   7  10    7.91    8.21
   7   1  12   22.95    4.48
   1  -8   9  132.13   12.30
  -8   7   9  113.27   11.06
  -1   8  -6   83.55    7.84
  -7  -1  -6   82.53    8.11
  -1   8  -3  993.27   48.73
   1  -8   0 1469.83   71.71
  -7  -1   0 1489.87   71.39
  -7  -1   3   16.82    5.07
  -1   8   3   18.94    4.54
  -8   7  -3   15.46    7.25
  -7  -1   3   16.81    4.41
  -7  -1   6   51.58    7.21
  -7  -1   9  312.80   19.09
  -7  -1  12   51.72    5.36
   8  -7  12   78.34    5.73
   2  -8  10   18.50    9.52
  -8   6  10   19.20    8.28
  -2   8  -7  474.17   24.92
  -8   6   7  462.46   24.20
   2  -8   7  456.87   24.60
  -6  -2  -7  463.77   24.60
  -8   6   4  196.50   13.54
  -2   8  -4  184.46   12.08
  -6  -2  -4  168.43   14.33
   6   2   4  170.95   13.93
  -6  -2  -1  159.79   11.41
   6   2   1  187.29   10.97
  -6  -2   2 2142.22  102.80
  -6  -2   2 2136.71  102.37
  -2   8   2 2148.57  102.63
  -8   6  -2 2112.73  103.65
  -8   6  -5 1216.78   61.88
  -6  -2   5 1192.06   59.02
  -2   8   5 1148.36   58.61
  -6  -2   5 1294.79   60.13
  -2   8   5 1306.43   62.40
  -6  -2   8  236.82   15.29
  -8   6  -8  221.87   15.50
  -6  -2  11   61.90    8.72
  -2   8  11   65.76    7.54
   8  -6  11   56.60    8.07
   3  -8  11  140.24   11.34
  -8   5  11  172.10   10.97
   5   3  11  166.07   10.97
  -3   8  -8   31.86    9.32
   3  -8   8   32.98    9.21
  -5  -3  -8   24.65    8.98
  -8   5   8   27.08    8.57
  -3   8  -5 1190.57   61.63
  -8   5   5 1219.84   62.39
   5   3   5 1304.18   63.50
  -5  -3  -2 1257.83   59.95
   5   3   2 1258.20   59.80
  -3   8  -2 1160.44   58.89
  -5  -3   1 4938.73  237.91
  -5  -3   1 5040.60  238.84
   5   3  -1 5198.38  238.85
   3  -8  -1 5045.03  238.55
  -3   8   4  930.25   46.56
  -5  -3   4  986.89   47.48
  -3   8   4 1037.51   49.66
  -5  -3   4  944.05   47.32
   8  -5   4  919.71   48.96
  -8   5  -4 1002.71   49.32
  -8   5  -7  825.52   41.99
  -5  -3   7  851.97   41.89
  -5  -3  10   -6.92    9.31
  -3   8  10   13.47    7.99
  -8   4  12   12.07    3.57
   4   4  12    9.54    4.17
   4  -8  12    4.58    4.47
   4  -8   9  194.45   14.32
  -8   4   9  180.43   14.07
  -4   8  -9  213.81   14.61
  -4  -4  -6   10.96    5.91
  -4   8  -6    7.80    6.54
  -8   4   6    5.24    5.99
  -8   4   6   10.38    6.79
  -4   8  -3 1763.50   85.77
   4   4   0    9.03    3.63
  -4  -4   0    4.05    3.74
  -8   4  -3   51.65    8.46
  -4  -4   3   48.87    5.09
   8  -4   3   57.94    8.19
  -4   8   3   48.93    4.22
  -4  -4   3   57.39    6.38
  -4   8   3   47.65    8.64
   4   4  -6   38.17    6.31
  -4  -4   6   35.62    6.86
  -8   4  -6   26.62    6.80
  -4   8   9 1358.73   65.95
  -4  -4   9 1334.28   66.35
  -8   4  -9 1345.72   66.46
  -4  -4  12    8.95    4.56
  -8   3  10   22.05    8.90
   5  -8  10   22.37    9.40
   3   5  10    8.48    8.64
  -5   8  -7   51.51    7.96
  -3  -5  -7   48.15    8.27
  -8   3   7   55.69    7.97
  -8   3   4   28.90    7.51
  -5   8  -4   17.88    7.21
   3   5   4   21.73    8.32
   3   5   1  915.67   47.19
  -3  -5  -1 1012.83   47.47
   3   5   1  971.95   47.29
  -3  -5   2   22.48    5.51
  -3  -5   5 1351.14   66.37
   8  -3   5 1354.40   68.41
  -5   8   5 1436.62   68.87
  -3  -5   5 1292.66   66.36
  -8   3  -5 1345.01   68.83
  -8   3  -8 1318.00   65.01
  -3  -5  11    2.89    7.56
  -5   8  11   11.21    6.74
  -8   2  11   25.28    7.30
   6  -8  11    2.14    7.66
   2   6  11   13.47    6.78
  -8   2   8   17.97    8.84
  -6   8  -8   16.73    9.45
   2   6   5   85.93   10.74
  -8   2   5   97.83    9.05
  -6   8  -5   99.97   10.06
  -6   8  -2   14.67    6.16
   2   6   2   18.78    6.76
  -8   2  -1 1882.14   89.88
  -2  -6   1 1836.66   89.65
  -6   8   4   42.90    8.88
   8  -2   4   46.30    9.06
  -2  -6   4   45.31    5.76
  -8   2  -4   45.58    9.35
  -8   2  -7    2.55    8.04
   2   6  -7    4.92    7.37
  -6   8  10  208.20   13.65
   1   7  12   23.30    3.83
   7  -8  12   33.81    4.94
   7  -8   9    2.96    9.59
  -8   1   9   11.13    9.48
  -8   1   6  602.93   29.76
  -8   1   6  587.18   32.05
  -7   8  -6  579.98   30.10
  -1  -7  -6  589.50   29.82
  -7   8  -3 1256.14   62.63
  -8   1   3 1274.70   62.12
   1   7   0  797.20   38.84
  -1  -7   6  436.00   22.76
   1   7  -6  431.26   22.88
  -8   1  -6  441.36   22.77
  -7   8   9   42.60    8.92
   8  -1  12    6.33    4.43
   0   8  10  102.90    9.94
  -8   0  10   94.13   11.10
   8  -8  10   94.25   10.50
  -8   0   7  219.03   14.07
  -8   8  -4   12.30    7.55
  -8   0   4   23.05    5.73
   0   8   4   19.41    5.04
  -8   0   4   16.32    3.93
   0   8   1   24.81    5.07
   8   0  -1   21.19    4.91
   0   8   1   29.52    5.87
   8   0   2   72.18    8.23
  -8   0  -2   63.01    8.08
   0   8  -2   64.71    4.91
  -8   8   5  116.87   11.90
  -8   0  -5  120.70   12.59
   8   0   5  127.69   12.70
   0  -8   8   60.06    9.93
  -8   8   8   56.59    8.94
  -8   0  -8   52.54    9.62
   0   8  -8   61.30    9.46
  -8   8  11   41.63    6.79
   8   0  11   38.36    7.50
   1  -9  10   27.03    9.76
  -9   8  10   35.60    8.23
   1  -9   7    8.29    7.78
  -9   8   7    1.75    6.76
  -8  -1  -7   10.79    7.80
  -1   9  -7   16.06    7.80
  -1   9  -4   54.05    6.33
  -9   8   4   50.11    9.14
  -8  -1  -1  383.15   21.15
   8   1   1  404.59   20.95
  -1   9   2    9.75    7.28
  -9   8  -2   16.70    7.10
  -1   9   2   14.94    4.95
  -1   9   5  228.20   16.91
  -8  -1   5  231.22   12.69
  -1   9   5  225.88   12.97
  -8  -1   5  224.49   13.96
  -9   8  -5  243.87   16.55
  -8  -1   8    8.51    9.18
  -1   9  11   26.09    6.50
   9  -8  11   14.39    7.55
  -8  -1  11   26.35    7.63
   7   2  11   28.49    7.18
  -9   7  11   13.63    6.40
   2  -9  11   23.83    7.75
   2  -9   8   60.65    9.53
  -9   7   8   39.13    8.64
  -2   9  -8   43.70   10.05
  -7  -2  -8   51.44    9.45
  -7  -2  -5  334.48   21.86
   7   2   5  349.84   21.80
  -9   7   5  312.29   20.55
  -7  -2  -2   40.76    7.94
   7   2   2   41.80    7.65
   2  -9  -1 7145.91  344.25
   7   2  -1 7295.13  344.29
  -9   7  -4  969.69   52.69
  -2   9   4 1061.81   53.23
  -7  -2   4 1026.32   50.84
  -2   9   4 1028.73   50.41
  -7  -2   4 1051.65   50.65
  -7  -2   7   11.58    7.69
  -9   7  -7   12.80    8.31
  -2   9  10   27.33    8.04
   9  -7  10    8.23    8.68
  -7  -2  10   17.34    9.56
   6   3  12   13.22    4.24
   3  -9  12   10.10    4.61
  -9   6   9   37.47    8.60
   3  -9   9   37.41    9.84
  -9   6   6  209.23   11.68
  -6  -3  -6  190.17   11.77
  -3   9  -6  180.52   12.29
  -3   9  -3  696.33   35.06
  -6  -3   0  262.22   14.43
   6   3   0  297.11   15.44
  -9   6  -3  986.74   50.06
  -6  -3   3  995.20   48.19
  -6  -3   3  986.42   48.68
  -3   9   3  987.60   48.18
  -9   6  -6  250.57   14.56
  -6  -3   6  239.32   14.10
  -9   6  -6  245.56   14.51
  -6  -3   9  289.02   17.98
  -9   6  -9  282.84   18.04
  -6  -3  12   19.65    4.63
   9  -6  12   19.13    4.57
  -9   5  10   86.93   10.12
   4  -9  10   95.65   10.70
  -9   5   7   70.57    8.31
  -4   9  -7   78.61    9.35
  -5  -4  -7   86.22    8.98
  -4   9  -4  763.43   39.91
  -9   5   4  804.10   40.68
   5   4   1  116.80    8.32
  -5  -4  -1  128.78    8.88
  -9   5  -2 1708.12   79.95
  -5  -4   2 1607.06   77.91
  -5  -4   2 1700.77   79.14
  -5  -4   5  225.12   13.89
  -4   9   5  273.45   17.76
  -9   5  -5  266.64   17.49
  -5  -4   5  224.42   13.99
  -9   5  -8   99.86   10.54
  -5  -4   8   88.96   10.99
  -4   9  11  138.77    9.83
  -5  -4  11  145.03   11.05
  -9   4  11    5.70    6.72
   4   5  11    9.59    6.89
   5  -9  11    6.42    7.62
  -9   4   8   10.80    8.41
  -5   9  -8    7.30    9.22
   5  -9   8   13.32    8.93
  -9   4   5  103.72    9.82
  -5   9  -5  104.60   10.13
   4   5   5   82.09   11.51
   4   5   2  580.21   30.27
  -4  -5  -2  633.64   30.58
  -5   9  -2  550.42   29.39
   5  -9  -1  241.27   12.90
  -4  -5   1  242.59   13.90
  -9   4  -4 1127.15   52.92
   9  -4   4 1049.37   52.49
  -5   9   4 1043.56   52.74
  -4  -5   4  990.03   50.73
  -4  -5   4  991.94   50.20
  -9   4  -7  257.12   15.60
  -5   9  10   11.41    7.74
  -4  -5  10    7.24    9.30
  -9   3  12  127.65    7.65
   6  -9  12  128.93    7.82
   3   6  12  112.86    7.19
  -9   3   9   15.81    9.47
   6  -9   9   24.54    9.93
  -6   9  -9   38.60    9.85
  -9   3   6  788.17   43.12
  -9   3   6  832.19   40.59
  -3  -6  -6  851.43   40.70
  -6   9  -6  795.91   40.86
  -6   9  -3  167.84   11.54
   3   6   3  184.84   13.31
   3   6   0  134.83    8.02
  -3  -6   3  786.68   38.58
   9  -3   3  757.67   39.56
  -9   3  -3  736.77   39.64
  -6   9   3  768.14   39.72
  -9   3  -6 1287.94   62.88
   3   6  -6 1290.88   62.71
  -9   3  -6 1288.97   62.95
  -6   9   9  149.22   11.78
  -9   3  -9  148.37   13.04
  -3  -6  12   32.06    4.67
   2   7  10   74.01    9.25
  -9   2  10   45.66    9.72
   7  -9  10   78.03   10.08
  -7   9  -7   13.94    7.93
  -9   2   7   18.07    7.11
  -9   2   4 1347.24   67.88
  -7   9  -4 1408.89   68.57
   2   7   1  552.90   28.83
   9  -2  -1  556.16   28.31
   2   7   1  605.08   28.82
  -2  -7   2 3279.77  157.59
  -7   9   5  471.23   26.79
  -2  -7   5  422.40   24.37
   9  -2   5  476.19   26.89
  -9   2  -5  447.88   27.01
  -7   9   8  497.39   25.74
  -9   2  -8  478.30   26.62
  -7   9  11   30.87    6.56
   8  -9  11   14.35    7.47
  -9   1  11    8.34    7.05
   1   8  11   17.35    6.41
  -9   1   8   40.98    9.39
  -8   9  -5   21.00    7.71
  -9   1   5    8.47    5.87
   1   8   5   19.55    8.83
   1   8   5   19.09    5.18
   1   8   2  907.94   43.87
  -8   9  -2  835.40   43.41
   1   8   2  867.68   43.01
  -9   1  -1  519.68   26.55
  -1  -8   1  499.94   26.27
   9  -1   4 3704.04  181.42
  -9   1  -4 3662.16  181.55
  -8   9   4 3863.73  181.62
   1   8  -7   92.61    8.83
  -1  -8   7   63.74    9.26
  -9   1  -7   80.51    9.24
  -8   9  10  227.97   14.37
  -9   0  12    6.18    3.74
   9  -9  12    9.14    4.32
   9  -9   9   19.56    9.66
  -9   0   9    0.61    9.86
  -9   0   6   80.08    7.90
  -9   9  -3  127.78   11.12
   0   9   3  138.81   11.64
  -9   0   3  138.52    9.04
   0   9   3  128.69    9.38
  -9   0   0  266.03   14.67
   0  -9   0  266.70   15.09
   0   9  -3   68.19    5.61
  -9   0  -6   22.74    6.88
   0  -9   6   35.18    6.88
   0   9  -6   29.62    6.97
  -9   0  -6   26.26    6.86
   0  -9   9  120.85   12.40
  -9   9   9  117.29   10.73
  -9   9  12    3.88    3.85
   9   0  12   11.91    4.03
   9   1  11    8.30    6.64
   1 -10  11   -3.58    7.33
 -10   9  11    9.58    5.83
  -9  -1  -8  453.91   24.33
  -1  10  -8  431.34   24.60
   1 -10   8  454.67   24.57
 -10   9   8  448.48   23.87
   9   1   5   29.19    9.66
 -10   9   5   45.11    9.25
  -1  10  -2  214.07   11.74
  -9  -1  -2  226.63   14.62
   9   1   2  240.69   14.45
   1 -10  -1 6743.74  318.59
  -1  10   1 6805.79  318.61
  -1  10   1 6729.53  318.85
   9   1  -1 6440.30  318.50
 -10   9  -4   67.64    9.55
  -1  10   4   73.83    6.47
  -9  -1   4   60.38    6.57
  -9  -1   7   40.70    8.58
  -1  10  10  121.42   10.04
  -9  -1  10   99.51   11.02
  10  -9  10  106.22   10.79
   2 -10  12  109.63    6.75
 -10   8  12   99.77    6.53
   8   2  12   94.42    6.57
   2 -10   9   12.26    9.64
 -10   8   9   10.58    8.44
   2 -10   6  523.83   26.78
 -10   8   6  514.66   26.48
  -8  -2  -6  576.49   27.04
  -2  10  -6  493.61   26.84
  -8  -2  -3   34.53    8.52
  -2  10  -3   41.81    5.38
   8   2   3   42.64    8.46
  -8  -2   0 2765.30  130.03
   2 -10   0 2643.35  130.36
  -2  10   3  125.87    8.44
 -10   8  -3  111.25   11.04
  -8  -2   3  130.30    8.15
  -8  -2   3  132.49    8.63
  -8  -2   6  394.80   20.99
 -10   8  -6  393.44   21.24
  -8  -2   9   13.13   10.44
  10  -8  12   76.63    6.17
  -8  -2  12   91.90    5.76
   3 -10  10  168.70   12.62
 -10   7  10  140.65   11.53
  -7  -3  -7  125.75    9.93
   3 -10   7  111.69   10.21
 -10   7   7  117.91    9.52
  -3  10  -7  113.86   10.29
 -10   7   4  684.42   35.58
  -3  10  -4  655.47   34.14
   7   3   1 6075.13  292.36
  -7  -3  -1 6170.59  292.46
  -3  10   2  423.15   22.13
  -3  10   2  433.86   24.01
  -7  -3   2  488.85   22.70
  -7  -3   2  414.76   21.28
 -10   7  -2  458.28   23.85
  -7  -3   5  212.72   11.93
  -7  -3   5  199.54   12.10
 -10   7  -5  190.46   14.89
  -3  10   5  194.55   15.79
  -3  10   5  187.19   10.70
  -7  -3   8   26.34    9.69
 -10   7  -8   18.65    9.25
  -7  -3  11   -3.15    7.32
  10  -7  11    7.92    7.30
  -3  10  11    6.89    6.23
   6   4  11   44.53    7.31
   4 -10  11   49.66    8.22
 -10   6  11   34.72    6.97
  -4  10  -8  268.24   16.46
   4 -10   8  239.07   16.26
 -10   6   8  251.91   15.78
   6   4   5  218.08   16.33
  -4  10  -5  205.35   14.02
 -10   6   5  203.96   15.02
  -6  -4  -2   27.33    7.52
   6   4   2   26.81    7.45
  -4  10  -2   20.49    5.03
  -6  -4   1 2848.85  131.60
   6   4  -1 2728.01  131.54
  -6  -4   1 2675.67  130.33
   4 -10  -1 2919.24  131.27
  -4  10   4 2023.63   94.76
  -6  -4   4 1836.74   92.40
  -4  10   4 1911.29   91.45
  -6  -4   4 1890.85   91.97
 -10   6  -4 1949.66   94.51
  -6  -4   7   32.76    8.64
 -10   6  -7   35.14    8.30
  -6  -4  10   18.09    9.45
  10  -6  10   17.39    8.83
  -4  10  10   13.49    7.76
   5   5  12   27.42    4.00
   5 -10  12   21.70    4.67
  -5  10  -9   13.83    9.59
 -10   5   9    9.35    8.97
   5 -10   9    9.50    9.57
 -10   5   6  204.76   15.54
 -10   5   6  216.41   12.89
  -5  10  -6  224.82   13.39
  -5  -5  -6  233.05   13.14
  -5  -5  -3   99.91   10.28
  -5  10  -3   84.00    7.82
   5   5   3   93.36    9.86
   5   5   0 9744.65  469.54
  -5  -5   0 9999.00  469.62
  -5  -5   3  557.24   27.87
 -10   5  -3  604.63   30.81
  -5  -5   3  585.92   29.25
 -10   5  -6    8.83    6.51
   5   5  -6   15.83    6.38
 -10   5  -9   64.07    9.96
  -5  -5   9   53.76   11.10
  -5  10   9   74.89    9.34
  -5  -5  12   29.42    4.65
   6 -10  10   31.22    9.01
 -10   4  10   29.54    8.95
  -4  -6  -7   51.86    8.21
  -6  10  -7   37.52    9.02
 -10   4   7   57.75    8.03
  -6  10  -4   79.03    8.27
 -10   4   4   70.63    8.84
  -4  -6  -1  192.48   11.31
   4   6   1  175.77   11.25
   4   6   1  163.57   10.79
  -4  -6   2 1103.77   54.35
  -4  -6   5  180.49   12.47
  -6  10   5  212.72   15.65
  10  -4   5  205.15   15.37
 -10   4  -5  213.63   15.85
  -4  -6   5  187.78   11.53
 -10   4  -8   21.19    9.80
  -4  -6  11    8.63    7.51
  -6  10  11   -5.34    5.95
   3   7  11    7.42    6.30
   7 -10  11   11.50    7.20
 -10   3  11   17.45    6.88
 -10   3   8  381.70   21.68
   7 -10   8  393.24   21.56
  -7  10  -8  383.88   22.35
   3   7   5   42.62    9.82
  -7  10  -5   39.32    8.07
 -10   3   5   51.20    7.45
   3   7   2   51.89    6.67
  10  -3  -2   40.35    4.35
   3   7   2   50.05    7.54
  -7  10  -2   46.77    6.82
  -3  -7   1  488.95   26.34
 -10   3  -1  530.09   26.73
  -3  -7   4 1400.27   69.26
  10  -3   4 1447.89   70.66
 -10   3  -4 1338.97   70.68
  -7  10   4 1432.22   70.96
 -10   3  -7   34.13    8.64
   3   7  -7   41.73    7.70
  -7  10  10  153.26   11.41
   8 -10  12    4.36    4.23
 -10   2  12   12.28    3.79
 -10   2   9    3.28    9.35
   8 -10   9   15.45    9.33
  -8  10  -9    6.85    9.92
 -10   2   6   17.42    6.40
  -8  10  -6    8.80    6.97
   2   8   3   24.33    5.88
   2   8   3   13.89    7.87
  -8  10  -3    7.88    6.95
   2   8   0 2403.22  115.14
  -2  -8   3    4.32    6.36
   2   8  -6    9.75    6.57
 -10   2  -6    7.40    6.48
  -2  -8   6   16.17    6.67
 -10   2  -6    9.57    7.14
 -10   2  -9   37.10    9.59
  -8  10   9   36.77    8.61
  -8  10  12    6.81    3.52
 -10   1  10   31.46    9.14
   1   9  10   41.52    8.14
   9 -10  10   40.54    8.89
 -10   1   7  317.54   18.07
  -9  10  -7  323.59   18.72
 -10   1   4   90.07    8.05
   1   9   4   86.97    7.79
  -9  10  -4   82.08    9.51
  10  -1  -1  121.44    8.87
   1   9   1  144.98    9.20
   1   9   1  131.75    9.36
  -1  -9   2 3664.70  150.38
  10  -1   2 3551.62  150.66
 -10   1  -2 3459.95  150.69
  -1  -9   5  329.76   19.49
  10  -1   5  324.45   21.18
  -9  10   5  329.47   21.27
  -1  -9   8  212.86   14.67
  -9  10   8  202.08   13.22
 -10   1  -8  191.88   13.91
  -9  10  11  157.89    9.85
 -10   0  11  241.34   14.44
   0  10  11  248.85   13.83
  10 -10  11  249.07   14.43
 -10   0   8   13.96    9.01
   0  10   5   89.25    7.12
 -10   0   5   65.12    7.20
 -10  10  -5   81.39   10.13
 -10  10  -2   14.59    7.24
   0  10   2    8.12    7.21
   0  10   2    9.95    5.49
 -10   0  -1 2376.84  114.82
 -10  10   4   39.17    9.82
 -10   0  -7  128.03   10.97
   0  10  -7  131.08   10.86
   0 -10   7  121.37   10.92
 -10  10   7  131.34    9.85
   0 -10  10  -16.97    9.46
 -10  10  10    3.94    7.54
   1 -11  12   14.68    4.02
 -11  10  12   11.85    3.35
  11 -10 -12    2.04    3.39
  10   1  12   15.06    3.65
   1 -11   9   24.23   10.00
 -11  10   9   30.56    8.64
 -10  -1  -6  274.14   15.57
 -11  10   6  278.71   14.93
   1 -11   6  268.24   15.52
  -1  11  -6  277.54   15.56
 -10  -1  -6  259.98   15.67
  10   1   3  683.05   35.30
 -10  -1  -3  658.25   35.44
  -1  11  -3  656.46   32.71
 -10  -1   0 2512.95  120.25
   1 -11   0 2485.05  120.64
  -1  11   3 1063.02   52.79
  -1  11   3 1037.29   50.92
 -10  -1   3 1044.24   50.58
 -11  10  -3  969.45   52.31
 -11  10  -6   22.36    7.13
 -10  -1   6   20.92    7.25
 -10  -1   9   26.41    9.89
  11 -10   9   26.32    9.32
  11 -10  12   11.58    3.53
 -10  -1  12    9.67    3.26
 -11   9  10   21.73    8.01
   2 -11  10   18.65    9.37
 -11   9   7   43.94    7.44
  -9  -2  -7   24.08    8.02
   2 -11   7   42.19    8.44
  -2  11  -7   22.30    8.10
 -11   9   4 2069.61   96.80
  -2  11  -4 1895.03   94.59
  -9  -2  -1   51.79    7.42
   9   2   1   56.67    7.62
  -2  11   2   89.18    7.31
  -2  11   2   79.16    9.13
 -11   9  -2   93.84    9.27
  -2  11   5   51.04    5.21
  -9  -2   5   52.25    5.93
 -11   9  -5   69.69    9.81
  -9  -2   8  229.02   15.86
  -9  -2  11   12.53    7.10
  -2  11  11   13.35    5.67
  11  -9  11   14.67    7.19
   3 -11  11   11.53    7.25
 -11   8  11    1.98    5.81
   8   3  11   -1.29    6.33
  -8  -3  -8  151.28   12.13
 -11   8   8  161.55   12.13
  -3  11  -8  175.94   12.55
   3 -11   8  159.31   12.79
   8   3   5   87.01   11.91
 -11   8   5  105.97   10.93
  -3  11  -5  100.72    8.81
  -3  11  -2  578.85   28.75
   8   3   2  552.68   30.12
  -8  -3  -2  586.62   30.39
  -8  -3   1 2239.11  107.97
   3 -11  -1 2268.58  108.82
   8   3  -1 2297.52  109.03
 -11   8  -4  660.77   35.63
  -8  -3   4  661.09   32.73
  -8  -3   4  646.61   33.21
  -3  11   4  656.67   32.63
  -8  -3   7  315.87   17.81
 -11   8  -7  299.67   18.23
  -3  11  10  115.93    9.59
  11  -8  10  117.04   10.82
  -8  -3  10   92.33   11.28
 -11   7  12    7.05    3.90
  11  -7 -12   -4.02    3.58
   4 -11  12    0.53    4.16
   7   4  12   -0.37    3.43
  -4  11  -9   12.56    9.23
 -11   7   9   20.89    8.95
   4 -11   9   12.01    9.52
  -4  11  -6  152.16   10.40
  -7  -4  -6  134.82   10.06
 -11   7   6  150.93    9.73
  -7  -4  -3  548.93   27.69
   7   4   3  504.72   27.05
  -4  11  -3  455.05   25.23
   4 -11   0  307.54   17.48
  -7  -4   0  320.85   16.84
   7   4   0  331.43   17.83
  -7  -4   3   43.57    5.92
 -11   7  -3   47.38    8.42
  -7  -4   3   34.83    3.71
 -11   7  -6  370.36   19.99
  -7  -4   6  373.63   19.90
 -11   7  -6  360.98   20.04
  -7  -4   9   39.33   10.42
  -4  11   9   44.36    8.63
 -11   7  -9   47.96   10.04
  -4  11  12    5.88    3.00
  11  -7  12    8.79    4.08
 -11   6  10   24.26    8.20
   5 -11  10    8.72    9.22
  -6  -5  -7   88.40    9.04
  -5  11  -7   88.71    9.80
 -11   6   7   92.66    8.86
   5 -11   7   99.37    9.37
 -11   6   4   37.22    7.87
  -5  11  -4   29.38    6.36
  -6  -5  -1   62.76    6.95
   6   5   1   54.55    6.07
   6   5   1   57.54    6.96
  -6  -5   2   37.29    6.34
  -5  11   5  207.82   15.41
 -11   6  -5  160.38   14.44
  -6  -5   5  176.28   11.68
  -6  -5   5  184.65   10.84
  -6  -5   8  152.93   12.96
 -11   6  -8  145.30   12.42
  -5  11  11  129.21    8.77
  -6  -5  11  124.38   10.22
 -11   5  11   18.64    6.49
   5   6  11   23.23    6.52
   6 -11  11   25.06    7.50
  -6  11  -8   50.29    9.20
   6 -11   8   61.18    9.64
 -11   5   8   45.30    9.24
 -11   5   5   70.08    9.24
  -6  11  -5   76.28    9.27
   5   6   2   52.50    7.68
  -5  -6  -2   60.88    8.24
  11  -5  -2   45.29    3.98
  -6  11  -2   55.45    6.48
  -5  -6   1   62.25    7.39
 -11   5  -1   74.89    7.95
   6 -11  -1   66.26    6.05
  -6  11   4   40.80    9.50
  -5  -6   4   37.42    6.24
 -11   5  -7  688.23   35.15
  11  -5  10   79.38   10.05
  -6  11  10   97.12    9.26
  -5  -6  10   95.93   11.08
 -11   4  12   87.65    5.66
   7 -11  12   75.73    5.49
   4   7  12   63.93    4.91
   7 -11   9    2.33    9.23
  -7  11  -9   -1.35    9.80
 -11   4   9   14.17    9.30
  -7  11  -6   81.31    8.54
 -11   4   6   76.66    7.71
  -4  -7  -6   85.90    7.49
  -7  11  -3   38.20    6.95
   4   7   3   32.66    8.14
   4   7   0  343.67   17.61
  -4  -7   3 2038.94   99.02
 -11   4  -6   42.38    7.63
   4   7  -6   46.44    6.95
 -11   4  -6   46.03    7.67
 -11   4  -9   57.47   10.33
  -7  11   9   46.25    8.72
  -7  11  12    9.75    3.34
   8 -11  10   60.78    9.81
 -11   3  10   62.59    9.41
  -8  11  -7   10.32    8.12
 -11   3   7   10.88    7.64
   3   8   4  858.70   42.93
 -11   3   4  844.73   43.20
  -8  11  -4  837.50   43.80
   3   8   1 1096.37   54.30
   3   8   1 1110.23   54.27
 -11   3  -2    0.44    7.18
  -3  -8   2   -1.04    5.94
  11  -3   5   79.93   10.50
  -3  -8   5   83.31    8.34
  -8  11   5   74.28   10.41
 -11   3  -8  330.08   20.25
  -8  11   8  345.77   19.02
  -8  11  11   29.16    5.84
 -11   2  11  118.85    9.53
   2   9  11  133.79    8.99
   9 -11  11  119.65    9.78
  -9  11  -8  112.08   11.81
 -11   2   8  110.83   11.25
  -9  11  -5  772.76   39.80
   2   9   5  742.27   38.00
 -11   2   5  722.67   38.46
  11  -2  -2  911.89   45.49
  -9  11  -2  905.22   46.74
   2   9   2  953.99   46.44
   2   9   2  977.38   47.08
 -11   2  -1 1849.34   82.50
  -2  -9   1 1797.49   82.43
   2   9  -1 1646.91   80.61
  -9  11   4  213.73   16.36
  -2  -9   4  222.87   14.66
  11  -2   4  246.25   16.56
 -11   2  -4  236.57   16.69
  -2  -9   7  103.08   10.01
   2   9  -7  101.33   10.14
 -11   2  -7  120.30    9.92
  -9  11  10   14.81    7.57
  11  -1 -12   12.38    3.11
 -11   1  12    7.36    3.48
  10 -11   9  245.79   15.84
 -11   1   9  233.90   16.22
 -11   1   6   19.28    7.01
 -10  11  -6   13.56    6.99
 -10  11  -6   14.28    6.91
   1  10   3  244.57   14.42
 -10  11  -3  223.51   15.59
   1  10   3  273.31   16.64
  -1 -10   0 1821.04   93.05
 -11   1   0 1931.22   92.79
   1  10   0 1973.65   92.42
  -1 -10   3 1474.81   71.53
 -11   1  -3 1508.31   72.45
  11  -1   3 1363.29   71.83
 -11   1  -6  231.81   14.53
   1  10  -6  247.47   14.16
  -1 -10   6  241.57   14.39
 -11   1  -6  246.28   14.15
  -1 -10   9   71.22   10.73
 -10  11   9   68.04    8.96
 -11   1  -9   53.47   10.06
  10 -11 -12   16.48    3.38
  11  -1  12   20.75    3.97
 -10  11  12   20.13    3.46
   0  11  10   28.58    7.63
  11 -11  10   41.07    8.83
 -11   0  10   35.90    9.24
 -11   0   7   16.30    8.16
 -11   0   4 1232.87   60.85
   0  11   4 1256.97   60.98
   0  11   4 1295.16   63.52
 -11  11  -4 1164.69   62.58
   0  11   1  567.39   28.49
   0  11   1  576.04   28.21
  11   0  -1  503.82   27.90
  11   0   2  524.10   27.72
   0 -11   2  577.43   27.69
   0  11  -2  531.28   25.08
 -11   0  -2  562.67   28.03
  11 -11  -2  487.17   24.90
 -11  11   5   50.56    9.65
   0 -11   5   47.64    7.82
 -11   0  -8  579.19   30.96
 -11  11   8  585.46   30.46
   0  11  -8  610.89   31.11
   0 -11   8  609.42   31.46
 -11  11  11   40.98    5.51
   0 -11  11   39.37    7.73
 -12  11  10   92.61    8.87
   1 -12  10   82.70   10.50
 -11  -1  -7  571.06   30.10
  -1  12  -7  605.90   30.26
   1 -12   7  558.56   30.14
 -12  11   7  595.80   29.65
 -11  -1  -4   89.74   11.59
 -12  11   4   87.86   11.18
 -11  -1  -1 4715.17  226.06
  -1  12   2  115.03    8.70
 -12  11  -2  107.57   10.21
  -1  12   2  111.82   10.42
  11   1  -2   99.78    8.23
 -11  -1   5  243.68   14.03
 -12  11  -5  240.01   13.99
 -11  -1   5  257.23   13.72
  -1  12   5  224.45   13.75
 -11  -1   8   -4.31    9.77
 -11  -1  11  246.82   14.27
  -1  12  11  244.43   13.51
  12 -11  11  250.76   14.21
  10   2  11    4.99    6.44
   2 -12  11   25.76    7.40
 -12  10  11   16.35    5.25
 -12  10   8   66.98    9.23
  -2  12  -8   64.27    9.59
 -10  -2  -8   88.02    9.90
   2 -12   8   78.64   10.28
 -12  10   5   23.17    8.81
  10   2   2  240.35   15.05
  -2  12  -2  221.96   12.31
 -10  -2  -2  232.86   15.13
   2 -12  -1  849.18   43.31
  10   2  -1  873.67   43.41
 -10  -2   1  876.31   42.39
 -10  -2   4  238.33   13.48
 -12  10  -4  231.85   16.86
  -2  12   4  254.15   13.86
 -10  -2   7  316.50   18.39
  12 -10  10   42.55    8.95
  -2  12  10   45.30    7.84
 -10  -2  10   39.19    9.19
   9   3  12    7.16    3.41
   3 -12  12   12.90    3.74
 -12   9  12   15.88    3.63
   3 -12   9   25.58   10.06
 -12   9   9   20.09    8.53
  -9  -3  -6   34.92    6.75
  -3  12  -6   31.90    7.35
   3 -12   6   36.08    7.16
 -12   9   6   33.87    6.33
   9   3   3  435.53   23.29
  -9  -3  -3  410.61   23.29
  -3  12  -3  379.23   20.84
  -9  -3   0   -0.22    4.62
   3 -12   0    6.44    5.56
   9   3   0   -3.63    5.92
  -9  -3   3  281.65   14.55
  -3  12   3  301.54   15.51
  -3  12   3  289.14   18.18
 -12   9  -6  113.58    9.58
  -9  -3   6  119.77    9.47
 -12   9  -6   95.79    9.56
  -9  -3   9   88.55   11.89
 -12   9  -9  114.74   11.27
  12  -9  12   14.35    3.53
 -12   8  10   19.51    7.71
   4 -12  10    4.07    9.13
 -12   8   7   58.49    7.97
  -8  -4  -7   54.19    8.34
  -4  12  -7   47.62    8.68
   4 -12   7   70.34    8.82
  -4  12  -4 3140.77  156.55
   8   4   4 3231.77  158.49
 -12   8   4 3323.95  158.07
  -8  -4  -4 3406.78  158.89
   8   4   1  145.20    9.96
  -8  -4  -1  144.15   10.34
  -8  -4   2   17.36    5.59
 -12   8  -2   17.55    7.64
 -12   8  -5    2.75    5.54
  -8  -4   5    7.48    4.88
 -12   8  -5    8.92    6.24
  -8  -4   5    6.97    3.64
  -8  -4   5    7.62    5.95
 -12   8  -8   89.98   10.41
  -8  -4   8   55.70   10.26
  -8  -4  11    5.24    7.26
  -4  12  11   12.79    5.50
  12  -8  11    7.81    6.67
   5 -12  11  145.76   10.22
 -12   7  11  124.32    9.21
   7   5  11  142.90    9.73
  -5  12  -8   -1.65    9.01
 -12   7   8   11.36    8.39
   5 -12   8    9.42    8.58
  -5  12  -5   28.92    6.87
 -12   7   5   24.42    7.76
  12  -7  -2    8.62    2.52
  -7  -5  -2   12.38    6.73
   7   5   2   10.91    6.92
  -5  12  -2   12.96    5.11
   7   5  -1  880.45   40.47
   5 -12  -1  897.72   39.88
  -7  -5   1  770.28   38.49
  -7  -5   4  552.02   27.21
 -12   7  -4  519.84   29.40
  -5  12   4  523.00   29.61
  -7  -5   4  499.87   25.51
  -7  -5   7  122.00   10.92
 -12   7  -7  122.27   11.19
  -5  12  10   45.25    7.89
  -7  -5  10   53.98    9.40
  12  -7  10   50.07    8.96
   6   6  12    8.96    3.15
   6 -12  12    8.08    3.78
  12  -6 -12    5.11    3.24
   6 -12   9  186.50   13.58
 -12   6   9  153.99   12.89
  -6  12  -9  174.40   13.37
  -6  12  -6  314.45   17.77
  -6  -6  -6  325.74   17.20
 -12   6   6  305.19   17.05
  -6  -6  -3  373.07   20.65
   6   6   3  347.52   20.43
  -6  12  -3  320.17   18.85
  -6  -6   0  365.00   18.44
   6   6   0  350.21   18.27
  -6  -6   3 2388.69  117.85
 -12   6  -3 2513.72  119.12
 -12   6  -6  137.91   10.18
  -6  -6   9  677.41   35.15
 -12   6  -9  649.05   34.92
  -6  12   9  686.41   34.13
  12  -6  12   68.61    5.27
   6 -12 -12   66.38    4.75
 -12   5  10  207.10   14.46
   7 -12  10  259.46   15.27
  -7  12  -7   54.93    9.18
 -12   5   7   53.45    8.19
 -12   5   4  247.67   17.20
  -7  12  -4  272.08   17.04
   5   7   1    7.46    4.95
  -5  -7  -1    9.08    5.97
   5   7   1   10.53    6.12
  -5  -7   2  950.10   47.39
  -5  -7   5  115.14    9.45
  -7  12   5  112.46   12.36
 -12   5  -8   38.06   10.06
  -7  12  11    5.42    5.25
  -5  -7  11   12.02    7.28
  12  -5  11    7.82    6.74
   8 -12  11  158.79   10.87
 -12   4  11  140.45   10.24
   4   8  11  158.87   10.01
  -8  12  -8   62.66   10.26
   8 -12   8   73.26    9.73
 -12   4   8   51.44    9.59
  -8  12  -5 1663.67   87.48
 -12   4   5 1782.45   87.30
   4   8   5 1831.45   86.86
  -8  12  -2  143.79   10.81
  12  -4  -2  144.84    8.63
   4   8   2  143.39   11.24
   4   8   2  163.95   10.45
  -4  -8   1  111.82    9.20
 -12   4  -1   99.50    9.05
 -12   4  -4    7.55    8.35
  -4  -8   4   19.72    5.94
  -8  12   4   24.43    9.40
 -12   4  -7  635.58   32.65
  -8  12  10  283.17   16.15
   9 -12  12    6.91    3.36
  12  -3 -12    3.81    3.07
 -12   3  12    5.38    3.33
 -12   3   9   10.58    9.45
  -9  12  -9    8.82   10.03
   9 -12   9   24.53    9.49
 -12   3   6   16.29    6.67
  -9  12  -6   10.41    6.86
   3   9   3   19.51    8.26
  -9  12  -3   35.72    7.63
   3   9   3   33.11    6.46
   3   9   0  253.93   13.74
  -3  -9   3   99.72    9.26
 -12   3  -6  158.72   11.61
   3   9  -6  165.74   11.06
  -3  -9   6  172.43   11.55
 -12   3  -6  172.04   11.14
  -9  12   9  501.81   26.79
 -12   3  -9  530.69   27.75
  -9  12  12   -1.15    2.84
   9 -12 -12   -0.55    3.10
   2  10  10   -2.24    7.45
 -12   2  10    4.87    8.33
 -10  12  -7    9.05    8.66
 -12   2   7   21.92    8.50
 -10  12  -4 2801.37  142.45
 -12   2   4 2807.08  141.46
   2  10   4 3092.06  141.57
   2  10   4 3018.21  143.43
   2  10   1  915.29   44.90
  12  -2  -1  906.32   44.56
   2  10   1  883.13   44.90
  10 -12  -2    5.93    2.98
 -12   2  -2    6.15    6.76
  -2 -10   2   11.56    6.45
  -2 -10   5  290.79   17.92
 -12   2  -5  281.69   16.18
 -10  12   5  313.67   20.22
  -2 -10   5  301.01   15.87
 -12   2  -8  204.17   14.74
 -10  12   8  223.79   13.62
  -2 -10   8  220.88   15.24
 -10  12  11    2.70    4.68
 -12   1  11   -1.76    6.34
  11 -12  11   -6.14    6.50
   1  11  11    9.59    5.47
 -11  12  -8   68.65   10.97
 -12   1   8   58.19    9.79
   1  11   5   13.99    5.14
 -11  12  -5    0.81    7.45
 -11  12  -5    7.92    6.23
 -12   1   5   11.78    5.13
   1  11   2   38.08    7.36
  12  -1  -2   31.75    5.43
   1  11   2   43.30    6.52
 -11  12  -2   36.34    7.58
 -12   1  -1 2749.25  125.78
   1  11  -1 2554.57  124.10
 -11  12   4   31.07    9.32
  -1 -11   4   46.03    7.92
 -12   1  -7   52.73    8.43
 -11  12   7   65.76    7.63
  -1 -11   7   50.74    9.15
   1  11  -7   55.59    8.43
  -1 -11  10   92.60   10.75
 -11  12  10   88.78    8.63
 -12   0   9   17.68    9.87
  12 -12   9   31.38    9.03
 -12  12  -6   40.67    7.54
 -12   0   6   36.52    7.85
 -12  12  -6   36.72    7.61
   0  12   3  137.73    9.96
 -12   0   3  133.85    9.18
 -12  12  -3  129.00   11.57
   0  12   0    6.76    4.95
   0 -12   0    8.06    6.67
 -12   0   0   -0.59    5.95
 -12   0  -3  793.78   41.05
  12   0   3  758.65   40.71
   0 -12   3  775.96   40.16
   0  12  -6  156.10   11.29
 -12  12   6  165.39   10.40
 -12   0  -6  167.97   11.27
 -12   0  -6  187.51   11.69
   0 -12   6  162.08   11.34
 -12  12   9   35.86    8.17
   0 -12   9   23.45   10.40
  12 -12 -12    8.58    2.99
  12   0  12    2.57    3.01
   1 -13  11   11.85    6.99
  12   1  11   17.16    6.04
 -13  12   8  239.86   14.20
   1 -13   8  220.39   15.82
  -1  13  -8  219.51   14.87
 -12  -1  -8  228.60   14.77
 -12  -1  -5  956.80   47.13
   1 -13   5  962.59   46.99
  13 -12  -2   12.66    2.71
 -12  -1  -2    9.78    7.47
  -1  13  -2   17.27    3.38
   1 -13   2    7.09    6.82
 -12  -1   1  290.52   15.35
   1 -13  -1  258.72   16.37
  -1  13   1  303.89   16.58
  12   1  -1  280.30   16.33
  -1  13   4 1105.02   53.81
 -13  12  -4  976.28   52.84
  -1  13   4 1047.50   50.88
 -12  -1   4  996.68   50.33
 -12  -1   7   32.66    8.81
  13 -12  10   76.15    9.49
  -1  13  10   59.61    7.91
 -12  -1  10   59.55    9.57
 -13  11  12    7.49    2.84
  11   2  12    4.34    2.87
 -13  11   9   39.10    8.71
   2 -13   9   70.53   10.63
 -11  -2  -6  185.81   11.86
 -13  11   6  163.88   10.63
  -2  13  -6  173.65   11.32
   2 -13   6  165.22   11.47
 -11  -2  -6  175.34   11.18
  11   2   3 1958.75   89.33
 -11  -2  -3 1819.84   89.27
  -2  13  -3 1745.10   86.74
   2 -13   0   74.72    7.86
  11   2   0   56.27    8.07
 -11  -2   0   67.69    6.77
 -13  11  -3   43.81    8.96
 -11  -2   3   58.65    5.04
  -2  13   3   48.73    9.25
  -2  13   3   59.19    6.78
 -13  11  -6  142.83   10.94
 -11  -2   6  141.75   10.55
  13 -11   9   60.95    9.71
 -11  -2   9   51.71   10.82
   3 -13  10  123.90   11.58
 -13  10  10  129.85   10.05
  -3  13  -7   92.31    9.86
 -13  10   7  101.12    8.98
 -10  -3  -7   98.92    9.21
   3 -13   7   93.75    9.85
  10   3   4   39.85    9.23
  -3  13  -4   43.97    5.66
 -10  -3  -4   63.15   10.28
 -10  -3  -1 1695.51   78.51
  10   3   1 1685.99   78.36
 -10  -3   2   85.70    5.35
  -3  13   2   81.46    9.69
 -13  10  -2   88.88    9.69
 -13  10  -5   57.26    7.19
 -10  -3   5   59.13    7.23
 -13  10  -5   52.42    7.36
 -10  -3   8  158.67   13.35
 -13  10  -8  160.10   13.20
  -3  13  11   20.15    5.17
  13 -10  11   27.46    6.83
 -10  -3  11   28.04    6.97
   9   4  11  185.96   10.92
   4 -13  11  180.33   11.68
 -13   9  11  162.50   10.22
   4 -13   8   89.90   10.77
  -4  13  -8   80.46   10.31
 -13   9   8   82.59    9.65
 -13   9   5 1147.10   54.07
  -4  13  -5  966.79   51.37
  -4  13  -2  711.97   36.44
   9   4   2  773.00   37.90
  -9  -4  -2  736.44   37.82
  -9  -4   1 4174.06  202.05
   9   4  -1 4346.58  203.37
   4 -13  -1 4303.22  203.06
  -9  -4   4   41.76    6.26
 -13   9  -4   55.26    9.72
  -9  -4   4   53.24    4.15
  -9  -4   7  858.72   41.80
 -13   9  -7  798.55   41.89
  -9  -4  10  132.44   12.03
  13  -9  10  150.14   11.34
  -4  13  10  141.61   10.22
 -13   8  12   11.75    3.39
   8   5  12    8.56    3.03
  13  -8 -12    6.93    3.08
   5 -13  12   10.03    3.40
   5 -13   9   35.91    9.75
 -13   8   9   33.96    9.18
  -5  13  -9   23.62    9.41
 -13   8   6   11.96    6.05
  -8  -5  -6   19.78    6.25
   5 -13   6   10.53    6.88
  -5  13  -6   15.98    6.96
   8   5   3   38.97    9.01
  -5  13  -3   34.54    5.90
  -8  -5  -3   53.92    9.13
   8   5   0 1388.60   67.36
   5 -13   0 1382.75   67.19
  -8  -5   0 1355.11   66.47
  -5  13   3  186.50   14.13
 -13   8  -3  174.65   13.62
  -8  -5   3  169.72   11.41
 -13   8  -6   41.54    8.02
 -13   8  -6   29.25    7.42
  -8  -5   6   48.98    7.82
 -13   8  -9    2.36    9.71
  -8  -5   9    6.40   10.26
  -5  13   9   14.53    7.96
  13  -8  12   10.24    3.49
   6 -13  10    5.25    8.87
 -13   7  10   18.03    8.00
 -13   7   7    9.19    7.46
  -6  13  -7   -2.39    7.71
  -7  -6  -7   20.62    7.09
   6 -13   7   -0.75    7.86
   7   6   4 1578.02   79.41
  -6  13  -4 1590.24   77.87
  -7  -6  -4 1520.93   79.39
 -13   7   4 1615.63   78.71
   7   6   1  458.15   24.47
   7   6   1  456.67   25.15
  -7  -6  -1  498.52   24.85
  -7  -6   2  300.39   17.19
  -7  -6   5   48.98    6.78
 -13   7  -5   65.09    6.65
  -7  -6   8  117.53   11.62
 -13   7  -8  102.85   11.74
  13  -7  11    8.99    6.68
  -6  13  11    0.94    4.81
  -7  -6  11    5.01    7.24
   7 -13  11   39.90    7.26
   6   7  11   31.83    6.42
 -13   6  11   32.52    6.14
  -7  13  -8   35.00   10.04
 -13   6   8   58.56    9.39
   7 -13   8   34.67    9.17
 -13   6   5    7.73    6.83
  -7  13  -5   -5.08    6.33
  13  -6  -2  567.80   30.08
   6   7   2  651.84   32.02
  -6  -7  -2  673.76   32.38
  -7  13  -2  610.70   31.48
   6   7   2  687.96   32.25
  -6  -7   1 1610.90   79.05
 -13   6  -1 1608.67   79.34
   6   7  -1 1659.92   79.16
   7 -13  -1 1602.85   78.39
 -13   6  -4   35.43    8.95
  -6  -7   4   41.28    6.77
  -7  13   4   53.07   10.28
 -13   6  -7  275.47   16.57
  13  -6  10   90.64    9.91
  -7  13  10   89.01    8.54
  -6  -7  10   68.57   10.14
 -13   5  12    5.71    3.41
   8 -13  12    6.76    3.19
  13  -5 -12   -1.29    2.91
  -8  13  -9   82.04   10.66
   8 -13   9   65.99   10.37
 -13   5   9   60.48   10.07
  -8  13  -6   29.84    7.29
  -5  -8  -6   38.70    6.53
 -13   5   6   25.27    6.86
  -8  13  -3  483.89   26.82
   5   8   3  537.10   28.06
   5   8   3  501.88   27.06
   5   8   0   50.30    4.98
  -5  -8   3 1398.12   68.97
 -13   5  -6   37.28    7.29
   5   8  -6   46.62    7.07
 -13   5  -6   43.33    8.08
  -8  13   9  650.14   33.01
 -13   5  -9  650.86   33.87
  13  -5  12    1.71    3.50
   8 -13 -12   -1.82    2.70
   9 -13  10   39.90    8.92
 -13   4  10   37.81    8.35
 -13   4   7   28.80    8.24
  -9  13  -7   22.98    8.24
 -13   4   4 1950.32   95.66
   4   9   4 2000.17   97.01
   4   9   4 1971.93   95.50
  -9  13  -4 1887.97   95.89
   4   9   1   29.03    6.65
   4   9   1   29.78    6.05
   9 -13  -2  433.25   21.47
  -4  -9   2  415.26   23.29
 -13   4  -2  423.03   24.03
 -13   4  -5  724.12   36.78
  -4  -9   5  759.90   36.61
  -4  -9   5  725.04   38.49
  -9  13   8   90.13    9.33
 -13   4  -8  100.61   10.93
  13  -4  11   74.60    7.48
  -9  13  11   64.26    5.72
  10 -13  11    1.44    6.66
   3  10  11    8.13    5.66
 -13   3  11    3.60    6.12
 -13   3   8   64.88    9.99
  10 -13   8   81.87    9.83
 -10  13  -8   67.90   10.72
 -10  13  -5   13.73    7.55
   3  10   5   -6.18    5.60
 -13   3   5   12.71    5.85
 -10  13  -5   11.59    5.94
   3  10   2  140.18    9.59
 -10  13  -2  133.97   10.54
   3  10   2  130.36   10.54
  13  -3  -2  122.87    8.47
 -13   3  -1   10.38    6.16
  -3 -10   1    1.54    5.53
  -3 -10   4   95.49    9.50
 -10  13   4  124.89   12.25
   3  10  -7    8.91    7.72
  -3 -10   7    9.21    8.74
 -10  13   7    6.28    6.47
 -13   3  -7   -0.59    7.83
 -10  13  10  216.46   13.08
 -13   2  12   84.93    5.22
 -11  13  -9   10.53    9.84
  11 -13   9   -3.04    8.88
 -11  13  -6  195.28   12.50
 -11  13  -6  188.97   12.59
 -13   2   6  182.88   12.25
   2  11   3  160.68   12.84
   2  11   3  152.59   10.97
 -11  13  -3  143.41   12.03
 -13   2   0   98.84    8.36
   2  11   0   86.64    7.02
  -2 -11   0   98.15    8.68
 -13   2  -3  698.03   38.53
  -2 -11   3  748.03   37.77
  -2 -11   6  377.86   20.33
 -13   2  -6  387.38   20.20
 -11  13   6  359.39   19.41
 -13   2  -6  358.90   20.51
   2  11  -6  395.80   20.06
 -11  13   9    9.68    7.61
  -2 -11   9    8.56    9.89
 -13   2  -9   29.24    9.26
  11 -13 -12   52.67    4.00
   1  12  10   17.68    7.25
 -13   1  10    3.02    8.32
 -12  13 -10   22.45    8.60
  12 -13  10   19.94    8.27
 -13   1   7  116.54   10.68
 -12  13  -7  107.95   10.91
   1  12   4  482.68   25.81
 -13   1   4  482.81   25.43
 -12  13  -4  458.01   27.33
   1  12   4  520.15   28.41
  13  -1  -1   39.23    6.41
   1  12   1   50.91    6.95
   1  12   1   39.65    6.48
 -13   1  -2 1198.03   58.14
  -1 -12   2 1215.89   57.80
  12 -13  -2 1131.51   55.61
 -13   1  -5   56.01    7.27
  -1 -12   5   65.72    7.16
  -1 -12   5   64.23    8.58
 -13   1  -8  540.54   29.33
 -12  13   8  563.38   28.59
  -1 -12   8  567.70   29.69
  -1 -12  11   17.76    6.95
  13 -13  11    9.86    6.09
   0  13  11    1.91    4.70
 -13   0   8   82.72   10.85
 -13  13  -5  289.19   16.26
 -13  13  -5  291.49   16.17
 -13   0   5  290.71   16.08
   0  13   2    4.54    6.06
  13   0  -2    3.26    4.91
 -13  13  -2    2.59    7.26
   0  13   2    4.35    5.98
 -13   0  -1   45.31    7.63
  13   0   4  984.05   51.78
 -13   0  -4  956.68   51.89
   0 -13   4 1019.68   50.95
   0 -13   7   95.87   10.39
   0  13  -7  100.71    9.78
 -13  13   7   98.38    8.53
 -13   0  -7   82.93    9.58
   0 -13  10   79.11    9.98
 -13  13  10   62.49    7.54
   1 -14   9    3.68    9.70
 -14  13   9   -6.53    7.46
 -13  -1  -6   19.30    7.49
   1 -14   6   33.45    7.81
  -1  14  -6   29.24    7.11
 -13  -1  -6   31.27    6.73
 -14  13   6   37.48    5.96
  13   1   3   14.79    7.84
   1 -14   3    6.44    6.52
  -1  14  -3   15.57    2.81
 -13  -1  -3   19.39    8.55
   1 -14   0 2016.54  100.52
 -13  -1   0 2102.56  100.04
 -13  -1   3   26.63    4.59
  -1  14   3   32.07    6.21
  -1  14   3   38.31    8.89
 -14  13  -3   35.79    8.73
 -14  13  -6   16.95    7.56
 -13  -1   6   29.88    7.79
  14 -13   9  303.34   17.54
 -13  -1   9  275.68   18.00
   2 -14  10   99.17   10.20
 -14  12  10   85.17    8.24
   2 -14   7    9.77    8.18
 -14  12   7    6.96    6.85
 -12  -2  -7    2.18    7.71
  -2  14  -7    0.28    7.75
  12   2   4  295.43   18.77
 -12  -2  -4  299.14   19.04
  -2  14  -4  257.18   14.46
 -12  -2  -1   43.10    7.21
 -12  -2   2    2.90    3.25
 -14  12  -2   15.22    7.52
  12   2  -2    6.62    5.60
  -2  14   2    3.82    7.13
 -14  12  -5    6.12    6.40
 -12  -2   5   11.22    6.66
 -12  -2   8   63.75   10.75
 -12  -2  11   -0.35    6.18
  -2  14  11    6.77    4.43
  14 -12  11   11.72    6.14
   3 -14  11    7.84    6.78
  11   3  11    0.17    5.92
 -14  11   8   44.35    8.50
  -3  14  -8   56.79    9.68
 -11  -3  -8   40.22    8.75
   3 -14   8   47.86    9.91
 -11  -3  -5   22.43    6.20
   3 -14   5    5.76    5.55
 -11  -3  -2  510.78   24.79
  11   3   2  504.51   24.52
  11   3  -1 1394.64   71.26
 -11  -3   1 1476.59   70.15
   3 -14  -1 1464.84   71.24
  -3  14   4   15.63    9.51
 -11  -3   4    8.06    3.01
 -14  11  -7   48.42    8.62
 -11  -3   7   45.28    9.08
 -14  11 -10    7.05    8.52
  14 -11  10   14.50    8.19
  -3  14  10    9.04    6.63
 -11  -3  10    7.43    8.73
 -14  10  12   12.79    2.97
 -14  10   9   12.80    7.93
   4 -14   9   11.06    9.78
   4 -14   6  214.94   13.21
 -14  10   6  206.79   12.46
 -10  -4  -6  221.86   12.92
  -4  14  -6  214.74   13.10
  -4  14  -3 1352.26   70.11
 -10  -4  -3 1558.23   72.61
  10   4   3 1549.69   72.42
 -10  -4   0  196.15   11.71
   4 -14   0  207.25   12.94
  10   4   0  187.17   12.69
 -14  10  -3  238.09   16.50
  -4  14   3  237.39   16.46
 -10  -4   6    7.61    7.72
 -14  10  -6   13.48    7.43
 -14  10  -6    5.46    6.78
 -14  10  -9  135.57   11.96
 -10  -4   9  106.88   12.68
  -4  14   9  141.93   10.44
 -14   9  10   16.12    7.24
   5 -14  10   10.13    8.81
 -14   9   7  174.37   12.18
  -5  14  -7  188.41   12.90
  -9  -5  -7  193.68   12.25
   5 -14   7  192.81   12.86
   9   5   4  840.86   44.09
  -5  14  -4  788.85   41.76
  -9  -5  -4  901.72   44.61
   9   5   1  117.49    8.99
  -9  -5  -1  129.74    9.78
 -14   9  -5  260.75   14.47
  -9  -5   5  263.21   14.54
 -14   9  -5  245.77   14.43
  -9  -5   5  235.68   14.88
  -9  -5   8  160.74   13.53
 -14   9  -8  154.65   13.14
  -9  -5  11  159.57   10.24
  -5  14  11  123.76    8.34
  14  -9  11  156.60    9.89
 -14   8  11   24.63    5.31
   8   6  11   10.27    6.10
   6 -14  11   12.96    6.71
 -14   8   8   25.02    8.81
  -6  14  -8   23.06    9.61
   6 -14   8   22.56    8.90
 -14   8   5  291.77   19.64
  -6  14  -5  296.18   18.19
  -6  14  -5  314.39   16.51
   8   6   2   95.49    9.09
  -6  14  -2   81.62    7.86
  14  -8  -2   84.21    5.63
  -8  -6  -2   83.79    9.55
   8   6  -1  756.26   39.29
   6 -14  -1  792.38   38.85
 -14   8  -4  323.97   20.19
  -8  -6   4  292.54   17.38
  -8  -6   7   78.56   10.08
 -14   8  -7   75.02    9.89
  -8  -6  10   45.18    9.80
  -6  14  10   53.43    7.50
  14  -8  10   64.45    9.02
  14  -7 -12   75.09    4.79
 -14   7   9   41.30    8.96
  -7  14  -9   42.89    9.82
   7 -14   9   37.47    9.82
  -7  14  -6  948.78   46.60
  -7  -7  -6  972.65   46.27
 -14   7   6  940.21   46.26
   7 -14   6  905.26   46.27
  -7  14  -3  997.81   51.80
   7   7   3 1055.27   53.03
  -7  -7  -3 1090.57   53.37
   7   7   0   68.59    5.76
  -7  -7   0   72.84    6.09
  -7  -7   3  206.65   13.58
 -14   7  -3  224.89   15.62
 -14   7  -6  366.82   20.21
 -14   7  -9   29.07    9.14
  -7  14   9   18.80    7.55
  14  -7  12   33.33    3.54
   8 -14  10   25.68    8.66
 -14   6  10   25.71    8.08
  -8  14  -7   13.86    8.34
 -14   6   7    5.70    7.76
   8 -14   7    9.48    7.80
  -8  14  -4  283.34   17.98
 -14   6   4  304.41   18.34
   6   8   4  307.06   19.79
   6   8   4  312.50   18.24
   6   8   1   -2.41    6.22
   6   8   1   16.39    5.26
 -14   6  -2 1559.07   81.35
   8 -14  -2 1627.70   79.56
  -6  -8   2 1767.53   80.98
  -6  -8   5   35.91    6.73
 -14   6  -5   16.99    5.81
  -6  -8   5   19.90    6.15
 -14   6  -8  351.24   21.34
  -8  14   8  375.71   19.96
  14  -6  11    0.52    6.29
 -14   5  11   53.34    6.50
   5   9  11   57.03    6.58
   9 -14  11   63.83    7.55
   9 -14   8   -0.28    8.88
 -14   5   8    1.98    8.92
  -9  14  -8    5.12    9.17
   5   9   5  150.81   12.05
  -9  14  -5  163.01   13.04
  -9  14  -5  175.49   10.95
 -14   5   5  181.21   12.49
   5   9   2  507.05   25.44
   5   9   2  505.10   25.66
  14  -5  -2  444.79   23.76
  -5  -9   1   94.59    9.30
 -14   5  -1  100.79    9.65
   9 -14  -1  107.49    7.69
  -5  -9   4   47.21    7.33
 -14   5  -4   37.36    9.46
  -9  14   4   47.28    9.81
  -5  -9   7   28.65    9.06
 -14   5  -7   27.30    8.57
  -9  14  10   22.05    6.71
 -14   4  12   11.08    2.91
 -14   4   9   33.01    9.38
 -10  14  -9   37.76   10.03
  10 -14   9   21.05    9.35
 -10  14  -6   10.24    7.52
 -14   4   6   -7.74    6.75
   4  10   3    9.80    7.70
 -10  14  -3   24.19    7.50
   4  10   3   18.10    6.28
   4  10   0  674.68   33.44
  -4 -10   3   67.96    8.39
  -4 -10   6   13.79    7.28
 -14   4  -6    6.46    7.27
   4  10  -6   14.06    6.16
 -14   4  -6    4.86    7.12
 -14   4  -9 1092.70   54.05
 -10  14   9 1078.54   53.26
  -4 -10   9 1092.69   54.27
  14  -4  12    4.20    3.07
  11 -14  10   96.33    9.97
 -14   3  10  108.92    9.88
 -11  14  -7   11.50    8.70
 -14   3   7   13.38    8.50
 -14   3   4  143.46   10.64
   3  11   4  158.40   13.43
 -11  14  -4  118.72   11.58
   3  11   4  148.62   10.90
   3  11   1  103.76    8.28
   3  11   1  105.22    8.77
  -3 -11   2 1739.33   84.35
  11 -14  -2 1701.26   82.48
 -14   3  -2 1740.41   84.77
 -14   3  -5   90.09    8.38
 -14   3  -5   89.92    7.97
  -3 -11   5   82.81    9.07
  -3 -11   5  101.05    8.28
  -3 -11   8  434.23   24.63
 -14   3  -8  422.53   24.30
 -11  14   8  467.05   23.46
  -3 -11  11    2.10    6.73
  14  -3  11   -0.17    6.17
 -14   2  11    4.81    6.04
   2  12  11   14.02    5.14
  12 -14  11   -2.29    6.22
  12 -14   8  227.62   14.56
 -14   2   8  229.71   15.33
 -12  14  -8  214.27   15.82
 -14   2   5 1319.33   64.05
 -12  14  -5 1337.15   64.17
   2  12   5 1344.27   65.67
 -12  14  -5 1289.58   64.29
 -12  14  -2  837.66   44.35
   2  12   2  933.35   43.97
  14  -2  -2  817.62   42.99
   2  12   2  915.85   44.48
 -14   2  -1 1086.10   51.66
   2  12  -1 1014.48   49.38
 -12  14   4 1653.35   84.29
  -2 -12   4 1688.58   83.10
 -12  14   7    1.37    6.36
  -2 -12   7   -9.14    9.17
   2  12  -7   11.82    7.49
 -12  14  10   44.10    6.73
  -2 -12  10   56.49    9.79
 -13  14  -9   10.14    9.85
 -14   1   9   20.44    9.39
  13 -14   9   17.59    8.81
 -13  14  -6   83.04    8.96
 -13  14  -6   91.19    8.97
 -14   1   6   67.22    8.77
   1  13   3  163.05   11.47
 -13  14  -3  147.39   12.82
 -14   1   0 1130.30   54.43
  -1 -13   0 1160.66   55.06
   1  13   0 1038.94   53.78
  -1 -13   3 1264.84   62.88
 -14   1  -3 1235.89   63.70
 -14   1  -6  262.71   15.95
  -1 -13   6  270.89   16.01
   1  13  -6  284.88   15.58
 -14   1  -6  266.45   15.60
  -1 -13   9    9.36    9.94
 -13  14   9   22.28    7.55
 -14   1  -9   28.85    8.45
 -14   0  10  131.70   11.21
  14 -14  10  138.23   10.76
   0  14  10  127.12    9.65
 -14   0   7  227.50   14.36
 -14  14  -7  185.93   14.60
 -14   0   4   32.21    4.99
 -14  14  -4   27.57    8.33
   0  14   4   30.83    9.26
   0  14   4   39.06    6.46
 -14   0   1  219.08   13.57
  14   0  -1  242.80   14.73
   0  14   1  269.89   14.95
  14 -14  -2  693.57   34.33
   0 -14   2  719.18   37.01
 -14   0  -2  738.53   37.23
   0 -14   5  275.89   15.22
 -14   0  -5  265.63   15.37
 -14   0  -5  274.03   14.95
   0 -14   8   87.32   11.38
 -14   0  -8   88.51    9.76
 -14  14   8   83.03    8.81
   0 -14  11    5.79    6.48
 -14  14  11   18.53    5.82
   1 -15  10   20.62    8.50
 -15  14   7  172.80   11.67
  -1  15  -7  201.48   12.84
   1 -15   7  190.68   13.41
 -14  -1  -7  177.85   12.60
   1 -15   4  319.84   18.83
  14   1   4  252.37   18.93
 -14  -1  -1 1013.50   50.96
  14   1  -2  479.00   26.11
  -1  15   2  517.75   27.13
 -14  -1   2  499.26   25.04
 -15  14  -2  482.81   27.56
 -14  -1   5  533.31   27.73
 -15  14  -5  556.47   27.92
 -14  -1   8   58.53   10.77
  -1  15  11   66.84    5.44
 -14  -1  11   85.76    6.94
  15 -14  11   83.08    7.14
   2 -15  11   22.81    6.55
  13   2  11   10.36    5.93
 -15  13  11   20.01    5.87
 -13  -2  -8  512.60   27.47
  -2  15  -8  513.85   27.65
   2 -15   8  530.90   28.19
 -15  13   8  530.29   27.15
  -2  15  -5   43.72    6.29
   2 -15   5   50.53    6.77
 -13  -2  -5   57.67    7.06
   2 -15   2  835.30   41.90
  -2  15  -2  795.76   39.58
 -13  -2  -2  829.33   42.08
  13   2  -1  295.27   17.85
 -13  -2   1  307.58   16.43
   2 -15  -1  309.61   17.94
  -2  15   1  316.99   18.03
 -13  -2   4 1124.47   56.26
 -15  13  -4 1162.75   59.83
 -13  -2   7    2.95    8.80
  15 -13  10  144.77   10.96
  -2  15  10  143.16    9.88
 -13  -2  10  134.26   11.79
   3 -15   9    0.60    9.95
 -15  12   9    0.67    7.62
   3 -15   6  921.14   45.15
  -3  15  -6  929.22   45.27
 -12  -3  -6  917.73   45.00
 -12  -3  -6  935.16   45.32
 -15  12   6  878.70   44.66
  12   3   3   85.57   10.06
 -12  -3  -3   99.10   10.39
  -3  15  -3   65.06    5.92
  12   3   0 1705.53   83.22
   3 -15   0 1665.36   83.06
 -12  -3   0 1712.91   82.39
 -12  -3   3    6.14    2.31
 -15  12  -3   10.28    7.94
 -12  -3   3    7.41    2.21
  -3  15   3    5.57    8.36
 -12  -3   6  436.01   23.26
 -15  12  -6  439.63   23.49
 -12  -3   9   58.36   10.35
 -15  12  -9   57.80   10.62
   4 -15  10   89.27   10.00
 -15  11  10   87.79    8.20
 -15  11   7   31.37    7.50
  -4  15  -7   32.38    8.12
   4 -15   7   15.91    8.07
 -11  -4  -7   17.17    7.48
  11   4   4  668.37   36.99
  -4  15  -4  639.66   33.79
 -11  -4  -4  763.27   37.76
 -11  -4  -1  587.16   26.78
   4 -15   1  416.59   26.39
 -15  11  -2   34.18    8.32
  -4  15   2   32.81    8.32
 -11  -4   5   39.20    6.88
 -15  11  -5   35.00    6.89
 -15  11  -5   47.27    7.12
 -15  11  -8  141.16   12.96
 -11  -4   8  144.31   13.02
  15 -11  11   14.31    6.13
   5 -15  11   57.10    7.28
  10   5  11   53.63    6.92
 -15  10  11   71.30    7.21
   5 -15   8   10.20    9.37
  -5  15  -8   15.97    9.11
 -15  10   8   10.53    8.21
   5 -15   5  268.47   14.46
 -10  -5  -5  243.64   14.47
  -5  15  -5  264.43   14.76
 -15  10   5  282.81   18.57
  -5  15  -2  562.03   30.67
 -10  -5  -2  666.06   32.55
  10   5   2  641.36   32.15
 -10  -5   1   13.01    3.13
   5 -15  -1   21.99    6.48
  10   5  -1    9.75    6.01
  -5  15   4   60.10    9.87
 -15  10  -4   63.04   10.22
 -10  -5   7  194.73   13.97
 -15  10  -7  191.03   13.31
 -15  10  -7  174.17   13.65
  15 -10  10   45.79    8.50
 -15  10 -10   52.64    9.15
 -10  -5  10   48.38    9.75
  -5  15  10   50.11    7.12
  -6  15  -9   60.85   10.13
   6 -15   9   54.01   10.28
 -15   9   9   61.05    9.09
  -6  15  -6   12.84    7.25
  -9  -6  -6    7.09    6.18
 -15   9   6   -0.99    6.20
   6 -15   6   16.52    6.75
  -6  15  -3  264.31   15.51
   9   6   3  273.08   17.51
  -9  -6  -3  266.51   17.77
  -9  -6   0   78.56    6.97
   9   6   0  105.03    9.06
   6 -15   0  100.19    8.80
 -15   9  -3 1826.29   89.87
  -9  -6   3 1761.67   88.44
  -6  15   3 1867.45   90.08
 -15   9  -6   44.43    7.78
  -9  -6   6   37.94    8.20
 -15   9  -6   45.65    8.18
 -15   9  -9   51.95   10.28
  -9  -6   9   45.93   10.48
  -6  15   9   44.73    7.78
 -15   8  10   27.74    7.41
   7 -15  10   39.41    9.03
 -15   8   7    4.09    7.51
   7 -15   7    1.26    7.96
  -7  15  -7    3.04    7.62
  -7  15  -4  216.16   14.21
   8   7   4  242.05   16.96
   8   7   1  561.51   29.18
  -8  -7  -1  577.21   29.60
  -8  -7   2 1007.35   50.51
 -15   8  -5   52.13    7.11
  -8  -7   5   51.08    6.98
 -15   8  -8  108.84   11.48
  15  -8  11    9.89    6.02
  -8  -7  11   10.71    6.69
   8 -15  11   18.75    6.29
   7   8  11   11.61    5.58
   8 -15   8   56.20    9.43
 -15   7   8   51.99    9.28
  -8  15  -8   50.70   10.01
   7   8   5    5.28    6.47
  -8  15  -5    1.95    6.29
 -15   7   5   12.85    7.01
  -8  15  -5   -4.52    6.14
   7   8   2  712.87   35.10
  -7  -8  -2  716.37   35.46
  15  -7  -2  625.97   33.03
   7   8   2  719.61   35.10
   8 -15  -1    6.57    5.31
 -15   7  -1   -8.06    7.12
  -7  -8   4 1280.08   63.01
 -15   7  -4 1231.52   64.71
 -15   7  -7   32.20    8.90
  -8  15  10  437.27   23.81
  15  -7  10  519.08   24.88
  -9  15  -9   17.91    9.72
 -15   6   9   29.23    9.31
   9 -15   9   20.91    8.99
  -9  15  -6   -0.81    7.16
 -15   6   6    7.34    6.79
   6   9   3  312.31   19.14
  -9  15  -3  286.26   17.84
   6   9   3  316.57   18.14
   6   9   0   78.31    6.24
  -6  -9   3   46.39    7.46
 -15   6  -6    2.12    7.10
  -6  -9   6    8.29    7.89
 -15   6  -6    9.95    7.38
  -9  15   9   14.11    7.19
 -15   6  -9   10.86    9.20
 -15   5  10   -6.98    7.71
  10 -15  10    4.29    8.31
  10 -15   7   78.73    9.09
 -10  15  -7   70.38    9.39
 -15   5   7   71.43    9.06
   5  10   4  260.16   15.85
   5  10   4  266.46   17.68
 -10  15  -4  231.03   15.79
 -15   5   4  237.44   15.70
   5  10   1  148.85   10.76
   5  10   1  133.07    9.62
  -5 -10   2  497.75   25.76
  10 -15  -2  459.16   23.92
 -15   5  -2  487.50   26.62
 -15   5  -5   76.48    8.10
  -5 -10   5   88.18    8.95
  -5 -10   5   78.44    8.07
 -15   5  -5   82.26    7.89
  -5 -10   8   31.05   10.36
 -10  15   8   40.19    7.42
 -15   5  -8   40.45    8.94
  15  -5  11   92.27    7.90
  11 -15  11   15.90    6.03
 -15   4  11   31.21    6.20
   4  11  11   20.53    5.33
 -11  15  -8   15.53    9.90
 -15   4   8    9.59    9.22
  11 -15   8   28.85    8.59
 -11  15  -5  448.23   27.39
 -11  15  -5  479.66   24.91
   4  11   5  503.21   26.59
 -15   4   5  474.88   24.61
 -11  15  -5  501.88   24.76
 -15   4   5  465.08   26.40
   4  11   2   -2.47    6.21
   4  11   2    6.86    5.76
  15  -4  -2    2.38    4.21
 -15   4  -1  529.40   28.32
  -4 -11   1  530.08   28.22
 -11  15   4    5.17    8.77
  -4 -11   4    4.76    6.47
 -15   4  -7  327.12   18.70
  -4 -11   7  303.89   18.74
 -11  15   7  323.34   17.36
 -11  15  10   79.02    7.30
  -4 -11  10   71.00   10.31
  12 -15   9   19.42    8.97
 -12  15  -9   36.64    9.86
 -15   3   9   25.12    9.26
 -15   3   6   -0.24    7.42
 -12  15  -6   11.22    7.90
 -12  15  -6   12.77    7.15
   3  12   3   51.92    9.00
 -12  15  -3   56.79    8.70
   3  12   3   75.74    7.93
  -3 -12   0   70.99    8.45
 -15   3   0   72.31    8.03
   3  12   0   74.82    6.21
 -15   3  -3  398.70   23.90
  -3 -12   3  391.13   22.43
   3  12  -6  181.86   11.51
 -15   3  -6  180.03   11.89
  -3 -12   6  187.92   12.52
 -15   3  -6  173.67   12.40
  -3 -12   9  161.02   13.15
 -15   3  -9  150.64   12.05
 -12  15   9  133.27   10.35
 -15   2  10  123.06   10.57
  13 -15  10  129.98   10.45
   2  13  10  125.27    9.71
 -13  15 -10  119.07   10.76
 -13  15  -7   40.42    8.89
 -15   2   7   30.28    8.86
   2  13   4   24.57    8.91
   2  13   4   17.90    6.10
 -13  15  -4   29.82    8.49
 -15   2   4   27.05    5.62
   2  13   1  347.08   20.03
  15  -2  -1  330.99   19.47
   2  13   1  381.13   19.68
 -15   2  -2   16.75    7.68
  -2 -13   2   19.68    7.44
  13 -15  -2   14.52    3.61
 -15   2  -5   80.44    8.08
  -2 -13   5   79.90    8.07
 -15   2  -5   81.14    7.53
 -13  15   8  261.04   15.02
 -15   2  -8  258.86   16.16
  -2 -13   8  248.67   17.11
  -2 -13  11   14.89    6.62
 -13  15  11    4.82    5.60
   1  14  11  102.14    7.20
  14 -15  11  121.66    8.32
 -15   1  11  118.27    8.25
 -15   1   8   11.03    8.84
  14 -15   8   16.27    8.65
 -14  15  -8   27.16    9.50
 -14  15  -5   25.81    6.75
 -14  15  -5   28.13    6.83
 -15   1   5   30.57    6.71
  15  -1  -2  176.62   11.66
   1  14   2  192.31   12.40
   1  14   2  195.95   12.94
 -14  15  -2  178.28   13.50
   1  14  -1 3143.50  150.11
 -15   1  -1 3134.74  151.93
  -1 -14   4   96.10    9.78
   1  14  -7    7.19    7.62
 -15   1  -7   24.46    8.18
  -1 -14   7   -4.67    9.11
  -1 -14  10    5.89    8.70
  15 -15   9  390.02   20.79
 -15   0   9  352.89   21.42
 -15  15  -6   30.84    8.16
 -15   0   6   35.10    7.90
 -15  15  -6   32.66    7.66
   0  15   3  533.82   26.25
   0  15   3  496.52   27.59
 -15   0   0 3368.99  164.64
   0 -15   0 3389.94  165.26
   0  15   0 3482.66  164.34
   0 -15   3  980.67   49.86
 -15   0  -3  951.41   50.44
 -15   0  -6  108.60   10.08
   0  15  -6  123.49    9.50
   0 -15   6  121.97   10.30
 -15   0  -6  116.77    9.48
 -15  15   9  406.00   21.75
   0 -15   9  434.76   23.39
  16 -15 -11   18.62    5.39
   1 -16  11   25.14    6.21
 -15  -1  -8   91.94    9.74
   1 -16   8   88.95   11.36
 -15  -1  -5   58.13    7.61
  -1  16  -5   56.41    6.58
   1 -16   5   55.26    7.62
 -15  -1  -5   58.28    6.71
 -15  -1  -2 1368.91   61.58
  -1  16  -2 1164.06   58.13
   1 -16   2 1341.70   61.37
  15   1  -1  987.70   50.12
 -15  -1   1  974.54   49.09
  -1  16   1 1036.33   50.20
 -16  15  -4   10.41    5.78
 -15  -1   7   65.96   10.37
 -15  -1  10   14.55    8.10
  16 -15  10    3.06    7.46
  -1  16  10   14.70    5.88
   2 -16   9  138.17   12.03
 -16  14   9  110.61    9.58
 -14  -2  -6  155.83   10.86
   2 -16   6  165.86   11.71
  -2  16  -6  150.93   11.06
 -14  -2  -6  166.19   11.52
 -14  -2  -3   12.68    8.17
  -2  16  -3   12.28    2.76
   2 -16   0  267.03   16.72
 -14  -2   0  264.24   15.52
  14   2   0  287.34   16.85
 -16  14  -3  585.36   30.34
 -14  -2   3  521.79   26.30
  -2  16   3  625.84   30.61
 -14  -2   3  514.63   26.16
 -14  -2   6    0.26    8.28
 -16  14  -6    5.08    7.89
  16 -14   9   19.08    8.44
 -14  -2   9    5.73    9.81
   3 -16  10   56.00    9.31
 -16  13   7    9.05    6.85
   3 -16   7    9.15    8.58
  -3  16  -7   15.63    8.14
 -13  -3  -7    2.10    7.33
   3 -16   4  327.69   18.80
  13   3   4  331.44   19.88
   3 -16   1   63.89    8.38
 -13  -3  -1   58.87    7.92
  -3  16   2 1058.99   48.90
 -16  13  -2  936.30   48.69
 -13  -3   2  921.55   45.65
 -13  -3   5  402.51   21.40
 -16  13  -5  397.82   21.37
 -13  -3   8  524.21   28.39
  16 -13  11   50.56    6.18
 -13  -3  11   44.24    5.74
   4 -16  11    4.22    6.24
 -16  12  11    3.28    5.71
  12   4  11   -2.73    5.49
 -16  12   8    9.87    7.85
   4 -16   8   29.22    9.45
  -4  16  -8   23.63    9.19
   4 -16   5  351.49   18.63
 -12  -4  -5  356.85   18.78
  -4  16  -5  346.48   18.68
  -4  16  -2  711.99   37.08
 -12  -4  -2  754.84   38.98
  12   4   2  817.81   39.13
   4 -16  -1   25.50    6.71
 -12  -4   1   37.19    4.54
 -16  12  -4   45.14    9.40
  -4  16   4   59.57   10.48
 -12  -4   7  133.00   11.67
 -16  12  -7  118.99   11.92
 -16  12  -7  145.90   11.91
  16 -12  10  116.71   10.29
 -12  -4  10  119.21   11.29
  -4  16  10  129.54    8.87
 -16  12 -10  114.37   10.86
 -16  11   9   16.45    7.65
   5 -16   9    3.20    9.69
  -5  16  -6   20.08    6.92
   5 -16   6   29.07    7.15
 -11  -5  -6   27.45    6.31
 -16  11   6   19.70    6.23
  -5  16  -3   38.96    5.51
  11   5   3   61.58    9.24
 -11  -5  -3   55.63   10.25
 -11  -5   0 1807.75   88.33
  11   5   0 1830.60   89.44
   5 -16   0 1845.01   89.17
  -5  16   3  515.47   29.01
 -16  11  -3  488.64   28.72
 -16  11  -6   67.82    9.09
 -11  -5   6   52.63    8.92
 -16  11  -6   61.83    8.93
 -16  11  -9   70.01   10.36
 -11  -5   9   62.79   10.88
  -5  16   9   56.67    7.94
 -16  10  10   17.20    6.73
   6 -16  10    9.99    8.45
  -6  16  -7   45.41    9.06
 -16  10   7   36.57    7.82
 -10  -6  -7   51.01    7.75
  -6  16  -4  509.55   28.14
 -10  -6  -4  571.29   31.35
  10   6   4  568.97   30.96
  10   6   1  682.12   34.31
 -10  -6  -1  660.34   34.39
 -10  -6   5  202.57   12.75
 -16  10  -5  211.94   12.92
 -16  10  -5  220.37   13.15
 -10  -6   8  284.68   18.16
 -16  10  -8  287.46   18.14
  16 -10  11   44.81    6.43
 -10  -6  11   44.08    5.60
   7 -16  11   20.06    6.42
   9   7  11   42.25    6.05
 -16   9   8   14.76    8.34
   7 -16   8   20.45    8.72
  -7  16  -8   16.70    8.60
  -7  16  -5    7.78    6.21
   9   7   5    4.39    6.31
   7 -16   5   10.10    5.60
 -16   9   5   24.10    8.33
  -9  -7  -5   15.18    5.72
  16  -9  -2   11.04    3.58
  -9  -7  -2   25.15    7.38
   9   7   2   30.12    6.93
   9   7   2   23.50    6.70
   9   7  -1  369.57   21.38
   7 -16  -1  387.61   20.51
 -16   9  -1  370.52   21.61
  -9  -7   4   23.10    6.12
 -16   9  -4   34.82    9.24
 -16   9  -7  444.41   24.50
  -9  -7  10   92.07   10.56
 -16   9 -10   90.40    9.87
  -7  16  10   80.84    7.62
  16  -9  10  105.12    9.63
 -16   8   9   12.92    8.18
  -8  16  -9   26.11    9.20
   8 -16   9   18.52    9.47
  -8  -8  -6    6.84    5.90
  -8  16  -6    4.00    6.90
 -16   8   6    4.62    6.59
   8 -16   6    0.21    6.82
   8   8   3  653.70   33.71
   8   8   3  627.95   34.36
  -8  16  -3  621.76   32.89
   8   8   0    5.89    6.73
   8   8   0    2.86    4.16
  -8  16   3  193.23   15.06
  -8  -8   3  187.43   12.88
 -16   8  -6   -2.75    7.06
 -16   8  -9  124.26   12.05
  -8  16   9  124.20    9.74
 -16   7  10   34.30    7.63
   9 -16  10   39.69    8.63
   9 -16   7   20.70    8.19
  -9  16  -7   25.38    8.91
 -16   7   7   20.70    8.15
   7   9   4   48.76    9.37
   7   9   4   32.75    7.55
  -9  16  -4   38.56    7.39
   7   9   1   17.89    6.85
   7   9   1   30.57    6.00
   9 -16  -2  418.19   21.71
 -16   7  -2  409.21   24.05
  -7  -9   2  423.69   23.20
 -16   7  -5    8.91    5.99
  -7  -9   5    0.88    6.87
  -7  -9   5    9.83    6.18
  -9  16   8  136.62   10.25
 -16   7  -8  143.49   12.42
  16  -7  11   18.19    5.88
   6  10  11  178.04   10.41
  10 -16  11  171.34   10.95
 -16   6  11  184.97   11.10
 -10  16  -8    7.82    9.85
  10 -16   8   15.81    8.72
 -16   6   8   21.76    8.75
 -10  16  -5  599.63   28.31
   6  10   5  572.03   30.47
 -10  16  -5  574.98   28.09
 -16   6   5  535.75   27.95
 -16   6   5  533.03   30.48
 -10  16  -5  472.83   30.35
  16  -6  -2  645.53   34.39
   6  10   2  749.97   36.11
   6  10   2  743.75   36.26
 -16   6  -1 1345.59   66.45
  -6 -10   1 1336.13   66.30
  10 -16  -1 1330.79   65.42
  -6 -10   4  428.08   24.30
 -10  16   4  440.76   26.61
 -16   6  -7  565.58   29.42
 -10  16   7  578.07   28.40
  -6 -10   7  540.61   29.66
 -16   6  -7  551.00   29.75
 -11  16  -9  257.12   15.79
 -16   5   9  204.79   14.96
  11 -16   9  235.04   14.98
 -16   5   6    3.22    7.27
 -11  16  -6   20.94    7.68
   5  11   3 2159.09  104.69
   5  11   3 2338.63  105.67
 -11  16  -3 1974.05  104.59
   5  11   0  328.57   17.30
  -5 -11   3 1201.43   59.23
 -16   5  -3 1140.62   59.99
 -16   5  -6  398.06   21.86
  -5 -11   6  391.43   21.86
 -16   5  -6  404.83   21.54
 -16   5  -9  254.38   16.00
 -11  16   9  232.39   14.16
  -5 -11   9  251.79   16.68
  12 -16  10   55.04    8.64
 -16   4  10   54.80    8.57
 -12  16  -7   10.76    9.26
  12 -16   7    0.24    7.80
 -16   4   7    5.98    8.19
   4  12   4  292.53   18.22
   4  12   4  272.60   16.19
 -12  16  -4  246.03   16.57
 -16   4   4  227.36   15.35
   4  12   1  122.20    9.79
   4  12   1  135.13   10.12
  -4 -12   2  763.45   39.14
  12 -16  -2  743.34   36.97
 -16   4  -2  757.01   39.54
 -16   4  -5   22.65    6.88
 -16   4  -5   22.62    6.17
  -4 -12   5   30.08    7.27
 -12  16   8  200.57   12.31
  -4 -12   8  182.28   14.66
 -16   4  -8  187.75   13.87
  -4 -12  11   40.85    7.13
  16  -4  11   38.31    6.30
 -12  16  11   44.06    5.80
 -16   3  11  111.20    8.24
   3  13  11  105.54    7.08
 -16   3   8  144.83   12.47
 -13  16  -8  143.92   12.53
  13 -16   8  151.97   11.96
 -16   3   5  222.75   12.87
 -13  16  -5  205.96   13.13
 -13  16  -5  208.39   12.78
   3  13   2   37.84    6.35
  16  -3  -2   33.39    5.62
   3  13   2   29.96    6.29
 -16   3  -1   40.26    7.93
   3  13  -1   38.08    2.80
 -13  16   4   44.04    9.62
  -3 -13   4   32.81    7.87
 -16   3  -7  287.87   17.06
 -16   3  -7  272.60   17.52
  -3 -13   7  303.25   17.92
  -3 -13  10   58.26    9.51
 -14  16  -9   22.45    9.72
 -16   2   9   23.57    9.19
  14 -16   9   23.52    8.47
 -16   2   6  441.11   23.48
 -14  16  -6  452.91   23.54
 -14  16  -6  425.65   23.70
 -14  16  -3  595.11   35.49
   2  14   3  707.73   36.30
   2  14   3  699.02   34.99
   2  14   0   29.09    5.30
 -16   2   0   32.28    6.81
  -2 -14   0   33.08    7.26
 -16   2  -3  683.77   37.37
  -2 -14   3  689.71   36.48
   2  14  -6  600.57   30.44
  -2 -14   6  598.62   31.01
 -16   2  -6  603.27   31.04
 -16   2  -6  606.44   30.76
 -16   2  -9  397.57   22.45
  -2 -14   9  432.39   23.37
 -15  16 -10   19.48    8.08
 -16   1  10    2.70    7.78
   1  15  10   21.58    6.27
  15 -16  10    4.31    7.36
 -15  16  -7  135.98   12.52
 -16   1   7  156.48   12.46
 -15  16  -4   88.11    7.67
 -15  16  -4  103.26   10.96
   1  15   4   98.98    8.97
 -16   1   4   90.62    7.34
 -16   1   1  182.37   11.47
  16  -1  -1  155.12   11.92
   1  15   1  184.29   12.25
 -16   1  -2   13.30    7.87
  -1 -15   2   11.09    7.51
  15 -16  -2    6.97    3.47
  -1 -15   5   71.53    8.16
 -16   1  -5   72.42    8.02
 -16   1  -5   74.70    7.32
   1  15  -5   70.74    6.78
 -16   1  -8   42.71    8.86
  -1 -15   8   34.62   10.48
  15 -16 -11   27.90    5.57
 -15  16  11   44.61    5.67
  -1 -15  11   42.68    6.53
  16 -16  11   11.20    4.89
  16   0 -11    0.22    3.93
 -16   0  11    4.57    5.01
  16 -16   8  293.96   16.18
 -16   0   8  237.29   16.89
 -16  16  -8  244.77   17.13
 -16  16  -5   63.15    7.83
 -16   0   5   59.63    8.18
 -16  16  -5   57.09    7.97
 -16  16  -2    9.14    8.01
  16   0  -2   12.35    5.70
   0  16   2   -1.19    5.99
 -16   0   2   10.42    4.56
 -16   0  -1 4158.79  195.55
   0  16  -1 4012.15  193.80
 -16   0  -7   90.38    9.63
   0  16  -7   95.67    9.37
   0 -16   7  101.49   10.86
   0 -16  10   18.18    8.27
   1 -17   9   26.36    9.74
  -1  17  -6   37.63    7.15
 -16  -1  -6   41.30    7.20
   1 -17   6   40.40    8.63
 -16  -1  -6   34.07    7.90
   1 -17   3  287.05   18.99
 -16  -1  -3  313.92   20.02
   1 -17   0  218.62   14.96
 -16  -1   0  240.38   14.44
  -1  17   0  232.09   14.04
  16   1   0  235.84   15.41
 -16  -1   3   30.64    4.00
  -1  17   3   44.13    9.21
 -17  16  -3   25.03    8.31
 -16  -1   3   27.26    4.12
 -16  -1   6   32.57    8.54
 -17  16  -6    7.77    8.23
  17 -16   9   48.01    8.37
 -16  -1   9   40.82    9.79
   2 -17  10   33.05    8.43
   2 -17   7  483.56   26.44
 -15  -2  -7  486.67   25.77
  -2  17  -7  500.98   25.95
   2 -17   1 1687.10   84.82
 -15  -2  -1 1743.50   84.50
 -15  -2   2   22.12    4.03
  15   2  -2   20.92    6.59
 -17  15  -2   31.32    8.90
  -2  17   2   40.60    7.77
 -17  15  -5  620.28   31.03
 -15  -2   5  594.56   30.98
 -15  -2   8  172.17   13.74
  17 -15  11   63.71    5.86
  15   2 -11   44.70    4.60
 -15  -2  11   57.28    5.56
  14   3  11   10.08    5.35
 -17  14  11   13.81    5.36
   3 -17  11   -0.59    5.65
  -3  17  -8   30.96    8.80
 -17  14   8   18.75    7.24
 -14  -3  -8   16.12    7.85
   3 -17   8   25.18   10.00
  -3  17  -5   13.78    5.73
 -14  -3  -5   11.52    5.49
 -14  -3  -5   18.61    6.44
   3 -17   5    6.51    6.39
 -14  -3  -2   94.82    9.40
  -3  17  -2   49.80    5.32
 -14  -3   1   40.77    5.18
  -3  17   1   43.79    7.37
  14   3  -1   44.00    7.77
   3 -17  -1   46.80    7.97
 -14  -3   4   26.88    6.47
 -17  14  -4   23.50    6.22
 -14  -3   7    7.37    8.97
 -17  14  -7   16.87    9.05
 -14  -3  10   -0.48    8.23
  -3  17  10   14.11    5.55
  17 -14  10    2.01    7.15
   4 -17   9   60.19   10.16
 -17  13   9   56.14    7.92
  -4  17  -6  100.78    9.55
 -13  -4  -6  122.07    9.03
   4 -17   6  114.62    9.86
 -13  -4  -6  126.44    9.97
  13   4   3   28.63    8.54
  -4  17  -3   17.22    4.26
 -13  -4  -3   30.28    8.78
 -13  -4   0   90.49    7.73
  13   4   0   84.14    9.19
   4 -17   0   84.40    8.74
  -4  17   3    6.91    8.23
 -17  13  -3    7.71    8.36
 -13  -4   6   13.33    8.36
 -17  13  -6   21.04    8.53
 -17  13  -6    6.68    7.96
  -4  17   9   14.94    6.84
  17 -13   9   17.82    8.41
 -13  -4   9    0.31    9.96
 -17  13  -9    7.92    9.31
 -17  12  10   14.41    5.84
   5 -17  10   15.98    8.29
 -12  -5  -7   73.84    8.12
 -17  12   7   53.99    7.92
  -5  17  -7   50.03    8.80
   5 -17   7   58.20    9.21
  -5  17  -4  199.70   12.32
  12   5   4  231.02   16.39
 -12  -5  -1   29.45    6.80
   5 -17   1    6.69    6.73
 -17  12  -2  314.23   20.00
  -5  17   2  327.20   19.80
 -17  12  -5   23.27    7.05
 -17  12  -5    9.28    6.76
 -12  -5   5   23.21    7.30
 -12  -5   8  114.70   12.32
 -17  12  -8  126.52   12.05
  -5  17  11    4.68    3.66
 -12  -5  11   10.53    4.85
  11   6  11   53.83    6.14
  17 -11 -11   55.31    6.42
 -17  11  11   60.43    6.78
   6 -17  11   57.49    6.57
  -6  17  -8   -3.14    8.80
   6 -17   8   25.51    9.31
 -17  11   8   15.47    7.80
  -6  17  -5  412.35   21.95
   6 -17   5  414.57   21.73
 -11  -6  -5  434.76   21.84
  11   6   2  601.86   32.66
 -11  -6  -2  625.62   32.89
  11   6   2  615.71   32.80
 -11  -6   1 3441.75  170.33
  11   6  -1 3807.51  172.54
   6 -17  -1 3809.14  172.05
 -17  11  -7   33.77    8.95
 -11  -6   7   15.70    9.49
 -17  11  -7   35.72    8.68
 -17  11 -10   20.06    8.06
 -11  -6  10   11.53    8.46
  -6  17  10   10.44    5.54
  17 -11  10   18.85    7.72
 -17  10   9  180.77   12.66
  -7  17  -9  174.31   13.40
   7 -17   9  203.95   13.80
 -10  -7  -6  204.72   12.50
 -17  10   6  208.42   12.71
   7 -17   6  218.14   13.00
  -7  17  -6  214.48   13.32
 -10  -7  -3 2049.07   98.87
  -7  17  -3 1919.44   97.00
  10   7   3 2028.74   98.65
  10   7   3 2028.89   98.30
   7 -17   0  187.84   13.04
  10   7   0  211.93   13.88
 -10  -7   0  187.89   11.57
 -17  10  -3  438.62   25.96
  -7  17   3  430.37   25.86
 -17  10  -6  150.65   11.51
 -17  10  -6  165.35   12.16
 -10  -7   9  259.58   16.56
  -7  17   9  247.76   14.09
 -17  10  -9  212.17   15.93
   8 -17  10   82.26    9.44
 -17   9  10   82.79    8.17
  -8  17  -7   10.78    8.55
   8 -17   7   20.87    8.25
   9   8   4  261.68   16.84
   9   8   4  296.68   18.69
  -8  17  -4  237.69   15.77
  -9  -8  -1   -1.20    6.08
   9   8   1   -4.14    5.44
   8 -17  -2  115.97    8.39
 -17   9  -5  155.37   10.68
 -17   9  -8   43.08    9.97
  -8  17   8   24.20    7.15
  -8  17  11   16.28    4.54
  -9  -8  11   23.78    4.76
  17  -9  11   29.48    5.94
  17  -8 -11   62.49    6.60
   9 -17  11   58.09    6.69
   8   9  11   60.72    6.10
   9 -17   8  136.18   11.70
 -17   8   8  122.46   11.23
  -9  17  -8  139.41   11.99
   9 -17   5 2357.43  113.66
  -9  17  -5 2429.49  114.05
 -17   8   5 2348.73  113.69
 -17   8   5 2327.07  117.03
   8   9   2  151.41   11.84
  17  -8  -2  159.52    9.79
   9 -17  -1  289.04   15.99
 -17   8  -1  259.17   17.36
  -8  -9   4  190.28   13.21
 -17   8  -7  246.23   16.04
  17  -8  10   43.33    8.03
 -17   7   9   13.75    8.48
  10 -17   9    0.27    8.73
 -10  17  -9    0.63    8.97
 -10  17  -6   14.71    7.49
 -17   7   6   13.40    7.12
  10 -17   6   13.68    6.72
 -10  17  -3  800.83   43.89
   7  10   3  877.86   45.11
   7  10   3  917.97   44.58
   7  10   0 1519.36   73.52
  -7 -10   3   17.34    7.18
 -17   7  -6  274.23   16.69
 -17   7  -6  288.90   16.93
 -17   7  -9   17.39    9.39
 -10  17   9    4.56    6.50
 -17   6  10    0.80    7.02
  11 -17  10    8.38    7.60
 -11  17  -7   40.62    9.36
 -17   6   7   49.66    8.64
  11 -17   7   61.91    8.75
   6  11   4  522.73   26.62
   6  11   4  526.37   28.36
   6  11   1  199.95   13.92
   6  11   1  207.70   12.87
  -6 -11   2   65.39    8.41
 -17   6  -2   49.61    9.37
  11 -17  -2   56.41    5.77
 -17   6  -5    6.48    6.88
 -17   6  -5    8.04    6.08
  -6 -11   5   10.93    6.81
 -17   6  -8   42.19    9.66
 -11  17   8   52.07    7.18
  -6 -11   8   54.81   10.92
  -6 -11  11   76.80    5.89
  17  -6  11   96.69    7.33
 -11  17  11   90.52    6.55
  11 -17 -11   81.76    7.23
  17  -5 -11    2.11    4.91
 -17   5  11   12.66    5.68
   5  12  11    4.69    4.52
  12 -17   8   71.19    9.66
 -17   5   8   66.14    9.95
 -12  17  -8   67.67   10.84
 -17   5   5   17.47    6.42
   5  12   5   12.51    6.68
 -12  17  -5   22.17    6.15
 -12  17  -5   17.72    6.81
  17  -5  -2   10.27    4.94
   5  12   2    4.25    6.03
   5  12   2   -0.53    6.03
  -5 -12   1 1265.63   64.16
 -17   5  -1 1308.15   64.39
  -5 -12   4   58.11    8.08
 -17   5  -7   78.34    9.95
 -17   5  -7   92.92   10.51
  -5 -12   7   86.11   10.91
  -5 -12  10  155.28   12.30
 -13  17  -9   66.92   10.61
 -17   4   9   62.04    9.49
  13 -17   9   61.64    9.22
 -17   4   6   36.84    7.94
 -13  17  -6   47.36    8.13
 -13  17  -6   42.72    8.42
   4  13   3  292.12   16.65
   4  13   3  266.32   17.42
   4  13   0   35.52    5.09
 -17   4   0   39.52    7.32
  -4 -13   3 1140.02   57.17
 -17   4  -3 1103.56   58.05
 -17   4  -6    1.59    7.33
 -17   4  -6   14.17    8.18
  -4 -13   6    4.28    8.16
  -4 -13   9  309.11   19.23
 -17   4  -9  312.95   18.33
   3  14  10  183.69   11.14
 -14  17 -10  178.03   12.33
 -17   3  10  164.16   11.80
  14 -17  10  163.15   11.70
 -14  17  -7   19.42    9.62
  14 -17   7   26.54    7.93
 -17   3   7   15.29    8.86
 -14  17  -4   22.23    6.12
   3  14   4   24.05    6.69
 -17   3   4   28.61    5.80
 -14  17  -4   13.94    7.46
  17  -3  -1  418.12   23.98
   3  14   1  457.61   24.67
   3  14   1  460.16   24.04
  -3 -14   2  258.72   16.69
  14 -17  -2  254.95   13.90
 -17   3  -2  276.43   17.38
  -3 -14   5  758.35   37.30
 -17   3  -5  731.26   37.35
 -17   3  -5  746.13   37.12
 -17   3  -8    6.45    8.69
  -3 -14   8   10.98   10.17
  14 -17 -11   89.46    7.00
 -14  17  11   80.23    6.65
  17  -3  11   88.59    7.05
  17  -2 -11    4.61    4.14
 -17   2  11    5.47    5.15
  15 -17  11    1.99    4.62
   2  15  11    4.32    3.43
 -17   2   8    8.43    9.24
  15 -17   8    1.79    8.24
 -15  17  -8  -10.19    9.53
 -15  17  -5   83.97    8.81
 -17   2   5   86.93    8.46
 -15  17  -5   90.34    8.44
  17  -2  -2  193.61   12.19
   2  15   2  211.78   13.36
   2  15   2  220.44   13.65
   2  15  -1  491.46   24.25
 -17   2  -1  506.36   27.23
 -17   2  -4   30.57    6.37
 -17   2  -7   19.85    8.36
  -2 -15   7   15.46    9.12
  -2 -15  10    6.80    8.36
 -16  17  -9   21.03    9.20
 -17   1   9   14.00    9.07
  16 -17   9   28.94    8.08
 -17   1   6  191.63   13.08
 -16  17  -6  195.73   13.45
 -16  17  -6  186.30   12.97
 -16  17  -3  175.78   14.14
   1  16   3  206.44   14.75
   1  16   3  171.64   12.67
  -1 -16   0 1058.57   55.90
 -17   1   0 1140.59   55.42
   1  16   0 1110.04   54.49
  -1 -16   3    2.79    7.54
 -17   1  -3   11.68    8.09
 -17   1  -6  584.45   29.76
  -1 -16   6  608.60   30.21
   1  16  -6  582.42   29.49
 -17   1  -6  548.65   30.06
  -1 -16   9  303.70   18.46
   0  17  10   68.40    6.83
 -17   0  10   83.96    8.46
 -17  17 -10   77.85    9.00
  17 -17  10   92.49    8.23
 -17  17  -7    5.18    9.24
 -17   0   7   -1.21    9.02
 -17   0   4  709.78   35.62
 -17  17  -4  691.27   35.64
 -17  17  -4  741.46   35.65
  17   0  -1  595.77   31.67
 -17   0   1  593.75   30.87
   0  17   1  613.58   31.75
   0 -17   2 1876.89   86.97
  17 -17  -2 1681.78   83.97
 -17   0  -2 1842.73   86.97
 -17   0  -5   74.30    8.31
 -17   0  -5   62.25    7.10
   0 -17   5   82.94    8.18
   0 -17   8  107.65   11.51
 -17   0  -8  107.92   10.16
  17 -17 -11   -1.01    4.90
 -17  17  11   10.29    4.65
 -18  17  10   64.82    7.75
   1 -18  10   47.78    8.26
 -17  -1  -7   14.52    7.71
   1 -18   7   36.48    9.73
  -1  18  -7   24.65    7.68
 -17  -1  -4   71.38    7.46
   1 -18   4   76.29    7.38
   1 -18   1  685.97   35.93
  -1  18  -1  663.63   33.56
 -17  -1  -1  675.73   35.41
 -18  17  -2  326.89   20.27
 -17  -1   2  304.69   16.80
  -1  18   2  357.50   19.45
  17   1  -2  292.58   18.20
 -18  17  -5   -1.66    7.54
 -18  17  -5   10.84    7.01
 -17  -1   5   -0.25    7.19
 -17  -1   8   37.58    9.98
  18 -17   8   51.77    8.67
  18 -17  11    8.14    3.70
 -17  -1  11    3.13    4.10
 -18  16  11   43.99    5.31
  18 -16 -11   31.97    5.34
   2 -18   8  121.98   12.00
 -16  -2  -8  101.16    9.80
 -16  -2  -5  461.17   23.23
 -16  -2  -5  475.35   23.76
   2 -18   5  444.88   23.70
  -2  18  -5  433.61   23.18
 -16  -2  -2    8.06    7.42
  -2  18  -2   11.39    3.21
 -16  -2   1   85.55    7.17
  16   2  -1   71.36    8.78
 -16  -2   4  502.90   26.10
 -18  16  -4  517.18   26.19
 -16  -2   7   70.48   10.74
 -18  16  -7   88.04   10.51
 -16  -2  10   69.35    8.13
  -2  18  10   77.41    6.37
  18 -16  10   74.56    7.98
   3 -18   9  154.16   12.88
  -3  18  -6    9.96    7.01
 -15  -3  -6   19.03    7.45
 -15  -3  -6    4.30    6.52
   3 -18   6   13.32    7.92
   3 -18   3  875.12   39.44
 -15  -3  -3  906.80   40.04
 -15  -3   0   30.27    6.10
   3 -18   0   29.77    7.40
  15   3   0   25.15    7.85
 -18  15  -3   71.38   10.11
  -3  18   3   90.98   10.91
 -15  -3   6  500.01   26.61
 -18  15  -6  504.62   26.66
  -3  18   9   97.27    8.69
  18 -15   9  110.96   10.13
 -15  -3   9  105.04   11.53
 -18  14  10    8.87    7.44
   4 -18  10   -8.93    7.81
  -4  18  -7  308.26   17.71
 -14  -4  -7  300.62   17.21
   4 -18   7  303.79   18.12
  14   4   1  453.77   25.13
   4 -18   1  396.84   24.42
 -14  -4  -1  461.75   24.33
 -18  14  -2  195.91   13.15
  -4  18   2  204.82   12.38
 -18  14  -5    8.28    7.07
 -14  -4   5    3.65    7.34
 -18  14  -5   11.90    7.10
 -18  14  -8  191.61   14.68
 -14  -4   8  214.05   15.15
  14   4 -11   15.19    3.15
 -14  -4  11   21.43    4.37
   4 -18 -11   13.41    3.18
  18 -14  11   18.29    4.93
   5 -18  11   87.30    7.05
 -18  13  11   95.71    7.25
  13   5  11   81.11    6.87
 -18  13   8  163.97   11.87
   5 -18   8  177.06   13.40
  -5  18  -8  184.48   12.92
  -5  18  -5  322.00   17.40
   5 -18   5  313.77   17.43
 -13  -5  -5  328.42   17.56
  13   5   2  112.15   10.78
  13   5   2   82.23    9.66
 -13  -5  -2  111.93   10.67
  -5  18  -2   73.20    7.03
   5 -18  -1 2775.16  129.42
  13   5  -1 2780.34  129.69
 -13  -5   1 2583.98  127.65
 -18  13  -4   63.78    7.80
 -18  13  -4   69.34    7.32
 -13  -5   4   74.29    7.42
 -13  -5   7  678.65   33.57
 -18  13  -7  602.82   33.41
 -18  13  -7  647.82   33.56
 -18  13 -10   22.96    7.79
  18 -13  10   26.14    7.10
 -13  -5  10   19.17    8.36
   6 -18   9   32.76    9.25
 -18  12   9   19.25    7.30
 -12  -6  -6   11.39    6.11
  -6  18  -6   17.15    7.35
 -18  12   6   10.49    6.17
   6 -18   6   12.46    7.18
 -12  -6  -3   17.82    8.20
  -6  18  -3   17.90    5.02
  12   6   3   26.78    8.47
   6 -18   0  809.15   41.10
  12   6   0  823.16   41.69
 -12  -6   0  784.46   39.98
 -18  12  -3   22.66    9.33
  -6  18   3    6.55    8.87
 -18  12  -6    7.14    8.08
 -12  -6   6   12.02    8.16
 -18  12  -6    8.95    8.22
 -12  -6   9   61.78   10.78
 -18  12  -9   61.52    9.92
  -6  18   9   59.03    7.29
   7 -18  10   -3.56    7.65
  -7  18  -7  125.30   11.20
 -18  11   7  138.62   10.33
   7 -18   7  121.58   11.20
  11   7   4    9.69    6.34
  -7  18  -4   17.16    5.42
  11   7   1  613.98   31.91
 -11  -7  -1  619.92   32.20
 -18  11  -5    9.83    7.21
 -18  11  -5   11.39    6.64
 -18  11  -8   18.72    9.82
 -11  -7   8   10.25   10.10
 -11  -7  11   17.78    4.18
  -7  18  11   12.63    3.55
   7 -18 -11    8.38    4.08
  18 -11  11   22.53    5.31
   8 -18  11   -6.12    5.27
  18 -10 -11    1.75    5.31
  -8  18  -8   17.06    9.53
   8 -18   8   36.27    9.32
 -18  10   8   31.03    8.40
  -8  18  -5   37.41    6.60
   8 -18   5   36.40    6.21
  10   8   2  297.76   17.94
  18 -10  -2  260.50   15.10
  10   8   2  324.46   17.73
 -10  -8  -2  324.59   18.13
 -18  10  -1  380.64   22.47
   8 -18  -1  381.47   21.27
  10   8  -1  395.42   22.10
 -18  10  -4   17.32    6.17
 -18  10  -4   15.50    6.52
 -18  10  -7  263.54   16.52
 -18  10 -10   20.16    7.74
 -10  -8  10   20.76    8.82
  18 -10  10   16.78    7.59
 -18   9   9   25.49    8.05
   9 -18   9   35.59    9.13
 -18   9   6  142.41   10.19
   9 -18   6  137.24   10.07
  -9  18  -6  121.99   10.74
   9   9   3  906.51   47.96
   9   9   3  985.43   47.77
  -9  18  -3  885.55   46.64
   9   9   0    5.26    7.28
   9 -18   0    9.52    6.51
  -9  18   3  373.79   23.34
 -18   9  -6   33.52    7.90
 -18   9  -9   59.04    9.85
  10 -18  10   22.20    7.72
  10 -18   7  227.53   14.64
 -18   8   7  225.75   14.44
 -10  18  -7  246.74   15.39
   8  10   4   37.57    7.50
 -10  18  -4   22.43    6.88
   8  10   1  965.29   46.46
   8  10   1  875.02   47.18
 -18   8  -2  131.78   12.27
  10 -18  -2  136.91    9.17
 -18   8  -5  568.36   29.68
  -8 -10   5  597.75   29.81
 -18   8  -8   43.74   10.17
  -8 -10  11  253.08   14.00
  10 -18 -11  270.39   14.52
 -10  18  11  276.06   14.27
 -18   7  11   24.23    6.02
  11 -18  11   31.64    5.32
   7  11  11   27.15    4.94
 -11  18  -8    9.07    9.46
 -18   7   8   21.68    8.88
  11 -18   8   -1.07    8.46
 -11  18  -5  207.18   13.41
  11 -18   5  217.81   12.51
 -11  18  -5  243.02   12.99
 -18   7   5  208.45   12.89
   7  11   2   94.23    9.44
   7  11   2   78.93    8.49
  18  -7  -2   75.01    6.50
  11 -18  -1  175.83   11.64
 -18   7  -1  198.96   13.73
 -18   7  -4  114.27    9.08
  -7 -11   4  121.13   10.62
  -7 -11   4  116.66    9.08
 -18   7  -7  141.40   12.40
  -7 -11   7  162.90   13.14
 -18   7  -7  127.44   11.99
 -18   6   9   20.59    8.53
  12 -18   9    9.93    8.47
 -12  18  -9    5.63    9.03
 -18   6   6  224.37   13.93
 -12  18  -6  218.87   14.15
  12 -18   6  227.27   13.46
   6  12   3    9.08    7.42
 -12  18  -3   -6.03    6.62
   6  12   3   14.67    6.35
   6  12   0  853.32   41.93
 -18   6   0  845.20   43.62
 -18   6  -3   20.98    8.23
  -6 -12   3   18.82    7.51
  -6 -12   6  419.12   22.34
 -18   6  -6  403.51   21.84
 -18   6  -6  391.45   22.29
 -18   6  -9   11.17    8.60
  -6 -12   9    4.66   10.12
 -18   5  10   11.82    7.92
  13 -18  10   11.32    7.27
 -13  18  -7   56.64    9.92
  13 -18   7   54.66    8.39
 -18   5   7   49.46    9.26
 -13  18  -4  132.91   11.19
   5  13   4  119.84   10.73
 -13  18  -4  120.90    8.78
 -18   5   4  114.68   10.20
   5  13   1  153.06   10.62
   5  13   1  150.13   11.83
  -5 -13   2  611.01   33.18
  13 -18  -2  609.70   31.03
 -18   5  -2  658.90   34.05
 -18   5  -5  201.98   12.44
  -5 -13   5  210.30   13.10
 -18   5  -5  198.34   13.10
  -5 -13   8  177.59   14.04
 -18   5  -8  171.91   13.28
 -13  18  11    3.37    4.33
  13 -18 -11   -2.99    4.76
  18  -5  11    2.06    5.22
 -18   4  11    2.85    5.18
   4  14  11    9.50    3.77
  14 -18  11   19.66    4.79
  18  -4 -11    5.80    4.05
 -18   4   8  295.66   18.42
 -14  18  -8  294.17   18.90
  14 -18   8  332.77   18.08
 -14  18  -5    8.75    6.42
 -14  18  -5   19.08    6.59
   4  14   2    8.52    6.39
  18  -4  -2   -4.41    5.12
   4  14   2    5.15    6.09
  -4 -14   1    8.14    7.49
 -18   4  -1    5.24    7.12
  -4 -14   4  464.36   23.82
 -18   4  -4  459.40   23.93
 -18   4  -7   73.96    9.52
  -4 -14   7   50.80   10.12
 -18   4  -7   75.07   10.59
  -4 -14  10   -2.68    8.56
 -15  18  -9   63.69    9.81
 -18   3   9   30.22    8.96
  15 -18   9   50.19    8.67
 -15  18  -6   38.04    8.03
 -15  18  -6   39.37    8.22
 -18   3   6   40.82    8.50
   3  15   3  221.34   15.39
   3  15   3  238.02   14.37
 -18   3   0 1516.95   74.66
   3  15   0 1505.77   73.45
 -18   3  -3   76.06   10.54
  -3 -15   3   46.53    8.20
 -18   3  -6   -0.79    7.08
  -3 -15   6    2.47    8.72
 -18   3  -6    7.07    8.49
   3  15  -6   10.15    6.28
 -18   3  -9   19.95    7.90
  -3 -15   9    8.09    9.41
   2  16  10   65.70    6.69
 -16  18 -10   58.91    8.40
 -18   2  10   51.53    7.89
  16 -18  10   54.49    7.64
 -18   2   7   10.56    9.07
  16 -18   7    8.25    7.79
 -16  18  -7    2.74    9.66
   2  16   4  427.60   22.87
 -18   2   4  359.01   20.56
 -16  18  -4  391.70   20.61
 -16  18  -4  411.05   20.62
   2  16   1   21.02    6.45
 -18   2   1    7.25    5.91
  18  -2  -1   19.02    6.37
 -18   2  -2 1393.14   66.28
  16 -18  -2 1277.58   63.22
 -18   2  -5   26.64    6.31
 -18   2  -5   20.02    7.36
  -2 -16   5   34.80    7.66
  -2 -16   8   12.11    9.71
 -18   2  -8   14.16    8.20
 -16  18  11   29.86    4.67
  16 -18 -11   23.37    4.96
  18  -2  11   36.09    5.28
  18  -1 -11   84.08    5.61
  17 -18  11   86.44    5.93
 -18   1  11  107.42    6.61
 -17  18  -8  423.34   24.31
 -18   1   8  402.50   23.98
  17 -18   8  460.71   23.27
 -17  18  -5   46.30    7.77
 -18   1   5   40.33    7.89
 -17  18  -5   40.91    7.38
 -17  18  -2  871.18   46.19
  18  -1  -2  832.72   44.53
 -18   1   2  875.88   43.99
   1  17   2  972.52   45.93
   1  17  -1  274.00   14.27
 -18   1  -1  273.38   17.13
  -1 -17   4  613.12   30.56
 -18   1  -4  601.17   30.63
 -18   1  -7   38.44    8.17
  -1 -17   7   58.10   10.16
  -1 -17  10   86.35    9.25
 -17  18  10   94.46    8.57
 -18  18  -9   12.53    9.02
 -18   0   9   20.39    8.86
  18 -18   9   10.04    7.40
 -18  18  -6   56.22    9.00
 -18  18  -6   37.60    8.54
 -18   0   6   54.56    9.29
 -18   0   3  240.11   13.68
   0  18   3  295.93   18.02
   0  18   0   64.16    6.69
   0 -18   0   40.74    8.42
  18   0   0   42.92    8.42
 -18   0   0   52.66    7.11
 -18   0  -6   82.49    8.39
   0 -18   6   82.27    9.77
 -18   0  -6   74.28    9.62
   0  18  -6   84.99    8.04
   0 -18   9   19.32    9.09
 -19  18  11   13.12    4.00
  19 -18 -11    7.64    4.48
   1 -19   8   39.85    9.86
 -18  -1  -8   47.29    7.93
   1 -19   5   36.03    7.56
 -18  -1  -5   35.53    7.50
 -18  -1  -5   27.87    6.05
   1 -19   2  631.35   35.38
  19 -18  -2  635.81   32.23
 -18  -1  -2  732.81   36.01
 -18  -1   1 2467.36  121.29
  -1  19   1 2640.24  122.43
  18   1  -1 2440.48  122.36
 -19  18  -4   83.55    8.57
 -19  18  -4   94.06    8.60
 -18  -1   4  100.06    8.84
 -18  -1   7  224.04   15.36
 -18  -1  10    3.14    6.45
  19 -18  10    4.58    5.94
  18   1 -10    4.05    5.19
   2 -19   9   86.09   10.38
 -17  -2  -6   36.29    8.35
   2 -19   6   42.44    8.59
  -2  19  -6   35.68    7.10
 -17  -2  -6   31.48    6.91
 -17  -2  -3   52.61    6.86
  17   2   0  310.12   19.18
  -2  19   0  321.59   17.84
   2 -19   0  282.71   18.87
  -2  19   3  212.90   15.98
 -17  -2   6   52.33    9.47
 -19  17  -6   50.58    9.25
 -17  -2   9   -4.49    9.40
  19 -17   9    1.31    7.62
 -19  16  10    7.38    7.10
   3 -19  10    2.30    7.45
 -16  -3  -7  236.10   14.39
  -3  19  -7  241.92   14.84
   3 -19   7  238.77   15.63
 -16  -3  -4   15.60    5.94
   3 -19   1    8.19    7.34
  16   3   1    6.48    7.76
 -19  16  -2  454.37   26.11
  16   3  -2  478.78   24.73
 -16  -3   2  407.68   21.84
  -3  19   2  528.77   25.72
 -16  -3   5   66.68    8.85
 -19  16  -5   65.46    8.46
 -16  -3   8   17.94   10.22
 -16  -3  11    9.34    3.73
  19 -16  11   11.17    3.76
  15   4  11   -1.50    4.68
 -19  15  11    1.57    4.85
   4 -19   8   22.16    9.44
  -4  19  -8   10.64    8.07
 -15  -4  -5  115.49    9.30
   4 -19   5  116.38    9.37
  -4  19  -5  119.54    8.82
  -4  19  -2   69.34    6.43
 -15  -4  -2  127.45   10.68
 -15  -4   1   20.76    4.54
  15   4  -1   15.12    7.17
   4 -19  -1   16.17    7.29
  -4  19   1   10.69    6.77
 -15  -4   4  202.64   12.69
 -19  15  -4  201.52   12.55
 -15  -4   7   51.74   10.52
 -19  15  -7   35.70    9.38
 -19  15  -7   34.54    9.57
 -19  15 -10   33.98    7.90
  19 -15  10   43.83    7.04
 -15  -4  10   35.55    6.86
   5 -19   9   45.52    9.51
   5 -19   6  334.06   19.10
  -5  19  -6  364.05   19.20
 -14  -5  -6  338.81   18.56
  14   5   3  646.74   32.81
 -14  -5  -3  620.91   33.01
  -5  19  -3  550.91   29.37
   5 -19   0  247.47   15.35
 -14  -5   0  228.08   13.89
  14   5   0  238.46   15.87
 -19  14  -3  909.70   49.47
  -5  19   3  961.23   49.55
 -19  14  -6   -1.24    7.87
 -14  -5   6   -3.75    8.68
 -19  14  -6    6.10    8.32
 -14  -5   9   23.05   10.06
 -19  14  -9   36.64    9.45
  -5  19   9   31.71    6.38
  19 -14   9   16.65    8.16
 -19  13  10   28.36    7.90
   6 -19  10   12.47    7.25
 -13  -6  -7  519.27   25.83
 -19  13   7  452.82   25.65
   6 -19   7  503.25   26.58
  -6  19  -7  534.49   26.69
 -13  -6  -4  113.81    9.15
   6 -19   1  383.65   22.04
 -13  -6  -1  383.50   21.62
  -6  19   2 2043.50  101.07
 -13  -6   5 1080.10   51.05
 -19  13  -5  988.34   51.09
 -19  13  -8   59.81   10.43
 -13  -6   8   76.14   11.08
   6 -19 -11   24.45    3.48
 -13  -6  11   29.03    3.96
  19 -13  11   27.14    4.94
   7 -19  11    7.80    4.86
  19 -12 -11    1.35    5.12
 -19  12  11   17.74    5.27
  12   7  11    1.76    4.58
 -19  12   8  154.82   11.68
  -7  19  -8  180.78   13.09
   7 -19   8  177.66   13.07
  -7  19  -5  117.52    9.13
   7 -19   5  122.04    8.79
 -12  -7  -5  109.25    8.81
  12   7   2  831.79   42.15
  12   7   2  800.49   42.48
 -12  -7  -2  798.94   42.30
   7 -19  -1  367.71   20.75
  12   7  -1  372.46   21.75
 -19  12  -4  676.15   34.89
 -19  12  -4  724.09   35.05
 -19  12  -7   77.71   10.20
 -19  12  -7   69.23   10.09
 -12  -7   7   59.72   10.52
 -12  -7  10    0.48    8.14
  19 -12  10    8.53    6.99
 -19  12 -10    8.98    7.44
   8 -19   9    1.85    9.05
  -8  19  -9   15.32    8.49
 -19  11   9    6.22    7.23
   8 -19   6  475.73   24.66
  -8  19  -6  490.31   24.89
 -19  11   6  455.11   24.37
  -8  19  -3   14.75    5.87
  11   8   3   21.65    7.92
 -11  -8  -3    9.30    8.04
  11   8   3   13.36    7.18
  11   8   0 2111.55  104.71
   8 -19   0 2157.50  104.36
 -19  11  -3   47.58   10.10
  -8  19   3   97.70   11.47
 -19  11  -6  212.52   14.08
 -19  11  -6  210.85   14.17
 -11  -8   9   -5.55    9.77
 -19  11  -9    8.17    8.75
   9 -19  10   27.33    7.53
  -9  19  -7   53.31    8.91
 -19  10   7   51.17    8.46
   9 -19   7   43.73    8.80
  10   9   4  384.66   21.38
  -9  19  -4  314.73   19.56
  10   9   1  811.28   41.06
   9 -19  -2  679.54   35.11
 -19  10  -2  715.14   37.45
 -19  10  -5  107.66    9.53
 -19  10  -8  148.11   12.67
   9 -19 -11    4.03    3.92
  19 -10  11   15.46    4.97
   9  10  11    9.95    4.58
  10 -19  11   11.44    4.69
  19  -9 -11    6.66    5.12
 -10  19  -8   -8.49    8.85
 -19   9   8   -4.83    8.23
  10 -19   8    4.60    8.51
 -10  19  -5  127.92   10.35
  10 -19   5  160.84    9.59
 -19   9   5  137.87    9.76
   9  10   2  355.72   19.89
   9  10   2  344.99   20.33
  19  -9  -2  324.31   17.72
 -19   9  -1  142.12   12.45
  10 -19  -1  161.33   10.84
  -9 -10   4   51.82    7.06
  -9 -10   4   41.27    7.71
 -19   9  -4   39.34    6.35
 -19   9  -7   -0.33    8.79
  19  -9  10   40.52    7.74
 -11  19  -9   29.36    9.05
 -19   8   9   15.90    8.02
  11 -19   9   24.55    8.50
 -11  19  -6   16.59    7.64
 -19   8   6   17.30    7.25
  11 -19   6   17.11    6.87
   8  11   3  380.91   22.10
 -11  19  -3  342.55   21.48
   8  11   3  417.86   23.04
   8  11   0  891.32   43.87
 -19   8  -3    9.21    8.53
  -8 -11   3    4.43    6.76
 -19   8  -6   14.36    8.39
 -19   8  -6    3.72    7.41
  -8 -11   6    8.54    8.68
 -19   8  -9   53.75    9.38
 -19   7  10   90.74    9.27
  12 -19  10  100.28    9.02
  12 -19   7  201.76   13.21
 -12  19  -7  213.89   14.11
 -19   7   7  185.24   13.52
   7  12   4  381.02   21.48
 -12  19  -4  328.38   20.90
 -12  19  -4  348.92   18.74
   7  12   1  312.40   17.60
   7  12   1  304.24   18.89
  -7 -12   2  190.39   13.81
 -19   7  -2  183.06   14.64
  12 -19  -2  180.55   11.18
  -7 -12   5    4.42    7.52
 -19   7  -5    4.63    6.36
 -19   7  -5    6.67    7.21
  -7 -12   8  362.68   21.60
 -19   7  -8  364.07   20.90
 -12  19  11    5.27    3.71
  12 -19 -11    5.32    4.11
  19  -7  11    5.13    5.10
  13 -19  11   12.90    4.33
 -19   6  11   18.81    5.10
  19  -6 -11   12.88    4.63
   6  13  11   19.54    4.09
 -19   6   8  163.47   12.42
  13 -19   8  157.70   11.94
 -13  19  -8  154.17   12.82
 -13  19  -5   28.88    7.46
 -19   6   5   35.42    7.02
 -13  19  -5   20.23    6.52
  13 -19   5   22.74    5.75
   6  13   2  820.31   39.43
   6  13   2  832.89   39.91
 -19   6  -1  411.83   23.58
  13 -19  -1  403.05   21.96
  -6 -13   4 1129.04   54.41
 -19   6  -4 1095.61   54.46
 -19   6  -7    9.93    8.34
  -6 -13   7    5.39    9.64
 -19   6  -7   26.40    9.57
  -6 -13  10  121.78   10.85
 -14  19  -9   29.99    9.59
 -19   5   9   30.65    8.69
  14 -19   9   37.75    8.57
 -14  19  -6   -9.62    7.82
 -19   5   6    5.25    7.70
  14 -19   6    3.49    6.45
   5  14   3   48.71    7.47
   5  14   3   42.75    8.35
 -14  19  -3   47.22    8.23
   5  14   0  229.92   12.44
 -19   5   0  187.50   14.07
  -5 -14   3  355.04   21.69
 -19   5  -3  368.89   23.07
 -19   5  -6   22.15    8.27
 -19   5  -6   14.79    7.40
  -5 -14   6    7.63    8.46
 -19   5  -9  140.95   11.57
  -5 -14   9  148.74   12.75
 -15  19 -10   32.28    7.83
 -19   4  10   21.02    7.52
  15 -19  10   19.07    6.93
  15 -19   7  217.90   13.51
 -15  19  -7  197.47   14.58
 -19   4   7  213.50   14.50
   4  15   4  220.06   14.34
 -19   4   4  184.05   11.94
 -15  19  -4  201.69   11.98
 -19   4   1  469.35   25.11
  19  -4  -1  438.80   24.94
   4  15   1  476.86   24.95
 -19   4  -2   38.95    8.64
  -4 -15   2   49.35    8.53
 -19   4  -5  131.29   10.52
 -19   4  -5  135.80    9.97
  -4 -15   5  149.19   10.84
 -19   4  -8   15.95    8.51
  -4 -15   8   13.26   10.31
  15 -19 -11   10.76    4.56
  19  -4  11   17.82    4.86
 -15  19  11   11.94    3.95
 -19   3  11   61.59    5.56
  16 -19  11   56.68    4.62
  19  -3 -11   54.45    4.61
 -19   3   8    2.93    9.17
  16 -19   8    7.03    7.81
 -16  19  -8   13.53    9.67
 -16  19  -5  349.50   19.98
 -19   3   5  346.82   19.58
 -16  19  -5  383.32   19.64
  19  -3  -2   -5.22    5.06
   3  16   2    3.70    6.81
 -19   3  -1 1271.32   64.05
  -3 -16   4  165.25   10.78
 -19   3  -4  147.23   10.77
 -19   3  -7   30.38    8.62
  -3 -16   7   37.71    9.86
 -19   3  -7   53.72    9.70
 -16  19  10   22.95    6.73
  -3 -16  10   26.70    8.08
 -17  19  -9   28.18    9.56
  17 -19   9   24.02    7.74
 -19   2   9   26.55    8.80
 -17  19  -6   -1.69    7.86
 -17  19  -6    1.89    8.29
 -19   2   6   -1.09    8.46
 -17  19  -3  161.44   14.08
   2  17   3  210.75   14.62
 -19   2   0   30.34    7.13
   2  17   0   26.27    5.36
  -2 -17   6   14.84    8.87
   2  17  -6   40.24    6.56
 -19   2  -6   34.06    8.72
 -19   2  -6   25.22    7.31
  -2 -17   9   24.55    9.33
 -19   1  10   -4.84    6.77
 -18  19 -10   12.04    7.10
   1  18  10    1.19    4.81
  19  -1 -10   -3.52    5.72
  18 -19  10   -0.94    5.84
 -18  19  -7   38.45    9.51
  18 -19   7   46.95    8.03
 -19   1   7   27.85    9.75
 -18  19  -4  102.04    9.33
 -18  19  -4  124.10    9.14
 -19   1   4  111.93    9.33
 -19   1   1  442.23   24.73
  19  -1  -1  469.56   25.52
   1  18   1  480.25   25.45
  18 -19  -2  305.88   16.12
  -1 -18   2  280.00   19.29
 -19   1  -2  332.79   19.85
 -19   1  -5   18.19    7.41
  -1 -18   5   31.30    7.63
 -19   1  -5   14.93    6.20
  -1 -18   8    2.79    9.88
 -19   1  -8    8.76    7.73
  18 -19 -11    8.38    4.07
  19  -1  11   20.47    4.34
 -18  19  11    9.42    3.73
 -19   0  11   63.86    4.82
 -19  19  -8   23.67   10.00
 -19   0   8   28.47    9.97
  19 -19   8   47.53    8.10
 -19  19  -5   34.35    8.43
 -19  19  -5   43.43    8.17
 -19   0   5   25.22    8.14
 -19   0   2  240.68   14.00
  19   0  -2  248.21   15.42
 -19  19  -2  211.61   16.82
   0 -19   1  222.52   15.96
 -19   0  -1  246.98   16.07
   0  19  -1  243.53   13.01
 -19   0  -4   10.78    6.46
   0 -19   4    6.01    6.41
 -19  19   4   11.66    6.31
 -19   0  -7   25.63    7.83
   0 -19   7   29.01    9.63
 -19  19  10    5.72    6.49
   0 -19  10   12.37    7.21
  19 -19 -10    0.85    6.58
 -20  19   9  332.97   18.48
   1 -20   9  318.09   18.82
  -1  20  -6  331.21   18.90
 -19  -1  -6  348.21   19.00
 -19  -1  -6  376.04   19.98
   1 -20   6  361.24   20.06
 -19  -1  -3  999.06   47.75
  20 -19  -3  959.18   47.51
 -20  19   3  952.21   47.34
   1 -20   0  500.22   26.77
  19   1   0  480.89   26.52
  -1  20   0  454.90   24.79
 -19  -1   0  443.80   25.32
 -20  19  -3  648.57   34.11
 -20  19  -3  712.10   34.07
 -19  -1   6  174.39   13.00
 -20  19  -6  166.34   12.66
 -20  19  -6  152.87   12.73
  20 -19   9  216.77   13.21
 -19  -1   9  218.69   13.86
 -20  18  10   60.37    7.26
   2 -20  10   34.50    7.42
  20 -18 -10   40.74    7.29
 -18  -2  -7  183.61   12.48
   2 -20   7  204.02   13.88
  -2  20  -7  200.11   12.79
   2 -20   4  375.03   19.95
 -20  18   4  363.81   20.07
 -18  -2  -4  395.53   20.16
   2 -20   1 1085.98   53.63
  18   2   1 1062.37   53.61
 -18  -2  -1 1033.64   52.87
  -2  20  -1 1008.04   51.17
 -18  -2   2  164.49   10.07
  18   2  -2  178.31   12.84
 -20  18  -5  624.71   32.32
 -18  -2   5  637.40   32.40
 -18  -2   8   11.53    9.59
  20 -18   8    7.39    7.84
 -20  17  11    8.71    4.12
  17   3  11    1.23    4.32
   3 -20   8  155.55   12.68
  -3  20  -5    3.79    5.59
 -17  -3  -5    7.06    6.87
   3 -20   5    1.81    6.94
  -3  20  -2   76.17    5.59
 -17  -3  -2   69.15    9.62
  17   3  -1   83.41    9.01
 -17  -3   1   64.43    6.37
  -3  20   1   67.44    8.88
 -20  17  -4  475.03   24.14
 -17  -3   4  445.63   24.17
 -17  -3   7   24.29    9.78
 -20  17  -7   36.71    9.54
 -17  -3  10   49.85    6.74
   3 -20 -10   43.36    4.95
  17   3 -10   42.13    5.46
  20 -17  10   48.81    6.71
 -20  16   9  291.88   17.47
   4 -20   9  289.33   17.43
 -16  -4  -6  420.50   22.05
   4 -20   6  398.50   22.61
 -16  -4  -6  436.71   22.88
  -4  20  -6  431.68   22.39
   4 -20   0 1820.76   88.47
  16   4   0 1793.67   88.65
 -16  -4   0 1760.68   87.26
  -4  20   3  142.07   12.91
 -20  16  -6  669.83   35.29
 -16  -4   6  699.55   35.23
 -20  16  -9   12.71    8.97
 -16  -4   9   -3.42    9.19
  20 -16   9   12.00    7.58
   5 -20  10   44.46    7.54
 -20  15  10   43.10    7.52
 -15  -5  -7   18.70    7.01
  -5  20  -7    5.28    7.66
   5 -20   7    5.88    9.02
 -15  -5  -1  513.22   26.31
  15   5   1  643.84   28.64
 -20  15  -2 1451.30   77.71
  -5  20   2 1638.11   77.81
 -15  -5   5  353.10   19.30
 -20  15  -5  358.55   19.22
 -20  15  -5  313.92   19.02
 -20  15  -8   48.99   10.32
 -15  -5   8   57.97   11.03
  20 -15  11    7.92    3.68
  14   6  11    2.46    4.56
  20 -14 -11   -2.33    4.63
 -20  14  11   -9.11    4.72
  -6  20  -8   16.33    8.47
   6 -20   8   19.68    9.18
  -6  20  -5   28.28    6.56
   6 -20   5   26.44    6.83
   6 -20   2  568.05   30.74
  -6  20  -2  507.48   28.36
  14   6   2  597.66   31.02
 -14  -6  -2  586.57   30.69
   6 -20  -1  482.99   24.42
  14   6  -1  509.93   25.21
 -20  14  -4   69.18    7.81
 -20  14  -4   85.26    8.34
 -20  14  -7   79.08   10.92
 -14  -6   7   78.39   10.91
 -20  14  -7   92.01   10.70
 -14  -6  10   10.51    6.20
  20 -14  10    9.47    6.39
 -20  14 -10    3.96    7.54
   7 -20   9   67.85    9.34
  -7  20  -6    2.64    7.22
   7 -20   6    6.63    7.58
  13   7   3   16.15    8.08
  -7  20  -3    8.16    5.00
  13   7   3    0.76    7.66
 -13  -7  -3   15.59    8.14
   7 -20   0  327.56   19.58
  13   7   0  337.70   19.99
 -13  -7   0  324.87   18.04
  -7  20   3  245.46   18.09
 -20  13  -6    3.76    8.75
 -20  13  -6   -2.79    8.54
 -13  -7   6   -5.91    9.17
 -20  13  -9   18.62    9.09
 -13  -7   9   14.39    9.78
 -20  12  10   84.46    8.72
   8 -20  10   68.64    8.26
  -8  20  -7   54.52    9.23
 -20  12   7   41.36    7.71
   8 -20   7   43.99    9.05
 -12  -8  -4  467.66   24.41
   8 -20   1  341.38   20.01
 -12  -8  -1  324.11   19.02
 -20  12  -5  188.92   12.25
 -20  12  -5  180.16   12.90
 -20  12  -8   18.20    9.29
 -12  -8   8   21.91    9.90
   8 -20 -11   11.44    3.01
  20 -12  11    8.45    4.42
  20 -11 -11    4.67    4.66
  11   9  11   10.08    4.47
   9 -20  11   10.10    4.31
  -9  20  -8   18.45    8.75
 -20  11   8   19.76    8.03
   9 -20   8   12.82    8.93
  -9  20  -5  108.77    8.92
   9 -20   5   96.25    8.24
  11   9   2  770.11   37.09
  11   9   2  777.99   36.46
   9 -20  -1    7.98    5.95
  11   9  -1    6.74    7.63
 -20  11  -1   10.24    7.65
 -20  11  -4  188.16   11.85
 -20  11  -7  241.65   16.01
  20 -11  10   96.67    8.70
 -11  -9  10  109.72    7.83
 -10  20  -9   22.05    8.59
  10 -20   9   41.98    8.56
 -20  10   9   33.83    7.54
  10 -20   6    7.00    6.99
 -10  20  -6    0.28    7.46
 -20  10   6   11.93    7.03
 -10  20  -3   99.83    9.39
  10  10   3  115.11   11.07
  10  10   0  369.49   22.11
  10 -20   0  381.22   21.61
 -10  20   3  208.86   16.08
 -20  10  -6   60.76    8.91
 -20  10  -9   18.93    8.85
  11 -20  10   45.22    7.51
  11 -20   7  193.31   13.37
 -20   9   7  199.17   13.32
 -11  20  -7  209.13   13.76
 -11  20  -4  787.52   38.60
 -11  20  -4  761.74   40.75
   9  11   1  785.09   41.25
   9  11   1  785.07   39.90
 -20   9  -2  570.11   32.51
  11 -20  -2  595.36   30.28
 -20   9  -5   50.35    7.81
  -9 -11   5   54.69    8.27
 -20   9  -8  203.76   14.59
  20  -9  11  101.46    6.46
  11 -20 -11   72.49    5.68
 -20   8  11   -0.55    4.88
   8  12  11   10.30    3.89
  20  -8 -11    6.15    4.09
  12 -20  11    2.37    3.81
 -12  20  -8    1.31    9.16
 -20   8   8    6.20    8.39
  12 -20   8   -4.91    8.35
 -12  20  -5  111.22    9.11
 -20   8   5  101.16    8.73
  12 -20   5  103.15    8.20
 -12  20  -5  126.33    8.61
   8  12   2  210.36   14.37
  20  -8  -2  182.88   11.54
   8  12   2  206.33   13.47
 -20   8  -1 1039.08   52.75
  12 -20  -1 1016.27   51.23
 -20   8  -4    1.70    5.77
 -20   8  -4   12.98    6.86
  -8 -12   4   13.64    6.51
 -20   8  -7   44.23    9.40
  -8 -12   7   55.83   10.15
 -20   8  -7   34.33    9.64
 -12  20  10   32.14    6.25
 -13  20  -9  165.09   13.09
  13 -20   9  184.58   12.23
 -20   7   9  161.66   12.12
 -13  20  -6    7.74    8.28
 -20   7   6   20.71    7.54
  13 -20   6   10.13    6.57
 -13  20  -3   69.22    9.30
   7  13   3  100.91   10.43
   7  13   3   92.45    9.56
   7  13   0   60.11    5.59
 -20   7   0   61.36    8.61
  -7 -13   3  279.31   18.11
 -20   7  -6  140.12   11.13
 -20   7  -6  134.78   11.65
  -7 -13   6  119.21   11.77
 -20   7  -9   80.39    9.49
  -7 -13   9   84.55   11.01
 -20   6  10   61.74    8.14
  14 -20  10   60.95    7.32
 -14  20  -7   48.44    9.18
 -20   6   7   37.47    9.05
  14 -20   7   45.48    8.23
 -14  20  -4    7.07    6.79
 -14  20  -4    4.90    6.07
   6  14   1  209.65   13.08
   6  14   1  191.21   14.38
  -6 -14   2   31.85    7.33
  14 -20  -2   30.49    4.93
 -20   6  -2   43.60    8.76
 -20   6  -5  103.75    9.23
  -6 -14   5  119.22    9.85
 -20   6  -5  110.97   10.01
 -20   6  -8    5.26    8.34
  -6 -14   8   10.14   10.35
  20  -6  11   20.77    4.60
  14 -20 -11   12.99    4.13
 -20   5  11   35.95    5.01
  20  -5 -11   30.46    3.96
  15 -20   8   83.62    9.46
 -15  20  -8   64.92   10.76
 -20   5   8   73.17   10.06
 -20   5   5  241.08   14.59
 -15  20  -5  259.77   14.58
 -15  20  -5  237.17   15.12
   5  15   2  149.50   12.47
  20  -5  -2  154.65   10.76
 -20   5  -1   25.91    8.02
  -5 -15   1   19.78    8.04
 -20   5  -4    5.28    6.70
  -5 -15   4   15.93    6.75
 -20   5  -4   17.12    5.68
 -20   5  -7   78.97   10.51
  -5 -15   7   75.79   10.63
 -20   5  -7   64.81    9.50
  -5 -15  10  205.85   13.37
  15 -20 -10  193.41   12.53
 -15  20  10  203.39   12.06
 -20   4   9  604.34   30.03
 -16  20  -9  555.48   30.25
  16 -20   9  572.26   29.60
 -20   4   6   60.47    8.82
 -16  20  -6   51.92    9.27
  16 -20   6   57.78    7.43
 -16  20  -6   53.33    8.81
   4  16   3  720.14   36.17
   4  16   3  705.11   35.55
 -20   4   0  112.75   10.00
   4  16   0  109.62    7.82
 -20   4  -6  241.60   14.65
  -4 -16   6  252.40   15.55
 -20   4  -6  230.32   15.44
 -20   4  -9  106.41    9.65
  -4 -16   9   96.62   11.06
  17 -20  10   25.21    6.29
  20  -3 -10   14.95    5.77
 -20   3  10   22.04    6.83
 -17  20 -10   29.50    7.28
   3  17  10   26.26    5.53
 -17  20  -7   31.15    9.58
  17 -20   7   37.65    7.83
 -17  20  -4   35.04    6.76
 -17  20  -4   39.93    6.93
   3  17   4   43.56    7.91
 -20   3   4   31.59    6.66
   3  17   1   13.10    6.33
  20  -3  -1   11.37    6.30
 -20   3   1   16.03    6.07
  17 -20  -2  200.31   11.57
  -3 -17   2  218.69   15.03
 -20   3  -2  196.68   15.05
 -20   3  -5    6.86    6.30
 -20   3  -5    3.01    7.49
  -3 -17   5    7.30    7.61
 -20   3  -8    9.79    8.13
  -3 -17   8   18.96    9.65
  17 -20 -11    9.50    4.01
  20  -3  11   11.21    4.22
 -20   2  11   56.71    4.83
 -20   2   8  325.46   19.79
 -18  20  -8  330.25   20.04
  18 -20   8  352.50   18.90
 -20   2   5  152.87   11.34
 -18  20  -5  151.83   11.17
 -18  20  -5  156.50   11.92
 -18  20  -2  138.49   12.92
 -20   2   2  150.77   10.32
   2  18   2  149.05   12.06
  20  -2  -2  142.75   10.81
   2  18  -1  464.35   22.91
 -20   2  -1  524.97   26.86
 -18  20   4  292.55   15.25
 -20   2  -4  264.74   14.82
  -2 -18   4  265.39   15.46
 -20   2  -4  267.65   15.73
 -20   2  -7   43.70    8.26
  -2 -18   7   39.09   10.13
 -20   2  -7   39.89    9.65
 -18  20  10   16.21    6.21
  18 -20 -10    7.47    6.52
 -19  20  -9    7.14    8.70
  19 -20   9    9.40    7.08
 -20   1   9    9.43    7.84
 -19  20  -6  138.04   12.69
 -19  20  -6  166.41   12.14
 -20   1   6  159.19   12.19
 -19  20  -3  141.67   10.15
 -20   1   3  160.51    9.91
  20  -1   0  277.00   18.50
  -1 -19   0  283.23   19.07
 -20   1   0  304.90   18.03
   1  19   0  317.32   16.91
 -20   1  -3  227.40   13.36
  19 -20  -3  219.42   13.12
 -20   1  -3  221.87   13.14
 -20   1  -6   18.96    8.30
 -20   1  -6    5.21    7.05
  -1 -19   6    7.37    8.64
 -19  20   9   81.42    9.02
  -1 -19   9   67.67   10.14
 -20   0  10   -5.04    6.01
 -20  20 -10   14.21    6.66
  20 -20  10    4.25    5.07
  20   0 -10    6.91    4.60
 -20  20  -7   23.00    9.27
  20 -20   7   36.38    7.76
 -20   0   7    9.56    9.11
 -20  20  -4   16.15    7.49
 -20   0   4   16.46    6.54
 -20  20  -4   26.25    7.14
  20   0  -1   48.88    8.03
   0  20   1   58.52    7.62
 -20   0   1   41.96    6.51
  20 -20  -2   -0.98    5.32
 -20   0  -2    4.94    7.73
   0 -20   5   -9.19    7.67
 -20   0  -5   -2.32    5.88
 -20   0  -5    2.69    7.59
   0 -20   8   31.44    9.78
 -20  20   8   24.42    8.90
 -20   0  -8   20.81    7.23
  20 -20 -11    8.74    3.57
  20   0  11    3.06    3.68
 -21  20  10   -3.83    5.98
  21 -20 -10   -4.06    6.26
   1 -21   7    1.77    9.26
 -21  20   7   29.61    9.07
 -20  -1  -7    7.62    7.18
   1 -21   4    8.76    6.71
  21 -20  -4    7.69    6.70
 -21  20   4    5.43    6.77
 -20  -1  -4   10.89    6.78
  -1  21  -1   18.86    3.98
  20   1   1   18.81    8.23
 -21  20  -2  202.24   12.44
  20   1  -2  201.85   14.18
  -1  21   2  228.03   15.16
 -21  20  -5    2.76    7.77
 -21  20  -5    0.56    8.00
 -20  -1   5    7.72    7.21
 -21  20  -8    0.68    9.25
  21 -20   8    7.10    7.14
 -20  -1   8   13.50    8.34
 -21  19  11   20.94    3.42
  21 -19 -11   23.41    3.91
 -21  19   8  234.41   14.81
   2 -21   8  209.89   15.01
 -21  19   5  265.64   15.35
   2 -21   5  255.70   15.34
 -19  -2  -5  257.29   15.49
 -19  -2  -2    7.10    7.61
 -19  -2  -2   21.08    6.04
  21 -19  -2   24.81    5.84
  19   2  -1   14.58    7.00
 -19  -2   1    7.45    4.69
  -2  21   1    8.43    6.48
 -19  -2   4   12.28    6.36
 -21  19  -4   13.08    7.18
 -21  19  -4   14.45    7.17
 -19  -2   7  130.67   12.77
 -21  19  -7  154.47   12.24
 -19  -2  10   23.18    5.87
  19   2 -10   17.68    4.19
  21 -19  10   21.02    5.38
 -21  18   9   70.50    8.77
   3 -21   9   43.77    8.91
  -3  21  -6   32.13    7.18
   3 -21   6   43.23    8.67
 -18  -3  -6   38.16    8.68
 -21  18   3    8.05    5.99
 -18  -3  -3    9.68    6.50
  21 -18  -3    6.39    5.65
   3 -21   0  278.72   17.10
  18   3   0  232.64   16.67
  -3  21   0  259.83   15.59
 -18  -3   0  231.48   15.03
 -21  18  -3   30.63    6.58
 -21  18  -6    3.45    8.66
 -18  -3   6   -8.18    9.37
 -18  -3   9   -0.91    7.32
  21 -18   9    2.14    6.74
   4 -21  10  136.74   10.10
 -21  17  10  148.08   10.25
 -17  -4  -7    8.78    6.63
  -4  21  -7   17.50    7.53
   4 -21   7   -5.39    8.90
 -21  17   4  527.40   26.65
   4 -21   4  499.41   26.28
 -17  -4  -4  533.87   26.48
  17   4   1  877.15   45.18
 -17  -4  -1  857.95   44.16
   4 -21   1  833.12   44.72
  -4  21   2  344.19   21.07
 -21  17  -5   22.78    7.88
 -17  -4   5   21.27    8.52
 -17  -4   8  471.87   26.18
  16   5  11   -1.90    3.68
 -21  16  11    1.33    4.00
  -5  21  -8   28.22    8.15
   5 -21   8   24.80    9.21
  -5  21  -5   12.73    6.16
 -16  -5  -5    1.39    6.56
   5 -21   5   11.53    6.77
  -5  21  -2  440.08   23.98
 -16  -5  -2  522.54   26.86
   5 -21  -1  200.43   13.43
  16   5  -1  184.78   13.60
  -5  21   1  217.27   13.83
 -16  -5   1  165.00   10.45
 -21  16  -4  407.13   23.30
 -16  -5   4  454.54   23.41
 -21  16  -4  471.30   23.52
 -21  16  -7   60.76   10.60
 -16  -5   7   52.82   10.65
 -21  16  -7   53.36   10.09
 -21  16 -10   34.89    7.46
 -16  -5  10   45.33    6.25
   5 -21 -10   32.91    5.08
  16   5 -10   38.07    4.92
 -21  15   9   29.45    8.78
   6 -21   9   13.41    8.47
  -6  21  -6   94.43    9.09
   6 -21   6   83.25    9.37
 -21  15   3   19.48    6.20
  21 -15  -3   10.44    5.84
   6 -21   0  679.94   35.93
  15   6   0  706.98   36.22
 -15  -6   0  651.50   34.33
 -21  15  -3  135.03    9.82
 -21  15  -3  156.64   10.29
 -21  15  -6   23.61    9.18
 -21  15  -6    4.84    8.88
 -15  -6   6    0.91    9.27
 -21  15  -9   34.89    9.10
  21 -15   9   19.99    7.63
 -15  -6   9   21.82    9.68
   7 -21  10   13.69    6.83
 -21  14  10   10.76    7.00
  21 -14 -10   18.33    6.76
   7 -21   7  447.39   23.68
  -7  21  -7  421.67   23.46
 -14  -7  -4  382.38   20.76
   7 -21   1 2096.62  104.30
 -14  -7  -1 2120.48  103.70
  14   7   1 2141.61  104.65
  -7  21   2  896.07   47.18
 -21  14  -5 1068.58   56.49
 -14  -7   5 1233.45   56.58
 -21  14  -5 1143.43   56.58
 -21  14  -8   58.91   10.42
 -14  -7   8   49.97   10.79
  21 -14  11   20.11    3.78
 -21  13  11   23.63    4.71
  21 -13 -11   14.52    4.63
  13   8  11   17.19    4.32
  -8  21  -8   14.64    8.42
   8 -21   8    5.18    8.74
   8 -21   5    6.94    6.33
  -8  21  -5   15.73    6.49
 -13  -8  -5   16.13    6.36
  13   8   2   14.75    7.35
   8 -21   2    7.32    8.21
  13   8   2   27.42    7.17
 -13  -8  -2   13.26    7.40
   8 -21  -1 1188.44   58.88
  13   8  -1 1167.97   59.58
 -21  13  -1 1153.42   60.00
 -21  13  -4   37.62    6.97
 -21  13  -4   51.53    7.42
 -21  13  -7  165.21   12.72
 -21  13  -7  143.52   13.04
 -13  -8   7  163.41   13.35
 -13  -8  10    3.86    5.57
 -21  13 -10    1.77    7.18
   8 -21 -10   -0.33    5.39
  21 -13  10   12.62    6.39
   9 -21   9  189.87   12.99
  -9  21  -9  195.66   13.09
  -9  21  -6  116.85   10.36
   9 -21   6  128.31   10.16
 -21  12   3   16.94    6.07
  12   9   3   11.55    7.87
  12   9   3   20.56    8.02
 -12  -9  -3    8.84    5.98
  -9  21  -3   15.25    5.91
   9 -21   0  256.26   15.59
  12   9   0  218.21   16.16
 -21  12  -3  584.58   29.62
 -21  12  -6    9.95    8.83
 -21  12  -6    5.89    8.60
 -12  -9   9   26.14    9.59
 -21  12  -9   11.04    8.87
  10 -21  10   11.18    6.53
  21 -11 -10    3.06    6.77
 -10  21  -7    0.31    8.31
 -21  11   7    6.71    7.45
  10 -21   7    7.87    8.33
 -11 -10  -4  542.38   29.20
 -10  21  -4  600.85   28.98
  11  10   1   -3.50    5.66
  10 -21  -2   17.05    5.64
 -21  11  -2   32.38    8.46
 -21  11  -5    8.11    7.38
 -21  11  -8   16.70    9.58
  21 -11  11    3.10    4.05
  21 -10 -11   19.41    4.31
  10  11  11   12.13    3.88
 -11  21  -8   30.36    9.08
 -21  10   8   15.62    7.83
  11 -21   8   26.99    8.72
 -21  10   5  827.76   42.35
  11 -21   5  866.53   42.32
 -11  21  -5  901.68   42.83
  10  11   2 1574.44   74.07
  10  11   2 1648.43   73.55
 -21  10  -1  343.30   22.17
  11 -21  -1  376.56   20.59
 -10 -11   4  129.18   10.33
 -21  10  -4  146.02   10.00
 -21  10  -7  202.45   14.47
 -11  21  10  103.78    7.74
  21 -10  10  125.63    9.01
 -10 -11  10  109.23    7.56
  11 -21 -10   88.92    8.18
 -21   9   9  250.68   15.92
  12 -21   9  241.54   15.28
 -12  21  -9  265.25   15.80
 -12  21  -6  108.55   10.16
 -21   9   6  109.68    9.65
  12 -21   6  104.86    8.82
   9  12   3  877.10   44.22
 -21   9   3  843.66   41.17
   9  12   3  937.13   44.76
  12 -21   0  480.67   26.37
  -9 -12   3  646.24   31.26
 -21   9  -3  595.27   31.24
  -9 -12   6  122.15   11.51
 -21   9  -6  122.25   10.50
 -21   9  -6  103.45   11.08
 -21   9  -9  152.92   12.12
 -21   8  10   59.86    8.08
  13 -21  10   75.75    7.32
  21  -8 -10   59.82    7.62
 -21   8   7    4.63    8.16
 -13  21  -7    0.98    8.88
  13 -21   7   22.63    7.98
 -13  21  -4  556.96   28.38
   8  13   1   -3.35    7.29
 -21   8  -2   43.27    9.22
  13 -21  -2   41.38    5.80
 -21   8  -5   69.83    9.40
 -21   8  -5   80.21    8.16
  -8 -13   5   63.01    8.62
 -21   8  -8   21.80    9.04
  -8 -13   8   38.88   10.51
  13 -21 -11    3.95    3.39
  21  -8  11    3.06    4.19
 -21   7  11   71.10    6.05
  21  -7 -11   80.25    5.49
 -21   7   8  284.21   17.16
 -14  21  -8  287.44   17.94
  14 -21   8  290.88   17.00
 -14  21  -5  360.69   19.88
 -21   7   5  336.01   19.38
 -14  21  -5  383.57   19.38
  21  -7  -2  189.97   11.97
   7  14   2  217.75   14.63
   7  14   2  188.04   13.59
 -21   7  -1  159.87   12.97
  14 -21  -1  155.93   11.10
  -7 -14   4  326.17   18.48
 -21   7  -4  343.07   18.11
 -21   7  -4  336.61   18.65
 -21   7  -7   40.31    9.16
 -21   7  -7   30.67    9.80
  -7 -14   7   34.73   10.04
 -14  21  10   68.52    6.64
  14 -21 -10   45.33    7.21
 -15  21  -9    3.49    8.66
 -21   6   9    7.07    8.28
  15 -21   9   -4.09    7.47
 -15  21  -6   27.84    8.98
 -21   6   6   15.23    7.96
  15 -21   6   33.74    6.84
 -15  21  -3   23.58    7.79
   6  15   3   28.49    7.69
   6  15   3   54.59    8.06
 -21   6   3   42.98    6.36
   6  15   0 1057.52   50.89
 -21   6   0  992.06   52.78
  -6 -15   3  447.22   22.64
 -21   6  -3  425.15   22.80
 -21   6  -6  105.26    9.43
  -6 -15   6   89.08   10.49
 -21   6  -6   92.32   10.43
  -6 -15   9   -3.76    9.49
 -21   6  -9   12.77    7.64
  21  -5 -10   50.39    6.57
  16 -21  10   52.67    6.50
   5  16  10   55.86    6.18
 -21   5  10   45.89    7.61
 -16  21  -7    3.07    9.29
 -21   5   7    1.96    8.77
  16 -21   7    2.47    7.35
 -21   5   4    8.23    6.80
 -16  21  -4   19.60    6.66
 -16  21  -4   11.69    5.96
 -21   5   1   59.06    8.04
   5  16   1   42.06    6.68
  21  -5  -1   45.56    7.06
  -5 -16   2   18.77    8.01
 -21   5  -2   29.81    8.76
  16 -21  -2   15.31    4.28
 -21   5  -5  123.61    9.32
 -21   5  -5  100.31   10.19
  -5 -16   5  109.58   10.14
 -21   5  -8   92.03   10.09
  -5 -16   8   99.06   11.64
  16 -21 -11    6.99    3.48
  21  -5  11   18.62    4.24
 -21   4  11   -0.10    3.74
 -17  21  -8   23.33    9.67
  17 -21   8   36.47    7.95
 -21   4   5   -2.65    7.37
 -17  21  -5    2.00    7.70
 -17  21  -5    5.58    6.94
  21  -4  -2   60.31    6.91
 -21   4   2   59.95    7.25
   4  17   2   60.71    8.04
 -21   4  -1   31.05    8.30
 -17  21   4  207.84   12.76
  -4 -17   4  221.27   13.50
 -21   4  -4  229.72   13.74
 -21   4  -4  225.58   12.81
 -21   4  -7   16.74    8.03
  -4 -17   7   -6.35    9.80
 -21   4  -7    9.31    9.53
 -17  21  10    5.93    5.70
  17 -21 -10   -2.98    6.16
 -21   3   9  258.31   15.76
  18 -21   9  262.27   14.97
 -18  21  -9  248.37   16.06
 -18  21  -6   31.52    9.32
 -18  21  -6   40.72    8.67
  18 -21   6   27.93    6.93
 -21   3   6   16.60    8.69
 -18  21  -3  426.47   23.32
 -21   3   3  442.72   23.11
 -21   3   0  377.82   22.68
   3  18   0  409.80   21.09
 -21   3  -3  206.63   12.56
 -21   3  -3  194.52   12.50
  18 -21  -3  208.30   12.19
 -21   3  -6    6.04    7.51
 -21   3  -6    5.29    8.77
  -3 -18   6  -14.03    8.91
 -18  21   9  432.92   23.13
  -3 -18   9  440.25   23.90
 -19  21 -10  117.20    9.44
  21  -2 -10  116.63    8.04
 -21   2  10  119.82    9.08
  19 -21  10  130.71    8.05
 -19  21  -7  186.95   13.74
  19 -21   7  186.07   11.84
 -21   2   4  163.17   11.29
 -19  21  -4  164.51   11.90
 -19  21  -4  187.90   11.46
  21  -2  -1 1339.75   67.65
 -21   2   1 1333.35   67.08
   2  19   1 1379.05   67.29
 -21   2  -2  808.58   43.42
  -2 -19   5  263.55   16.15
 -21   2  -5  261.05   16.13
 -21   2  -5  272.19   15.20
 -21   2  -8   58.97    8.29
 -19  21   8   54.11    9.14
  -2 -19   8   54.73   10.02
  19 -21 -11   25.10    3.41
  21  -2  11   23.42    3.99
 -20  21  -8  103.31   11.28
 -21   1   8   87.52   10.38
  20 -21   8   92.75    8.99
 -20  21  -5   23.19    8.64
 -20  21  -5   28.04    7.77
 -21   1   5   21.05    7.59
 -20  21  -2    0.21    5.41
   1  20   2    6.52    7.11
  21  -1  -2    6.46    5.81
   1  20  -1  972.89   47.66
 -21   1  -1 1079.81   51.32
 -20  21   4   74.17    7.69
 -21   1  -4   70.11    8.11
  -1 -20   4   63.71    8.05
  20 -21  -4   61.77    7.72
 -21   1  -7   61.95    8.48
  -1 -20   7   67.42   10.56
 -20  21   7   68.96    9.42
 -20  21  10   17.42    5.70
  20 -21 -10    9.68    6.01
 -21   0   9    6.56    7.60
 -21  21  -9    8.16    8.34
  21   0  -9    0.74    5.96
  21 -21   9    1.34    6.38
 -21  21  -6  136.25   11.55
 -21   0   6  155.14   11.31
 -21  21  -3   30.38    7.15
 -21  21  -3   50.24    7.02
 -21   0   3   49.11    6.44
  21   0   0  340.41   21.09
   0  21   0  334.45   18.79
 -21   0   0  333.65   19.69
 -21   0  -3   36.36    6.74
 -21  21   3   26.56    6.35
 -21   0  -3   31.67    7.31
  21 -21  -3   20.20    6.38
 -21   0  -6  264.15   15.86
 -21  21   6  227.21   15.47
   0 -21   6  249.38   15.90
 -21   0  -6  249.80   14.56
 -21  21   9  115.83    9.73
   0 -21   9   85.96   10.09
  21 -21  -9  103.45    9.79
  22 -21 -11    4.49    2.50
   1 -22   8   98.22   10.51
  22 -21  -8   88.10   10.55
 -22  21   8   84.37   10.07
 -22  21   5    3.66    7.47
 -21  -1  -5    7.08    7.58
   1 -22   5    9.31    7.72
  22 -21  -5   13.04    8.02
 -21  -1  -2  693.53   34.69
  22 -21  -2  694.67   34.50
 -22  21   2  689.39   34.41
  22 -21   1  376.44   20.15
  21   1  -1  370.10   22.92
 -22  21  -1  377.46   20.27
 -21  -1   1  404.55   20.35
 -21  -1   1  358.79   21.01
  -1  22   1  443.01   22.65
 -22  21  -4  475.07   26.72
 -22  21  -4  535.95   26.66
 -21  -1   4  514.87   26.18
 -21  -1   7  176.71   12.98
  22 -21   7  201.91   11.88
 -22  21  -7  164.29   14.15
 -22  21 -10   72.63    7.61
 -21  -1  10   79.93    6.81
   2 -22   9  109.30   10.01
  22 -20  -9   94.18   10.10
 -22  20   9  121.72    9.88
 -20  -2  -6   35.36    8.62
 -22  20   6   30.30    8.76
   2 -22   6   31.13    8.94
  22 -20  -3  164.41   10.62
 -20  -2  -3  168.83   10.53
 -20  -2  -3  147.26   11.22
 -22  20   3  155.40   10.70
  20   2   0  499.14   27.94
 -20  -2   0  469.58   26.44
  -2  22   0  498.11   26.22
 -22  20  -3  386.95   22.02
 -22  20  -3  435.55   22.11
 -20  -2   3  429.08   21.63
 -20  -2   6    8.42    7.98
 -22  20  -6    1.89    8.76
 -20  -2   9   48.72    7.58
  20   2  -9   45.76    6.22
  22 -20   9   43.10    6.79
 -22  19  10    3.61    5.92
  22 -19 -10    6.58    6.23
   3 -22   7  478.53   24.83
 -22  19   7  473.22   24.80
  -3  22  -7  452.65   23.88
 -19  -3  -7  432.13   23.60
   3 -22   4  142.64   10.36
  22 -19  -4  156.11   10.72
 -19  -3  -4  155.33   11.43
 -22  19   4  151.18   10.62
 -19  -3  -4  151.04   10.59
  19   3   1 1445.05   73.09
  -3  22  -1 1411.67   70.56
 -19  -3  -1 1487.37   72.21
  -3  22   2   18.03    7.31
 -22  19  -2   27.12    6.35
 -19  -3   5  509.09   26.14
 -22  19  -5  501.62   26.82
 -19  -3   8  328.64   19.47
  22 -19   8  363.00   19.06
 -22  18  11   33.02    3.72
  18   4  11   25.95    3.89
 -22  18   8  248.66   15.98
   4 -22   8  251.63   15.86
 -18  -4  -5    2.46    7.14
   4 -22   5    4.36    7.01
 -22  18   5    3.94    7.76
 -18  -4  -2  358.54   19.89
 -18  -4  -2  421.25   23.10
  18   4  -1  490.35   26.51
  -4  22   1  492.68   26.35
 -18  -4   1  434.78   23.64
 -18  -4   4   26.77    6.20
 -22  18  -4    9.69    7.65
 -18  -4   7   27.90   10.56
 -22  18  -7   56.45    9.99
  22 -18  10    5.67    5.00
   5 -22   9   61.08    8.96
 -22  17   9   77.06    9.38
  -5  22  -6  264.76   15.57
   5 -22   6  266.25   16.09
 -22  17   3   60.96    7.24
 -17  -5   0   47.85    6.77
   5 -22   0   77.72    8.81
  17   5   0   63.49    9.16
 -22  17  -3   32.60    6.92
 -22  17  -3   35.92    7.00
 -22  17  -6   15.50    9.02
 -17  -5   6    0.93    9.63
 -22  17  -6   -9.36    8.99
 -22  17  -9   57.98    9.59
 -17  -5   9   65.21    8.18
   6 -22  10    8.44    6.19
 -22  16  10    2.33    6.63
  -6  22  -7   24.27    8.13
   6 -22   7   12.53    8.60
 -22  16   4  155.18   11.36
   6 -22   4  164.48   10.59
 -16  -6  -4  184.25   10.79
   6 -22   1   15.11    7.39
 -16  -6  -1   13.71    6.58
  16   6   1   14.34    7.86
  -6  22   2  145.91   12.50
 -16  -6   5  171.78   12.85
 -22  16  -5  172.36   12.51
 -22  16  -5  168.86   12.47
 -22  16  -8   37.71    9.76
 -16  -6   8   56.89   10.77
  22 -15 -11   15.12    3.88
 -22  15  11   21.18    4.30
  15   7  11   14.94    3.86
  -7  22  -8   65.47    8.91
   7 -22   8   45.92    9.53
 -22  15   8   47.23    9.73
  -7  22  -5  409.68   21.09
   7 -22   5  383.46   21.11
 -15  -7  -5  404.64   21.06
 -15  -7  -2  149.44   12.37
  -7  22  -2  136.81    9.89
  15   7   2  133.45   12.35
   7 -22  -1  286.05   17.30
  15   7  -1  265.32   17.79
 -22  15  -4  424.56   23.74
 -15  -7   4  473.08   23.11
 -15  -7   4  460.26   24.16
 -22  15  -4  451.42   24.14
 -22  15  -7   32.62    9.62
 -22  15  -7   20.22    8.65
 -15  -7   7   22.85   10.38
 -22  15 -10    9.72    6.70
  22 -15  10   14.93    5.72
   7 -22 -10    2.67    4.54
 -15  -7  10    3.38    4.99
   8 -22   9  151.65   11.69
 -22  14   9  162.02   12.00
  -8  22  -6  331.08   18.30
   8 -22   6  312.23   18.11
  14   8   3  537.80   28.30
 -14  -8  -3  437.56   24.79
  22 -14  -3  496.22   24.56
 -22  14   3  481.22   24.60
   8 -22   0  246.79   16.11
  14   8   0  241.73   16.34
 -22  14  -3 1994.69   94.70
 -22  14  -3 1932.07   94.77
 -14  -8   6  254.04   15.59
 -22  14  -6  230.23   15.36
 -22  14  -6  206.00   14.89
 -14  -8   9  208.38   12.61
 -22  14  -9  192.33   13.99
 -22  13  10   18.55    6.92
   9 -22  10   21.29    6.33
  22 -13 -10   15.52    6.79
  -9  22  -7   21.26    8.48
   9 -22   7   36.52    8.86
  -9  22  -4  340.68   17.81
 -22  13   4  341.78   18.35
 -13  -9  -4  313.48   18.52
   9 -22   1   18.41    7.11
 -22  13  -5  184.20   12.86
 -22  13  -5  163.75   12.43
 -22  13  -8   11.77    9.37
  22 -13  11    7.80    3.27
  22 -12 -11   13.87    3.82
  12  10  11    7.52    3.55
  10 -22   8   90.19   10.36
 -10  22  -8  109.90   10.83
  10 -22   5  911.40   45.66
 -10  22  -5  958.05   46.13
  22 -12  -2   25.40    4.46
  12  10   2   13.02    8.19
  12  10   2   30.51    6.77
  10 -22  -1 1077.39   52.28
 -22  12  -1  968.43   53.27
 -12 -10   4   92.61    9.07
 -22  12  -4   72.38    8.40
 -22  12  -7  138.86   12.54
 -22  12 -10   12.81    6.48
 -10  22  10   -0.22    4.38
 -12 -10  10    6.61    4.77
  10 -22 -10   -0.32    5.13
  22 -12  10    3.78    6.10
 -11  22  -9   11.20    7.71
  11 -22   9   -0.22    7.72
 -22  11   6   21.53    6.83
 -11  22  -6   25.84    7.93
  11 -22   6   17.22    7.05
  22 -11  -3  128.12    8.95
 -11 -11  -3  125.95    9.46
 -11  22  -3  127.20   10.36
  11  11   3  131.50   12.08
  11  11   0  173.03   13.57
  11 -22   0  169.46   12.38
 -22  11  -3  179.41   11.22
 -22  11  -6   13.56    8.46
 -22  11  -9   13.85    8.57
  12 -22  10   17.16    6.09
  22 -10 -10   15.73    6.35
 -12  22  -7   29.79    9.24
 -22  10   7   13.65    7.78
 -10 -12  -4    3.84    6.61
 -12  22  -4    5.30    6.01
 -22  10   4    0.46    6.85
  10  12   1   12.53    5.52
  10  12   1   10.71    6.94
  12 -22  -2   18.14    5.53
 -22  10  -5  406.14   22.36
 -10 -12   5  423.85   22.63
 -22  10  -8   66.24   10.12
  22 -10  11   21.97    3.91
  22  -9 -11   12.74    3.34
 -22   9  11    9.03    4.42
 -13  22  -8   -0.32    8.70
  13 -22   8   -5.85    7.97
 -13  22  -5  142.99   10.11
 -22   9   5  119.96    9.65
  22  -9  -2   13.88    4.58
   9  13   2   17.88    7.11
   9  13   2    9.16    5.78
  13 -22  -1  268.03   16.46
 -22   9  -1  283.54   18.61
 -22   9  -4   45.64    7.97
 -22   9  -4   52.46    7.23
  -9 -13   4   56.12    8.09
 -22   9  -7   62.22   10.50
 -22   9  -7   51.55    9.54
  -9 -13   7   66.39   10.90
 -13  22  10   38.62    5.67
  13 -22 -10   47.01    6.55
  22  -9  10   50.34    6.88
 -14  22  -9  136.25   11.16
 -22   8   9  130.06   11.13
  14 -22   9  117.91   10.17
 -14  22  -6    7.01    8.38
 -22   8   6   -0.24    7.50
  14 -22   6   12.30    6.75
   8  14   3  687.18   33.85
  -8 -14  -3  621.06   30.28
 -22   8   3  598.83   30.18
 -22   8   0  261.59   17.19
 -22   8  -3  318.72   17.53
 -22   8  -6    7.17    8.98
 -22   8  -6   -0.29    7.67
  -8 -14   6    3.37    9.47
 -22   8  -9  102.76    9.89
 -14  22   9  114.94    9.18
  -8 -14   9   90.00   11.25
  15 -22  10  169.31    9.92
  22  -7 -10  151.11   10.38
 -22   7  10  160.73   10.94
  15 -22   7  202.79   12.75
 -22   7   7  173.99   13.32
 -15  22  -7  193.48   14.10
 -15  22  -4   32.87    6.12
 -15  22  -4   29.93    6.97
 -22   7   4   31.07    7.00
   7  15   1  509.07   27.17
  22  -7  -1  498.38   27.36
   7  15   1  525.18   28.99
  15 -22  -2  207.62   12.46
 -22   7  -5  548.68   28.15
  -7 -15   5  558.84   28.54
 -22   7  -5  526.03   28.46
  -7 -15   8   24.90   10.29
 -22   7  -8   37.96    8.95
  22  -7  11   93.84    5.74
  15 -22 -11   78.53    5.23
 -22   6  11   57.38    4.92
 -22   6   8  134.28   11.78
  16 -22   8  117.38   10.28
 -16  22  -8  118.69   11.82
 -22   6   5  228.34   14.50
 -16  22  -5  246.48   13.95
 -16  22  -5  210.88   14.57
   6  16   2   73.76    9.73
   6  16   2   85.04    9.22
  22  -6  -2   85.89    7.77
  16 -22  -1  479.77   25.07
 -22   6  -1  433.74   26.49
 -16  22   4   20.01    5.81
 -22   6  -4   -0.65    6.11
 -22   6  -4   13.01    7.40
  -6 -16   4    2.61    7.16
 -22   6  -7   23.73    9.44
 -22   6  -7   49.92    8.93
  -6 -16   7   34.70   10.52
  16 -22 -10   15.93    6.25
 -16  22  10   16.28    5.42
 -17  22  -9   -0.56    8.61
  17 -22   9   12.20    6.93
 -22   5   9    9.02    8.07
 -22   5   6  174.35   13.06
 -17  22  -6  190.22   13.87
  17 -22   6  199.39   11.91
 -17  22  -3  124.12    8.66
 -22   5   3  105.43    8.87
   5  17   0  148.41    9.48
 -22   5   0  160.31   12.18
  17 -22  -3  235.30   13.44
 -22   5  -3  250.40   13.97
 -22   5  -3  225.97   14.04
  -5 -17   6  320.75   19.08
 -22   5  -6  317.42   19.22
 -22   5  -6  334.91   18.54
 -22   5  -9   23.67    7.19
 -17  22   9   17.99    7.22
  -5 -17   9    2.45    8.88
  17 -22  -9    8.09    7.84
 -18  22 -10   36.77    6.90
  22  -4 -10   37.04    5.63
   4  18  10   39.81    4.98
  18 -22  10   39.89    5.26
 -22   4  10   20.67    6.63
 -18  22  -7   61.19   10.34
 -22   4   7   78.16   10.07
  18 -22   7   61.63    8.02
 -22   4   4  129.28    9.94
 -18  22  -4  120.50    9.43
 -18  22  -4  133.97   10.17
   4  18   1   33.23    6.61
 -22   4   1   31.48    6.97
  22  -4  -1   26.42    6.79
 -22   4  -5   33.10    8.33
  -4 -18   5   27.05    8.27
 -22   4  -5   20.52    6.83
 -18  22   8   58.00    8.74
 -22   4  -8   60.60    8.66
  -4 -18   8   46.15   10.59
  18 -22 -11   25.54    3.30
  22  -4  11   33.01    3.89
 -22   3   8  205.30   13.91
 -19  22  -8  193.99   14.58
 -22   3   5  162.18   12.21
 -19  22  -5  190.59   12.08
 -19  22  -5  174.33   12.79
   3  19   2  695.69   34.60
 -22   3   2  667.33   33.31
  22  -3  -2  589.61   33.21
 -19  22  -2  619.82   31.81
 -22   3  -1  134.86   11.81
 -22   3  -4   -5.95    7.17
 -22   3  -4   -4.67    5.62
  -3 -19   4   -0.23    7.23
  19 -22  -4    2.50    6.70
 -19  22   4    5.42    6.23
 -22   3  -7    8.11    7.70
 -19  22   7   10.09    8.16
  -3 -19   7    1.25    9.75
 -22   3  -7   14.37    9.08
  19 -22 -10   13.66    6.13
 -19  22  10   12.04    5.46
 -22   2   9   52.48    8.39
 -20  22  -9   40.24    8.82
  22  -2  -9   53.80    7.05
  20 -22   9   45.41    6.91
 -20  22  -6    3.70    9.17
 -20  22  -6    0.29    8.31
 -22   2   6    1.42    8.27
 -22   2   3   -1.88    6.13
 -20  22  -3    3.82    6.79
 -20  22  -3    4.02    6.20
  22  -2   0    0.73    6.81
 -22   2   0    3.17    6.62
   2  20   0    4.29    4.33
  20 -22  -3   22.87    6.33
 -22   2  -3   26.61    6.95
 -20  22   3   20.11    5.93
 -22   2  -3   24.78    6.76
 -22   2  -6    9.52    7.16
 -22   2  -6   10.27    8.88
  -2 -20   6   12.90    9.01
 -20  22   6    3.74    7.91
 -20  22   9   40.35    7.83
  20 -22  -9   47.14    8.30
  22  -1 -10   86.71    6.20
 -21  22 -10  103.61    8.40
 -21  22  -7   76.45   10.91
  21 -22   7   88.12    8.21
 -22   1   7   69.83   10.11
 -21  22  -4  153.87   11.55
  22  -1  -4  155.08    9.92
 -21  22  -4  163.77   11.18
 -22   1   4  151.05   10.90
   1  21   1    4.06    6.03
 -21  22  -1   16.48    5.57
 -22   1   1    4.76    5.73
  22  -1  -1    0.69    6.36
  21 -22  -2  966.44   47.34
 -22   1  -2  968.34   47.56
 -22   1  -2  962.81   47.36
 -21  22   5   43.51    7.83
 -22   1  -5   39.92    6.77
 -22   1  -5   27.85    8.34
  -1 -21   5   39.02    8.39
  21 -22  -5   43.62    8.47
 -22   1  -8    3.06    6.70
  -1 -21   8    7.73    9.21
  21 -22  -8    7.07    8.88
 -21  22   8    7.13    8.30
  22  -1  11    1.16    2.73
 -22  22  -8  168.35   13.07
 -22   0   8  163.05   12.03
  22 -22   8  176.85   10.80
  22   0  -8  140.43   10.82
 -22  22  -5    1.60    8.50
 -22  22  -5   13.36    8.18
 -22   0   5    7.94    7.69
  22   0  -5   -0.63    5.86
 -22  22  -2  329.99   19.32
  22   0  -2  346.21   21.08
 -22   0   2  372.90   18.90
   0  22   2  398.32   22.34
 -22  22  -2  358.86   19.09
 -22   0  -1   58.07    6.88
  22 -22  -1   39.03    5.99
 -22   0  -1   44.63    8.12
  22 -22  -4  299.11   16.76
 -22   0  -4  296.36   16.59
 -22  22   4  265.85   16.22
 -22  22   7   57.86    9.37
 -22   0  -7   59.24    7.57
   0 -22   7   45.04    9.68
  22 -22  -7   57.69   10.02
  22 -22 -10   88.93    7.37
 -22  22  10   82.65    6.99
  23 -22  -9    0.73    7.49
 -23  22   9   -4.22    6.86
 -22  -1  -6   15.02    8.63
 -23  22   6   14.88    8.65
   1 -23   6    4.18    8.76
  23 -22  -6    6.18    8.69
 -22  -1  -3   14.57    7.52
 -22  -1  -3   16.83    6.83
  23 -22  -3   16.93    6.63
 -23  22   3   18.60    6.65
 -22  -1   0  374.21   19.52
  23 -22   0  377.23   19.38
 -22  -1   0  329.32   20.92
 -23  22  -3   42.90    8.12
 -23  22  -3   46.85    7.68
 -22  -1   3   52.33    6.92
 -23  22  -6   86.64   10.26
 -22  -1   6   48.08    8.90
 -23  22  -6   52.71   10.36
  22   1  -6   75.63    7.70
 -22  -1   9    6.93    6.59
  22   1  -9    7.25    4.78
 -23  21  10   13.21    5.47
  23 -21 -10    9.03    5.65
   2 -23   7  141.18   11.87
  23 -21  -7  122.40   11.47
 -23  21   7  131.65   11.83
 -21  -2  -4   17.18    6.82
   2 -23   4   14.92    6.72
  23 -21  -4   17.52    7.28
 -23  21   4   17.14    7.16
 -21  -2  -1   19.36    7.24
 -21  -2  -1   23.75    6.39
  23 -21  -1   19.94    5.90
 -23  21   1   18.89    6.18
 -23  21  -2   43.02    7.38
  -2  23   2   64.44    8.88
  21   2  -2   47.89    8.04
 -23  21  -2   56.63    7.26
 -23  21  -5  168.25   12.73
 -21  -2   5  162.01   12.02
 -21  -2   8    6.77    7.88
  21   2  -8    1.60    6.04
  23 -21   8    3.49    6.48
  23 -20 -11   14.81    2.77
 -23  20   8   89.20   10.08
   3 -23   8   86.95   10.03
  23 -20  -8   87.19   10.23
  23 -20  -5  297.49   18.45
   3 -23   5  326.37   18.30
 -20  -3  -5  340.27   18.39
 -23  20   5  327.33   18.47
 -20  -3  -2  187.62   12.21
  23 -20  -2  193.34   11.62
 -23  20   2  185.15   11.63
 -20  -3   1   74.50    7.67
  23 -20   1   58.20    7.10
  20   3  -1   62.88    9.04
 -23  20  -4  306.27   16.99
 -20  -3   4  274.91   15.95
 -23  20  -7   79.60   10.55
 -20  -3   7   76.33    9.50
 -20  -3  10   70.24    6.09
   4 -23   9  120.84   10.35
 -23  19   9  138.80   10.58
  -4  23  -6   43.83    7.11
 -23  19   6   44.16    9.57
   4 -23   6   42.19    8.65
 -19  -4  -6   40.05    8.26
 -19  -4  -3  170.23   11.71
 -23  19   3  155.77   10.99
 -19  -4  -3  174.02   10.67
  19   4   0  271.33   17.87
 -19  -4   0  268.01   14.73
  -4  23   0  255.20   16.05
 -19  -4   0  246.17   15.58
 -19  -4   3   57.59    6.68
 -23  19  -3   83.68    8.25
 -23  19  -6  112.60   11.42
 -19  -4   6  122.00   10.42
  23 -19   9   84.79    7.93
 -19  -4   9   89.53    8.34
 -23  18  10   30.67    6.44
 -23  18   7  311.40   18.86
   5 -23   7  321.33   18.47
  -5  23  -7  311.78   17.69
 -18  -5  -4   63.90    7.15
 -23  18   4   51.22    8.11
 -18  -5  -1  369.19   19.81
 -18  -5  -1  375.41   21.73
 -23  18  -2  648.77   34.05
  -5  23   2  788.75   37.92
 -23  18  -5  298.64   17.36
 -18  -5   5  302.37   16.10
 -18  -5   8  194.63   12.63
 -23  18  -8  158.57   13.66
  23 -18   8  187.57   11.99
  23 -17 -11   11.22    3.30
  17   6  11   17.22    3.20
 -23  17  11   19.88    3.41
  -6  23  -8  144.27   10.68
 -23  17   8  132.72   12.06
   6 -23   8  141.30   11.62
 -23  17   5  409.39   22.63
   6 -23   5  419.16   22.12
 -17  -6  -5  421.63   22.11
  -6  23  -5  421.06   21.95
  23 -17  -2  293.20   16.66
 -23  17   2  316.74   16.82
 -17  -6  -2  348.13   20.22
   6 -23  -1 2101.66   89.13
  -6  23   1 2165.29   89.52
  17   6  -1 2104.49   89.58
 -23  17  -4   86.69    9.29
 -23  17  -4  113.05   10.01
 -17  -6   4  115.45    8.24
 -17  -6   7  345.86   20.04
 -23  17  -7  326.87   19.63
 -23  17  -7  314.97   20.03
 -23  17 -10    2.37    6.36
 -17  -6  10    9.03    4.65
  23 -17  10   -3.57    5.03
 -23  16   9   55.41    9.00
   7 -23   9   73.85    8.67
  23 -16  -9   63.37    9.21
  -7  23  -6   13.91    7.31
   7 -23   6   13.46    7.82
 -23  16   6   20.59    8.77
 -23  16   3   -1.54    6.49
  23 -16  -3    4.54    6.03
   7 -23   0   62.55    8.68
  16   7   0   61.95    9.80
 -16  -7   0   61.32    6.77
 -23  16  -3   83.30    7.99
 -23  16  -3   79.63    8.18
 -23  16  -6   10.35    8.64
 -23  16  -6   24.54    9.25
 -16  -7   6    5.07    9.97
 -23  16  -9   17.35    8.39
 -16  -7   9   20.96    6.76
   7 -23  -9   14.25    5.98
  23 -16   9   21.16    7.04
 -23  15  10   13.79    6.65
  23 -15 -10    8.10    6.18
  -8  23  -7   42.39    8.54
   8 -23   7   32.53    8.59
 -23  15   7   38.08    9.87
 -15  -8  -4  127.10   10.89
  23 -15  -4  152.92   10.59
 -23  15   4  143.50   10.62
  -8  23  -4  150.51    9.59
  15   8   1  409.96   23.88
   8 -23   1  380.51   23.20
 -15  -8  -1  387.14   22.10
 -23  15  -2    7.38    6.27
  -8  23   2   -5.99    7.12
 -23  15  -2    4.88    5.54
 -15  -8   5   75.64   10.11
 -23  15  -5   93.97    9.78
 -23  15  -5   68.08    9.56
 -23  15  -8  -11.40    9.20
 -15  -8   8  -17.73   10.24
  23 -14 -11   21.82    3.51
  14   9  11   19.38    3.44
 -23  14  11   23.58    3.92
  -9  23  -8    8.24    7.97
 -23  14   8    6.76    9.10
   9 -23   8   15.69    8.48
 -23  14   5  126.33   10.87
  -9  23  -5  125.33    9.76
   9 -23   5  131.88    9.43
  23 -14  -2   12.98    3.83
  23 -14  -2   15.04    5.68
 -23  14   2   20.40    5.93
 -14  -9  -2   11.49    6.06
   9 -23  -1   46.59    7.66
  14   9  -1   54.51    8.76
 -23  14  -4   74.09    7.99
 -23  14  -4   74.89    8.72
 -23  14  -7  148.73   13.46
 -23  14  -7  154.22   12.65
 -14  -9  10   15.59    4.44
 -23  14 -10   15.45    6.46
   9 -23 -10   24.33    4.66
  23 -14  10   21.79    5.72
 -10  23  -9  140.95   10.29
  10 -23   9  129.14   10.34
  23 -13  -9  119.51   10.64
 -10  23  -6   84.27    9.36
  10 -23   6   81.91    8.91
  23 -13  -3  242.64   14.41
 -23  13   3  282.81   14.68
 -13 -10  -3  237.15   14.77
  13  10   0   34.04    8.24
  10 -23   0   22.37    7.32
 -23  13  -3  261.43   13.99
 -23  13  -3  213.49   14.04
 -23  13  -6   10.90    9.04
 -23  13  -6   18.37    9.06
 -23  13  -9   65.10    9.59
 -13 -10   9   76.48    7.60
 -10  23   9   79.20    7.17
  11 -23  10   42.59    6.07
  23 -12 -10   39.33    6.83
 -11  23  -7  244.11   15.26
  11 -23   7  232.43   14.88
 -12 -11  -4  202.78   13.49
 -11  23  -4  220.90   12.76
  11 -23   1  283.12   18.30
 -23  12  -5  756.66   38.89
 -12 -11   5  782.94   39.05
 -23  12  -8   82.09   10.61
  23 -11 -11   24.91    3.56
 -12  23  -8   53.91    9.17
  12 -23   8   53.49    8.93
 -12  23  -5  382.44   20.72
  23 -11  -2  234.26   13.89
  11  12   2  270.52   16.22
  12 -23  -1  248.05   15.37
 -23  11  -1  235.66   17.24
 -11 -12   4   98.63    9.64
 -23  11  -4   84.80    8.69
 -23  11  -7  124.99   12.03
 -11 -12   7  133.76   12.88
  23 -11  10   -0.63    5.87
  12 -23 -10   16.44    5.40
 -13  23  -9    1.54    7.75
  13 -23   9    9.47    7.27
  23 -10  -9    5.49    7.74
 -23  10   9    9.89    8.27
 -13  23  -6   71.35    9.59
  13 -23   6   73.48    8.24
 -10 -13  -3  186.45   11.47
  10  13   3  208.36   14.39
  23 -10  -3  170.82   10.98
 -13  23  -3  149.33   12.70
 -23  10   3  171.49   11.24
 -23  10   0   79.68    9.62
  13 -23   0   76.97    8.60
  10  13   0   54.95    9.54
 -23  10  -3  238.49   13.02
 -23  10  -3  198.25   13.32
 -23  10  -6  154.01   11.93
 -23  10  -6  156.36   12.70
 -10 -13   6  162.23   13.13
 -23  10  -9   17.82    8.35
 -13  23   9   33.91    6.73
  14 -23  10   10.68    5.28
 -23   9  10    9.14    6.49
  23  -9 -10    7.76    5.98
 -14  23  -7   45.64   10.04
 -23   9   7   63.05   10.36
  14 -23   7   58.33    8.72
 -23   9   4  203.51   13.31
 -14  23  -4  221.16   13.14
   9  14   1    0.92    5.18
   9  14   1   15.47    7.52
 -23   9  -2   26.28    6.32
  14 -23  -2   26.56    5.60
 -23   9  -5    1.21    8.15
 -23   9  -5    8.15    7.30
  -9 -14   5   14.37    8.46
  -9 -14   8   15.53   10.01
 -23   9  -8   16.47    8.38
  23  -9  11   28.42    3.57
 -23   8  11    3.53    3.69
  15 -23   8  261.39   15.69
 -23   8   8  253.79   16.73
 -15  23  -8  275.27   16.81
 -15  23  -5   22.07    7.85
 -23   8   5   16.51    8.05
 -15  23  -5   19.29    6.63
  23  -8  -2  387.56   22.27
 -23   8   2  413.73   21.60
 -23   8  -1  152.50   13.39
  15 -23  -1  168.70   11.51
 -23   8  -4   50.70    7.05
 -23   8  -4   51.49    8.40
  -8 -15   4   36.67    8.20
 -23   8  -7   64.05   10.29
 -23   8  -7   71.32   10.01
  -8 -15   7   51.14   11.10
  15 -23 -10   30.82    5.78
 -15  23  10   30.51    5.01
 -16  23  -9    8.57    8.37
  16 -23   9    8.28    6.69
  23  -7  -9    1.44    7.22
 -23   7   9   11.10    8.38
 -23   7   6   11.58    8.72
 -16  23  -6    9.47    8.25
 -16  23  -3   36.84    6.31
  -7 -16  -3   30.49    6.44
 -23   7   3   23.76    6.60
  23  -7  -3   18.04    5.31
   7  16   0  160.09    9.79
 -23   7   0  180.41   13.20
 -23   7  -3   81.99    6.96
  16 -23  -3   64.02    7.05
 -23   7  -3   70.13    8.11
 -23   7  -6   25.70    8.08
  -7 -16   6   22.93    9.24
 -23   7  -6   21.74    9.26
 -23   7  -9   11.91    7.22
 -16  23   9   16.81    6.82
  23  -6 -10  117.48    7.93
 -23   6  10  109.69    8.55
  17 -23  10   93.32    7.00
   6  17  10  111.14    7.30
 -17  23  -7   10.15    9.42
 -23   6   7    9.89    9.21
  17 -23   7    8.31    6.98
 -17  23  -4   70.26    7.51
 -17  23  -4   91.61    8.23
 -23   6   4   74.44    8.47
  23  -6  -4   64.91    7.42
   6  17   1  138.72    9.95
  23  -6  -1  125.16   10.40
 -23   6   1  120.87   10.67
 -23   6  -2  162.21   10.75
 -23   6  -5  125.76    9.51
 -23   6  -5  107.38   10.51
  -6 -17   5   86.19   10.48
 -17  23   5  109.61    8.96
 -23   6  -8  105.96   10.23
  -6 -17   8  110.73   11.95
 -17  23   8  101.70    9.80
  23  -6  11    4.95    3.05
 -23   5   8  274.65   18.06
  18 -23   8  308.37   17.13
 -18  23  -8  333.22   18.76
 -23   5   5  111.46   10.07
 -18  23  -5  112.53    9.57
 -18  23  -5  107.90   10.39
 -18  23  -2 1867.18   89.32
  23  -5  -2 1668.25   90.65
 -23   5   2 1850.72   89.27
 -23   5   2 1868.33   91.27
   5  18   2 2085.81   92.24
  18 -23  -1  116.08    9.29
 -23   5  -1  108.76   11.41
 -23   5  -4  158.13   10.13
 -23   5  -4  141.84   11.09
  -5 -18   4  137.40   10.88
  18 -23  -4  142.47   10.23
 -18  23   4  144.96    9.94
  -5 -18   7    4.80   10.26
 -18  23   7   14.29    8.27
 -23   5  -7   10.80    7.87
 -23   5  -7   15.70    9.76
  18 -23 -10  283.28   15.04
 -18  23  10  268.67   14.49
 -19  23  -9   14.29    8.38
  23  -4  -9    7.68    6.55
  19 -23   9    2.56    6.03
 -23   4   9    9.81    7.75
 -19  23  -6   18.57    8.37
 -23   4   6   21.02    8.76
 -19  23  -6   22.95    7.80
 -19  23  -3    0.20    5.77
 -19  23  -3    4.72    6.55
 -23   4   3    1.53    6.35
  -4 -19  -3    3.59    6.04
  23  -4  -3    1.44    4.90
  23  -4   0  498.57   27.86
   4  19   0  489.48   25.32
 -23   4   0  496.29   27.72
 -23   4  -3  113.13    8.96
 -19  23   3   92.16    7.97
  19 -23  -3   99.23    8.47
 -23   4  -3  105.20    9.09
 -23   4  -6   12.86    9.19
 -23   4  -6   13.82    7.46
 -19  23   6   23.79    8.03
  -4 -19   6   10.89    9.38
 -19  23   9  126.85    9.49
  19 -23  -9  111.82    9.95
 -23   3  10   30.62    5.97
 -20  23 -10   35.47    6.43
  23  -3 -10   24.25    4.21
 -23   3   7  240.24   15.49
  20 -23   7  238.24   13.85
 -20  23  -7  230.25   16.18
 -20  23  -4    5.21    7.71
 -20  23  -4    2.12    6.83
  23  -3  -4   10.54    5.55
 -23   3   4    6.05    7.28
 -20  23  -1  241.49   14.02
 -23   3   1  230.91   15.79
  23  -3  -1  267.85   16.56
   3  20   1  275.70   15.80
 -23   3  -2   16.27    6.19
  20 -23  -2   14.08    5.94
 -23   3  -2   10.40    6.28
 -23   3  -5   23.73    6.75
 -23   3  -5   21.86    8.48
  -3 -20   5   21.49    8.32
  20 -23  -5   19.34    7.69
 -20  23   5    9.41    7.24
  -3 -20   8  160.08   13.05
  20 -23  -8  146.67   12.05
 -23   3  -8  169.59   11.28
 -21  23  -8   44.15    9.59
 -23   2   8   40.50    8.67
  23  -2  -8   33.28    7.31
  21 -23   8   40.76    7.01
  23  -2  -5  372.72   20.67
 -21  23  -5  424.27   21.62
 -21  23  -5  389.80   21.85
 -23   2   2   51.11    6.86
 -21  23  -2   33.89    7.25
  23  -2  -2   53.13    7.30
   2  21   2   54.48    8.38
 -23   2   2   50.03    6.84
 -23   2  -1  265.63   17.20
 -23   2  -1  254.99   14.29
  21 -23  -1  241.78   13.81
 -23   2  -1  243.09   14.07
  21 -23  -4  364.07   19.60
 -23   2  -4  357.21   19.95
 -21  23   4  356.27   19.36
 -23   2  -7   19.49    7.56
  -2 -21   7  -10.32    9.18
  21 -23  -7    7.10    8.95
 -23   2  -7   25.01    9.32
 -21  23   7   13.96    8.43
  21 -23 -10  123.07    8.58
 -21  23  10  126.06    7.97
 -22  23  -9   52.73    8.56
  23  -1  -9   60.76    6.29
 -23   1   9   57.43    7.89
 -22  23  -6   36.67    9.24
 -22  23  -6   46.12    9.16
 -23   1   6   39.84    9.00
  23  -1  -6   52.14    7.25
 -22  23  -3   82.48    8.44
 -22  23  -3   94.75    8.39
 -23   1   3   78.70    8.09
 -23   1   0   17.38    6.37
  22 -23   0   18.44    5.75
 -23   1   0   16.57    6.90
 -23   1  -3   14.58    7.09
 -23   1  -3   21.83    7.29
  22 -23  -3   11.51    6.48
 -22  23   3   10.36    6.29
 -23   1  -6   -0.92    8.48
 -23   1  -6   15.97    6.79
  -1 -22   6   10.99    9.15
 -22  23   6   -0.55    8.26
  22 -23  -6   -6.74    8.40
 -22  23   9    9.63    6.84
  22 -23  -9   12.73    7.34
 -23  23 -10    2.46    5.49
 -23   0  10   16.31    4.48
 -23   0   7    8.33    8.56
 -23  23  -7    6.65    9.56
  23   0  -7    8.76    6.58
 -23  23  -4    8.85    7.87
 -23   0   4    3.10    7.11
 -23  23  -4   13.02    7.61
 -23  23  -1  203.31   12.71
 -23   0   1  229.75   12.58
 -23   0   1  210.89   12.96
 -23  23  -1  210.87   12.74
 -23  23   2   18.52    6.26
 -23   0  -2    6.08    7.09
  23 -23  -2    8.23    6.26
 -23   0  -2   25.28    6.52
 -23   0  -5   19.70    8.26
  23 -23  -5   22.94    8.19
 -23  23   5   16.72    8.17
  23 -23  -8   25.37    8.67
 -23  23   8   29.44    7.98
  24 -23 -10    8.50    4.73
 -24  23  10   10.85    4.51
  24 -23  -7   12.61    8.68
 -24  23   7   14.14    8.63
 -23  -1  -4   17.07    7.36
  24 -23  -4   22.57    7.53
 -24  23   4   11.83    7.58
 -24  23   1  255.54   14.31
 -23  -1  -1  240.88   14.72
  24 -23  -1  248.66   14.20
 -23  -1  -1  248.50   14.07
 -23  -1   2  217.37   13.78
 -23  -1   2  226.02   13.13
 -24  23  -2  220.03   13.60
 -24  23  -2  231.82   13.65
 -24  23  -5   39.79    9.91
 -24  23  -5   60.10    9.24
 -23  -1   5   29.08    8.14
 -24  23  -8   19.82    9.06
 -23  -1   8   12.89    7.64
  23   1  -8   20.73    5.86
  24 -22  -8   84.54    9.75
 -24  22   8   92.07    9.70
   2 -24   5    6.23    7.67
  24 -22  -5   16.09    7.87
 -24  22   5   23.42    7.99
 -22  -2  -5    7.34    7.52
 -24  22   2 1336.06   66.41
 -22  -2  -2 1333.98   66.69
  24 -22  -2 1359.10   66.54
 -22  -2  -2 1431.32   66.38
 -24  22  -1  447.57   22.90
 -22  -2   1  449.31   23.03
 -24  22  -1  423.89   22.86
 -22  -2   4   25.20    7.06
 -24  22  -4   10.42    8.28
 -24  22  -4    0.28    7.62
 -22  -2   7   72.67    9.28
  22   2  -7   77.23    7.71
 -24  22  -7   84.31   10.14
 -22  -2  10   10.65    3.97
 -24  21   9   24.39    7.41
  24 -21  -9   17.85    7.38
   3 -24   6   78.60    9.60
 -24  21   6   75.67    9.80
  24 -21  -6   62.25   10.20
 -21  -3  -6   84.41    9.60
 -21  -3  -3   -3.65    7.73
 -21  -3  -3    4.30    6.05
  24 -21  -3   -3.53    6.88
 -24  21   3   -3.01    6.79
 -21  -3   0  156.78   10.12
  24 -21   0  130.54    9.42
 -24  21   0  134.82    9.75
 -24  21  -3   17.02    7.34
 -21  -3   3   24.27    6.18
 -24  21  -6   60.54    9.89
 -21  -3   6   50.61    8.53
 -21  -3   9    7.51    6.40
  24 -21   9   -0.80    5.28
 -24  20  10   41.28    6.04
   4 -24   7  385.01   22.29
 -24  20   7  424.27   22.63
 -20  -4  -4   51.00    7.38
   4 -24   4   47.84    7.19
 -24  20   4   50.40    7.96
 -20  -4  -4   53.49    8.82
 -20  -4  -1  327.23   18.03
 -24  20   1  328.40   17.76
 -24  20  -2    2.08    6.48
 -24  20  -5  308.92   18.28
 -20  -4   5  305.03   17.19
  24 -20   8  169.28   11.10
 -20  -4   8  168.87   11.83
 -24  19   8    5.73    8.82
   5 -24   8    8.56    8.50
 -24  19   5   34.43    8.67
 -19  -5  -5   33.10    7.49
   5 -24   5   37.29    7.71
 -19  -5  -2  155.20   10.66
 -24  19   2  153.47   10.42
 -19  -5   1    7.92    6.12
  -5  24   1   10.39    7.67
 -24  19  -1   -1.08    6.43
 -24  19  -4  309.76   18.23
 -19  -5   4  322.03   17.17
 -19  -5   7  185.61   12.28
 -24  19  -7  143.58   13.58
 -24  19  -7  177.79   13.59
 -24  19 -10    4.71    5.80
 -19  -5  10   17.72    4.20
   6 -24   9  113.75    9.40
 -24  18   9  108.23    9.88
 -24  18   6  282.60   17.65
   6 -24   6  288.33   16.96
  -6  24  -6  294.53   16.44
 -24  18   3  575.63   29.39
 -24  18   0  737.57   36.04
 -18  -6   0  734.12   36.18
  -6  24   0  710.70   38.16
 -18  -6   0  700.46   37.07
 -24  18  -3  249.95   15.29
 -24  18  -3  279.45   15.58
 -24  18  -6  272.35   17.77
 -24  18  -6  259.56   17.83
 -18  -6   9   29.67    6.50
  24 -18   9   23.11    6.44
 -24  17  10   50.22    7.04
  24 -17 -10   60.53    6.73
   7 -24   7  223.17   14.88
 -24  17   7  210.50   15.33
  -7  24  -7  253.20   14.47
  24 -17  -4  173.13   12.33
 -17  -7  -4  191.63   11.33
 -24  17   4  174.30   12.20
  24 -17  -1  326.22   17.01
 -24  17   1  316.47   17.31
 -17  -7  -1  308.23   18.95
 -24  17  -2  632.97   30.73
 -24  17  -2  582.55   30.80
 -17  -7   5  559.18   27.55
 -24  17  -5  510.54   28.47
 -24  17  -5  543.06   28.74
 -17  -7   8  107.66    9.41
 -24  17  -8  104.22   11.37
  24 -16 -11   12.49    2.86
 -24  16  11    9.00    3.13
  16   8  11    7.88    2.76
  -8  24  -8   83.02    8.94
 -24  16   8   70.11    9.79
   8 -24   8   90.73    9.62
  24 -16  -8   68.75   10.40
  -8  24  -5   38.54    6.83
   8 -24   5   36.93    7.03
 -24  16   5   23.00    8.37
 -16  -8  -5   50.98    7.03
 -16  -8  -2  176.20   11.66
 -16  -8  -2  180.52   13.93
  24 -16  -2  194.27   11.27
 -24  16   2  179.83   11.52
  16   8  -1  284.89   18.22
  24 -16   1  250.29   14.52
   8 -24  -1  286.04   17.31
 -24  16  -1  260.69   14.95
 -24  16  -4  102.18    9.78
 -24  16  -4   89.53    9.30
 -24  16  -7   20.02    9.51
 -24  16  -7   -7.32    9.74
 -16  -8   7   17.32    7.56
 -24  16 -10    6.34    6.06
  24 -16  10    3.89    4.90
   9 -24   9  113.28    9.19
 -24  15   9   98.14    9.86
  24 -15  -9   87.71    9.56
   9 -24   6  261.15   15.06
 -24  15   6  224.69   15.83
  -9  24  -6  256.62   15.22
 -15  -9  -3   52.53    7.95
 -24  15   3   49.15    7.30
  24 -15  -3   57.85    7.26
   9 -24   0 1135.91   58.05
  15   9   0 1136.79   58.59
 -24  15  -3  220.63   13.12
 -24  15  -3  206.95   13.40
 -24  15  -6   31.86    9.35
 -24  15  -6   58.62   10.04
 -15  -9   9   13.93    6.02
 -24  15  -9   12.25    8.17
   9 -24  -9   13.04    5.77
  24 -15   9   13.63    6.92
 -24  14  10   20.74    6.49
  24 -14 -10   14.94    5.94
 -24  14   7   46.09   10.03
 -10  24  -7   40.90    8.46
  10 -24   7   37.84    8.61
  24 -14  -4  202.75   13.39
 -14 -10  -4  202.93   13.95
 -24  14   4  235.35   13.90
 -10  24  -4  233.44   12.95
 -24  14   1   69.73    7.45
 -14 -10  -1   77.32    7.47
 -24  14  -2  170.57   10.95
 -24  14  -2  178.52   11.40
 -24  14  -5   27.26    9.00
 -24  14  -5   46.15    8.09
 -14 -10   8   34.82    7.39
 -24  14  -8   60.66   10.02
  24 -13 -11    4.10    2.74
 -11  24  -8    7.26    8.10
  11 -24   8   19.01    7.92
 -11  24  -5    1.51    6.96
 -13 -11  -2  161.05   10.95
  24 -13  -2  173.94   10.48
 -13 -11   1   22.06    5.98
  11 -24  -1   22.42    6.69
 -24  13  -4   13.12    6.59
  11 -24  -4   10.78    5.42
 -24  13  -7    2.36    8.80
 -24  13 -10   18.26    5.97
  11 -24 -10    7.41    4.31
  24 -13  10    7.49    5.34
 -12  24  -9   51.58    7.94
  12 -24   9   56.34    7.82
  24 -12  -9   38.87    8.18
 -12  24  -6    6.66    7.80
  12 -24   6    3.47    7.04
 -12  24  -3    8.07    5.56
 -12 -12  -3    1.74    6.81
  24 -12  -3    8.11    6.09
  12  12   0   39.67    9.05
  12 -24   0   30.24    7.38
 -24  12  -3   87.35    7.67
 -24  12  -6   -0.32    8.84
 -12 -12   6   -5.78    9.89
 -24  12  -9    9.92    7.95
 -12  24   9    7.58    5.67
  12 -24  -9   -1.91    6.48
 -24  11  10  135.57    9.35
  13 -24  10  115.15    7.89
  24 -11 -10  131.45    8.96
 -13  24  -7   26.71    9.15
  13 -24   7    7.86    7.54
 -11 -13  -4  528.90   28.15
  24 -11  -4  556.67   27.72
 -13  24  -4  598.55   27.80
 -24  11   1   19.93    6.29
  13 -24  -2  749.31   37.55
 -24  11  -2  685.73   36.31
 -24  11  -2  755.62   36.11
 -11 -13   5   67.66    9.70
 -24  11  -5   63.95    8.71
 -11 -13   8  242.61   16.33
 -24  11  -8  226.39   15.54
 -24  10  11   17.06    3.59
 -24  10   8  300.76   17.54
  14 -24   8  272.47   16.51
 -14  24  -8  296.44   17.59
 -24  10   5   86.44    9.91
 -14  24  -5   94.94    9.14
  10  14   2 1037.07   49.49
  24 -10  -2  948.95   46.70
 -10 -14  -2  945.14   46.92
 -24  10   2  943.36   46.93
 -24  10  -1   64.02    7.40
  14 -24  -1   97.39    8.72
 -24  10  -4  512.68   26.21
  14 -24  -4  523.04   25.97
 -24  10  -4  475.42   26.63
 -10 -14   7   60.00   11.15
 -24  10  -7   57.65    9.72
 -24  10  -7   41.05   10.03
  14 -24 -10   29.15    5.43
  24 -10  10   42.39    6.16
 -15  24  -9  145.60   11.13
 -24   9   9  145.53   11.49
  15 -24   9  140.02    9.89
  24  -9  -9  138.11   10.65
 -15  24  -6   19.79    8.98
 -24   9   6   32.87    8.70
 -15  24  -3 1339.98   61.62
  -9 -15  -3 1283.63   61.72
 -24   9   3 1228.83   61.65
  24  -9  -3 1215.76   61.40
 -24   9   0  289.97   18.20
  15 -24   0  255.71   17.14
 -24   9  -3  370.91   19.83
  15 -24  -3  395.46   19.64
 -24   9  -3  354.26   20.31
 -24   9  -6   28.87    8.27
 -24   9  -6   37.80    9.34
  -9 -15   6   19.69    9.79
 -24   9  -9   17.78    7.17
 -15  24   9   24.45    6.30
 -24   8  10   42.49    6.75
  24  -8 -10   37.13    5.63
 -24   8   7  233.25   15.67
  16 -24   7  236.81   14.53
 -16  24  -7  263.28   16.10
 -16  24  -4    8.81    6.99
 -24   8   4    8.34    7.09
  24  -8  -4    6.94    6.33
   8  16   1   58.78    7.11
 -24   8   1   76.78    9.04
 -24   8   1   67.00    7.33
  24  -8  -1   67.17    7.90
 -24   8  -2  160.84   10.77
 -16  24   5  107.46    8.33
 -24   8  -5   92.88    9.23
  -8 -16   5   71.94   10.37
 -24   8  -5   85.48   10.54
  -8 -16   8   57.04   10.76
 -24   8  -8   45.76    8.83
 -16  24   8   40.86    7.86
 -17  24  -8   14.69    8.93
 -24   7   8    7.98    8.74
  24  -7  -8   -6.31    7.82
  17 -24   8    4.43    7.03
 -17  24  -5   76.52    7.95
 -17  24  -5   64.85    9.50
 -24   7   5   67.76    8.97
  24  -7  -2   69.66    7.37
 -17  24  -2   86.26    7.20
  -7 -17  -2   74.47    7.43
 -24   7   2   73.63    7.83
   7  17   2   72.97    8.63
  17 -24  -1  191.33   13.24
 -24   7  -1  208.73   12.35
 -24   7  -4   76.91    7.97
 -17  24   4   77.66    7.22
 -24   7  -4   73.27    9.00
  17 -24  -4   78.29    8.20
 -24   7  -7   56.46   10.42
 -24   7  -7   67.84    9.32
  -7 -17   7   55.98   10.62
 -17  24   7   84.08    8.85
  17 -24 -10   18.60    5.38
 -17  24  10   19.60    4.26
 -18  24  -9   34.39    8.14
  18 -24   9   40.60    6.34
  24  -6  -9   32.19    7.00
 -24   6   9   31.59    8.03
 -18  24  -6    4.24    8.67
 -24   6   6    0.60    8.75
  -6 -18  -3  171.84   11.10
  24  -6  -3  169.91   10.56
 -18  24  -3  181.25   11.14
 -24   6   3  161.00   11.33
 -24   6   0  411.71   24.09
 -24   6   0  406.23   21.37
 -24   6  -3   59.60    6.75
 -24   6  -3   53.81    7.55
  18 -24  -3   77.47    7.37
 -24   6  -3   61.04    7.92
 -24   6  -6  152.52   12.51
 -24   6  -6  143.81   11.22
  -6 -18   6  138.58   12.50
 -18  24   6  143.65   10.77
 -24   6  -9   16.21    6.58
  18 -24  -9   11.31    7.24
 -18  24   9   10.82    6.45
  24  -5 -10   16.99    4.22
   5  19  10   14.67    3.64
 -24   5  10   11.68    5.82
 -19  24  -7   94.40   11.16
 -24   5   7   85.30   10.44
 -19  24  -4    3.26    7.27
 -19  24  -4   -0.22    6.24
  24  -5  -4    9.97    5.87
 -24   5   4   11.08    7.13
 -24   5   1   31.06    6.24
   5  19   1   20.18    5.87
  24  -5  -1   15.85    6.45
 -24   5   1   17.32    6.85
 -19  24  -1   25.99    5.85
 -24   5  -2    2.96    6.57
  19 -24  -2    8.94    5.77
 -24   5  -2    0.22    6.10
 -24   5  -5    7.18    6.87
 -24   5  -5   -3.37    8.76
  -5 -19   5   -1.13    8.58
 -19  24   5   10.12    7.09
  19 -24  -5    1.13    7.53
 -19  24   8   10.63    7.57
  19 -24  -8   -8.71    8.45
 -24   5  -8   11.19    7.51
 -20  24  -8   84.62   10.30
 -24   4   8   68.46    9.66
  24  -4  -8   78.64    8.54
  20 -24   8   86.08    7.97
 -20  24  -5   50.55    8.18
 -20  24  -5   58.37    9.43
  24  -4  -5   63.84    7.59
 -24   4   5   69.33    8.96
 -24   4   2   50.37    6.78
   4  20   2   39.40    7.86
 -20  24  -2   40.92    6.88
 -24   4   2   40.38    6.83
 -24   4  -1   78.65    7.83
  20 -24  -1   90.15    7.16
  20 -24  -1   81.61    8.41
 -24   4  -1   85.01    7.92
 -24   4  -4   20.20    6.55
 -24   4  -4   17.80    7.92
 -20  24   4   30.02    6.66
  20 -24  -4   31.75    6.74
 -24   4  -7  126.61   10.54
  -4 -20   7  135.62   12.27
  20 -24  -7  118.65   11.31
 -20  24   7  124.30   10.68
 -24   4  -7  144.40   12.12
  20 -24 -10   53.83    5.89
 -20  24  10   48.16    5.06
  24  -3  -9  206.30   11.67
 -24   3   9  187.52   12.69
 -21  24  -9  193.37   13.04
 -21  24  -6  143.10   12.98
  24  -3  -6  155.25   11.25
 -24   3   6  165.29   12.57
 -21  24  -6  181.68   12.43
 -21  24  -3  491.69   27.39
  24  -3  -3  525.09   26.57
 -24   3   3  523.91   27.22
 -21  24  -3  540.29   27.13
  -3 -21  -3  564.74   27.06
 -24   3   0   94.62    9.48
 -24   3   0   81.62    7.61
  21 -24   0   73.50    7.10
 -24   3   0   78.37    7.76
  21 -24  -3  236.36   13.72
 -24   3  -3  235.79   14.20
 -21  24   3  224.32   13.47
 -24   3  -3  236.06   14.18
 -24   3  -6   46.68    7.56
  -3 -21   6   31.99    9.43
 -21  24   6   38.50    8.50
  21 -24  -6   36.29    9.27
 -24   3  -6   51.64    9.54
 -21  24   9    6.52    6.37
  21 -24  -9    3.72    6.81
 -22  24 -10    3.83    5.25
 -24   2  10    4.74    4.90
 -24   2  10   -4.15    4.11
 -24   2   7    7.20    8.73
 -22  24  -7   18.69    9.47
  24  -2  -7   35.26    7.36
  24  -2  -4   75.23    7.05
 -22  24  -4   82.12    9.44
 -24   2   4   71.01    8.57
 -22  24  -4   75.40    8.52
 -22  24  -1  639.32   32.54
 -24   2   1  642.40   32.44
 -24   2   1  663.46   32.59
 -22  24   2  183.76   11.17
  22 -24  -2  182.09   11.39
 -24   2  -2  182.13   11.78
 -24   2  -2  167.40   11.69
 -24   2  -5   16.82    6.51
 -24   2  -5   -4.17    8.46
  22 -24  -5   -0.90    7.95
 -22  24   5    6.61    7.33
 -24   2  -8   30.03    6.69
  22 -24  -8   34.14    8.65
 -22  24   8   24.16    7.88
 -23  24  -8   28.05    9.02
 -24   1   8    7.76    7.87
  24  -1  -8    6.59    6.14
 -23  24  -5  128.78   11.38
 -23  24  -5  118.77   10.72
 -24   1   5  122.34   10.47
  24  -1  -5  114.65    8.94
 -24   1   2    2.87    6.84
 -24   1   2   16.31    6.35
 -23  24  -2    2.49    7.01
 -23  24  -2    9.88    6.44
  23 -24  -1  178.11   11.56
 -23  24   1  187.49   11.54
 -24   1  -1  199.33   12.01
 -24   1  -1  182.02   11.72
 -23  24   4   33.23    7.52
 -24   1  -4   37.53    8.18
  23 -24  -4   40.58    7.83
 -24   1  -7   67.15    7.71
  23 -24  -7   60.96    9.89
 -23  24   7   63.32    9.49
 -23  24  10   17.15    4.21
  23 -24 -10   21.79    5.08
 -24  24  -9   17.89    7.46
 -24   0   9    4.09    6.19
 -24  24  -6  154.51   12.16
 -24  24  -6  132.83   13.00
 -24   0   6  155.21   11.68
  24   0  -6  159.28   10.41
 -24  24  -3  149.05   11.43
 -24   0   3  151.24   10.60
 -24  24  -3  161.09   11.15
 -24   0   0  244.41   14.47
 -24  24   0  270.41   14.62
  24 -24   0  241.50   14.51
 -24   0   0  268.23   14.94
 -24   0  -3   34.80    7.44
 -24   0  -3   22.97    8.15
 -24  24   3   28.51    7.24
  24 -24  -3   24.30    6.90
 -24   0  -6    5.67    8.54
 -24  24   6   -3.65    8.35
  24 -24  -6   -3.90    8.94
  24 -24  -9   84.28    8.13
 -24  24   9   63.78    7.52
 -25  24   8  -16.47    7.83
  25 -24  -8    5.26    8.08
 -24  -1  -5   40.11    8.92
 -25  24   5   55.50    8.70
  25 -24  -5   50.70    8.99
 -25  24   2   31.58    7.03
 -24  -1  -2   31.22    7.85
  25 -24  -2   37.78    7.14
 -24  -1  -2   31.65    6.87
 -24  -1   1   -3.04    6.75
 -25  24  -1    6.91    6.92
 -25  24  -1    5.46    6.77
 -24  -1   1    6.51    6.10
 -25  24  -4   75.33    9.83
 -24  -1   4   79.52    8.56
 -25  24  -4   85.28    9.32
 -25  24  -7   18.53    9.43
 -24  -1   7   33.21    8.23
 -25  24 -10   12.11    4.78
 -24  -1  10    7.92    3.76
  25 -23  -9  289.66   15.67
 -25  23   9  254.31   15.20
 -23  -2  -6   43.46    8.95
 -25  23   6   43.10    9.33
  25 -23  -6   44.66    9.55
 -23  -2  -3  202.29   13.87
  25 -23  -3  222.35   13.34
 -23  -2  -3  212.33   13.07
 -25  23   3  207.44   13.23
 -25  23   0  100.71    8.87
  25 -23   0  102.28    8.87
 -23  -2   0   95.13    9.15
 -23  -2   0  115.43    8.32
 -25  23  -3  198.69   13.80
 -23  -2   3  218.70   13.02
 -25  23  -3  236.54   13.99
 -25  23  -6   54.48    9.89
 -23  -2   6   70.16    9.31
 -25  23  -6   65.13   10.41
 -23  -2   9  170.00   10.65
  25 -22 -10   95.07    7.60
 -25  22  10  120.38    7.37
   3 -25   7   99.91   10.27
  25 -22  -7   92.99   11.08
 -25  22   7  116.66   10.84
  25 -22  -4  274.78   16.97
 -25  22   4  280.85   16.78
 -22  -3  -4  300.80   16.56
 -25  22   1  358.24   19.04
  25 -22  -1  354.16   18.89
 -22  -3  -1  345.83   19.41
 -25  22  -2    8.15    6.68
 -22  -3   2   18.08    7.28
 -22  -3   2   13.80    5.94
 -25  22  -2    5.10    6.93
 -25  22  -5  621.52   31.75
 -22  -3   5  596.62   31.00
 -22  -3   8   42.09    7.71
 -25  21   8   34.50    8.73
 -21  -4  -5  124.97   10.04
   4 -25   5  105.05    9.83
 -25  21   5  115.20   10.61
 -25  21   2  157.74   10.76
 -21  -4  -2  157.43   11.15
 -21  -4  -2  145.62    9.86
  -4  25   1   67.14    8.96
 -25  21  -1   57.21    7.53
 -21  -4   1   47.47    7.46
 -21  -4   4   74.51    7.95
 -25  21  -4   79.53    9.25
  25 -21   7   -2.38    6.37
 -21  -4   7    6.75    7.75
 -25  20   9   91.14    8.92
   5 -25   6  255.21   15.19
 -25  20   6  229.94   15.71
 -20  -5  -3  149.52   11.67
 -25  20   3  165.99   11.36
 -20  -5  -3  169.77   10.55
 -20  -5   0  209.06   12.30
 -25  20   0  177.00   11.96
 -20  -5   3   25.73    5.81
 -25  20  -3   25.20    7.76
 -25  20  -6  173.01   13.48
 -20  -5   6  176.56   12.09
 -25  20  -9   -6.14    7.52
 -20  -5   9   -3.11    5.93
  25 -20   9   11.57    5.35
 -25  19  10    9.09    5.61
 -25  19   7  201.69   14.66
   6 -25   7  214.71   13.83
  -6  25  -7  209.83   12.99
 -19  -6  -4   22.29    6.41
 -25  19   4   -2.91    7.36
 -25  19   1  137.19   10.59
 -19  -6  -1  173.42   10.92
 -25  19  -2  153.07   11.24
 -25  19  -2  178.92   11.45
 -19  -6   5   57.77    7.47
 -25  19  -5   57.20    9.71
 -25  19  -5   40.70    9.79
 -25  19  -8   20.97    8.91
 -19  -6   8   20.58    7.38
  25 -19   8   33.67    7.00
 -25  18   8   76.28   10.20
   7 -25   8   92.59    9.56
  25 -18  -8   85.31   10.36
 -25  18   5    2.60    8.35
 -18  -7  -5    2.98    6.79
   7 -25   5    7.78    6.88
  25 -18  -5   -7.60    8.20
  25 -18  -2   53.02    6.74
 -25  18   2   51.58    7.14
 -25  18  -1    9.95    6.76
 -18  -7   1   12.17    6.32
 -25  18  -1   17.33    6.03
  -7  25   1   10.20    7.53
 -25  18  -4   24.90    8.46
 -25  18  -4   19.18    7.29
 -25  18  -7   72.53   10.38
 -18  -7   7   60.97    8.11
 -25  18 -10    2.58    5.59
   8 -25   9   -3.48    6.68
 -25  17   9   -4.33    7.75
  25 -17  -9  -12.30    7.45
  -8  25  -6   56.24    7.75
   8 -25   6   58.81    8.61
 -25  17   6   48.30    9.32
  25 -17  -6   42.41    8.90
 -17  -8  -3   46.03    8.18
 -25  17   3   65.70    8.04
  25 -17  -3   61.12    7.22
 -25  17   0  173.76   11.14
  25 -17   0  165.94   10.38
 -25  17  -3   72.14    8.47
 -25  17  -3   94.00    9.07
 -17  -8   6  207.33   12.86
 -25  17  -6  201.61   14.80
 -25  17  -6  199.69   14.71
 -25  17  -9   44.20    8.53
 -17  -8   9   60.07    6.51
   8 -25  -9   51.69    5.92
  25 -17   9   58.33    6.95
  25 -16 -10  446.31   21.97
 -25  16  10  411.67   22.05
   9 -25   7   99.70    9.93
  25 -16  -7  112.50   11.08
  -9  25  -7  101.99    9.90
 -25  16   7  102.27   10.98
  25 -16  -4  638.66   31.66
 -16  -9  -4  577.27   32.00
 -25  16   4  643.92   31.84
 -16  -9  -1  196.53   12.92
  25 -16  -1  227.48   12.68
 -25  16   1  222.35   12.90
 -25  16  -2 2059.70   99.62
 -25  16  -2 2072.76   99.67
 -25  16  -5   68.68    9.58
 -25  16  -5   78.40   10.07
   9 -25  -5   72.36    7.18
 -25  16  -8   52.97    9.60
 -16  -9   8   51.89    7.52
   9 -25  -8   52.49    7.34
  25 -15  -8  267.41   16.54
  10 -25   8  260.31   15.60
 -10  25  -8  265.73   15.72
 -25  15   8  256.44   16.42
 -10  25  -5   28.31    7.11
 -25  15   5   14.20    8.55
  25 -15  -5   12.06    8.23
 -15 -10  -2  318.11   17.81
  25 -15  -2  322.26   17.36
 -25  15   2  328.69   17.77
 -25  15  -1   74.14    6.99
 -15 -10   1   78.99    7.66
 -25  15  -1   54.69    7.67
  10 -25  -1   73.98    8.88
 -25  15  -4  663.01   33.02
 -25  15  -4  631.14   33.40
 -25  15  -7  120.59   12.59
 -15 -10   7  152.91   10.37
 -25  15  -7  132.63   12.43
  25 -15  10  119.12    7.52
 -25  15 -10  111.94    8.54
  11 -25   9   73.32    7.80
  25 -14  -9   76.69    8.95
  11 -25   6   83.54    8.78
 -11  25  -6   98.79    9.61
 -14 -11  -3   29.92    7.35
 -11  25  -3   40.52    6.03
 -25  14   3   34.75    7.51
  25 -14  -3   43.76    6.74
 -25  14   0  287.97   16.16
  25 -14   0  288.77   15.82
 -14 -11   0  302.84   16.21
 -25  14  -3  412.83   20.81
 -25  14  -3  359.70   20.99
 -25  14  -6   75.54    9.99
 -25  14  -6   67.57   10.39
 -25  14  -9    4.35    7.93
  11 -25  -9    7.46    5.66
  25 -13 -10   39.96    5.98
 -12  25  -7  115.81   10.81
  12 -25   7  106.69    9.86
 -12  25  -4   64.38    7.58
  25 -13  -4   61.19    8.26
 -13 -12  -4   73.44    9.07
  25 -13  -1  214.37   12.66
 -13 -12  -1  237.64   13.30
 -25  13  -2  633.61   31.85
  12 -25  -5  204.38   12.72
 -25  13  -5  203.34   13.67
 -25  13  -8   70.05    9.79
  12 -25  -8   62.17    8.06
 -13  25  -8    7.29    8.39
  13 -25   8   25.26    7.43
  25 -12  -8   17.77    8.63
  25 -12  -5  149.31   12.08
 -13  25  -5  192.78   12.04
  12  13   2   18.72    6.53
 -12 -13  -2   19.72    6.43
  25 -12  -2   26.45    5.88
 -12 -13   1  196.03   11.76
  13 -25  -1  171.92   12.89
 -25  12  -4   -4.41    7.26
  13 -25  -4   -0.86    5.67
 -25  12  -7  185.00   13.83
 -13  25   7  184.89   11.58
 -12 -13   7  165.34   14.30
  13 -25 -10   10.35    4.19
  25 -12  10    8.00    5.02
 -14  25  -9  142.41   10.89
  25 -11  -9  151.30   11.08
  14 -25   9  154.74   10.05
 -25  11   9  162.13   11.56
 -14  25  -6   84.92   10.11
 -25  11   6   95.48   10.83
 -14  25  -3  199.44   11.40
 -11 -14  -3  182.61   12.05
  25 -11  -3  172.12   11.49
 -25  11   3  168.54   11.98
 -25  11   0  209.20   12.35
  14 -25   0  189.51   14.36
 -11 -14   0  208.72   12.38
  14 -25  -3  362.79   19.24
 -25  11  -3  391.54   19.72
 -25  11  -3  346.84   20.12
 -14  25   6   69.73    7.68
 -11 -14   6   54.12   10.68
 -25  11  -6   76.74    9.87
 -25  11  -6   57.11   10.42
 -25  11  -9   -7.85    7.25
 -14  25   9    0.42    5.24
  14 -25  -9    2.47    6.34
 -25  10  10   22.18    6.17
  25 -10 -10   13.41    5.41
 -15  25  -7   17.36    9.21
  15 -25   7   14.00    7.35
 -25  10   7   24.14    9.03
 -15  25  -4    1.25    6.86
  25 -10  -4    1.47    6.58
 -25  10   4    4.99    7.48
 -25  10   1   69.16    7.40
 -10 -15  -1   72.97    7.46
  10  15   1   59.96    6.99
 -25  10  -2  493.25   24.04
 -25  10  -2  440.69   24.48
 -25  10  -5   96.47   11.01
 -25  10  -5  118.19   10.44
  15 -25  -5  125.45    9.70
 -25  10  -8   17.06    8.54
  15 -25  -8    1.59    7.53
 -15  25   8   -0.40    6.70
 -25   9   8   23.67    9.03
 -16  25  -8   11.57    8.79
  25  -9  -8   17.24    8.30
  16 -25   8   18.84    7.06
  25  -9  -5  217.17   14.53
 -16  25  -5  260.55   15.05
 -25   9   5  237.16   15.02
  25  -9  -2  139.27    9.46
 -16  25  -2  153.57    9.69
 -25   9   2  151.22   10.29
   9  16   2  137.86   11.40
  -9 -16  -2  145.67   10.05
  -9 -16   1  622.95   31.20
  16 -25  -1  629.98   32.98
 -25   9  -1  614.71   31.41
 -25   9  -4   25.83    6.88
 -25   9  -4   32.40    8.20
  16 -25  -4   36.37    7.05
 -25   9  -7    7.65    8.76
 -25   9  -7   19.95    9.62
 -16  25   7   17.40    7.27
  -9 -16   7    4.28   10.33
  16 -25  -7   12.85    8.38
  16 -25 -10   10.02    4.56
  25  -9  10   16.46    5.41
  25  -8  -9  165.15   11.26
 -25   8   9  167.16   11.88
 -17  25  -9  160.58   11.59
 -17  25  -6   45.91    9.04
 -25   8   6   44.36    9.58
  25  -8  -6   53.15    8.73
  -8 -17  -3  181.46   11.45
  25  -8  -3  166.81   10.81
 -25   8   3  156.15   11.30
 -17  25  -3  176.37   11.29
 -25   8   0  284.64   16.00
  17 -25   0  288.16   18.21
 -25   8  -3   62.57    7.14
  17 -25  -3   68.74    7.25
 -25   8  -3   54.36    8.40
 -25   8  -6    7.90    8.17
 -25   8  -6   11.87    9.36
 -17  25   6   14.82    7.09
  -8 -17   6    9.54    9.78
  17 -25  -6    2.63    7.88
 -17  25   9   27.92    6.02
  17 -25  -9   32.14    7.06
  25  -7 -10    9.59    4.31
 -25   7  10    9.77    5.62
   7  18  10    9.73    3.92
 -18  25  -7   31.77    9.82
 -25   7   7   20.17    9.50
  25  -7  -7   29.23    8.06
  25  -7  -4  182.56   12.38
 -18  25  -4  230.60   13.49
 -18  25  -4  205.35   12.18
 -25   7   4  196.74   13.27
 -25   7   1   26.35    6.64
  25  -7  -1   17.49    6.46
 -18  25  -1   28.23    6.00
 -25   7   1   11.74    6.98
  -7 -18  -1   33.14    6.14
 -25   7  -2   67.90    8.40
 -25   7  -2   87.89    6.92
 -25   7  -2   72.45    7.63
  18 -25  -2   79.92    7.16
  18 -25  -5  312.91   17.99
 -25   7  -5  300.76   18.74
 -18  25   5  312.46   17.31
 -25   7  -5  328.63   17.91
 -25   7  -8   17.35    7.80
 -18  25   8   19.95    7.29
  18 -25  -8    3.88    8.24
 -19  25  -8   16.81    9.11
  25  -6  -8    4.00    7.44
 -25   6   8   11.28    8.46
  25  -6  -5  315.68   18.43
 -19  25  -5  350.51   19.17
 -19  25  -5  343.23   18.58
 -25   6   5  333.02   19.21
 -25   6   2  275.68   15.71
 -19  25  -2  275.24   15.44
  -6 -19  -2  295.15   15.42
  25  -6  -2  277.17   14.91
 -25   6   2  259.19   15.23
 -25   6  -1  196.28   11.80
  19 -25  -1  205.04   11.51
  -6 -19   1  182.45   11.72
 -25   6  -1  191.16   12.30
 -25   6  -4   18.24    6.51
 -19  25   4    8.10    6.19
 -25   6  -4   11.87    8.08
  19 -25  -4    6.69    6.59
 -25   6  -7  113.20   10.24
 -25   6  -7  113.48   12.04
 -19  25   7  106.75   10.04
  19 -25  -7  123.78   11.10
  19 -25 -10  133.64    8.36
 -25   5   9   14.95    7.18
  25  -5  -9    0.18    5.73
 -20  25  -9    6.31    7.58
 -20  25  -6  108.61   10.95
 -25   5   6   87.98   10.43
  25  -5  -6   92.69    9.22
 -20  25  -3    9.83    7.29
  -5 -20  -3    7.37    6.53
 -20  25  -3    7.75    5.94
  25  -5  -3   24.02    5.64
 -25   5   3   16.22    7.09
 -25   5   0   92.36   10.11
  20 -25   0   82.17    7.42
 -25   5   0   80.21    7.48
 -25   5   0   88.47    8.08
 -25   5  -3    5.50    5.50
 -25   5  -3   13.48    7.27
  20 -25  -3    7.81    6.31
 -25   5  -3   -1.57    7.35
 -20  25   3   14.38    5.86
 -25   5  -6   55.76    8.32
 -25   5  -6   52.29   10.15
 -20  25   6   60.78    8.60
  20 -25  -6   50.60    9.29
 -20  25   9   60.03    6.90
  20 -25  -9   57.29    7.66
 -25   4  10   38.13    5.40
 -21  25  -7   69.97   10.75
  25  -4  -7   73.77    8.65
 -25   4   7   88.48   10.22
 -21  25  -4   13.59    7.79
 -21  25  -4   14.23    7.00
  25  -4  -4    0.21    5.86
 -25   4   4   -0.52    7.62
 -21  25  -1   39.42    6.80
  25  -4  -1   21.33    6.80
 -25   4   1   29.85    6.48
 -25   4   1   32.08    6.86
  21 -25  -2    6.41    6.00
 -25   4  -2   -2.18    6.50
 -21  25   2    3.86    5.69
 -25   4  -2   -0.24    6.76
 -25   4  -5   54.33    7.44
 -25   4  -5   60.05    9.56
  21 -25  -5   42.02    8.77
 -25   4  -8   29.27    7.01
 -21  25   8   31.41    7.64
  21 -25  -8   33.61    8.58
 -22  25  -8  -10.37    8.75
 -25   3   8   10.09    7.94
  25  -3  -8   -3.74    6.44
 -22  25  -5    2.42    7.88
 -22  25  -5    0.33    8.85
 -25   3   5   11.74    8.28
  25  -3  -5    1.59    6.38
 -25   3   2   23.57    6.78
 -22  25  -2   21.62    7.27
  -3 -22  -2   24.51    6.24
 -25   3   2   32.77    6.91
 -22  25  -2   23.97    6.54
  -3 -22   1  467.35   24.52
  22 -25  -1  484.55   24.66
 -22  25   1  483.76   24.44
 -25   3  -1  498.66   24.90
 -25   3  -1  467.59   24.78
 -25   3  -4   35.28    8.47
  22 -25  -4   31.02    7.56
 -22  25   4   41.68    7.33
 -25   3  -7   12.11    7.00
  22 -25  -7    5.62    8.16
 -22  25   7   -7.22    8.09
 -25   3  -7    4.36    8.94
  22 -25 -10    9.57    4.35
 -22  25  10    8.95    3.40
 -23  25  -9   93.98    9.53
  25  -2  -9  104.51    7.04
 -25   2   9  114.29    8.82
 -23  25  -6   -5.55    9.20
 -23  25  -6    3.44    8.64
 -25   2   6   -1.44    8.52
  25  -2  -6    9.67    6.44
 -23  25  -3  355.68   20.37
 -25   2   3  353.22   19.88
 -23  25  -3  392.70   19.99
 -23  25   0   70.51    7.38
  23 -25   0   73.72    7.84
 -25   2   0   71.70    7.71
 -25   2   0   69.13    7.99
 -25   2  -3  132.62   11.19
 -25   2  -3  131.91   10.80
  23 -25  -3  150.03   10.68
 -23  25   3  149.96   10.22
 -23  25   6   23.34    8.32
 -25   2  -6   39.24    9.73
  23 -25  -6   40.30    9.35
 -25   2  -6   42.40    6.96
  23 -25  -9  232.55   13.48
 -23  25   9  219.31   12.96
 -25   1  10  142.57    8.02
 -24  25  -7  157.17   13.33
  25  -1  -7  152.02   10.64
 -25   1   7  188.30   12.31
 -24  25  -4  409.73   22.78
 -25   1   4  406.35   22.37
 -24  25  -4  431.56   22.48
 -25   1   1  275.89   15.63
 -25   1   1  271.84   15.38
 -24  25  -1  275.08   15.44
 -24  25  -1  259.01   15.29
  -1 -24   2  204.51   12.62
  24 -25  -2  222.27   12.88
 -25   1  -2  203.16   13.48
 -24  25   2  215.93   13.04
 -25   1  -2  218.66   13.19
 -24  25   5   48.39    8.79
 -25   1  -5   44.18    9.08
  24 -25  -5   63.69    9.27
 -24  25   8    9.08    7.24
  24 -25  -8   -3.00    7.98
 -25  25  -8   -9.71    8.47
 -25   0   8   14.02    7.10
 -25   0   5   10.92    7.92
 -25  25  -5   10.29    9.35
 -25  25  -5   19.41    8.44
 -25   0   2    8.63    6.41
 -25  25  -2    6.76    7.12
 -25   0   2   -0.26    7.35
 -25  25  -2    3.85    7.00
 -25  25   1  282.75   15.96
  25 -25  -1  279.65   15.95
 -25   0  -1  274.45   16.40
 -25   0  -1  293.93   15.98
 -25   0  -4   23.29    7.96
  25 -25  -4   27.58    8.12
 -25  25   4   37.83    7.98
 -25  25   7  140.38   11.14
  25 -25  -7  126.90   11.57
  25 -25 -10    7.97    3.96
 -26  25   9    8.85    5.84
  26 -25  -9    3.08    6.02
 -25  -1  -6   27.25    8.81
 -26  25   6   35.40    8.84
  26 -25  -6   20.01    8.90
 -25  -1  -3   60.44    9.35
  26 -25  -3   69.43    8.87
 -25  -1  -3   62.78    8.26
 -26  25   3   63.85    8.45
 -25  -1   0  725.95   36.93
  26 -25   0  742.85   36.72
 -25  -1   0  726.43   36.46
 -26  25   0  732.23   36.64
 -25  -1   3   52.38    8.65
 -26  25  -3   46.93    8.98
 -25  -1   3   53.00    7.82
 -26  25  -3   52.39    8.27
 -25  -1   6   23.21    8.08
 -26  25  -6   31.09    8.90
 -26  25  -6   11.62    9.74
 -26  25  -9   -1.07    7.05
 -25  -1   9   10.18    5.21
 -26  24  10    6.29    3.49
  26 -24 -10   12.08    4.23
 -26  24   7   32.74    8.80
  26 -24  -7   36.90    9.27
 -24  -2  -4   -3.11    7.35
  26 -24  -4    1.49    7.64
 -26  24   4   -3.74    7.83
 -24  -2  -1   28.50    7.77
  26 -24  -1   38.12    7.23
 -26  24   1   35.96    7.23
 -24  -2  -1   28.55    6.55
 -26  24  -2   62.93    8.50
 -24  -2   2   75.72    8.90
 -26  24  -2   59.77    8.48
 -24  -2   2   70.46    7.69
 -26  24  -5  -13.47    9.67
 -26  24  -5    4.31    8.84
 -24  -2   5    7.84    7.78
 -24  -2   8   13.33    7.01
  26 -23  -8   27.82    8.35
 -26  23   8    7.91    8.17
 -26  23   5   89.15   10.08
 -23  -3  -5   74.85    8.97
  26 -23  -5   80.80   10.04
 -26  23   2   32.65    7.36
  26 -23  -2   21.55    7.05
 -23  -3  -2   16.24    6.44
 -23  -3  -2   28.82    8.02
 -26  23  -1   17.69    7.05
 -23  -3   1    3.39    7.07
 -26  23  -1   13.50    6.45
 -23  -3   1    6.29    5.82
 -26  23  -4    9.16    8.34
 -23  -3   4    0.69    6.96
 -23  -3   7   88.14    9.35
 -26  23  -7   89.75   10.49
 -23  -3  10    3.98    4.09
 -26  22   9    8.63    6.73
 -26  22   6   62.77   10.10
 -22  -4  -6   80.24    9.11
 -22  -4  -3  111.40    8.81
 -22  -4  -3   97.43   10.03
 -26  22   3  105.67    9.58
 -26  22   0    9.04    6.74
 -22  -4   0   13.68    7.14
 -22  -4   3   53.38    6.87
 -26  22  -3   46.79    8.33
 -26  22  -6   12.07    9.55
 -22  -4   6   12.19    7.49
 -22  -4   9    5.49    5.28
 -26  21  10  172.55    9.96
 -26  21   7   90.14   10.78
   5 -26   7   99.52    9.96
 -26  21   4  323.63   17.97
 -21  -5  -4  323.90   17.14
 -26  21   1  279.57   15.79
 -21  -5  -1  270.77   15.92
 -21  -5   2  454.37   23.94
 -26  21  -2  449.93   23.88
 -26  21  -5   84.70   10.37
 -21  -5   5   75.29    8.41
 -21  -5   8  143.61   10.37
 -26  20   8   82.47    9.86
   6 -26   5  176.37   11.23
 -26  20   5  135.68   12.28
 -20  -6  -5  162.86   11.34
 -26  20   2  238.63   14.95
 -20  -6  -2  269.36   15.41
 -26  20  -1  206.71   12.94
 -20  -6   1  219.60   13.24
  -6  26   1  199.42   15.12
 -26  20  -1  206.35   13.16
 -26  20  -4  252.29   16.34
 -20  -6   4  287.38   15.37
 -26  20  -4  280.77   16.89
 -26  20  -7   26.76    9.84
 -26  20  -7   37.44    9.95
 -26  20 -10   74.93    6.56
 -26  19   9   48.72    8.12
  26 -19  -9   48.27    7.62
   7 -26   6   15.91    7.83
  26 -19  -6   13.14    8.68
 -26  19   6   10.25    8.89
  26 -19  -3   67.54    8.33
 -26  19   3   64.23    8.48
  26 -19   0   67.99    6.96
 -19  -7   0   72.21    8.10
 -26  19   0   64.53    7.89
 -26  19  -3  476.62   25.45
 -26  19  -3  494.99   25.72
 -26  19  -6    2.10    9.05
 -26  19  -6    8.51    9.44
 -19  -7   6   14.16    7.08
  26 -19   9   45.58    6.07
 -26  19  -9   55.17    8.45
 -19  -7   9   60.59    6.14
  26 -18 -10    3.38    5.07
 -26  18  10   23.01    5.59
 -26  18   7  155.79   12.97
   8 -26   7  173.38   11.94
  26 -18  -7  149.30   12.69
  -8  26  -7  168.83   11.40
 -26  18   4   67.33    8.87
 -18  -8  -4   76.43    9.69
  26 -18  -4   71.37    9.03
  26 -18  -1   89.02    7.61
 -26  18   1   78.58    8.25
 -26  18  -2  845.97   42.60
 -26  18  -2  871.46   42.77
 -26  18  -5  374.22   21.98
 -18  -8   5  408.55   20.64
 -26  18  -5  371.67   21.97
 -26  18  -8   35.17    9.22
 -18  -8   8   42.70    7.12
  -9  26  -8   29.91    7.17
   9 -26   8   14.30    7.53
  26 -17  -8   12.21    8.11
 -26  17   8   23.36    9.02
  -9  26  -5   24.37    6.59
  26 -17  -5   24.11    7.95
 -26  17   5    9.21    8.75
 -17  -9  -2  116.88    9.59
  26 -17  -2  111.19    9.11
 -26  17   2  117.39    9.32
 -26  17  -1  170.17   11.50
  -9  26   1  174.94   14.19
 -26  17  -1  185.18   11.80
 -26  17  -4  134.52   10.81
 -26  17  -4  139.72   11.57
 -26  17  -7   37.28    9.92
 -26  17  -7   62.17   10.14
 -17  -9   7   55.90    7.68
   9 -26  -7   64.75    7.52
 -26  17 -10   41.93    5.95
  26 -17  10   36.84    4.00
 -26  16   9    5.20    7.46
  26 -16  -9    8.60    7.52
 -10  26  -6  109.28    9.75
 -26  16   6   84.32   10.57
  10 -26   6  109.70    9.35
  26 -16  -6  112.95   11.01
 -26  16   3   13.30    7.23
 -16 -10  -3    9.57    7.65
  26 -16  -3   16.78    6.76
  26 -16   0   10.34    6.00
 -16 -10   0   18.80    6.44
 -26  16   0   13.66    6.44
 -26  16  -3   35.09    7.56
 -26  16  -3   29.24    8.09
 -26  16  -6    9.46    9.28
 -26  16  -6    4.17    9.69
  10 -26  -6    1.85    6.40
 -26  16  -9   10.88    7.68
  10 -26  -9   -0.29    4.72
  26 -16   9    6.66    5.84
  26 -15 -10   14.10    5.21
 -26  15  10    7.44    5.73
 -11  26  -7    1.09    7.80
 -26  15   7   -8.92    9.33
  11 -26   7   -4.03    7.49
  26 -15  -7    6.75    9.01
 -11  26  -4  101.32    8.17
 -15 -11  -4   82.36    9.67
 -26  15   4   85.65    9.61
  26 -15  -4   85.29    9.21
 -26  15   1   19.48    6.52
 -15 -11  -1    9.93    6.58
  26 -15  -1   17.18    5.86
 -26  15  -2  156.97   10.51
 -26  15  -2  147.96   11.02
  11 -26  -5  499.57   25.05
 -26  15  -5  432.91   26.11
 -26  15  -5  512.07   25.96
 -26  15  -8   16.61    8.89
  11 -26  -8   -1.30    6.53
  12 -26   8  220.52   14.06
  26 -14  -8  231.60   15.25
 -12  26  -8  261.60   14.74
  26 -14  -5  140.83   11.48
 -12  26  -5  143.10   10.71
 -14 -12  -2   17.60    6.87
  26 -14  -2   16.12    5.69
 -26  14  -1  349.25   18.81
 -14 -12   1  372.31   19.35
  12 -26  -1  349.14   21.31
 -26  14  -4  273.62   16.63
  12 -26  -4  285.55   15.50
 -26  14  -7  119.93   11.33
  12 -26  -7  102.43    9.59
  26 -14  10   23.51    4.63
 -13  26  -9   46.52    7.05
  13 -26   9   34.15    6.23
  26 -13  -9   24.40    7.44
 -13  26  -6  131.55   10.77
  26 -13  -6  115.32   11.12
 -13 -13  -3  906.90   46.30
  26 -13  -3  894.33   46.06
 -13  26  -3  989.10   45.88
  26 -13   0  220.07   12.98
 -13 -13   0  240.71   13.56
 -26  13  -3  420.59   22.43
  13 -26  -3  431.17   21.86
 -26  13  -6    1.61    8.96
  13 -26  -6    2.59    7.14
 -26  13  -9   81.58    8.55
  13 -26  -9   68.56    7.13
  26 -12 -10   16.78    5.09
 -26  12  10   11.75    5.96
  14 -26   7   45.02    7.69
  26 -12  -7   31.59    9.01
 -12 -14  -4  397.83   22.48
  26 -12  -4  395.16   22.01
 -14  26  -4  444.69   22.02
 -26  12   1   31.36    6.79
 -12 -14  -1   20.52    6.61
  26 -12  -1   23.53    5.64
 -26  12  -2  179.30   11.31
  14 -26  -5  344.45   18.88
 -26  12  -8    9.03    8.54
  14 -26  -8   -1.70    7.28
 -15  26  -8   22.51    8.16
  15 -26   8   16.98    6.63
  26 -11  -8   15.33    8.25
 -26  11   8   14.08    8.79
 -26  11   5   74.86    9.63
 -15  26  -5   77.65    9.17
  26 -11  -5   72.17    9.19
 -15  26  -2  310.41   15.86
  26 -11  -2  278.46   15.76
 -26  11   2  285.07   16.33
 -11 -15  -2  276.93   16.27
 -26  11  -1  954.00   46.61
 -11 -15   1  957.64   46.90
 -26  11  -1  945.62   46.96
 -26  11  -4  139.11    9.84
  15 -26  -4  127.36    9.44
 -26  11  -7  105.09   10.71
 -26  11  -7  101.58   11.29
 -15  26   7  106.84    8.83
  15 -26  -7  105.49    9.93
  15 -26 -10   10.84    3.82
  26 -11  10   15.55    4.78
 -16  26  -9   49.94    7.34
 -26  10   9   26.88    8.07
  26 -10  -9   42.22    7.13
 -26  10   6  123.70   11.66
  26 -10  -6  111.45   10.63
 -16  26  -3   37.56    6.65
 -10 -16  -3   33.70    7.49
  26 -10  -3   38.47    6.55
 -26  10   3   28.95    7.66
  26 -10   0   39.82    5.83
 -10 -16   0   51.75    6.94
 -26  10   0   48.43    7.31
  16 -26  -3  174.47   10.81
 -26  10  -3  148.97   12.01
 -26  10  -3  182.44   11.35
 -26  10  -6    4.25    8.12
 -26  10  -6   -0.35    9.31
 -16  26   6   11.77    6.90
  16 -26  -6   -1.97    7.88
  16 -26  -9    9.06    6.15
 -26  10  -9    4.41    6.77
  26  -9 -10   11.20    4.45
 -26   9  10   17.56    5.71
   9  17  10   13.49    3.98
 -17  26  -7   21.95    9.27
 -26   9   7    3.77    9.14
  26  -9  -7    0.58    8.31
 -26   9   4   -6.53    8.10
  26  -9  -4   -8.05    6.66
 -17  26  -4   14.06    7.44
 -26   9   1  278.72   15.92
  26  -9  -1  268.41   17.39
 -17  26  -1  299.61   15.48
  -9 -17  -1  283.43   15.72
  26  -9  -1  269.91   15.02
 -26   9  -2    9.28    7.28
 -26   9  -2   13.97    6.03
 -26   9  -2    2.43    5.63
  17 -26  -2    5.42    5.39
  17 -26  -5  209.45   13.60
 -26   9  -5  195.63   14.53
 -26   9  -5  223.51   13.83
 -26   9  -8   30.99    8.10
  17 -26  -8   31.97    7.84
 -17  26   8   22.34    6.74
 -18  26  -8   14.53    8.60
  26  -8  -8   -1.27    7.50
 -26   8   8   15.86    8.42
 -18  26  -5    7.89    8.06
  26  -8  -5   -1.06    7.14
 -26   8   5    3.53    8.50
 -18  26  -5   -2.44    6.62
  26  -8  -2   56.51    6.15
 -26   8   2   49.80    6.44
 -18  26  -2   42.27    7.10
 -26   8   2   49.77    7.64
  -8 -18  -2   49.51    7.12
  -8 -18   1  371.46   20.19
  18 -26  -1  396.62   19.85
 -26   8  -1  371.57   20.45
 -26   8  -4   21.42    7.04
 -26   8  -4    3.61    8.07
  18 -26  -4    0.50    6.91
 -26   8  -7   24.89    9.68
 -26   8  -7   38.16    8.59
 -18  26   7   43.95    7.76
  18 -26  -7   23.14    8.12
  18 -26 -10   32.74    4.76
  26  -8  10   39.77    5.33
 -19  26  -9  104.89    9.33
 -26   7   9  101.39    9.39
  26  -7  -9  107.74    8.22
 -19  26  -6    1.96    9.05
  26  -7  -6    3.57    7.59
 -26   7   6   -0.31    9.00
 -19  26  -3  259.18   15.13
  26  -7  -3  243.92   14.35
 -26   7   3  259.70   15.26
  -7 -19  -3  272.96   15.14
 -26   7   0  230.86   13.54
  19 -26   0  219.93   12.94
  -7 -19   0  223.80   13.11
 -26   7  -3  363.88   19.64
  19 -26  -3  364.96   19.89
 -26   7  -3  390.70   20.45
 -26   7  -6   24.34    8.17
 -26   7  -6   29.37    9.34
 -19  26   6   19.18    7.37
  19 -26  -6   18.27    8.40
 -26   7  -9   99.45    7.92
  19 -26  -9   98.39    8.57
 -19  26   9   94.55    7.54
  26  -6 -10  107.93    6.64
 -26   6  10  148.13    8.07
 -20  26  -7  126.79   12.36
  26  -6  -7  140.49   10.64
 -26   6   7  130.09   11.76
 -26   6   4   72.59    9.18
 -20  26  -4   79.92    8.16
 -20  26  -4   74.75    9.12
  26  -6  -4   75.63    7.67
  -6 -20  -1  927.82   45.09
 -20  26  -1  897.89   45.09
  26  -6  -1  834.58   47.33
 -26   6   1  925.76   45.29
 -26   6   1  951.28   45.11
 -26   6  -2   49.14    7.79
 -26   6  -2   46.58    6.08
 -26   6  -2   50.21    7.27
  20 -26  -2   52.32    6.68
 -26   6  -5  220.01   13.76
  20 -26  -5  229.22   14.20
 -26   6  -5  232.39   15.12
 -20  26   5  216.90   13.66
 -26   6  -8   39.48    7.30
 -20  26   8   22.50    7.11
  20 -26  -8   41.23    8.06
 -21  26  -8   33.94    8.74
 -26   5   8   26.13    8.40
  26  -5  -8   16.58    6.82
 -21  26  -5   11.62    8.91
 -21  26  -5    5.27    7.30
 -26   5   5   11.87    8.68
  26  -5  -5   11.62    6.86
 -21  26  -2   16.02    6.86
 -26   5   2   10.77    6.92
 -26   5   2   10.02    6.45
  -5 -21  -2   10.10    6.11
  26  -5  -2    7.74    4.73
  21 -26  -1  163.24   10.87
 -26   5  -1  171.59   11.21
  -5 -21   1  172.15   10.97
 -26   5  -1  179.15   11.55
 -21  26   4    2.16    6.62
 -26   5  -4    5.93    8.14
  21 -26  -4    4.61    7.65
 -26   5  -4   -2.70    6.29
 -21  26   7   58.66    8.20
  21 -26  -7   30.57    8.92
 -26   5  -7   36.95    7.90
 -26   5  -7   40.86    9.58
  21 -26 -10   41.92    4.75
 -22  26  -9   10.79    7.10
  26  -4  -9   19.38    4.93
 -26   4   9   25.85    6.83
  26  -4  -6  193.91   12.70
 -22  26  -6  201.41   13.31
 -26   4   6  196.23   13.82
 -22  26  -6  200.00   14.55
 -26   4   3   14.62    7.24
 -26   4   3    8.10    6.83
 -22  26  -3   -2.72    7.01
  -4 -22  -3    1.39    6.55
 -22  26  -3   14.65    6.59
  26  -4  -3   12.75    5.41
  -4 -22   0  158.32   10.09
 -26   4   0  153.68   10.60
 -26   4   0  144.29   10.66
  22 -26   0  157.74   10.54
  22 -26  -3  174.78   10.89
 -26   4  -3  163.33   11.58
 -22  26   3  147.37   10.58
 -26   4  -3  153.24   11.71
 -26   4  -6   21.94    9.20
 -22  26   6   21.32    7.82
 -26   4  -6   13.45    7.25
  22 -26  -6   19.08    8.62
  22 -26  -9   29.21    6.65
 -22  26   9   21.29    5.79
 -26   3  10   10.40    3.80
 -23  26  -7    4.68    9.16
 -26   3   7    6.75    8.72
  26  -3  -7   14.23    6.78
 -23  26  -4  577.63   32.29
 -26   3   4  625.55   31.92
 -23  26  -4  655.83   31.77
 -23  26  -1   20.93    6.87
  -3 -23  -1    4.80    5.54
 -26   3   1    4.75    6.76
 -26   3   1   10.94    6.72
 -23  26  -1   16.56    6.08
 -23  26   2   45.15    6.93
  -3 -23   2   51.60    7.05
 -26   3  -2   37.77    7.91
  23 -26  -2   47.73    7.35
 -23  26   5   75.59    8.94
 -26   3  -5   73.27    9.92
  23 -26  -5   58.21    9.16
 -23  26   8  159.87   10.91
  23 -26  -8  179.08   11.76
 -26   3  -8  139.06    9.89
 -24  26  -8   65.64    9.49
  26  -2  -8   73.23    6.83
 -26   2   8   77.67    8.86
 -26   2   5  150.84   11.89
 -24  26  -5  166.73   11.90
 -24  26  -5  142.13   12.45
  26  -2  -5  148.74   10.22
 -26   2   2    8.63    6.89
 -26   2   2   13.44    7.16
 -24  26  -2    2.14    7.50
 -24  26  -2    8.17    6.76
 -24  26   1  586.16   29.57
  -2 -24   1  569.25   29.41
  24 -26  -1  605.03   29.70
 -26   2  -1  590.27   29.99
 -26   2  -1  580.46   29.79
 -26   2  -4  152.34   12.21
  24 -26  -4  166.46   11.92
 -24  26   7   13.54    7.86
  24 -26  -7   13.36    8.26
  24 -26 -10   14.51    3.64
 -25  26  -9    1.26    6.79
 -26   1   9   -1.24    5.57
 -26   1   9    0.49    5.52
 -26   1   6    9.41    8.48
 -25  26  -6    1.74    9.74
 -25  26  -6    1.43    8.55
 -25  26  -3   64.40    9.20
 -26   1   3   77.67    8.51
 -25  26  -3   89.76    8.90
 -26   1   3   68.27    8.89
  25 -26   0  169.69   11.55
 -26   1   0  173.63   11.94
 -25  26   0  171.94   11.42
 -26   1   0  180.90   11.53
 -25  26   3   12.57    7.11
 -26   1  -3   -0.31    8.04
  25 -26  -3    9.27    7.09
 -26   1  -3   11.15    7.70
 -26   1  -6   86.26    9.94
 -25  26   6   59.06    9.27
  25 -26  -6   59.82    9.65
 -25  26   9   23.52    5.61
  25 -26  -9   16.57    6.30
 -26  26  -7   -7.24    9.28
 -26   0   7    1.49    7.77
 -26  26  -4  333.47   20.80
 -26   0   4  365.07   20.22
 -26  26  -4  392.43   20.56
 -26  26  -1    9.71    7.06
 -26  26  -1   10.36    7.43
 -26   0   1    2.02    6.78
 -26   0   1    2.69    7.41
 -26   0  -2  639.60   34.58
 -26  26   2  680.48   34.11
  26 -26  -2  697.55   34.27
 -26   0  -2  684.34   34.19
 -26   0  -5   38.80    8.85
  26 -26  -5   37.50    8.94
 -26  26   5   21.47    8.44
  26 -26  -8   14.84    7.56
 -26  26   8   25.70    7.17
  27 -26 -10   79.90    5.26
  27 -26  -7    6.17    8.33
 -27  26   7    6.82    7.63
 -26  -1  -4   96.76    9.86
 -27  26   4  107.30    9.90
  27 -26  -4  111.75   10.10
 -27  26   1  142.54   10.91
 -26  -1  -1  154.95   11.18
  27 -26  -1  139.23   10.44
 -26  -1  -1  147.13   10.52
 -26  -1   2  182.22   11.66
 -27  26  -2  174.00   12.58
 -26  -1   2  166.45   12.66
 -27  26  -2  178.72   12.24
 -26  -1   5  196.87   13.02
 -27  26  -5  173.97   14.06
 -27  26  -5  202.57   13.55
 -27  26  -8  111.29   10.76
 -26  -1   8  137.56    9.53
  27 -25  -8  244.45   15.02
 -27  25   8  245.13   14.64
 -25  -2  -5    2.46    7.99
  27 -25  -5   10.52    8.80
 -27  25   5   -4.82    8.44
 -27  25   2  232.14   14.03
  27 -25  -2  235.98   13.84
 -25  -2  -2  234.04   14.42
 -25  -2  -2  192.16   13.26
 -27  25  -1   63.79    8.16
 -27  25  -1   63.22    8.44
 -25  -2   1   58.21    8.60
 -25  -2   1   62.31    7.37
 -27  25  -4   74.78   10.46
 -27  25  -4   73.62    9.83
 -25  -2   4   81.34    8.70
 -27  25  -7    6.95    8.96
 -25  -2   7   15.22    7.66
 -27  24   9   56.87    7.07
  27 -24  -9   82.33    7.35
 -27  24   6   28.26    9.12
  27 -24  -6   16.56    9.14
 -24  -3  -6   33.89    8.44
  27 -24  -3  230.12   14.24
 -24  -3  -3  218.20   15.10
 -27  24   3  238.86   14.56
 -24  -3  -3  235.31   13.94
 -24  -3   0   24.21    6.28
 -27  24   0   25.85    7.32
  27 -24   0   19.78    7.22
 -24  -3   0   21.79    7.81
 -27  24  -3  134.37   11.76
 -24  -3   3  148.80   10.45
 -24  -3   3  145.64   11.59
 -27  24  -3  150.32   11.57
 -27  24  -6   93.15   10.75
 -24  -3   6   79.45    9.25
 -24  -3   9  161.74    9.54
 -27  23  10    7.03    3.68
  27 -23 -10    8.46    4.04
 -27  23   7   12.17    8.79
  27 -23  -4  142.74   11.03
 -27  23   4  128.93   11.30
 -23  -4  -4  147.69   10.69
 -27  23   1  407.67   21.20
 -23  -4  -1  371.86   21.34
  27 -23  -1  394.29   21.07
 -23  -4   2   91.12    9.68
 -27  23  -2   92.64    9.49
 -23  -4   2  105.88    8.32
 -23  -4   5  232.89   14.33
 -27  23  -5  233.83   15.51
 -23  -4   8   21.05    6.62
 -27  22   8   69.87    9.10
 -22  -5  -5  348.58   19.69
 -27  22   5  372.46   20.56
 -27  22   2  342.08   19.60
 -22  -5  -2  376.58   20.15
 -22  -5   1   88.28    9.33
 -27  22  -1  101.98    9.12
 -22  -5   4  370.21   19.33
 -27  22  -4  340.17   20.52
 -22  -5   7   16.46    7.26
 -27  22  -7    2.19    8.95
 -27  22 -10   17.03    4.58
 -22  -5  10   12.80    4.36
 -27  21   9   -5.96    6.70
 -27  21   6   66.51   10.10
 -27  21   3    2.36    7.61
 -27  21   0  450.00   23.65
 -21  -6   0  443.58   23.74
 -27  21  -3   -0.29    8.02
 -27  21  -3    3.73    8.06
 -27  21  -6    4.36    9.53
 -27  21  -6    8.84    9.78
 -21  -6   6    7.61    7.38
 -27  21  -9   89.37    9.35
 -21  -6   9  105.64    7.13
  27 -20 -10    2.55    4.45
 -27  20  10    2.27    4.61
 -27  20   7   16.67    8.72
 -27  20   4    7.89    8.20
  27 -20  -4    1.76    7.84
  27 -20  -1   87.69    8.20
 -27  20   1   85.92    8.84
 -27  20  -2  483.18   26.72
 -20  -7   2  537.37   26.99
 -27  20  -2  525.56   26.91
 -20  -7   5  538.60   26.66
 -27  20  -5  519.76   28.01
 -27  20  -5  484.92   27.83
 -20  -7   8   -5.43    6.19
 -27  20  -8    6.06    8.70
  27 -20   8   14.65    5.91
  27 -19  -8   -2.29    8.33
 -27  19   8    6.29    8.37
 -27  19   5  114.40   11.14
  27 -19  -5  117.59   11.04
 -19  -8  -5  128.73    9.54
  27 -19  -2  174.45   11.38
 -27  19   2  170.59   11.87
 -27  19  -1  173.73   11.61
 -27  19  -1  168.67   11.75
 -27  19  -4  431.53   23.34
 -27  19  -4  420.87   23.50
 -27  19  -7    5.98    9.05
 -27  19  -7   14.01    9.92
 -19  -8   7   10.48    6.86
 -27  19 -10   11.73    4.94
 -27  18   9   71.26    8.55
  27 -18  -9   96.10    8.64
   9 -27   6  139.54   10.79
 -27  18   6  144.88   12.49
  27 -18  -6  150.40   12.31
  -9  27  -6  160.62   10.71
  27 -18  -3  622.96   30.80
 -18  -9  -3  552.35   31.00
 -27  18   3  624.20   30.92
  27 -18   0   67.71    7.24
 -27  18   0   72.32    7.94
 -27  18  -3  289.58   16.60
 -27  18  -3  277.85   17.02
 -27  18  -6   15.96    9.85
 -27  18  -6    2.42    9.13
 -18  -9   6   12.90    6.71
 -27  18  -9   75.43    8.83
  27 -18   9   82.71    6.75
  27 -17 -10  112.18    7.62
 -27  17  10  110.88    7.93
 -10  27  -7    8.05    7.29
  10 -27   7   -4.33    7.29
  27 -17  -7   -0.32    9.01
 -27  17   7   -0.94    9.46
 -17 -10  -4  224.94   15.39
  27 -17  -4  254.69   15.09
 -27  17   4  245.87   15.34
 -27  17   1    7.92    7.01
 -17 -10  -1    2.33    7.04
  27 -17  -1    7.97    5.98
 -27  17  -2   31.78    7.51
 -27  17  -2   28.14    6.79
 -27  17  -5  500.12   27.96
 -27  17  -5  540.41   27.92
 -27  17  -8   -3.32    8.97
  10 -27  -8    9.66    5.64
 -11  27  -8   96.13    8.69
 -27  16   8   86.39   10.34
  11 -27   8   73.93    8.22
  27 -16  -8   98.17    9.95
  27 -16  -5  248.29   16.38
 -27  16   5  255.77   16.59
 -11  27  -5  295.52   15.68
  27 -16  -2  107.07    8.60
 -16 -11  -2  104.42    9.53
 -27  16   2   93.00    9.36
 -16 -11   1  542.87   27.48
 -27  16  -1  532.90   27.13
 -27  16  -1  517.93   27.46
 -27  16  -4  227.91   14.20
 -27  16  -4  217.62   14.98
  11 -27  -7  471.14   24.54
 -27  16  -7  450.15   25.88
 -27  16  -7  493.85   25.79
  27 -15  -9    6.23    6.91
  27 -15  -6  142.55   12.39
 -12  27  -6  180.23   11.98
  27 -15  -3   14.14    7.02
 -27  15   3   -2.88    7.71
 -15 -12  -3    8.62    7.44
 -15 -12   0   66.48    7.84
  27 -15   0   66.54    7.34
 -27  15   0   69.46    7.98
 -27  15  -3    5.18    7.24
 -27  15  -3   20.39    7.93
 -27  15  -6   43.48    9.93
 -27  15  -6   52.01   10.02
  12 -27  -6   59.06    7.63
 -27  15  -9   14.41    7.32
  12 -27  -9   20.27    4.88
  27 -15   9   24.13    5.98
  27 -14 -10    3.11    4.71
 -13  27  -7   31.78    8.45
  27 -14  -7   23.36    9.03
 -13  27  -4   72.91    7.84
 -14 -13  -4   74.68    9.81
  27 -14  -4   64.23    8.72
 -14 -13  -1   77.15    8.46
  27 -14  -1   86.34    7.63
 -27  14  -2  127.08    9.70
 -27  14  -5   35.81    9.13
  13 -27  -5   38.45    7.01
 -27  14  -8   24.95    8.98
  13 -27  -8    6.89    6.56
 -14  27  -8   13.41    7.82
  27 -13  -8   21.02    8.15
 -14  27  -5    3.22    7.56
  27 -13  -5   -7.01    8.23
 -14  27  -2   65.80    6.54
  27 -13  -2   54.47    7.11
 -13 -14  -2   58.10    7.92
 -27  13  -1  110.14    8.88
 -13 -14   1  123.02    9.49
 -27  13  -4   11.04    7.69
  14 -27  -4    1.97    5.97
 -27  13  -7    0.96    8.73
  14 -27  -7   14.30    7.37
  27 -13  10   12.93    3.87
 -15  27  -9   73.52    7.64
 -27  12   9   80.75    8.46
  27 -12  -9   69.90    7.87
 -15  27  -6   15.42    8.49
  27 -12  -6   -3.65    8.35
 -27  12   6    0.32    8.74
 -15  27  -3  193.91   11.73
  27 -12  -3  179.36   11.82
 -12 -15  -3  174.31   12.42
 -27  12   3  188.60   12.60
  27 -12   0   26.66    5.86
 -27  12   0   23.64    7.02
 -12 -15   0   31.18    6.84
 -27  12  -3  246.93   14.43
  15 -27  -3  240.81   13.66
 -27  12  -3  236.50   15.13
 -27  12  -6    9.74    8.80
 -27  12  -6   33.66    9.27
  15 -27  -6   15.47    7.59
 -27  12  -9  122.02    9.66
  15 -27  -9  132.52    8.80
  27 -11 -10   76.39    5.75
 -27  11  10   78.60    6.92
 -16  27  -7   84.04    9.64
  27 -11  -7   53.82    9.07
 -27  11   7   72.75   10.41
 -16  27  -4   80.96    8.56
 -27  11   4   72.17    9.67
  27 -11  -4   70.66    8.47
 -16  27  -1  433.50   21.88
 -27  11   1  416.19   22.52
  27 -11  -1  413.59   21.95
 -11 -16  -1  437.38   22.43
 -27  11  -2  182.47   11.61
 -27  11  -2  198.55   11.52
  16 -27  -2  193.58   11.14
 -27  11  -2  167.67   12.64
 -27  11  -5   38.83    8.63
 -27  11  -5   15.77    9.15
  16 -27  -5   38.12    7.33
 -27  11  -8   50.11    8.62
  16 -27  -8   52.42    7.90
 -17  27  -8   -0.27    8.27
 -27  10   8    6.20    8.53
  27 -10  -8   -2.82    7.52
 -27  10   5  172.15   13.01
  27 -10  -5  166.71   12.12
 -17  27  -5  187.29   12.69
 -17  27  -2  337.66   18.41
  27 -10  -2  346.05   18.31
 -27  10   2  351.56   19.03
 -10 -17  -2  339.84   18.82
 -27  10  -1   56.45    6.61
 -27  10  -1   46.83    7.74
  17 -27  -1   67.97    6.42
 -10 -17   1   60.92    7.65
  17 -27  -4  256.69   15.09
 -27  10  -4  270.88   15.64
 -27  10  -4  256.45   16.44
 -27  10  -7    9.48    9.46
 -27  10  -7    7.98    8.28
 -17  27   7   16.88    6.73
  17 -27  -7   -2.49    7.56
  17 -27 -10   66.63    4.90
  27 -10  10   70.01    5.62
 -18  27  -9    6.43    6.66
 -27   9   9    4.57    7.15
  27  -9  -9   17.02    5.93
 -18  27  -6   57.98    9.80
 -27   9   6   61.07   10.16
  27  -9  -6   54.42    8.72
 -18  27  -3   14.17    7.03
  27  -9  -3   19.32    6.29
  -9 -18  -3    6.58    7.04
 -27   9   3    7.73    5.83
 -27   9   3   11.19    7.75
 -27   9   0  210.28   13.22
  18 -27   0  227.58   12.39
  -9 -18   0  218.03   13.14
  27  -9   0  204.23   12.22
  18 -27  -3   61.88    6.90
 -27   9  -3   65.03    9.09
 -27   9  -3   62.17    7.48
 -27   9  -6  165.12   13.87
  18 -27  -6  190.76   12.89
 -18  27   6  192.80   11.94
 -27   9  -6  184.38   13.12
 -27   9  -9   22.40    6.07
  18 -27  -9   12.50    5.96
  27  -8 -10   35.67    3.78
 -27   8  10   44.23    5.50
 -19  27  -7    9.84    9.09
 -27   8   7    5.81    8.63
  27  -8  -7    4.34    7.55
  27  -8  -4  184.25   12.05
 -27   8   4  186.70   13.09
 -19  27  -4  199.51   13.01
 -19  27  -1  269.34   14.99
  -8 -19  -1  276.09   15.23
 -27   8   1  274.28   15.47
  27  -8  -1  255.91   14.39
 -27   8   1  255.06   14.67
 -27   8  -2   27.07    7.68
 -27   8  -2   26.47    6.94
 -27   8  -2   28.68    6.01
  19 -27  -2   24.67    6.08
 -27   8  -5  120.97   11.29
 -27   8  -5  109.47    9.75
 -19  27   5  113.67    8.95
  19 -27  -5   88.12    9.82
 -27   8  -8    5.88    7.19
 -19  27   8    8.35    6.30
  19 -27  -8    9.03    7.05
 -20  27  -8   54.51    9.17
  27  -7  -8   32.61    7.25
 -27   7   5   27.45    8.90
 -20  27  -5   26.25    8.27
 -20  27  -5   20.08    7.16
  27  -7  -5   20.67    7.13
 -27   7   2  127.20    9.11
 -27   7   2  115.03    9.78
 -20  27  -2  103.08    9.48
  27  -7  -2  126.33    8.40
  -7 -20  -2  127.51    9.40
 -27   7  -1  543.48   28.22
  20 -27  -1  576.74   28.43
  -7 -20   1  545.23   28.68
 -27   7  -1  583.79   28.97
 -27   7  -1  576.82   28.64
 -27   7  -4  131.00   11.70
  20 -27  -4  140.75   10.52
 -20  27   4  137.14    9.82
 -27   7  -4  146.32   10.38
 -27   7  -7   82.08    9.01
 -20  27   7   79.61    8.57
 -27   7  -7   77.53   10.67
  20 -27  -7   57.41    9.48
  20 -27 -10    7.66    3.65
  27  -7  10    4.49    4.14
 -21  27  -9   -7.17    6.80
 -27   6   9   -3.64    4.99
  27  -6  -9   15.34    5.00
 -27   6   9   -1.97    6.65
 -21  27  -6   73.69   10.30
 -27   6   6   71.73    9.90
  27  -6  -6   69.95    8.53
 -21  27  -3   15.25    7.62
  -6 -21  -3   16.40    6.94
  27  -6  -3   21.08    5.85
 -27   6   3   24.58    7.61
 -27   6   3   22.54    6.83
 -27   6   0  392.63   21.16
  -6 -21   0  379.27   20.85
 -27   6   0  396.63   20.89
  21 -27   0  413.68   20.93
  21 -27  -3   -1.72    6.65
 -27   6  -3    1.68    6.00
 -27   6  -3   11.73    7.78
 -27   6  -3    9.07    7.97
 -27   6  -6   19.82    7.83
 -27   6  -6   27.22    9.67
 -21  27   6   22.93    7.64
  21 -27  -6   36.07    8.90
 -21  27   9    0.87    4.95
  21 -27  -9    4.31    6.19
 -27   5  10  119.42    7.35
 -22  27  -7   25.38    9.44
 -27   5   7   37.49    9.10
  27  -5  -7   34.76    7.35
 -22  27  -4   97.88    8.88
 -22  27  -4   85.71   10.16
  27  -5  -4   91.02    7.93
 -27   5   4   85.28    9.67
 -22  27  -1   13.78    6.46
  -5 -22  -1   11.33    6.24
 -27   5   1    9.85    6.65
 -27   5   1    7.68    7.03
  -5 -22   2  119.76    9.34
 -27   5  -2  117.44    9.80
  22 -27  -2  126.39    9.56
 -27   5  -2  111.22   10.04
 -22  27   5   15.57    7.48
 -27   5  -5   22.44    8.98
 -27   5  -5   17.10    6.78
  22 -27  -5   13.09    8.27
  22 -27  -8  168.04   11.59
 -22  27   8  168.22   10.73
 -27   5  -8  146.59   10.28
  27  -4  -8  241.72   13.83
 -27   4   8  261.47   15.20
 -23  27  -8  235.12   15.42
 -27   4   5   50.28    9.25
 -23  27  -5   58.14    8.51
 -23  27  -5   39.08    9.41
  27  -4  -5   45.21    7.10
 -23  27  -2  221.52   13.90
 -27   4   2  226.29   13.88
 -27   4   2  228.41   13.66
  -4 -23  -2  230.97   13.28
 -23  27  -2  212.75   13.20
 -27   4  -1   57.39    7.82
 -27   4  -1   47.58    7.65
  -4 -23   1   52.29    6.85
  23 -27  -1   47.58    6.89
 -23  27   1   48.01    6.57
  23 -27  -4   49.55    8.06
 -23  27   4   40.99    7.56
 -27   4  -7   18.98    6.82
 -23  27   7   15.90    7.68
  23 -27  -7   32.05    8.71
 -27   4  -7    9.94    8.70
  23 -27 -10   97.06    5.47
  -4 -23  10   66.14    5.48
 -24  27  -9   11.80    6.47
 -27   3   9   10.03    6.00
 -27   3   9   14.40    5.19
 -27   3   6  150.43   11.46
 -24  27  -6  112.92   11.99
  27  -3  -6  116.21    9.42
 -24  27  -6  127.62   10.93
 -27   3   3   79.44    8.65
 -24  27  -3   69.55    8.71
 -24  27  -3   71.58    8.24
 -27   3   3   68.71    8.85
  24 -27   0  383.54   20.78
 -27   3   0  386.88   21.05
  -3 -24   0  391.51   20.49
 -24  27   0  398.71   20.58
 -27   3   0  389.38   20.97
 -24  27   3   38.29    7.32
 -27   3  -3   46.91    8.84
  24 -27  -3   44.09    7.77
 -27   3  -3   55.72    8.31
  24 -27  -6  196.91   14.22
 -24  27   6  205.04   13.63
 -27   3  -6  224.27   14.65
  24 -27  -9  293.61   15.14
 -24  27   9  260.45   14.48
 -25  27  -7   20.42    9.07
  27  -2  -7   30.89    5.98
 -27   2   7   13.56    8.25
 -25  27  -4  414.56   23.62
 -27   2   4  432.77   22.99
 -25  27  -4  426.46   22.89
 -27   2   1  187.63   12.26
 -27   2   1  188.95   12.61
 -25  27  -1  193.36   12.76
 -25  27  -1  190.68   12.16
 -27   2  -2   28.56    8.13
  25 -27  -2   15.96    6.75
  -2 -25   2   21.14    6.76
 -27   2  -2   24.27    7.70
 -25  27   2   23.41    7.10
  25 -27  -5  298.16   17.59
 -25  27   5  278.89   17.02
 -27   2  -5  295.60   17.51
  25 -27  -8   89.34    9.31
 -25  27   8  108.19    8.84
 -26  27  -8   -1.34    7.85
 -27   1   8    8.73    6.83
 -26  27  -5   21.57    8.34
 -26  27  -5    8.33    9.40
 -27   1   5   15.00    8.34
 -26  27  -2  234.80   15.53
 -27   1   2  265.72   15.03
 -27   1   2  261.38   15.49
 -26  27  -2  247.91   15.08
 -26  27   1 1175.47   57.89
 -27   1  -1 1202.34   58.27
  26 -27  -1 1168.72   58.10
 -27   1  -1 1195.37   58.01
 -27   1  -4   96.37   10.20
 -26  27   4  112.86    9.86
  26 -27  -4  126.24   10.70
  26 -27  -7   56.85    9.26
 -26  27   7   54.58    8.47
  26 -27 -10   71.48    4.78
 -27  27  -9    0.18    6.23
 -27   0   9    7.94    4.56
 -27   0   9    2.48    5.05
 -27  27  -6  162.64   11.77
 -27   0   6  155.97   11.41
 -27   0   3    4.96    7.41
 -27  27  -3   11.27    8.00
 -27  27  -3   16.06    8.06
 -27   0   3    8.84    8.24
 -27   0   0   31.73    7.15
 -27  27   0   31.15    7.39
  27 -27   0   24.56    7.21
 -27   0   0   20.66    7.88
 -27  27   3   74.13    8.76
 -27   0  -3   53.41    9.78
   0 -27   3   57.45    7.61
  27 -27  -3   61.26    8.67
 -27   0  -3   68.41    8.57
  27 -27  -6  324.40   18.96
 -27  27   6  327.03   18.55
 -27   0  -6  318.36   18.61
 -27  27   9    7.30    4.83
  27 -27  -9   11.10    5.24
 -28  27   8   15.80    6.70
  28 -27  -8   17.68    6.95
 -27  -1  -5    7.71    7.96
  28 -27  -5   15.11    8.26
 -28  27   5   19.86    8.57
 -28  27   2  288.23   17.06
  28 -27  -2  310.62   17.06
 -27  -1  -2  308.30   17.66
 -27  -1  -2  275.29   16.82
 -28  27  -1  101.65    9.61
 -28  27  -1  103.09   10.17
 -27  -1   1  119.09    9.15
 -27  -1   1   96.97   10.45
 -27  -1   4  113.20   11.47
 -27  -1   4  137.81   10.54
 -28  27  -4  128.85   11.45
 -28  27  -4  116.29   11.75
 -28  27  -7  108.07   11.32
 -27  -1   7  134.14   10.01
 -28  26   9   13.27    5.22
  28 -26  -9   23.10    5.54
  28 -26  -6   58.98    9.56
 -28  26   6   65.61    9.29
 -26  -2  -6   35.35    8.29
 -28  26   3  126.21   10.85
  28 -26  -3  148.04   11.02
 -26  -2  -3  135.42   11.56
 -26  -2  -3  128.77   10.49
 -26  -2   0   15.51    6.55
 -28  26   0    6.60    7.41
  28 -26   0    8.41    7.83
 -26  -2   0    8.17    8.17
 -26  -2   3   33.63    7.34
 -28  26  -3   27.87    8.80
 -26  -2   3   23.72    8.48
 -28  26  -3   25.28    8.26
 -26  -2   6  333.72   17.98
 -28  26  -6  330.88   18.72
 -28  26  -6  276.12   19.14
 -26  -2   9    4.78    3.89
 -26  -2   9   -2.11    5.24
  28 -25 -10    8.05    3.21
  28 -25  -7   15.93    8.50
 -28  25   7    9.97    8.17
 -25  -3  -4   29.15    7.67
 -28  25   4   21.34    8.31
  28 -25  -4   21.44    8.43
  28 -25  -1   25.35    7.47
 -25  -3  -1   23.87    8.15
 -28  25   1   20.05    7.81
 -25  -3  -1   30.90    6.63
 -28  25  -2   13.85    7.65
 -25  -3   2   18.77    8.32
 -25  -3   2   10.68    6.52
 -28  25  -2   23.04    8.21
 -28  25  -5  107.62   10.85
 -25  -3   5  102.88    9.63
 -25  -3   8   15.58    6.22
  28 -24  -8  293.79   15.74
 -28  24   8  239.87   15.60
 -24  -4  -5   30.97    8.08
  28 -24  -5   41.37    9.28
 -28  24   5   35.89    9.21
 -28  24   2  113.10    9.96
 -24  -4  -2  113.63   10.44
  28 -24  -2   95.84    9.13
 -24  -4  -2  112.28    9.02
 -24  -4   1  160.37   12.27
 -28  24  -1  186.24   12.31
 -24  -4   4  390.83   20.90
 -28  24  -4  391.56   22.01
 -24  -4   7  325.02   18.03
 -28  24  -7  326.23   19.05
 -28  23   9  161.92   10.37
 -28  23   6   12.29    8.92
 -23  -5  -3   57.61    7.57
 -28  23   3   86.29    9.16
 -23  -5  -3   71.83    9.64
 -28  23   0   18.68    7.61
 -23  -5   0   13.89    7.97
 -23  -5   3  287.93   17.43
 -23  -5   3  294.40   16.14
 -28  23  -3  289.74   17.41
 -28  23  -6    4.87    9.16
 -23  -5   6   18.16    7.28
 -28  22  10   27.89    4.12
 -28  22   7   90.00   10.14
 -22  -6  -4   67.64    8.07
 -28  22   4   85.80    9.74
 -28  22   1  215.17   13.22
 -22  -6  -1  191.39   13.33
 -22  -6   2  297.84   17.08
 -28  22  -2  277.18   16.84
 -22  -6   5  541.02   26.48
 -28  22  -5  507.77   27.63
 -28  22  -5  471.33   27.61
 -28  22  -8   77.35    9.96
 -22  -6   8  103.51    7.92
 -28  21   8  144.72   11.33
 -28  21   5   30.15    9.29
 -21  -7  -5   31.16    7.28
  28 -21  -2  339.72   18.36
 -28  21   2  322.87   18.64
 -28  21  -1  568.17   29.96
 -21  -7   1  573.02   30.23
 -28  21  -1  625.85   30.35
 -28  21  -4  139.94   11.18
 -28  21  -4  125.40   11.63
 -21  -7   7  287.47   15.40
 -28  21  -7  253.28   16.79
 -28  21  -7  255.53   17.10
 -21  -7  10   18.11    4.33
  28 -20  -9    6.36    6.49
 -28  20   9    4.75    6.68
 -28  20   6   39.81    9.47
  28 -20  -6   27.81    9.31
  28 -20  -3   44.81    7.66
 -28  20   3   46.36    8.91
 -28  20   0  882.44   43.76
  28 -20   0  877.13   43.59
 -28  20  -3   18.60    8.20
 -28  20  -3   17.30    8.29
 -28  20  -6  209.36   14.74
 -20  -8   6  208.77   12.44
 -28  20  -6  169.94   14.75
 -28  20  -9   30.91    7.31
 -28  19  10    1.98    4.63
  28 -19 -10    5.82    4.34
  -9  28  -7   45.57    7.02
 -28  19   7   33.84    9.62
  28 -19  -7   26.77    9.10
 -19  -9  -4    2.02    8.96
  28 -19  -4    9.70    7.87
 -28  19   4   26.20    8.86
 -28  19   1  124.38   10.09
  28 -19  -1  106.62    9.11
 -28  19  -2   59.90    7.65
 -28  19  -2   56.61    8.87
 -28  19  -5   73.16    9.55
 -28  19  -5   54.68   10.05
 -28  19  -8   24.23    8.82
  28 -19   8   30.76    6.14
 -28  18   8   14.10    8.66
  28 -18  -8   13.48    8.27
 -28  18   5   96.02   10.56
  28 -18  -5   96.97   10.17
 -28  18   2  117.09   10.19
  28 -18  -2  119.24    9.46
 -18 -10  -2  123.64   10.30
 -28  18  -1   78.10    8.87
 -28  18  -1   83.18    8.50
 -28  18  -4   14.37    8.04
 -28  18  -4   16.14    8.83
 -28  18  -7    4.67    9.25
 -28  18  -7    5.99    9.33
  28 -17  -9  103.16    8.55
 -28  17   9   88.70    8.93
 -11  28  -6  191.75   12.32
 -28  17   6  180.47   13.83
  28 -17  -6  179.16   13.45
  28 -17  -3  309.15   16.59
 -28  17   3  301.65   17.01
  28 -17   0   79.23    8.07
 -17 -11   0   92.96    8.95
 -28  17   0   97.62    9.01
 -28  17  -3  398.78   21.45
 -28  17  -3  393.16   21.92
 -28  17  -6   45.81    9.92
 -28  17  -6   23.52   10.15
  11 -28  -6   39.40    6.63
 -28  17  -9   38.24    7.50
  28 -17   9   54.85    5.66
 -28  16  10   10.60    4.93
  28 -16 -10   15.83    4.34
 -12  28  -7   75.64    8.92
 -28  16   7   75.09   10.67
  28 -16  -7   71.11    9.84
 -16 -12  -4  256.99   17.66
  28 -16  -4  286.32   17.03
 -28  16   4  305.60   17.67
 -12  28  -4  313.39   16.35
 -16 -12  -1  214.91   13.82
 -28  16   1  232.45   13.86
  28 -16  -1  217.04   12.89
 -28  16  -2  100.47   10.01
 -16 -12   2  127.88    9.88
 -28  16  -2  103.15    9.57
 -28  16  -5   28.19    9.17
 -28  16  -5   23.69    9.35
  12 -28  -5   51.68    6.80
 -28  16  -8   59.69    9.13
  12 -28  -8   60.06    6.74
 -13  28  -8   52.27    7.59
  28 -15  -8   43.50    8.52
  28 -15  -5  161.77   12.06
 -13  28  -5  157.09   11.31
 -15 -13  -2   33.01    7.79
  28 -15  -2   24.82    6.72
 -28  15  -1   36.06    6.70
 -15 -13   1   36.85    7.72
 -28  15  -4  611.97   30.37
  13 -28  -4  566.22   29.27
 -28  15  -7    3.21    9.16
  13 -28  -7    4.12    6.89
  28 -14  -9   36.31    6.70
  28 -14  -6  172.61   13.19
 -14  28  -6  176.99   12.58
  28 -14  -3  164.31   11.28
 -14 -14  -3  165.79   12.24
 -14  28  -3  167.97   10.78
  28 -14   0  250.83   14.63
 -14 -14   0  266.74   15.13
 -28  14  -3  296.83   17.19
  14 -28  -3  301.17   16.12
  14 -28  -6  383.83   21.49
 -28  14  -6  428.24   22.62
 -28  14  -9   14.35    6.52
  14 -28  -9   14.18    4.66
  28 -14   9    4.78    5.61
 -28  13  10    0.27    5.07
  28 -13 -10   10.67    3.95
 -15  28  -7   24.04    8.33
  28 -13  -7    9.23    8.43
 -15  28  -4   12.59    7.04
 -13 -15  -4   10.04    8.66
  28 -13  -4    8.88    7.13
 -15  28  -1    3.15    5.47
  28 -13  -1    8.12    5.37
 -13 -15  -1    2.31    6.89
 -28  13   1    5.02    7.24
 -28  13  -2   50.49    7.74
  15 -28  -2   69.24    6.30
 -28  13  -5    2.77    8.52
  15 -28  -5    7.35    6.76
 -28  13  -8   15.84    7.94
  15 -28  -8    5.47    6.47
 -16  28  -8    8.96    7.47
 -28  12   8    0.55    8.49
  28 -12  -8   -4.34    7.32
 -16  28  -5  110.41   10.08
 -28  12   5  103.36   10.85
  28 -12  -5   99.99    9.97
 -28  12   2   69.84    8.67
 -16  28  -2   62.49    7.18
 -12 -16  -2   81.44    8.62
  28 -12  -2   60.47    7.34
 -28  12  -1  223.13   12.88
 -12 -16   1  225.72   13.55
  16 -28  -1  216.70   12.36
 -28  12  -1  204.17   13.87
  16 -28  -4  676.55   33.86
 -28  12  -4  637.05   34.70
 -28  12  -4  704.96   34.39
 -28  12  -7  125.57   11.73
 -28  12  -7  117.88   11.05
  16 -28  -7  109.74    9.82
  28 -12  10   34.91    3.93
 -17  28  -9   27.37    6.37
  28 -11  -9   30.84    6.33
 -28  11   9   26.10    7.44
 -17  28  -6    6.08    8.27
  28 -11  -6   -0.29    8.33
 -28  11   6   -7.35    9.11
 -17  28  -3  471.37   23.48
 -11 -17  -3  458.59   23.86
  28 -11  -3  437.70   23.24
 -28  11   3  420.16   23.81
 -28  11   0  127.03   10.64
  28 -11   0  121.32    9.39
 -11 -17   0  144.60   10.29
 -28  11  -3  105.71    8.94
  17 -28  -3  110.23    8.52
 -28  11  -3   97.44   10.21
 -28  11  -6  162.90   13.47
 -28  11  -6  191.29   12.94
  17 -28  -6  179.31   12.47
 -28  11  -9   20.92    6.09
  17 -28  -9   15.15    5.44
 -28  10  10   29.20    5.01
  28 -10 -10   24.43    3.37
 -18  28  -7   32.20    8.94
 -28  10   7   24.58    9.22
  28 -10  -7   20.75    7.94
  28 -10  -4  353.10   19.88
 -28  10   4  331.64   19.32
 -28  10   4  385.33   20.56
 -18  28  -4  399.98   20.13
 -18  28  -1  316.80   16.76
 -10 -18  -1  315.19   17.22
 -28  10   1  320.09   17.55
  28 -10  -1  284.70   16.53
 -28  10  -2  136.45   10.66
 -28  10  -2  132.98    9.58
  18 -28  -2  130.11    9.07
 -28  10  -2  132.24    9.56
 -10 -18   2  123.46   10.23
 -28  10  -5   61.78    8.80
 -28  10  -5   54.28    9.86
  18 -28  -5   58.67    8.06
 -28  10  -8  142.28   11.45
  18 -28  -8  174.28   11.11
  28  -9  -8  191.74   12.97
 -28   9   8  210.28   13.86
 -19  28  -8  229.33   13.88
 -28   9   5   12.56    8.79
 -19  28  -5   15.97    8.56
  28  -9  -5   32.61    7.88
 -19  28  -2  392.23   21.11
 -28   9   2  389.12   20.67
  28  -9  -2  395.40   20.59
 -28   9   2  384.82   21.36
  -9 -19  -2  410.60   21.24
 -28   9  -1   27.25    7.64
 -28   9  -1   28.14    6.20
 -28   9  -1   28.24    6.33
  19 -28  -1   38.49    6.11
  -9 -19   1   37.36    7.19
 -28   9  -4   28.96    7.56
 -28   9  -4   31.93    9.22
  19 -28  -4   37.71    7.49
 -28   9  -7   12.76    9.54
 -28   9  -7   22.55    8.20
 -19  28   7    9.58    6.53
  19 -28  -7   19.67    8.02
  28  -9  10   45.98    4.50
 -20  28  -9    2.70    6.13
  28  -8  -9    9.26    5.18
 -28   8   9   -8.85    6.62
 -20  28  -6  114.84   11.39
 -28   8   6  129.82   11.55
  28  -8  -6  119.85   10.23
 -20  28  -3  554.89   29.00
  -8 -20  -3  598.96   29.08
  28  -8  -3  556.18   28.43
 -28   8   3  555.88   28.58
 -28   8   3  543.02   29.11
  20 -28   0  737.60   36.68
 -28   8   0  739.25   36.61
 -28   8   0  740.52   37.08
  -8 -20   0  727.70   36.87
 -28   8   0  739.01   36.44
 -28   8  -3   47.85    7.15
  20 -28  -3   54.35    7.44
 -28   8  -3   38.36    8.80
 -28   8  -6    4.95    7.76
 -20  28   6   11.83    6.84
 -28   8  -6   15.61    9.23
  20 -28  -6    2.33    7.83
  20 -28  -9   41.69    5.99
 -28   7  10   16.54    4.18
 -21  28  -7  100.81   11.08
 -28   7   7  102.81   10.95
  28  -7  -7  120.38    9.54
 -21  28  -4  148.13   11.82
  28  -7  -4  166.57   10.63
 -28   7   4  152.54   11.15
 -28   7   4  153.22   12.22
  28  -7  -1  305.13   16.85
 -28   7   1  329.32   17.99
  -7 -21  -1  338.75   17.72
 -28   7   1  321.44   17.45
 -21  28  -1  306.90   17.48
 -28   7  -2   17.74    6.04
 -28   7  -2   23.86    7.09
  21 -28  -2   26.11    6.71
  -7 -21   2   10.50    7.08
 -28   7  -2   30.95    8.00
  21 -28  -5  289.91   16.25
 -28   7  -5  268.94   15.83
 -21  28   5  252.88   15.38
 -28   7  -5  264.78   17.02
 -28   7  -8   19.50    6.58
  21 -28  -8   21.10    7.51
 -21  28   8   28.80    6.25
 -22  28  -8   32.91    8.73
  28  -6  -8   29.84    6.31
 -28   6   8   40.14    8.37
 -22  28  -5   15.24    7.27
 -22  28  -5   14.39    9.07
  28  -6  -5   22.77    7.00
 -28   6   5   16.12    8.72
 -28   6   2  130.31   10.03
 -22  28  -2  104.33    9.77
  -6 -22  -2  124.84    9.40
  28  -6  -2  104.86    8.03
 -28   6   2  109.54    9.21
  -6 -22   1  223.59   13.50
 -28   6  -1  224.86   13.61
  22 -28  -1  218.03   13.39
 -28   6  -1  226.12   13.99
 -22  28   4  273.42   15.01
 -28   6  -4  265.15   16.55
  22 -28  -4  284.15   15.73
 -28   6  -4  231.69   15.03
 -28   6  -7   44.54    7.54
  22 -28  -7   69.63    8.73
 -22  28   7   42.81    7.71
 -28   6  -7   41.24    9.60
  22 -28 -10    6.69    2.88
  28  -6  10    9.34    3.46
 -23  28  -9   20.87    6.57
 -28   5   9   18.69    6.26
 -28   5   9   10.61    4.48
 -28   5   6   39.73    9.33
 -23  28  -6   24.01    9.58
  28  -5  -6   18.36    7.02
  28  -5  -3  188.72   11.43
 -28   5   3  196.08   12.69
 -23  28  -3  193.75   12.89
  -5 -23  -3  188.06   12.49
 -28   5   3  188.11   13.03
 -23  28  -3  205.96   12.26
 -28   5   0  118.78    9.28
  23 -28   0   99.24    9.18
 -28   5   0  108.19    9.75
  -5 -23   0  102.39    8.72
 -23  28   3    9.20    6.44
 -28   5  -3    7.00    8.00
 -28   5  -3    2.91    7.92
  23 -28  -3    9.94    6.98
 -28   5  -6   90.35    8.87
 -28   5  -6   98.33   10.80
  23 -28  -6   89.73   10.21
 -23  28   6   96.62    9.24
 -23  28   9   11.85    4.30
  23 -28  -9   13.22    5.54
 -24  28  -7    4.43    9.24
 -28   4   7    8.90    8.24
 -28   4   4   42.17    8.78
 -24  28  -4   33.86    8.55
 -24  28  -4   34.09    7.88
 -28   4   4   58.96    8.44
  28  -4  -4   47.40    6.46
 -24  28  -1  164.83   11.47
 -28   4   1  170.70   11.85
  -4 -24  -1  151.44   10.89
 -28   4   1  176.12   11.60
 -24  28  -1  175.17   10.93
  -4 -24   2   10.75    6.69
 -28   4  -2   14.17    7.60
  24 -28  -2   10.38    7.09
 -28   4  -2   15.16    7.82
  24 -28  -5  218.61   14.68
 -24  28   5  228.14   13.91
 -28   4  -5  215.44   15.13
 -24  28   8    5.25    6.16
  24 -28  -8   -6.10    7.33
 -25  28  -8   -9.15    8.01
 -28   3   8    6.84    6.63
 -28   3   8   -5.96    7.00
 -25  28  -5   99.06    9.54
 -28   3   5   81.68   10.12
 -25  28  -2   47.74    8.45
  -3 -25  -2   32.24    6.64
 -28   3   2   40.44    7.86
 -25  28  -2   32.67    7.22
 -28   3   2   36.60    7.79
 -28   3  -1   31.79    7.84
 -28   3  -1   23.58    7.81
  25 -28  -1   21.74    7.33
 -25  28   1   22.42    6.77
  -3 -25   1   27.18    6.62
 -25  28   4   53.85    8.22
 -28   3  -4   43.34    9.25
  25 -28  -4   59.10    8.88
  25 -28  -7  156.17   12.02
 -25  28   7  154.26   11.16
  28  -3  10   16.55    3.11
 -28   2   9   77.90    6.37
 -28   2   9   92.75    6.69
 -26  28  -9   77.68    7.80
 -26  28  -6  219.31   15.92
 -28   2   6  256.37   15.05
 -26  28  -6  229.91   14.79
 -28   2   3   32.16    7.91
 -26  28  -3   40.10    8.82
 -26  28  -3   36.99    7.77
 -28   2   3   33.23    8.45
 -28   2   0  222.15   13.88
  26 -28   0  214.79   13.84
 -26  28   0  209.74   13.20
 -28   2   0  216.98   13.45
 -26  28   3  124.53   10.00
 -28   2  -3  127.00   11.11
 -28   2  -3  102.15   10.73
  26 -28  -3  125.13   10.62
  -2 -26   3  131.04    9.87
 -28   2  -6   38.39    9.25
  26 -28  -6   60.24    9.25
 -26  28   6   47.69    8.46
 -26  28   9   19.27    4.37
  26 -28  -9   20.97    5.36
 -27  28  -7   16.68    8.81
 -28   1   7   38.24    7.83
 -27  28  -4   45.81    8.85
 -28   1   4   45.08    8.86
 -27  28  -4   48.00    9.78
 -28   1   4   48.46    9.41
 -28   1   1   89.55    9.76
 -27  28  -1  114.41    9.91
 -28   1   1   95.71    9.24
 -27  28  -1   98.10    9.37
 -28   1  -2    4.90    8.37
  27 -28  -2   11.07    7.78
  -1 -27   2    7.47    6.33
 -28   1  -2    4.21    7.56
 -27  28   2    3.87    7.36
 -28   1  -5   34.47    8.88
 -27  28   5   33.79    8.38
  27 -28  -5   56.33    9.43
 -27  28   8   49.40    6.87
  27 -28  -8   48.32    7.60
 -28  28  -8   -2.69    7.31
 -28   0   8    3.51    5.97
 -28   0   8    0.99    6.51
 -28  28  -5  173.38   13.96
 -28   0   5  188.15   12.76
 -28   0   5  166.96   13.24
 -28  28  -5  183.71   12.85
 -28  28  -2   73.15    9.58
 -28   0   2   70.78    9.50
 -28  28  -2   62.60    8.76
 -28   0   2   74.46    8.57
 -28  28   1  253.97   15.65
  28 -28  -1  270.83   16.01
 -28   0  -1  259.65   16.13
 -28   0  -1  264.17   15.46
 -28  28   4  146.13   11.46
 -28   0  -4  146.20   11.69
  28 -28  -4  147.38   12.19
 -28  28   7   35.18    7.89
  28 -28  -7   33.95    7.90
  29 -28  -9   10.93    4.72
 -29  28   9   13.11    3.74
  29 -28  -6  239.09   15.05
 -29  28   6  247.11   14.58
 -28  -1  -6  204.54   14.22
 -28  -1  -3   23.72    9.24
 -28  -1  -3   24.70    8.00
  29 -28  -3   17.00    7.36
 -29  28   3   24.68    8.37
 -28  -1   0   72.99    8.41
 -29  28   0   72.42    8.87
 -29  28   0   81.65    9.07
 -28  -1   0   66.31    9.56
 -29  28  -3   53.32    9.86
 -28  -1   3   41.95    8.96
 -29  28  -3   44.52    9.11
 -28  -1   3   46.70    8.11
 -29  28  -6   15.70    9.14
 -28  -1   6   16.83    7.75
 -29  28  -6   -1.90    8.24
 -28  -1   6   13.82    8.68
 -29  28  -9   16.29    5.15
 -28  -1   9   14.06    4.14
 -29  27   7   22.71    7.98
  29 -27  -7   23.73    7.76
 -27  -2  -4   84.69    9.21
 -29  27   4   91.42   10.08
  29 -27  -4   97.39    9.90
  29 -27  -1   12.13    7.64
 -27  -2  -1   16.37    8.44
 -29  27   1   20.16    7.88
 -27  -2  -1   14.57    6.78
 -29  27  -2   42.29    9.56
 -27  -2   2   49.82    9.17
 -27  -2   2   57.46    7.74
 -29  27  -2   45.81    8.61
 -29  27  -5   71.20   10.85
 -29  27  -5   74.34   10.28
 -27  -2   5   91.71    9.11
 -27  -2   5   89.95   10.39
 -29  27  -8   -4.67    7.51
 -27  -2   8    9.54    5.56
 -27  -2   8    7.10    6.92
 -29  26   8   13.26    6.94
  29 -26  -8   22.54    7.05
 -26  -3  -5   95.70    9.39
  29 -26  -5  104.99   10.80
 -29  26   5   83.63   10.21
  29 -26  -2  404.85   21.80
 -26  -3  -2  421.40   22.33
 -29  26   2  408.10   21.86
 -26  -3  -2  375.19   21.23
 -29  26  -1   42.59    8.19
 -29  26  -1   40.72    8.26
 -26  -3   1   33.36    8.74
 -26  -3   1   35.81    7.01
 -29  26  -4  174.49   14.27
 -26  -3   4  200.80   12.87
 -26  -3   4  213.16   14.32
 -29  26  -4  189.73   13.79
 -26  -3   7  109.85    9.14
  29 -25  -9    5.13    5.36
  29 -25  -6   -5.04    8.60
 -29  25   6    5.73    8.93
 -25  -4  -3   43.29    7.60
 -29  25   3   42.67    8.97
 -25  -4  -3   35.31    9.34
  29 -25  -3   56.38    8.17
  29 -25   0  213.16   13.83
 -25  -4   0  218.65   14.29
 -29  25   0  202.92   13.74
 -25  -4   3   91.34   10.20
 -29  25  -3   87.17   10.07
 -25  -4   3   72.95    8.20
 -29  25  -6   72.13   10.17
 -25  -4   6   62.07    8.28
 -25  -4   9   12.03    5.73
 -29  24   7  327.34   18.81
 -24  -5  -4   24.99    7.22
 -29  24   4   30.03    9.01
 -24  -5  -1   64.08    9.34
 -29  24   1   64.91    8.89
 -24  -5   2   26.25    8.69
 -29  24  -2   26.68    8.19
 -29  24  -5  146.41   12.77
 -24  -5   5  142.14   10.63
 -24  -5   8   25.18    5.75
 -29  23   8    6.24    7.70
 -29  23   5    6.97    9.16
 -23  -6  -5   12.53    7.16
 -29  23   2  573.16   29.63
 -23  -6  -2  567.17   29.78
 -29  23  -1   73.87    8.81
 -23  -6   1   70.44    9.36
 -29  23  -4   52.84   10.03
 -29  23  -7   80.64   10.48
 -23  -6   7   72.58    7.74
 -29  23  -7   70.94   10.42
 -23  -6  10    2.34    3.04
 -29  22   9  202.55   12.16
 -29  22   6   63.64    9.77
 -29  22   3  171.27   12.61
 -22  -7   0   21.85    8.30
 -29  22   0    8.57    7.65
 -29  22  -3  445.04   24.41
 -22  -7   3  462.89   24.36
 -29  22  -3  439.65   24.47
 -29  22  -6    9.98    9.16
 -29  22  -6   10.84    9.88
 -22  -7   6   22.59    6.72
 -29  22  -9   22.21    6.62
 -29  21  10   14.58    3.87
  29 -21 -10   12.68    3.54
 -29  21   7   17.48    9.24
  29 -21  -7   -1.82    8.28
  29 -21  -4  249.09   15.30
 -29  21   4  245.34   15.95
 -29  21   1  234.59   13.97
  29 -21  -1  193.99   13.21
 -29  21  -2  104.82   10.33
 -21  -8   2  118.05   10.43
 -29  21  -2  107.54   10.27
 -29  21  -5   39.44    9.86
 -29  21  -5   31.25    9.68
 -29  21  -8   21.41    8.42
  29 -20  -8   21.82    7.86
 -29  20   8   14.95    8.42
  29 -20  -5   33.06    8.43
 -29  20   5   32.12    9.47
 -29  20   2   73.19    9.05
  29 -20  -2   74.09    8.43
 -29  20  -1   82.27    9.23
 -29  20  -1   78.80    8.74
 -29  20  -4   86.59    9.93
 -29  20  -4   92.55   10.67
 -29  20  -7  119.54   11.61
 -29  20  -7  129.00   11.82
 -20  -9  10   19.46    4.31
  29 -19  -9  -10.61    6.16
 -29  19   9    3.87    6.47
  29 -19  -6  451.37   24.96
 -29  19   6  459.93   25.19
 -19 -10  -3  106.13   10.61
 -29  19   3   88.52   10.04
  29 -19  -3  115.05    9.99
 -29  19   0  654.02   33.64
  29 -19   0  665.15   33.28
 -29  19  -3   26.64    8.10
 -29  19  -3   24.75    8.89
 -29  19  -6  243.29   17.31
 -29  19  -6  291.63   17.57
 -29  19  -9    1.43    6.77
 -29  18  10    6.32    4.34
  29 -18 -10   15.01    3.65
 -11  29  -7   53.53    7.38
 -29  18   7   32.52    9.23
  29 -18  -7   60.84    9.38
 -18 -11  -4   76.92   10.25
  29 -18  -4   77.71    9.12
 -29  18   4   67.51    9.78
 -29  18   1  229.97   14.65
 -18 -11  -1  238.03   14.60
  29 -18  -1  241.35   13.88
 -29  18  -2    4.63    7.98
 -29  18  -2   13.14    6.60
 -29  18  -5  168.49   13.02
 -29  18  -5  144.61   12.87
 -29  18  -8   50.45    8.86
 -12  29  -8   17.40    6.23
 -29  17   8   20.45    8.54
  29 -17  -8   13.28    7.73
 -29  17   5    7.89    8.87
 -12  29  -5   12.05    6.88
  29 -17  -5   -1.86    8.29
 -29  17   2   48.26    8.35
 -17 -12  -2   58.41    8.63
  29 -17  -2   53.89    7.10
 -29  17  -1   23.28    8.02
 -29  17  -1   33.47    7.06
 -17 -12   1   29.54    8.03
 -29  17  -4  657.90   32.83
 -29  17  -4  608.37   33.09
 -29  17  -7   18.58    9.25
  12 -29  -7    9.67    6.06
 -29  17  -7    9.93    9.17
 -17 -12  10   -2.07    4.34
  29 -16  -9   37.04    6.64
 -13  29  -6   22.27    7.55
  29 -16  -6   19.77    8.27
  29 -16  -3  203.41   13.10
 -29  16   3  205.66   13.72
 -16 -13  -3  200.34   13.83
  29 -16   0  109.31    9.08
 -16 -13   0  128.62   10.25
 -29  16   0  124.14   10.33
 -29  16  -3   71.27    9.01
 -29  16  -3   65.94    9.53
 -29  16  -6  151.99   13.60
 -29  16  -6  186.52   13.44
  13 -29  -6  182.88   11.46
 -29  16  -9   -1.78    6.22
  29 -16   9   11.18    4.73
  29 -15 -10  191.61   10.29
 -14  29  -7    0.25    7.32
  29 -15  -7   -0.30    8.08
  29 -15  -4  923.56   46.16
 -15 -14  -4  915.32   46.66
 -14  29  -4  939.22   45.85
  29 -15  -1   48.04    6.61
 -15 -14  -1   59.17    8.43
 -29  15  -2  627.29   32.15
 -15 -14   2  637.61   32.46
 -29  15  -5    4.47    8.62
  14 -29  -5    3.38    6.25
  14 -29  -8  284.23   15.70
 -29  15  -8  298.62   17.05
 -15  29  -8  118.51    9.50
  29 -14  -8  113.54    9.87
 -15  29  -5   34.24    8.08
  29 -14  -5   36.71    8.77
 -15  29  -2   92.90    7.81
 -14 -15  -2   82.97    9.44
  29 -14  -2   99.08    8.16
 -29  14  -1   21.56    6.74
 -14 -15   1   24.66    7.57
  15 -29  -4  720.16   35.88
 -29  14  -7   28.62    8.90
  15 -29  -7   10.30    6.84
  29 -13  -9   15.21    5.79
 -29  13   9   13.62    7.18
 -16  29  -6   45.83    8.73
 -29  13   6   32.80   10.00
  29 -13  -6   18.52    8.88
  29 -13  -3 1085.98   52.68
 -29  13   3 1068.88   53.06
 -13 -16  -3 1066.65   53.09
 -16  29  -3 1065.57   52.56
  29 -13   0   59.14    7.17
 -16  29   0   62.45    6.57
 -13 -16   0   71.79    8.36
 -29  13   0   53.42    8.49
 -29  13  -3   38.85    7.79
  16 -29  -3   50.21    6.42
 -29  13  -3   34.88    8.86
 -29  13  -6   26.78    9.10
 -29  13  -6   41.87    9.96
  16 -29  -6   21.67    7.41
  16 -29  -9   68.19    5.87
 -29  13  -9   69.10    7.12
 -29  12  10    7.69    4.29
  29 -12 -10    3.97    2.94
 -17  29  -7  119.72   10.68
 -29  12   7  134.51   11.55
  29 -12  -7  108.54   10.47
 -17  29  -4   33.19    7.81
  29 -12  -4   43.43    7.75
 -17  29  -1  288.65   15.95
 -12 -17  -1  291.20   16.60
 -29  12   1  277.76   17.02
  29 -12  -1  296.75   16.11
 -29  12  -2   45.72    8.41
 -29  12  -2   41.83    7.10
  17 -29  -2   38.07    6.03
 -12 -17   2   43.41    8.26
 -29  12  -5   26.13    8.51
 -29  12  -5   49.23    9.53
  17 -29  -5   33.50    7.56
 -29  12  -8   22.00    7.35
  17 -29  -8   19.67    6.39
 -18  29  -8   14.72    7.22
  29 -11  -8    2.74    6.85
 -29  11   8   24.34    8.41
 -29  11   5  133.82   11.64
 -18  29  -5  135.04   11.45
  29 -11  -5  158.04   11.23
 -29  11   2   39.39    8.24
 -18  29  -2   26.98    6.91
  29 -11  -2   29.83    6.47
 -11 -18  -2   19.69    7.57
 -29  11  -1  134.96   10.68
 -29  11  -1  118.68    9.36
 -11 -18   1  150.21   10.30
  18 -29  -1  118.30    8.92
 -29  11  -4   75.07    9.04
 -29  11  -4   79.46   10.50
  18 -29  -4   89.34    8.36
 -29  11  -7  114.74   11.68
 -29  11  -7  107.12   10.26
  18 -29  -7  113.11    9.82
 -11 -18  10   -0.12    4.34
 -19  29  -9    2.22    5.84
  29 -10  -9   10.98    5.18
 -29  10   9   16.78    6.57
 -29  10   6   14.52    9.51
 -19  29  -6    9.87    8.81
  29 -10  -6    8.02    7.65
 -19  29  -3   94.48    8.85
 -10 -19  -3   95.70    9.43
 -29  10   3   91.49   10.23
  29 -10  -3   99.95    8.58
 -29  10   0  279.77   16.89
 -19  29   0  298.38   16.22
 -10 -19   0  292.11   16.70
 -29  10  -3   91.00    8.46
  19 -29  -3   90.31    8.28
 -29  10  -3   73.33   10.00
 -29  10  -6  138.10   12.06
 -29  10  -6  133.76   11.04
  19 -29  -6  114.60   10.56
 -29  10  -9    7.01    5.04
  19 -29  -9    8.08    4.89
 -29   9  10   -0.42    3.82
 -29   9   7   74.30   10.05
 -20  29  -7   56.14    9.52
  29  -9  -7   65.68    8.55
 -20  29  -4    9.89    7.96
 -29   9   4   19.30    7.10
  29  -9  -4   27.63    7.05
 -29   9   4   26.06    8.62
 -20  29  -1  137.13    9.72
  -9 -20  -1  126.93   10.19
  29  -9  -1  117.94    8.99
 -29   9   1  125.67    9.30
 -29   9   1  145.63   10.77
 -29   9  -2   83.45    8.23
 -29   9  -2   99.19    8.52
  20 -29  -2   96.86    8.19
  -9 -20   2   84.00    8.99
 -29   9  -2   80.43    9.70
  20 -29  -5  421.94   22.39
 -29   9  -5  393.61   23.34
 -29   9  -5  424.97   22.52
 -29   9  -8    6.80    6.58
  20 -29  -8    5.65    6.68
 -21  29  -8    4.51    7.66
 -29   8   8   17.32    5.77
  29  -8  -8    9.88    6.15
 -29   8   8   22.12    8.02
  29  -8  -5  351.58   18.99
 -29   8   5  339.95   19.89
 -21  29  -5  333.80   19.90
 -29   8   2   15.59    7.97
 -21  29  -2   23.16    6.98
  -8 -21  -2   24.10    7.43
  29  -8  -2   17.09    5.62
 -29   8   2   23.58    6.54
 -29   8  -1  135.18    9.91
 -29   8  -1  141.63   11.33
  21 -29  -1  171.11   10.49
 -29   8  -1  155.85   10.47
  -8 -21   1  148.20   10.93
 -29   8  -4   31.45    9.28
 -29   8  -4   25.33    7.20
  21 -29  -4   23.97    7.18
  21 -29  -7  240.52   14.58
 -21  29   7  235.32   13.48
 -29   8  -7  225.95   15.33
 -29   8  -7  221.04   14.17
  -8 -21  10   25.31    3.90
 -22  29  -9   63.58    7.00
 -29   7   9   70.16    7.17
  29  -7  -9   59.22    5.12
  29  -7  -6  174.43   11.72
 -29   7   6  182.09   13.37
 -22  29  -6  164.25   13.13
 -22  29  -3   35.94    8.24
 -29   7   3   32.69    8.71
  -7 -22  -3   43.74    7.81
  29  -7  -3   30.76    6.29
 -29   7   3   33.33    7.53
 -29   7   0  387.60   21.74
 -29   7   0  405.37   20.75
 -22  29   0  388.62   21.39
  22 -29   0  388.87   21.21
 -29   7   0  427.13   21.29
  -7 -22   0  402.92   21.32
 -29   7  -3   69.05    7.50
  22 -29  -3   77.08    8.37
 -29   7  -3   64.28    9.42
  22 -29  -6  305.42   18.28
 -22  29   6  305.48   17.22
 -29   7  -6  344.82   19.09
 -29   7  -6  303.41   17.71
  22 -29  -9   15.35    5.30
 -23  29  -7   22.22    9.10
  29  -6  -7   26.00    6.62
 -29   6   7   15.70    8.66
 -23  29  -4  249.88   16.14
  29  -6  -4  265.16   14.75
 -29   6   4  248.71   15.42
 -29   6   4  270.30   16.03
 -23  29  -4  254.06   14.98
 -23  29  -1   34.49    7.53
  -6 -23  -1   22.08    6.95
 -29   6   1   44.47    7.20
 -29   6   1   18.37    7.69
 -29   6  -2   94.81    9.12
  23 -29  -2   77.71    8.17
  -6 -23   2   84.74    8.85
 -29   6  -2   79.66    9.38
 -29   6  -5   67.71    7.98
 -29   6  -5   56.27   10.33
 -23  29   5   66.04    8.11
  23 -29  -5   65.14    9.43
 -29   6  -8   73.58    6.57
 -23  29   8   72.87    6.97
  23 -29  -8   67.33    7.92
 -24  29  -8   30.50    8.02
  29  -5  -8   28.87    5.33
 -29   5   8   21.20    6.45
 -29   5   8   37.89    7.77
 -29   5   5  277.19   17.03
  29  -5  -5  282.68   15.54
 -29   5   5  275.30   16.43
 -24  29  -5  292.20   16.21
 -24  29  -5  243.23   17.14
 -24  29  -2   62.59    9.01
  -5 -24  -2   68.70    8.03
 -29   5   2   67.83    8.22
 -29   5   2   82.59    9.21
  24 -29  -1  308.82   17.71
 -29   5  -1  334.03   17.84
  -5 -24   1  303.42   17.57
 -29   5  -1  313.21   18.01
 -24  29   4   30.54    7.45
 -29   5  -4   30.75    9.46
  24 -29  -4   33.34    8.32
  24 -29  -7  338.77   18.66
 -24  29   7  339.60   18.07
 -29   5  -7  330.81   19.11
 -29   5  -7  316.36   17.62
 -25  29  -9   16.86    5.96
 -29   4   9    7.18    5.13
 -25  29  -6   63.49   10.12
  29  -4  -6   71.94    7.40
 -29   4   6   67.62    9.72
 -29   4   3   96.39    9.76
 -25  29  -3   72.22    9.81
 -25  29  -3   88.79    8.64
 -29   4   3   89.90    9.45
 -25  29   0   69.47    8.78
 -29   4   0   71.69    8.95
  25 -29   0   61.16    8.41
 -29   4   0   67.87    8.60
  -4 -25   0   84.62    7.90
 -25  29   3   59.58    7.78
 -29   4  -3   57.96    9.42
 -29   4  -3   67.95    9.38
  25 -29  -3   57.26    8.22
  -4 -25   3   50.54    8.23
  25 -29  -6  256.29   15.50
 -25  29   6  255.73   15.10
 -29   4  -6  245.83   16.25
  25 -29  -9   25.63    5.19
 -29   3   7  262.83   15.24
 -29   3   7  252.18   15.33
 -26  29  -7  245.06   16.23
 -26  29  -4   92.35   10.43
 -29   3   4   84.48    9.85
 -26  29  -4   88.17    9.18
 -29   3   4   83.94    9.88
 -26  29  -1  265.03   15.73
 -29   3   1  238.10   15.49
 -29   3   1  248.62   15.58
 -26  29  -1  270.73   14.93
 -29   3  -2  140.05   11.26
  26 -29  -2  148.60   10.45
  -3 -26   2  128.98   10.13
 -26  29   2  135.26   10.10
 -29   3  -2  120.75   11.13
 -29   3  -5   27.86    9.32
 -26  29   5   53.82    8.23
  26 -29  -5   46.89    9.25
 -26  29   8   12.08    5.77
  26 -29  -8   11.30    6.72
 -29   2   8   40.97    6.67
 -29   2   8   25.02    6.49
 -27  29  -5   75.14   10.90
 -27  29  -5   83.66    9.50
 -29   2   5   82.12    9.80
 -29   2   5   91.40   10.07
 -27  29  -2   15.45    8.15
 -29   2   2   10.57    7.84
 -27  29  -2    2.47    7.34
 -29   2   2   19.52    7.91
 -29   2  -1   13.39    7.72
 -27  29   1   10.23    7.12
  27 -29  -1   11.49    7.39
 -29   2  -1   16.63    8.16
  -2 -27   1    6.56    6.26
 -27  29   4  203.23   13.40
 -29   2  -4  199.53   14.28
  27 -29  -4  215.26   13.83
  27 -29  -7   41.25    8.23
 -27  29   7   28.72    7.34
 -28  29  -9   15.42    5.33
 -29   1   9   11.31    3.62
 -29   1   9   18.34    3.60
 -28  29  -6  118.66   12.14
 -29   1   6  141.33   10.93
 -29   1   6  135.33   11.26
 -28  29  -6  140.69   10.97
 -28  29  -3   76.89    9.77
 -28  29  -3   71.23    9.15
 -29   1   3   75.26    9.85
 -29   1   3   65.54    9.10
 -28  29   0   18.51    7.12
 -29   1   0   19.17    7.41
 -28  29   0   17.53    8.24
 -29   1   0   11.20    8.17
 -28  29   3  460.77   24.28
 -29   1  -3  492.00   25.16
  28 -29  -3  464.83   24.49
  -1 -28   3  432.98   23.87
 -29   1  -3  445.60   24.41
 -29   1  -6   19.31    8.27
 -28  29   6   25.92    8.05
  28 -29  -6   12.88    8.32
  28 -29  -9   52.33    5.40
 -29   0   7  214.53   13.52
 -29   0   7  215.54   12.93
 -29  29  -7  190.73   14.04
 -29   0   4  135.10   10.85
 -29  29  -4  125.46   12.12
 -29  29  -4  117.78   11.05
 -29   0   4  125.26   11.28
 -29  29  -1  319.78   18.40
 -29   0   1  324.45   18.47
 -29  29  -1  287.47   17.62
 -29   0   1  316.58   17.61
 -29   0  -2   16.20    8.98
  29 -29  -2    2.95    8.05
 -29   0  -2   20.22    7.67
 -29  29   2   11.06    7.70
  29 -29  -5  390.05   21.44
 -29  29   5  392.96   21.10
 -29   0  -5  357.43   21.00
 -29  29   8   34.75    5.87
  29 -29  -8   36.92    6.79
   0 -29   8   20.93    5.34
 -30  29   7   19.04    7.25
   1 -30   7   32.47    6.24
  30 -29  -7   24.91    7.38
 -30  29   4   32.05    8.70
 -29  -1  -4   16.93    8.21
  30 -29  -4   31.66    8.66
  30 -29  -1  226.69   14.48
 -29  -1  -1  228.90   15.08
 -29  -1  -1  226.72   14.14
 -30  29   1  234.10   14.59
 -29  -1   2  142.68   11.49
 -29  -1   2  129.12   10.35
 -30  29  -2  119.74   10.96
 -30  29  -2  116.27   11.35
 -29  -1   5  156.11   11.35
 -29  -1   5  138.64   11.88
 -30  29  -5  143.76   13.13
 -30  29  -5  155.16   11.96
 -30  29  -8    1.30    7.04
 -29  -1   8   13.11    5.77
 -29  -1   8   14.84    4.92
 -30  28   8   44.34    6.62
  30 -28  -8   50.09    7.03
 -28  -2  -5   25.54    7.99
 -30  28   5   28.07    8.44
  30 -28  -5   32.17    8.93
 -28  -2  -2   62.38   10.14
  30 -28  -2   66.39    8.48
 -28  -2  -2   62.44    8.15
 -30  28   2   62.27    9.10
 -30  28  -1   11.37    8.53
 -28  -2   1   11.08    6.94
 -28  -2   1   18.46    8.90
 -30  28  -1   12.94    8.01
 -30  28  -4   23.04    9.68
 -30  28  -4   27.43    9.21
 -28  -2   4   42.98    9.57
 -28  -2   4   41.91    8.09
 -30  28  -7    1.16    8.22
 -28  -2   7    8.85    6.56
 -28  -2   7   18.64    8.02
  30 -27  -9   71.68    6.19
 -30  27   9   68.03    5.60
 -30  27   6   46.73    8.89
  30 -27  -6   48.61    8.72
 -30  27   3   26.15    8.78
 -27  -3  -3   34.01    7.53
 -27  -3  -3    8.98    9.06
  30 -27  -3   25.97    8.12
 -30  27   0  263.22   16.39
  30 -27   0  258.29   15.92
 -27  -3   0  293.23   16.54
 -27  -3   0  257.38   15.16
 -30  27   0  256.41   16.12
 -30  27  -3  103.73   10.79
 -30  27  -3  104.06   10.67
 -27  -3   3  104.73   10.97
 -27  -3   3  106.02    9.38
 -27  -3   6   12.87    7.10
 -30  27  -6    4.84    8.69
 -27  -3   6   10.63    8.78
 -27  -3   9   89.25    6.51
  30 -26  -7  187.30   13.06
 -30  26   7  192.76   12.85
 -30  26   4   12.52    8.88
 -26  -4  -4   11.07    7.34
  30 -26  -4    2.50    8.60
  30 -26  -1   36.87    8.34
 -26  -4  -1   34.49    8.72
 -30  26   1   34.87    8.45
 -26  -4   2    2.12    6.43
 -26  -4   2    0.94    8.76
 -30  26  -2   -0.29    8.41
 -26  -4   5  266.35   16.37
 -26  -4   5  235.00   14.63
 -30  26  -5  245.24   16.15
 -26  -4   8   44.98    7.64
 -30  25   8   43.06    7.53
 -25  -5  -5   33.11    7.58
 -30  25   5   47.91    9.44
 -30  25   2  348.25   19.96
 -25  -5  -2  358.15   20.39
 -30  25  -1   67.69    8.95
 -25  -5   1   66.66    9.51
 -25  -5   4  275.00   15.73
 -25  -5   4  279.00   17.45
 -30  25  -4  274.69   17.36
 -25  -5   7   -4.11    6.12
 -30  24   9    7.84    5.52
 -30  24   6  136.62   11.86
 -24  -6  -3  404.90   23.04
 -30  24   3  416.28   22.65
 -30  24   0   56.19    8.54
 -24  -6   0   64.32    9.58
 -24  -6   3   34.34    9.11
 -30  24  -3   34.72    9.45
 -24  -6   6  197.48   12.30
 -30  24  -6  196.59   14.37
 -30  24  -9    0.18    5.88
 -24  -6   9    5.50    5.47
 -30  23   7  334.37   19.23
 -30  23   4  131.75   11.72
 -30  23   1  260.80   15.49
 -23  -7  -1  249.52   16.13
 -30  23  -2  114.27   10.93
 -23  -7   2  125.16   11.06
 -30  23  -2  101.05   10.78
 -30  23  -5   41.12   10.19
 -30  23  -5   45.53   10.17
 -30  23  -8   87.62    9.51
  30 -22  -8    8.92    7.28
 -30  22   8    9.97    7.75
  30 -22  -5   66.05    9.59
 -30  22   5   59.64   10.23
 -30  22   2   16.70    8.30
  30 -22  -2   10.49    7.23
 -30  22  -1  215.23   13.71
 -22  -8   1  214.37   14.24
 -30  22  -1  212.61   14.14
 -30  22  -4    6.63    9.23
 -30  22  -4    3.99    9.35
 -30  22  -7  -10.48    9.18
 -30  22  -7   20.17    9.16
 -22  -8  10    2.67    2.98
  30 -21  -9   51.46    6.29
 -30  21   9   36.05    6.73
  30 -21  -6   35.18    9.44
 -30  21   6   40.97    9.82
 -30  21   3   -2.05    8.54
  30 -21  -3    7.74    7.92
  30 -21   0   64.74    8.32
 -30  21   0   78.88    9.46
 -30  21  -3    5.55    8.27
 -21  -9   3   12.08    8.26
 -30  21  -3   -5.73    9.16
 -30  21  -6   -8.59    9.69
 -30  21  -6   -2.36    9.68
 -30  21  -9    5.63    6.18
 -30  20  10   96.82    5.92
  30 -20 -10   83.74    5.66
  30 -20  -7   19.73    8.65
 -30  20   7   24.20    9.01
  30 -20  -4  509.89   26.97
 -20 -10  -4  507.01   27.56
 -30  20   4  513.83   27.27
  30 -20  -1   15.81    7.17
 -30  20   1   19.24    8.38
 -30  20  -2  909.67   45.81
 -30  20  -2  929.77   46.07
 -30  20  -5   91.22   11.39
 -30  20  -5   93.40   11.22
 -30  20  -8   55.08    8.90
  30 -19  -8   66.55    8.41
 -30  19   8   53.13    8.74
  30 -19  -5   72.20    9.41
 -30  19   5   77.58   10.71
 -30  19   2   37.13    8.83
 -19 -11  -2   49.99    8.72
  30 -19  -2   41.53    7.47
 -30  19  -1  111.86    9.99
 -30  19  -1   78.77    9.47
 -30  19  -4  528.25   27.04
 -30  19  -4  476.35   27.22
 -30  19  -7   -7.00    9.02
 -30  19  -7   11.99    8.67
 -19 -11  10   78.51    5.68
 -30  18   9   36.22    6.66
  30 -18  -9   32.75    6.01
  30 -18  -6  163.18   12.43
 -12  30  -6  166.39   11.16
 -30  18   6  165.83   12.95
 -18 -12  -3  272.87   16.76
  30 -18  -3  269.70   16.12
 -30  18   3  270.96   16.79
  30 -18   0   29.24    6.96
 -30  18   0   39.03    8.54
 -18 -12   0   41.12    8.12
 -30  18  -3  190.32   13.26
 -30  18  -3  185.60   13.75
 -30  18  -6   12.36    9.42
 -30  18  -6   14.63    9.65
 -30  18  -9    5.57    6.00
 -30  17  10    4.28    4.03
  30 -17 -10    9.27    3.27
  30 -17  -7   59.90    8.65
 -30  17   7   57.96    9.95
 -17 -13  -4   32.86    9.48
  30 -17  -4   27.31    8.16
 -30  17   4   26.18    9.09
  30 -17  -1   13.48    6.82
 -17 -13  -1   26.47    7.89
 -30  17   1   35.92    8.09
 -30  17  -2  613.61   31.97
 -17 -13   2  638.28   32.27
 -30  17  -2  624.17   32.26
 -30  17  -5   27.37    8.65
 -30  17  -5   13.38    9.60
 -30  17  -8  197.56   13.26
 -14  30  -8   -0.91    5.85
  30 -16  -8   -4.10    7.09
 -14  30  -5   24.16    7.36
  30 -16  -5   19.40    8.26
 -16 -14  -2  167.47   12.94
  30 -16  -2  199.50   11.97
 -30  16  -1   17.73    6.93
 -16 -14   1   10.81    8.12
 -30  16  -4   26.46    8.13
  14 -30  -7  194.10   11.82
 -30  16  -7  197.09   13.74
  30 -15  -9   34.75    6.06
 -15  30  -6   16.34    7.84
  30 -15  -6   18.99    8.82
 -15  30  -3   12.26    6.40
 -15 -15  -3   15.00    8.58
  30 -15  -3    7.32    7.07
  30 -15   0  128.31    9.76
 -15 -15   0  150.57   11.19
 -30  15  -3  262.39   15.54
  15 -30  -6  336.09   18.21
 -30  15  -6  322.16   19.35
 -30  15  -9   29.09    6.12
  30 -15   9   30.54    4.82
 -30  14  10    8.47    4.05
 -16  30  -7   47.53    8.22
  30 -14  -7   43.77    8.50
 -16  30  -4   14.03    7.24
  30 -14  -4   22.38    7.30
 -16  30  -1   14.96    5.81
  30 -14  -1   26.47    6.61
 -14 -16  -1   16.84    7.66
 -30  14  -2   52.55    7.98
  16 -30  -2   57.10    6.35
 -14 -16   2   52.45    8.71
  16 -30  -5  260.58   14.45
 -30  14  -5  221.98   15.28
 -30  14  -8    6.25    7.39
  16 -30  -8   14.81    5.68
 -17  30  -8   30.37    7.12
  30 -13  -8   37.81    7.17
 -30  13   8   26.53    8.41
  30 -13  -5  207.33   13.89
 -30  13   5  227.65   14.71
 -17  30  -5  209.49   13.88
 -30  13   2   11.27    8.43
 -17  30  -2   12.75    6.24
 -13 -17  -2   15.47    7.91
  30 -13  -2    4.71    6.57
 -30  13  -1  245.03   14.58
  17 -30  -1  243.29   13.88
 -13 -17   1  252.72   15.12
 -30  13  -1  251.06   15.48
  17 -30  -4  168.82   11.26
 -30  13  -4  161.69   13.12
 -30  13  -4  180.54   12.41
 -30  13  -7  144.22   12.41
 -30  13  -7  136.65   11.35
  17 -30  -7  140.37   10.22
 -13 -17  10    3.46    3.97
 -30  12   9   46.34    6.95
  30 -12  -9   49.87    5.75
 -18  30  -6    9.02    8.33
  30 -12  -6    5.93    8.02
 -30  12   6    8.90    9.12
 -18  30  -3   16.98    6.98
 -30  12   3   32.20    8.67
 -12 -18  -3   17.33    8.48
  30 -12  -3   31.13    7.23
 -30  12   0  442.21   23.92
 -18  30   0  443.56   23.01
 -12 -18   0  451.37   23.86
 -30  12  -3   93.88    8.85
  18 -30  -3   83.46    7.99
 -30  12  -3   90.05   10.55
 -30  12  -6  203.63   15.39
  18 -30  -6  215.72   13.35
 -30  12  -6  207.37   14.04
 -30  12  -9   27.36    5.36
  18 -30  -9   30.43    4.39
 -30  11  10   11.86    3.62
 -19  30  -7   45.31    8.63
  30 -11  -7   41.89    8.16
 -30  11   7   62.97    9.53
  30 -11  -4  565.02   29.63
 -30  11   4  587.31   30.37
 -19  30  -4  586.65   30.05
 -19  30  -1    0.23    6.38
  30 -11  -1    4.01    6.17
 -11 -19  -1    5.66    7.29
 -30  11   1    3.87    7.84
 -30  11  -2   62.22    7.77
  19 -30  -2   50.21    6.85
 -11 -19   2   55.16    8.40
 -30  11  -2   47.77    9.22
 -30  11  -5   23.01    8.24
 -30  11  -5   31.93   10.05
  19 -30  -5   27.83    7.62
 -30  11  -8   28.00    6.92
  19 -30  -8   22.86    6.20
 -20  30  -8  -11.04    7.32
 -30  10   8   -3.41    7.82
  30 -10  -5  287.79   16.29
 -30  10   5  273.95   15.81
 -30  10   5  266.66   17.44
 -20  30  -5  276.43   17.05
 -20  30  -2  168.64   11.24
 -30  10   2  159.83   12.31
  30 -10  -2  154.70   10.72
 -10 -20  -2  176.70   11.87
 -30  10  -1  427.71   23.50
  20 -30  -1  448.10   23.57
 -30  10  -1  475.81   23.60
 -10 -20   1  446.87   24.09
 -30  10  -1  482.93   24.45
 -30  10  -4   31.29    7.62
 -30  10  -4   42.80    9.65
  20 -30  -4   37.72    7.27
 -30  10  -7  296.27   17.13
  20 -30  -7  253.58   15.71
 -30  10  -7  271.80   15.97
 -10 -20  10    3.74    3.33
 -21  30  -9   -6.01    5.28
 -30   9   9    5.80    6.01
  30  -9  -9    5.80    4.01
 -21  30  -6   13.01    8.70
 -30   9   6   19.84    7.11
  30  -9  -6   24.10    7.48
 -30   9   6    2.16    9.31
 -21  30  -3   34.61    7.97
 -30   9   3   24.11    8.64
  -9 -21  -3   28.25    8.13
  30  -9  -3   20.71    6.33
 -30   9   3   26.46    6.90
 -30   9   0   95.83    7.97
 -21  30   0   91.95    8.51
 -30   9   0   94.06    9.91
 -30   9   0   99.53    8.36
  -9 -21   0   88.17    9.29
 -30   9  -3    5.97    6.70
  21 -30  -3   12.77    6.86
 -30   9  -3   11.34    8.85
 -30   9  -6  121.27   10.07
 -30   9  -6  108.44   11.39
  21 -30  -6  110.39    9.99
  21 -30  -9   10.14    4.59
 -22  30  -7  166.48   12.77
  30  -8  -7  181.39   11.50
 -30   8   7  177.60   11.41
 -30   8   7  167.13   12.85
  30  -8  -4  328.86   18.51
 -30   8   4  349.04   18.94
 -22  30  -4  341.08   19.71
 -30   8   4  346.08   19.72
 -22  30  -1  245.82   15.29
 -30   8   1  261.87   15.89
  30  -8  -1  253.75   14.47
  -8 -22  -1  260.26   15.46
 -30   8   1  272.88   15.01
 -30   8  -2   12.67    6.20
 -30   8  -2   10.61    7.18
  22 -30  -2    4.85    6.82
  -8 -22   2    8.10    7.82
 -30   8  -2    7.40    8.55
 -30   8  -5   93.72    9.17
 -30   8  -5  101.93   11.07
  22 -30  -5   85.89    9.50
 -30   8  -8    3.24    5.57
  22 -30  -8   14.74    6.32
 -23  30  -8    4.69    7.14
 -30   7   8    9.15    5.41
 -30   7   8   -5.99    7.38
  30  -7  -8   -0.15    5.08
 -23  30  -5    4.23    9.37
  30  -7  -5   19.30    6.81
 -30   7   5   12.02    7.54
 -30   7   5    0.91    9.19
 -23  30  -2   34.77    7.81
  30  -7  -2   42.64    6.30
 -30   7   2   29.08    7.56
  -7 -23  -2   45.30    7.81
 -30   7   2   35.65    8.61
 -30   7  -1  119.50   10.29
 -30   7  -1  112.22    9.47
  23 -30  -1  111.84    9.36
  -7 -23   1  114.31    9.85
 -30   7  -4   18.71    6.87
 -30   7  -4    8.14    9.04
  23 -30  -4   16.55    7.53
  23 -30  -7  179.71   12.01
 -23  30   7  177.95   10.88
 -30   7  -7  155.76   11.03
 -30   7  -7  165.24   12.76
 -24  30  -9   10.93    5.58
 -30   6   9   12.72    5.47
 -24  30  -6   17.31    9.40
  30  -6  -6   23.31    6.66
 -30   6   6   15.77    7.67
 -30   6   6   16.29    8.84
 -24  30  -3   41.63    8.77
 -30   6   3   18.87    8.76
  -6 -24  -3   27.86    7.69
  30  -6  -3   32.31    6.11
 -24  30   0   40.76    7.77
 -30   6   0   24.78    7.44
  -6 -24   0   32.58    7.42
 -30   6   0   28.83    8.17
  24 -30  -3  120.60   10.17
 -30   6  -3  104.14   11.30
  -6 -24   3  133.05   10.51
 -30   6  -6   32.51    7.01
 -30   6  -6   40.77    9.46
 -24  30   6   38.34    7.50
  24 -30  -6   27.98    8.20
  24 -30  -9   63.64    5.89
  30  -5  -7  189.17   11.39
 -30   5   7  191.43   12.44
 -30   5   7  213.18   13.23
 -25  30  -7  183.97   13.60
 -25  30  -4   14.95    7.28
 -25  30  -4   19.99    8.76
 -30   5   4   18.06    8.71
  30  -5  -4   21.12    5.92
 -30   5   4   15.06    7.94
 -25  30  -1  467.06   24.76
 -30   5   1  455.93   24.81
  -5 -25  -1  496.50   24.39
 -30   5   1  448.05   24.63
 -30   5  -2    1.44    8.04
  25 -30  -2   11.21    6.95
  -5 -25   2   12.50    7.19
 -30   5  -2    8.14    8.08
  25 -30  -5  303.44   18.08
 -25  30   5  301.65   17.55
 -30   5  -5  340.17   18.80
 -25  30   8   28.16    5.42
  25 -30  -8   35.93    6.83
 -26  30  -8    8.46    7.07
 -30   4   8    6.44    6.61
 -30   4   8    9.71    5.64
 -26  30  -5   18.23    9.75
 -30   4   5   17.23    8.76
 -26  30  -5   11.65    7.55
 -30   4   5   25.68    8.48
 -26  30  -2   62.84    9.20
  -4 -26  -2   59.71    7.85
 -26  30  -2   69.61    7.99
 -30   4   2   62.18    8.86
 -30   4   2   61.62    9.07
 -30   4  -1    9.68    8.02
 -26  30   1    5.81    6.68
  26 -30  -1    6.62    7.19
 -30   4  -1   -2.82    7.63
  -4 -26   1   14.51    6.96
 -26  30   4  197.08   13.10
  26 -30  -4  214.70   13.77
 -30   4  -4  204.18   14.27
 -26  30   7   46.47    7.22
  26 -30  -7   48.27    8.15
 -27  30  -9   12.11    5.22
 -30   3   9   15.01    4.03
 -27  30  -6  184.71   14.09
 -30   3   6  176.45   12.79
 -30   3   6  203.22   13.19
 -27  30  -3  117.98    9.94
 -27  30  -3  124.29   11.30
 -30   3   3  115.39   10.74
 -30   3   3  106.67   10.66
 -27  30   0  166.79   11.32
 -30   3   0  151.52   11.27
 -30   3   0  149.48   11.28
  -3 -27   0  134.26   10.20
 -27  30   0  138.04   10.45
 -30   3  -3    1.29    8.91
  27 -30  -3   10.37    7.59
 -30   3  -3   10.93    8.51
  -3 -27   3    4.57    7.43
 -27  30   3    4.75    7.32
 -30   3  -6   24.76    8.79
 -27  30   6   35.39    7.78
  27 -30  -6   20.19    8.13
  27 -30  -9   12.98    4.11
  -3 -27   9    9.96    3.62
 -28  30  -7   37.28    8.58
 -30   2   7   45.18    7.77
 -30   2   7   47.71    7.78
 -28  30  -4  104.58   11.13
 -28  30  -4  113.92   10.31
 -30   2   4  111.44   10.74
 -30   2   4  127.30   11.09
 -28  30  -1   64.37    8.87
 -30   2   1   53.68    8.67
 -30   2   1   67.12    9.47
 -28  30  -1   60.61    8.31
 -30   2  -2  125.42   11.37
  28 -30  -2  134.41   10.86
  -2 -28   2  119.40    9.71
 -28  30   2  122.94   10.13
 -30   2  -2  112.79   10.65
 -30   2  -5    4.91    8.49
 -28  30   5   10.53    7.83
  28 -30  -5    7.48    7.72
 -28  30   8   58.95    6.14
  28 -30  -8   50.58    6.97
  -2 -28   8   64.87    6.56
 -29  30  -8   16.73    6.71
 -30   1   8   17.28    5.58
 -30   1   8   31.20    5.73
 -29  30  -5   10.43    8.14
 -30   1   5   10.11    8.21
 -29  30  -5   10.24    9.46
 -30   1   5   17.65    8.86
 -29  30  -2    9.56    9.25
 -30   1   2   11.80    8.62
 -29  30  -2   13.82    7.89
 -30   1   2    8.58    7.81
  29 -30  -1  180.75   12.72
 -29  30   1  161.09   12.00
 -30   1  -1  182.30   12.98
 -30   1  -1  179.74   12.38
 -30   1  -4   31.68    8.68
  29 -30  -4   44.45    8.55
  -1 -29   4   24.42    7.67
 -29  30   4   25.60    8.37
 -29  30   7  169.09   11.26
  29 -30  -7  174.92   11.77
 -30  30  -9    6.10    4.36
 -30  30  -6  162.95   13.50
 -30   0   6  181.26   12.14
 -30   0   6  172.38   12.82
 -30  30  -6  195.40   12.24
 -30  30  -3    5.33    9.18
 -30  30  -3    2.76    7.96
 -30   0   3   24.64    9.02
 -30   0   3   -0.26    7.48
 -30   0   0    7.58    7.42
 -30  30   0   20.52    7.65
 -30  30   0    2.13    8.53
 -30   0   0   15.93    8.72
 -30   0  -3   70.16   10.59
 -30   0  -3   78.16    9.24
  30 -30  -3   68.74    9.16
 -30  30   3   86.86    9.19
 -30  30   6   43.29    8.28
  30 -30  -6   65.20    9.00
   0 -30   6   54.66    7.57
 -30   0  -6   51.36    8.21
  30 -30  -9   10.23    3.87
 -31  30   8  117.04    8.15
  31 -30  -8  143.43    8.78
 -31  30   5   47.89    8.92
 -30  -1  -5   39.24    8.16
  31 -30  -5   44.96    8.86
 -31  30   2  511.24   26.95
  31 -30  -2  513.10   27.12
 -30  -1  -2  526.48   27.59
 -30  -1  -2  495.31   26.72
 -30  -1   1   79.45    8.67
 -31  30  -1   82.59    9.94
 -30  -1   1   65.20   10.00
 -31  30  -1   75.24    9.37
 -30  -1   4  506.38   25.90
 -30  -1   4  511.23   26.69
 -31  30  -4  490.58   26.29
 -31  30  -4  459.90   26.71
 -31  30  -7   -6.82    8.02
 -30  -1   7   12.24    7.05
 -30  -1   7    8.39    5.96
  31 -29  -9   16.61    3.89
  31 -29  -6  244.39   15.29
 -31  29   6  239.37   14.74
 -29  -2  -3  115.81   10.25
 -29  -2  -3  137.91   12.23
  31 -29  -3  112.90   10.83
 -31  29   3  130.47   11.06
 -31  29   0  171.62   12.82
 -29  -2   0  184.17   13.02
 -29  -2   0  157.38   11.49
 -31  29   0  165.77   12.48
 -31  29  -3   23.56    9.08
 -31  29  -3   15.26    8.74
 -29  -2   3   34.80    9.62
 -29  -2   3   21.64    7.30
 -29  -2   6   35.65    7.35
 -31  29  -6   32.31    9.27
 -29  -2   6   35.66    8.81
 -31  29  -6   30.98    8.14
 -31  29  -9    7.45    4.05
 -31  28   7   34.38    7.71
  31 -28  -7   40.74    7.69
 -31  28   4   27.36    8.87
 -28  -3  -4   15.56    7.48
  31 -28  -4   26.09    9.25
 -31  28   1   48.91    9.04
  31 -28  -1   62.69    9.13
 -28  -3  -1   57.00    9.56
 -28  -3  -1   54.85    7.71
 -28  -3   2   -3.87    8.77
 -31  28  -2   -1.31    8.94
 -28  -3   2    7.88    7.24
 -31  28  -2   12.05    8.87
 -28  -3   5   44.46    7.66
 -31  28  -5   25.09    9.00
 -31  28  -5   25.36    9.84
 -28  -3   5   33.55    9.45
 -28  -3   8    6.03    6.20
 -31  27   8    9.47    6.22
  31 -27  -8   14.95    6.28
 -27  -4  -5   46.63    7.77
 -31  27   5   51.30    9.63
  31 -27  -5   41.69    9.42
 -27  -4  -2   82.63    8.35
 -27  -4  -2   87.30   10.44
  31 -27  -2   74.59    9.87
 -31  27   2   90.98   10.05
 -31  27  -1   83.41   10.05
 -31  27  -1   93.92    9.75
 -27  -4   1   94.57   10.44
 -27  -4   4    1.65    8.93
 -27  -4   4    6.45    6.98
 -31  27  -4    2.81    8.90
 -27  -4   7  197.60   11.59
 -27  -4   7  186.22   13.08
 -31  26   9    8.28    4.23
 -31  26   6   34.37    8.80
 -31  26   3   12.90    8.75
 -26  -5  -3   19.65    9.63
 -31  26   0  127.33   11.18
 -26  -5   0  140.95   11.65
 -31  26  -3   87.61   10.53
 -26  -5   3   76.25   10.35
 -26  -5   6  198.35   12.50
 -26  -5   6  210.75   14.34
 -31  26  -6  208.69   14.31
 -26  -5   9   17.68    4.69
 -31  25   7   43.20    8.67
 -31  25   4  144.53   12.10
 -25  -6  -1   11.32    8.78
 -31  25   1   -1.15    8.40
 -25  -6   2   36.07    9.02
 -31  25  -2   37.90    9.15
 -25  -6   5  290.68   18.01
 -31  25  -5  281.28   17.84
 -31  25  -8  125.93   10.80
 -25  -6   8  177.25   11.10
 -31  24   8   66.33    8.06
 -31  24   5   75.21   10.49
 -24  -7  -2   92.50   10.85
 -31  24   2  114.44   10.75
 -31  24  -1   48.05    9.17
 -31  24  -1   45.41    8.66
 -24  -7   1   63.88    9.25
 -31  24  -4   56.90    9.94
 -31  24  -4   46.75    9.76
 -24  -7   4   53.87   10.11
 -31  24  -7  105.18   10.90
 -31  24  -7  117.26   10.76
 -31  23   9   82.58    7.15
  31 -23  -9   90.51    7.07
 -31  23   6   51.40   10.06
  31 -23  -6   84.54    9.61
  31 -23  -3  501.53   26.08
 -31  23   3  478.37   26.34
 -31  23   0    6.12    8.34
  31 -23   0   -2.92    8.14
 -23  -8   0   10.72    8.57
 -31  23  -3   95.14   11.30
 -31  23  -3  114.06   11.55
 -31  23  -6    8.72    9.29
 -31  23  -6   12.20    9.12
 -23  -8   9  134.80    8.88
 -31  23  -9  118.98    8.65
  31 -22  -7   81.51    9.70
 -31  22   7   70.02    9.80
 -31  22   4   31.69    9.46
  31 -22  -4   31.79    7.99
  31 -22  -1  106.72    9.96
 -31  22   1  106.67   10.68
 -31  22  -2  230.81   15.19
 -22  -9   2  239.73   15.44
 -31  22  -2  235.75   15.48
 -31  22  -5   79.04   10.76
 -31  22  -5   61.63   10.52
 -31  22  -8   42.25    8.14
 -31  21   8   18.36    7.71
  31 -21  -8    6.89    6.96
  31 -21  -5    6.30    8.50
 -31  21   5    9.81    9.43
 -31  21   2  627.03   33.00
  31 -21  -2  649.01   32.64
 -31  21  -1   36.99    8.64
 -31  21  -1   53.41    8.87
 -31  21  -4    8.27    8.80
 -31  21  -4   18.12    9.56
 -31  21  -7   12.88    8.63
 -31  21  -7    3.61    8.74
  31 -20  -9   13.67    5.30
 -31  20   9    9.67    6.09
  31 -20  -6   21.94    8.85
 -31  20   6    8.43    9.73
 -31  20   3   65.55    9.78
 -20 -11  -3   52.41    9.98
  31 -20  -3   65.11    8.69
 -31  20   0  412.85   22.65
  31 -20   0  407.79   22.29
 -31  20  -3  342.94   20.53
 -31  20  -3  384.79   21.00
 -31  20  -6  146.00   12.70
 -31  20  -6  138.28   12.65
 -31  20  -9    7.68    5.58
 -20 -11   9   -4.88    5.92
 -31  19  10    2.11    3.13
  31 -19  -7   19.43    8.06
 -31  19   7   27.41    9.09
 -19 -12  -4   -2.48    9.48
 -31  19   4   -3.46    9.05
  31 -19  -4   -1.50    7.32
  31 -19  -1  131.07   10.53
 -19 -12  -1  149.69   11.47
 -31  19   1  129.78   11.52
 -31  19  -2    1.73    8.10
 -19 -12   2    2.80    8.45
 -31  19  -2    1.56    8.82
 -31  19  -5   -5.07    9.31
 -31  19  -5   -0.70    9.57
 -31  19  -8   11.39    7.80
  31 -18  -8   16.07    7.25
 -31  18   8    5.09    7.67
  31 -18  -5  339.13   20.11
 -31  18   5  364.22   20.71
 -31  18   2  427.57   22.99
 -18 -13  -2  414.48   22.91
  31 -18  -2  407.14   22.39
 -31  18  -1  238.59   14.29
 -18 -13   1  209.07   14.90
 -31  18  -1  238.36   14.98
 -31  18  -4   32.67    8.98
 -31  18  -4   33.93    9.76
 -31  18  -7   85.56   10.54
 -31  18  -7   70.22    9.86
 -18 -13  10   59.43    4.64
  31 -17  -9   86.14    7.05
 -14  31  -6   18.90    7.20
  31 -17  -6    0.90    8.29
  31 -17  -3  274.47   16.97
 -17 -14  -3  323.51   18.15
 -31  17   0  244.47   14.70
 -17 -14   0  231.37   14.64
  31 -17   0  213.19   14.23
 -31  17  -3   88.49    9.43
 -17 -14   3   80.11   10.00
 -31  17  -3   67.91   10.12
 -31  17  -6   45.92    9.58
 -31  17  -6   34.70   10.16
 -31  17  -9   93.88    7.62
  31 -16  -7  328.73   17.99
 -15  31  -7  296.52   17.25
  31 -16  -4  175.05   12.07
 -15  31  -4  156.65   11.13
  31 -16  -1    8.13    7.01
 -16 -15  -1   16.35    8.11
 -31  16  -2  128.49   10.57
 -16 -15   2  142.28   11.52
  15 -31  -5  300.68   16.13
 -31  16  -5  274.39   17.62
 -31  16  -8    3.99    7.12
 -16  31  -8  101.35    8.41
  31 -15  -8  117.39    9.11
 -16  31  -5  144.14   11.12
  31 -15  -5  147.75   11.62
 -16  31  -2   43.54    6.55
 -15 -16  -2   34.23    8.78
  31 -15  -2   43.24    7.52
 -31  15  -1  142.11   10.54
 -15 -16   1  142.74   11.76
 -31  15  -4   85.33    9.91
  16 -31  -4   79.95    7.71
  16 -31  -7  432.55   22.64
 -31  15  -7  447.74   23.80
 -15 -16  10    1.55    3.21
 -31  14   9   15.53    6.14
  31 -14  -9   13.09    4.73
 -17  31  -6  103.01    9.76
  31 -14  -6   83.88    9.93
 -31  14   6  116.91   11.06
 -31  14   3   88.56    9.91
 -14 -17  -3   67.29    9.75
  31 -14  -3   82.74    8.68
 -17  31  -3   77.53    8.34
 -17  31   0   47.99    6.39
 -31  14   0   38.01    8.62
 -14 -17   0   35.67    8.25
 -31  14  -3   34.69    7.75
  17 -31  -3   32.85    6.23
 -31  14  -3   25.31    9.21
 -31  14  -6   81.80    9.91
  17 -31  -6   98.46    8.48
 -31  14  -9   21.42    5.16
  31 -14   9   17.72    4.20
 -31  13  10   19.53    3.49
 -18  31  -7   35.54    7.89
  31 -13  -7   25.91    7.74
 -31  13   7   17.14    9.08
  31 -13  -4  289.97   16.84
 -31  13   4  266.00   17.66
 -18  31  -4  301.65   16.95
 -18  31  -1  100.80    8.56
  31 -13  -1   95.17    8.77
 -13 -18  -1  109.56   10.03
 -31  13   1  106.57   10.51
 -31  13  -2   29.56    7.64
  18 -31  -2   45.97    6.49
 -13 -18   2   49.27    8.91
 -31  13  -2   37.26    8.95
 -31  13  -5   83.57   10.21
 -31  13  -5   91.54   11.16
  18 -31  -5  117.46    9.20
 -31  13  -8   14.95    6.72
  18 -31  -8   11.48    5.41
 -19  31  -8   26.82    6.91
  31 -12  -8   39.57    6.51
 -31  12   8   51.21    8.33
 -19  31  -5   30.46    8.35
  31 -12  -5   33.87    7.85
 -31  12   5   27.78    9.17
 -31  12   2  102.77   10.56
 -19  31  -2  101.95    9.01
 -12 -19  -2   94.90    9.88
  31 -12  -2  104.25    8.89
 -31  12  -1   88.25    9.97
 -31  12  -1   81.40    8.32
  19 -31  -1   79.11    7.76
 -12 -19   1   95.42    9.52
 -31  12  -4   16.61    8.08
 -31  12  -4   14.42    9.13
  19 -31  -4   20.45    6.91
 -31  12  -7   56.53    9.84
 -31  12  -7   48.59    8.32
  19 -31  -7   64.99    7.43
 -12 -19  10   40.82    3.78
 -31  11   9   51.73    6.47
  31 -11  -9   38.52    4.65
 -20  31  -6   15.79    8.45
  31 -11  -6   14.86    7.29
 -31  11   6    6.52    9.24
 -20  31  -3   21.56    7.60
 -31  11   3   12.35    8.47
 -11 -20  -3   23.01    8.43
  31 -11  -3   17.77    6.68
 -20  31   0  158.12   10.85
 -31  11   0  165.06   10.80
 -11 -20   0  159.14   11.59
 -31  11   0  151.50   12.12
 -31  11  -3  117.86    9.28
  20 -31  -3  108.06    8.86
 -11 -20   3   94.14   10.60
 -31  11  -3   97.82   10.98
 -31  11  -6    4.38    7.73
 -31  11  -6    0.67    9.49
  20 -31  -6   18.44    7.36
  20 -31  -9  102.26    6.45
  31 -10  -7  200.53   12.75
 -31  10   7  216.23   13.99
 -21  31  -7  206.36   13.68
 -21  31  -4   13.60    8.51
 -31  10   4   18.28    9.03
  31 -10  -4   16.53    6.99
 -21  31  -1  395.19   22.49
 -31  10   1  448.19   23.28
  31 -10  -1  422.71   22.21
 -10 -21  -1  443.35   22.91
 -31  10  -2    8.18    6.65
 -31  10  -2   21.73    7.15
  21 -31  -2   18.90    6.33
 -10 -21   2   18.24    8.19
 -31  10  -2    1.54    8.63
  21 -31  -5  195.25   12.88
 -31  10  -5  194.37   14.58
 -31  10  -5  197.83   13.15
 -31  10  -8   -2.22    5.72
  21 -31  -8    8.42    5.71
 -22  31  -8   96.99    8.89
 -31   9   8   96.04    9.24
  31  -9  -8   99.32    7.57
 -22  31  -5    3.12    8.55
 -31   9   5   12.13    9.11
  31  -9  -5   27.46    7.25
 -31   9   5   18.59    7.35
 -22  31  -2   36.78    7.87
  -9 -22  -2   46.42    8.42
  31  -9  -2   39.10    6.57
 -31   9   2   41.66    7.21
 -31   9   2   49.39    8.81
 -31   9  -1   15.59    8.63
 -31   9  -1   15.57    6.46
  22 -31  -1   14.43    6.57
 -31   9  -1   25.99    7.06
  -9 -22   1   20.37    7.66
 -31   9  -4   38.71    7.92
 -31   9  -4   42.97    9.71
  22 -31  -4   49.12    8.11
  22 -31  -7   72.01    8.32
 -31   9  -7   56.34    9.73
 -23  31  -9   21.24    4.81
 -31   8   9   11.08    5.51
  31  -8  -6  233.28   13.31
 -31   8   6  193.48   13.30
 -31   8   6  229.22   14.74
 -23  31  -6  213.13   14.73
 -31   8   3   22.26    8.85
 -23  31  -3   27.57    8.42
  -8 -23  -3   25.63    8.23
  31  -8  -3   20.04    6.46
 -31   8   3   18.45    7.15
 -23  31   0  173.83   11.34
 -31   8   0  164.26   11.16
 -31   8   0  175.90   12.39
 -31   8   0  167.57   10.48
  -8 -23   0  145.58   11.56
 -31   8  -3    0.69    6.55
  23 -31  -3   -0.52    7.40
  -8 -23   3    7.24    8.18
 -31   8  -3    0.64    9.07
  23 -31  -6  251.60   15.10
 -31   8  -6  250.52   15.99
 -31   8  -6  240.09   14.56
  23 -31  -9   16.86    4.19
  -8 -23   9   20.75    5.45
 -24  31  -7   13.00    8.47
 -31   7   7   24.75    7.97
  31  -7  -7   26.30    5.98
 -31   7   7   15.77    6.54
 -24  31  -4   76.81    9.48
 -31   7   4   68.43   10.29
  31  -7  -4   89.76    7.89
 -31   7   4   71.95    8.84
 -24  31  -1    3.80    7.46
  -7 -24  -1   16.08    7.30
 -31   7   1    7.46    7.10
 -31   7   1    1.14    8.06
 -31   7  -2   16.32    7.80
  24 -31  -2   29.54    7.20
  -7 -24   2   20.89    7.65
 -31   7  -2   18.49    8.67
 -31   7  -5   23.89    7.18
 -31   7  -5   27.17    9.99
  24 -31  -5   31.77    8.61
  24 -31  -8   15.66    6.08
 -25  31  -8   55.80    7.66
 -31   6   8   61.72    7.53
 -31   6   8   44.70    5.76
 -25  31  -5    1.97    9.17
 -31   6   5   20.76    9.03
  31  -6  -5   13.79    6.09
 -31   6   5   16.90    7.77
 -25  31  -2  410.31   22.39
 -31   6   2  409.40   22.13
 -31   6   2  426.13   22.68
  -6 -25  -2  403.70   22.01
  25 -31  -1  222.30   13.86
  -6 -25   1  218.47   13.60
 -31   6  -1  213.61   13.95
 -31   6  -4   11.58    9.34
  25 -31  -4   49.47    8.22
  25 -31  -7  109.51    9.21
 -31   6  -7   96.46    9.99
 -26  31  -9    2.59    4.79
 -31   5   9    4.91    4.20
 -26  31  -6   18.45    9.42
 -31   5   6   44.91    9.03
 -31   5   6   29.19    7.86
 -26  31  -3   45.78    9.44
 -31   5   3   49.01    8.64
 -31   5   3   54.48    9.22
 -31   5   0  106.18   10.21
 -31   5   0   99.71    9.71
  -5 -26   0   96.83    9.00
 -26  31   0   96.42    9.83
  26 -31  -3   27.00    7.77
 -31   5  -3   44.18    9.28
  -5 -26   3   42.21    8.32
 -31   5  -6   -2.04    8.60
 -26  31   6   19.71    6.88
  26 -31  -6    8.75    7.65
  26 -31  -9   69.60    5.32
  -5 -26   9   58.21    5.10
 -27  31  -7   96.63   10.26
 -31   4   7  112.33    9.52
 -31   4   7  100.11    8.99
 -31   4   4  294.43   17.67
 -31   4   4  301.09   17.38
 -27  31  -4  285.36   16.80
 -27  31  -4  294.63   18.24
 -27  31  -1   13.89    8.60
  -4 -27  -1    1.60    6.45
 -31   4   1    2.77    8.24
 -31   4   1    5.62    7.97
 -27  31   2  460.46   24.58
 -31   4  -2  493.73   25.47
  27 -31  -2  489.12   25.20
  -4 -27   2  464.13   24.81
 -31   4  -2  463.90   25.46
 -27  31   5   23.35    7.54
 -31   4  -5   37.47    9.42
  27 -31  -5   40.92    8.83
  27 -31  -8  104.93    7.93
  -4 -27   8   89.76    7.96
 -31   3   8  263.29   13.82
 -31   3   8  227.13   13.38
 -28  31  -8  265.22   14.52
 -28  31  -5    9.74    7.46
 -31   3   5   13.90    8.43
 -28  31  -5    0.33    9.47
 -31   3   5    0.84    8.01
 -28  31  -2  805.57   41.68
 -31   3   2  816.71   41.27
 -31   3   2  826.15   41.34
 -28  31  -2  832.64   40.95
 -28  31   1   19.50    7.27
  28 -31  -1    0.89    8.25
 -31   3  -1   17.10    8.30
  -3 -28   1   12.90    6.92
 -31   3  -1    6.14    8.38
 -28  31   4  315.89   18.14
  28 -31  -4  364.30   18.93
  -3 -28   4  317.33   18.40
 -31   3  -4  303.21   18.82
 -28  31   7   11.09    6.00
  28 -31  -7   11.40    7.12
 -29  31  -9    7.99    3.92
 -31   2   6  103.34    9.77
 -29  31  -6  112.52   11.27
 -31   2   6  118.23   10.25
 -29  31  -3   13.77    8.62
 -29  31  -3    1.02    7.76
 -31   2   3    8.38    8.54
 -31   2   3    7.62    8.25
 -29  31   0  176.16   12.79
 -31   2   0  194.09   13.14
 -29  31   0  173.97   12.19
 -31   2   0  185.43   12.81
 -31   2  -3    5.33    9.18
 -31   2  -3    0.86    8.61
  29 -31  -3   10.76    7.54
  -2 -29   3    1.20    7.29
 -29  31   3    2.45    7.52
 -29  31   6  139.68   10.70
  29 -31  -6  152.20   11.58
  -2 -29   6  145.73   10.76
 -31   2  -6  160.52   11.41
  29 -31  -9    9.26    3.59
 -30  31  -7   95.51    9.86
 -31   1   7  102.88    8.82
 -31   1   7   99.04    8.31
 -30  31  -4   37.83   10.03
 -30  31  -4   40.64    8.40
 -31   1   4   46.60    9.06
 -31   1   4   35.74    8.71
 -30  31  -1  161.10   12.77
 -31   1   1  159.53   12.02
 -31   1   1  157.60   12.52
 -30  31  -1  175.35   11.90
 -31   1  -2   53.32    9.65
  30 -31  -2   36.74    8.59
 -30  31   2   52.44    8.42
 -31   1  -2   33.08    8.82
 -31   1  -5   29.20    8.29
  30 -31  -5   51.42    8.81
  -1 -30   5   36.27    7.52
 -30  31   5   40.73    7.98
  30 -31  -8   57.20    6.18
 -30  31   8   41.03    4.89
 -31  31  -8   56.14    6.73
 -31   0   8   56.91    5.70
 -31  31  -5   33.14    8.22
 -31  31  -5   31.83    9.62
 -31   0   5   40.43    9.02
 -31   0   5   43.71    8.20
 -31  31  -2   56.74   10.27
 -31   0   2   59.09    8.70
 -31   0   2   48.25    9.56
 -31  31  -2   56.89    8.91
 -31   0  -1  217.26   14.45
  31 -31  -1  197.06   14.01
 -31   0  -1  206.51   13.75
 -31  31   1  224.60   13.84
  31 -31  -4  159.00   12.65
 -31   0  -4  179.06   12.16
 -31  31   4  164.47   12.29
  31 -31  -7   56.71    7.38
 -31  31   7   44.83    6.76
  32 -31  -6  107.43    9.92
 -32  31   6  111.56    9.40
 -31  -1  -3    9.31    7.42
 -31  -1  -3   13.15    9.63
  32 -31  -3   -7.47    8.82
 -32  31   3    0.27    8.26
 -32  31   0    9.47    8.20
 -32  31   0    3.81    9.27
 -31  -1   0    1.63    8.92
 -31  -1   0    5.62    7.49
 -32  31  -3   57.92   10.46
 -32  31  -3   60.71    9.11
 -31  -1   3   63.75    8.54
 -31  -1   3   44.64    9.79
 -32  31  -6   20.17    8.59
 -31  -1   6    5.52    7.76
 -31  -1   6   17.57    6.59
 -32  31  -9    3.15    2.78
  32 -30  -7    5.96    6.83
 -32  30   7   13.85    6.53
 -32  30   4 1059.02   51.10
  32 -30  -4 1034.67   51.32
 -30  -2  -4 1002.02   50.71
 -32  30   1  109.31   11.01
  32 -30  -1  118.61   11.07
 -30  -2  -1  111.54   11.35
 -30  -2  -1  129.21    9.89
 -32  30  -2  577.88   30.26
 -30  -2   2  573.58   30.01
 -32  30  -2  571.67   29.69
 -30  -2   2  554.12   29.07
 -32  30  -5  189.34   14.44
 -30  -2   5  198.57   12.44
 -30  -2   5  171.56   13.53
 -32  30  -5  197.06   13.15
 -30  -2   8  225.06   12.44
 -32  30  -8  223.61   13.14
  32 -29  -8   23.00    5.78
 -32  29   8   28.70    5.45
 -29  -3  -5    5.07    6.86
 -32  29   5    6.43    8.30
  32 -29  -5   20.00    8.72
 -29  -3  -2   55.86    9.61
  32 -29  -2   55.68    9.10
 -29  -3  -2   62.97    8.01
 -32  29   2   57.29    9.47
 -29  -3   1   55.47    7.64
 -32  29  -1   44.68    9.52
 -29  -3   1   37.84    9.64
 -32  29  -1   48.06    8.98
 -29  -3   4  203.00   13.07
 -32  29  -4  202.43   14.91
 -29  -3   4  222.75   14.69
 -32  29  -4  204.18   14.22
 -32  29  -7   -1.31    7.74
 -29  -3   7    0.46    7.12
  32 -28  -9   28.16    4.02
 -32  28   6   15.23    8.29
  32 -28  -6   16.84    7.94
 -28  -4  -3  377.98   21.35
  32 -28  -3  403.82   20.60
 -32  28   3  375.96   21.02
 -28  -4  -3  335.79   19.84
 -32  28   0   26.64    8.24
 -32  28   0    8.42    8.75
 -28  -4   0   13.22    8.77
 -32  28  -3   24.07    9.24
 -28  -4   3   26.14    8.95
 -28  -4   3   20.54    7.09
 -32  28  -6   10.66    8.13
 -28  -4   6   14.15    8.74
 -28  -4   6   16.27    6.37
 -28  -4   9   16.75    3.39
 -32  27   7   64.53    8.47
 -32  27   4   94.43   10.56
 -32  27   1   82.27    9.86
 -27  -5  -1   74.38   10.42
 -27  -5   2    4.63    8.95
 -32  27  -2   15.08    8.98
 -32  27  -5    4.60    8.92
 -27  -5   5   14.89    9.28
 -27  -5   8   89.34    8.10
 -32  26   8    7.81    6.35
 -32  26   5   22.75    9.26
 -32  26   2  251.06   16.25
 -26  -6  -2  265.80   16.85
 -32  26  -1  102.88   10.46
 -26  -6   1  106.73   10.87
 -32  26  -4   11.03    9.19
 -26  -6   4   22.22    9.77
 -26  -6   7   23.70    8.62
 -32  25   9   14.94    4.54
 -32  25   6  255.55   16.03
 -32  25   3  370.53   21.26
 -25  -7  -3  372.35   21.71
 -32  25   0  128.45   11.46
 -25  -7   0  126.80   11.68
 -32  25  -3   13.65    9.30
 -25  -7   3   28.22   10.20
 -32  25  -3   14.01    9.59
 -32  25  -6   71.97   10.14
 -32  25  -6   85.45   10.47
 -25  -7   6  100.77   10.98
 -32  25  -9   -2.71    4.98
 -25  -7   9    3.52    4.65
 -32  24   7   27.95    8.31
 -32  24   4    2.80    9.28
  32 -24  -4    4.99    8.78
  32 -24  -1    6.00    8.23
 -24  -8  -1   17.83    9.16
 -32  24   1   19.72    8.89
 -32  24  -2  159.65   12.89
 -24  -8   2  195.34   13.34
 -32  24  -2  178.39   13.43
 -32  24  -5    4.53    9.38
 -32  24  -5   12.95    9.74
 -24  -8   5   25.38    9.88
 -32  24  -8   -1.83    7.31
 -24  -8   8   14.03    6.87
 -32  23   8    2.89    7.01
  32 -23  -8   13.89    6.62
  32 -23  -5  669.19   34.78
 -32  23   5  680.23   34.88
  32 -23  -2  143.90   11.26
 -32  23   2  131.67   11.86
 -32  23  -1  139.45   11.82
 -32  23  -1  135.77   11.26
 -23  -9   1  123.39   11.43
 -32  23  -4   14.58    9.01
 -32  23  -4   28.28    9.77
 -23  -9   4   28.38   10.19
 -32  23  -7   26.68    8.68
 -32  23  -7    5.01    8.31
 -32  22   9   65.26    6.57
  32 -22  -9   75.33    6.22
 -32  22   6    6.33    9.02
  32 -22  -6    0.60    8.42
 -32  22   3  169.86   13.35
  32 -22  -3  182.35   12.38
 -32  22   0    3.64    8.86
  32 -22   0    6.78    7.79
 -32  22  -3  299.89   18.62
 -22 -10   3  326.92   18.84
 -32  22  -3  305.10   19.01
 -32  22  -6   60.88   10.24
 -32  22  -6   72.86   10.40
 -32  22  -9    5.32    5.32
 -22 -10   9   13.31    5.21
 -32  21   7   12.00    8.71
  32 -21  -7    1.07    7.92
  32 -21  -4  251.81   15.61
 -32  21   4  254.40   16.54
  32 -21  -1    4.29    7.58
 -21 -11  -1    9.03    8.41
 -32  21   1   13.85    8.94
 -32  21  -2   -7.91    8.79
 -32  21  -2    7.72    8.86
 -32  21  -5   41.04   10.08
 -32  21  -5   46.88   10.01
 -32  21  -8    4.90    7.37
 -32  20   8   40.36    8.13
  32 -20  -8   37.00    6.96
 -32  20   5  119.67   11.86
  32 -20  -5  115.68   10.82
 -20 -12  -2   71.81   10.12
  32 -20  -2   88.42    9.07
 -32  20   2   84.60   10.15
 -32  20  -1  271.92   16.23
 -20 -12   1  271.54   16.87
 -32  20  -1  270.04   16.77
 -32  20  -4   30.49    9.13
 -32  20  -4   40.15   10.00
 -32  20  -7   95.58   10.75
 -32  19   9    5.23    5.65
  32 -19  -9   10.77    4.83
  32 -19  -6  426.04   23.74
 -32  19   6  442.22   24.10
 -32  19   3   41.00    9.43
 -19 -13  -3   38.19    9.66
  32 -19  -3   43.74    8.49
 -32  19   0  392.36   21.00
  32 -19   0  336.17   20.29
 -19 -13   0  383.71   20.97
 -32  19  -3  322.40   18.73
 -19 -13   3  314.59   19.35
 -32  19  -3  330.69   19.40
 -32  19  -6   21.53    9.33
 -32  19  -6   19.97   10.23
 -32  19  -9   29.80    5.46
 -14  32  -7   17.38    5.98
  32 -18  -7   29.94    7.92
 -32  18   7   14.69    8.87
 -32  18   4  126.31   11.86
  32 -18  -4  122.43   10.84
 -32  18   1  186.32   13.76
 -18 -14  -1  191.42   13.39
  32 -18  -1  194.36   12.50
 -32  18  -2   93.07   10.22
 -18 -14   2  120.11   10.53
 -32  18  -2  109.38   11.14
 -32  18  -5  152.12   12.18
 -32  18  -5  110.12   12.72
 -32  18  -8   11.30    7.00
  32 -17  -8   14.21    6.69
 -15  32  -5   48.89    7.47
  32 -17  -5   47.34    9.02
 -17 -15  -2   10.20    8.63
  32 -17  -2   15.25    7.74
 -32  17  -1   58.50    8.51
 -17 -15   1   49.91    9.35
 -32  17  -4    3.13    8.77
 -32  17  -7   -2.24    8.20
  32 -16  -9   15.51    4.83
 -16  32  -6   25.54    7.42
  32 -16  -6   39.95    8.37
 -16 -16  -3  610.02   32.20
  32 -16  -3  631.07   31.74
 -16  32  -3  609.79   31.16
 -32  16   0   72.34    8.30
 -16 -16   0   67.81    9.43
 -32  16  -3   91.26    9.46
 -16 -16   3   82.25   10.31
 -32  16  -6   27.18    8.89
  16 -32  -6   21.07    6.23
 -16 -16   9  228.73   12.47
 -32  16  -9  199.49   11.63
  32 -15  -7  327.36   17.27
 -17  32  -7  277.05   16.72
 -17  32  -4   70.48    8.55
  32 -15  -4   85.26    9.19
  32 -15  -1   63.34    8.27
 -15 -17  -1   67.73    9.31
 -32  15  -2   -1.90    7.74
 -15 -17   2   23.21    8.68
  17 -32  -5  358.44   19.37
 -32  15  -5  371.67   20.66
 -32  15  -8    5.38    6.53
 -18  32  -8   12.81    5.72
 -32  14   8    5.06    7.42
  32 -14  -8   15.75    6.16
 -18  32  -5   -0.54    7.55
 -32  14   5    3.87    9.61
  32 -14  -5    7.28    7.83
 -18  32  -2   79.98    8.06
 -14 -18  -2   78.44   10.02
  32 -14  -2   75.61    8.30
 -32  14   2   92.15   10.25
 -32  14  -1   17.89    8.97
 -32  14  -1   14.71    7.01
 -18  32   1   19.77    6.36
 -14 -18   1   -2.99    8.42
 -32  14  -4   25.88    8.45
 -32  14  -4   26.98    9.51
  18 -32  -4   22.69    6.55
 -32  14  -7   13.01    8.93
 -32  14  -7   11.59    7.74
  18 -32  -7   13.61    5.97
 -32  13   9   14.68    5.79
  32 -13  -9   13.74    3.99
  32 -13  -6  212.16   13.78
 -32  13   6  225.00   15.13
 -19  32  -6  215.45   13.87
 -32  13   3   18.37    9.00
 -19  32  -3   -2.80    7.23
 -13 -19  -3    8.17    8.94
  32 -13  -3   10.18    6.82
 -32  13   0  369.48   20.91
 -19  32   0  367.83   19.49
 -32  13   0  355.70   19.79
 -13 -19   0  367.10   20.59
 -32  13  -3   19.78    7.53
  19 -32  -3   29.51    6.72
 -13 -19   3   39.06    9.10
 -32  13  -3   22.85    9.47
  19 -32  -6  742.20   36.27
 -32  13  -6  694.44   37.41
 -32  13  -6  726.16   36.81
 -13 -19   9   23.84    5.86
  32 -13   9   33.12    3.85
 -20  32  -7   12.68    7.43
  32 -12  -7   -1.81    6.75
 -32  12   7   -1.93    8.57
  32 -12  -4  333.62   18.48
 -32  12   4  315.05   19.68
 -20  32  -4  341.26   18.99
 -32  12   1  201.29   13.72
 -20  32  -1  197.94   12.44
  32 -12  -1  174.46   12.28
 -12 -20  -1  203.06   13.28
 -32  12  -2   14.57    7.06
  20 -32  -2   -1.83    6.43
 -12 -20   2   15.29    8.31
 -32  12  -2    6.07    8.80
 -32  12  -5   59.05    8.83
 -32  12  -5   53.27   10.29
  20 -32  -5   71.81    8.21
 -32  12  -8    7.34    5.96
  20 -32  -8   11.27    5.04
 -21  32  -8   20.74    6.49
 -32  11   8   22.74    7.07
  32 -11  -8   26.57    5.62
 -21  32  -5    7.05    8.48
 -32  11   5   16.14    9.04
  32 -11  -5   27.83    7.45
 -21  32  -2  237.31   14.82
 -32  11   2  258.62   15.98
 -11 -21  -2  244.06   15.25
 -32  11  -1   40.45    8.75
  21 -32  -1   20.63    6.85
 -32  11  -1   39.11    6.84
 -11 -21   1   25.29    8.42
 -32  11  -1   19.71    6.75
 -32  11  -4   -1.89    7.76
 -32  11  -4   -2.07    9.62
  21 -32  -4    8.74    7.03
 -32  11  -7   96.12    8.98
  21 -32  -7  108.11    8.54
 -32  11  -7   80.34   10.44
 -32  10   9   11.73    5.38
 -22  32  -6   56.20    9.33
 -32  10   6   84.08   10.00
  32 -10  -6   79.13    8.13
 -32  10   3   22.44    9.42
 -22  32  -3   28.14    8.11
 -10 -22  -3   27.17    8.41
  32 -10  -3   27.81    6.73
 -32  10   0   41.33    6.86
 -22  32   0   40.15    7.49
 -32  10   0   26.39    9.04
 -32  10   0   30.83    6.84
 -10 -22   0   15.39    8.01
 -32  10  -3   87.21    8.68
  22 -32  -3   99.84    8.89
 -10 -22   3   73.97   10.21
 -32  10  -3   84.32   10.76
 -32  10  -6   -6.37    7.11
 -32  10  -6    2.91    8.95
  22 -32  -6    8.20    7.37
  22 -32  -9   34.27    3.58
 -10 -22   9   31.43    5.52
 -23  32  -7   30.91    8.09
 -32   9   7   25.96    8.11
  32  -9  -7   17.15    5.99
  32  -9  -4  314.12   17.60
 -32   9   4  329.88   19.04
 -32   9   4  305.13   17.79
 -23  32  -4  339.71   18.88
 -23  32  -1  115.89    9.85
  -9 -23  -1  107.06    9.93
 -32   9   1  108.37    9.18
 -32   9   1  115.15   10.97
 -32   9  -2  107.56    9.05
 -32   9  -2  118.57   10.04
  23 -32  -2  123.41    9.64
  -9 -23   2  116.92   10.45
 -32   9  -2  113.74   11.41
 -32   9  -5   24.06    7.45
 -32   9  -5   32.12    9.39
  23 -32  -5   31.95    7.84
  23 -32  -8  187.43   11.07
 -32   8   8  246.28   13.86
 -24  32  -8  223.29   13.74
 -24  32  -5   57.85    9.41
 -32   8   5   61.47   10.18
  32  -8  -5   77.98    7.66
 -32   8   5   57.44    8.25
 -24  32  -2  264.55   15.32
 -32   8   2  238.75   15.71
  32  -8  -2  236.45   13.98
  -8 -24  -2  246.16   15.10
 -32   8   2  239.81   14.66
 -32   8  -1   -2.08    6.14
 -32   8  -1   12.10    8.84
  24 -32  -1    4.23    7.47
 -32   8  -1   -4.41    7.28
  -8 -24   1   11.19    7.75
  24 -32  -4  211.71   13.12
  -8 -24   4  187.61   14.05
 -32   8  -4  213.24   14.47
 -32   8  -4  193.72   12.62
 -32   8  -7   -6.60    5.85
  24 -32  -7    9.94    6.59
 -32   8  -7    1.34    8.10
 -25  32  -9   11.55    4.04
 -32   7   9   11.79    4.40
 -25  32  -6   12.88    8.53
 -32   7   6   -5.88    8.53
  32  -7  -6    4.57    5.88
 -32   7   6   22.22    7.16
 -25  32  -3   16.99    8.23
  32  -7  -3   12.66    5.99
 -32   7   3    9.24    7.46
 -32   7   3   19.78    9.08
 -25  32   0  392.02   20.60
 -32   7   0  362.62   20.22
  -7 -25   0  361.78   20.24
 -32   7   0  363.62   20.91
  25 -32  -3   21.58    7.62
 -32   7  -3   27.93    9.35
  -7 -25   3   29.70    8.63
  25 -32  -6  219.67   13.59
 -32   7  -6  195.30   14.26
  25 -32  -9    6.99    3.27
  -7 -25   9   13.25    4.10
 -26  32  -7   32.71    8.03
 -32   6   7   47.45    8.08
 -32   6   7   26.69    6.41
 -32   6   4  173.18   12.91
 -26  32  -4  158.60   12.87
 -32   6   4  167.81   12.08
 -26  32  -1  145.06   11.57
  -6 -26  -1  122.75   10.57
 -32   6   1  141.31   11.69
  26 -32  -2  152.02   11.09
 -32   6  -2  148.12   11.71
  -6 -26   2  126.72   10.93
 -32   6  -2  126.40   11.84
  26 -32  -5  273.82   16.04
 -32   6  -5  258.21   16.83
  26 -32  -8    8.38    5.39
  -6 -26   8   13.78    6.01
 -32   5   8   20.86    6.08
 -27  32  -8   16.64    6.46
 -27  32  -5    5.21    9.12
 -32   5   5   33.15    9.17
 -32   5   5   30.35    8.21
 -27  32  -5   27.30    7.10
  -5 -27  -2   14.45    7.11
 -32   5   2    7.76    7.89
 -32   5   2    4.90    8.46
 -27  32  -2   -2.15    8.84
 -32   5  -1  254.52   15.25
  -5 -27   1  226.39   14.61
  27 -32  -1  232.70   15.14
 -32   5  -1  262.24   15.45
 -32   5  -4   42.71    9.63
  27 -32  -4   57.06    8.67
  -5 -27   4   45.73    8.69
 -27  32   4   53.49    7.67
  27 -32  -7   86.35    8.23
  -5 -27   7   79.84    8.46
 -28  32  -9    2.92    3.44
 -28  32  -6  152.93   12.78
 -32   4   6  188.08   12.36
 -32   4   6  171.97   11.91
 -28  32  -3   56.22   10.27
 -28  32  -3   71.55    8.19
 -32   4   3   82.47    9.50
 -32   4   3   62.98    9.67
 -32   4   0  133.48   11.19
 -28  32   0  141.74   11.26
 -32   4   0  132.93   11.19
  -4 -28   0  116.77    9.89
  28 -32  -3   46.76    8.65
 -32   4  -3   39.10    9.18
  -4 -28   3   31.24    8.13
 -28  32   3   42.77    7.58
 -32   4  -6   72.17    9.41
  28 -32  -6   82.76    8.70
  -4 -28   6   65.74    8.61
 -28  32   6   75.63    8.01
  28 -32  -9  155.47    8.34
 -32   3   7   47.20    7.29
 -29  32  -7   48.02    8.47
 -32   3   7   54.94    7.15
 -29  32  -4  107.92   10.15
 -29  32  -4  138.32   11.86
 -32   3   4  118.38   10.95
 -32   3   4  129.89   11.10
 -29  32  -1   73.64    9.65
 -32   3   1   57.46    9.18
 -32   3   1   60.01    9.19
 -29  32  -1   61.62    8.17
 -29  32   2  144.65   10.63
 -32   3  -2  123.41   11.77
  29 -32  -2  163.01   11.69
  -3 -29   2  126.55   10.39
 -32   3  -2  138.40   11.71
 -32   3  -5   21.99    8.24
  29 -32  -5   37.60    8.57
  -3 -29   5   43.53    7.90
 -29  32   5   30.31    7.57
  29 -32  -8    5.46    5.33
  -3 -29   8    0.57    4.42
 -30  32  -8   -4.20    5.56
 -32   2   8    8.19    4.08
 -32   2   8    9.16    4.42
 -30  32  -5  194.07   15.08
 -32   2   5  238.80   14.08
 -32   2   5  225.23   14.22
 -30  32  -5  206.84   13.58
 -30  32  -2  109.32   11.14
 -30  32  -2  132.49   10.20
 -32   2   2  116.60   11.11
 -30  32   1  126.07   10.18
 -32   2  -1  122.83   11.37
  30 -32  -1  132.23   11.41
 -32   2  -1  130.73   11.03
 -32   2  -4  146.33   11.45
  30 -32  -4  146.03   11.73
  -2 -30   4  137.64   10.75
 -30  32   4  148.96   11.13
  30 -32  -7   52.21    7.15
  -2 -30   7   33.47    6.13
 -30  32   7   43.31    6.08
 -31  32  -6   15.55    8.52
 -32   1   6   28.48    7.65
 -32   1   6   13.96    7.10
 -31  32  -3  475.40   26.41
 -32   1   3  504.79   25.71
 -32   1   3  477.93   26.10
 -31  32  -3  477.46   25.61
 -31  32   0  176.41   13.32
 -32   1   0  198.91   13.73
 -31  32   0  184.76   12.61
 -32   1   0  192.88   12.83
 -32   1  -3   85.11    9.65
  31 -32  -3   88.37   10.00
 -31  32   3   81.32    9.32
  31 -32  -6  151.67   10.65
  -1 -31   6  117.27    9.33
 -31  32   6  137.67    9.96
 -32   0   7    3.93    6.32
 -32   0   7   13.50    5.36
 -32  32  -4   51.89   10.15
 -32  32  -4   59.37    8.50
 -32   0   4   58.83    9.54
 -32   0   4   52.62    8.32
 -32   0   1   31.39    7.96
 -32  32  -1   35.89    9.48
 -32   0   1   21.00    9.22
 -32  32  -1   17.91    8.11
  32 -32  -2  432.22   23.64
 -32   0  -2  438.88   23.87
 -32   0  -2  429.07   23.03
 -32  32   2  417.15   23.15
 -32   0  -5   58.11    7.98
  32 -32  -5   48.54    8.83
 -32  32   5   56.23    8.14
  32 -32  -8   10.58    4.71
  33 -32  -7   25.02    6.29
 -33  32   7   24.46    5.47
  33 -32  -4   16.36    8.38
 -33  32   4   20.51    8.11
 -33  32   1   71.58    9.11
 -33  32   1   61.87    9.59
 -32  -1  -1   61.82    9.85
 -32  -1  -1   60.41    8.57
 -33  32  -2   12.69    9.88
 -32  -1   2   27.22    7.60
 -32  -1   2   38.47    9.24
 -33  32  -2   38.07    8.65
 -33  32  -5    0.23    7.40
 -33  32  -5   13.19    8.76
 -32  -1   5   14.46    8.61
 -32  -1   5    4.39    6.85
 -33  32  -8    6.23    5.18
 -32  -1   8    4.00    3.61
  33 -31  -8    6.14    4.93
 -33  31   8    8.06    3.48
 -33  31   5   46.82    8.35
 -31  -2  -5   30.75    7.26
 -31  -2  -2   -5.82    9.54
 -33  31   2    8.81    8.66
  33 -31  -2    6.74    8.87
 -31  -2  -2   11.38    7.32
 -31  -2   1    9.45    7.03
 -33  31  -1   -3.96    9.38
 -31  -2   1   15.46    9.15
 -33  31  -1    1.69    8.46
 -31  -2   4  230.30   13.94
 -31  -2   4  241.45   15.41
 -33  31  -4  224.83   14.70
 -33  31  -4  218.79   15.89
 -33  31  -7   17.16    7.37
 -31  -2   7   10.17    6.55
  33 -30  -9    1.70    2.63
  33 -30  -6   48.10    8.16
 -33  30   6   41.57    7.89
 -30  -3  -3    7.95    7.00
 -30  -3  -3   19.40   10.08
  33 -30  -3    7.87    8.69
 -33  30   3   15.74    8.83
 -33  30   0   56.27    9.43
 -33  30   0   52.99    9.66
 -30  -3   0   46.44    9.81
 -33  30  -3   21.38    9.63
 -33  30  -3   18.55    9.01
 -30  -3   3   19.70    7.21
 -30  -3   3   23.52    9.30
 -33  30  -6   55.38    9.62
 -30  -3   6   65.25    8.87
 -33  30  -6   60.64    8.35
 -33  30  -9   10.47    2.87
  33 -29  -7    9.95    6.93
 -33  29   7   12.78    6.81
 -29  -4  -4    6.19    6.81
  33 -29  -4    4.01    8.66
 -33  29   4   13.93    8.86
 -33  29   1   83.91    9.84
  33 -29  -1   82.95   10.30
 -29  -4  -1   90.98   10.68
 -33  29  -2   77.99   10.74
 -29  -4   2   71.25   10.09
 -33  29  -2   85.71   10.15
 -33  29  -5   28.46    8.83
 -29  -4   5   35.90    9.48
 -29  -4   8   36.27    5.92
 -33  28   8  120.04    8.32
  33 -28  -8  117.37    8.34
 -33  28   5  780.07   40.09
  33 -28  -5  807.62   40.24
  33 -28  -2  427.15   23.95
 -28  -5  -2  447.54   24.69
 -28  -5   1  401.90   22.78
 -33  28  -1  407.39   22.61
 -33  28  -4   56.12    9.76
 -28  -5   4   68.08   10.36
 -28  -5   7  198.48   12.83
 -33  27   6   83.11    9.65
 -27  -6  -3   47.43   10.49
 -33  27   3   34.03    9.39
 -33  27   0   16.32    8.83
 -27  -6   0   15.88    9.57
 -33  27  -3   33.74    9.51
 -27  -6   3   30.11    9.35
 -33  27  -6   -1.38    8.33
 -27  -6   6   15.85    8.72
 -33  27  -9   77.14    5.85
 -27  -6   9   82.66    5.46
 -33  26   7   65.59    8.55
 -33  26   4    6.42    8.83
 -33  26   1   31.69    9.35
 -26  -7  -1   10.58    8.69
 -26  -7   2    4.73    8.81
 -33  26  -2   -5.13    8.98
 -33  26  -5    5.15    9.72
 -33  26  -5   12.00    9.33
 -26  -7   5   17.07    9.74
 -33  26  -8  -10.83    6.56
 -26  -7   8   14.08    6.43
 -33  25   8   14.69    6.61
 -33  25   5  691.06   35.59
 -25  -8  -2  168.96   12.61
 -33  25   2  110.74   11.91
 -33  25  -1   11.01    9.02
 -33  25  -1   19.54    8.84
 -25  -8   1   15.48    9.19
 -33  25  -4   58.39   10.27
 -33  25  -4   51.10   10.18
 -25  -8   4   31.11    9.57
 -33  25  -7   25.31    8.48
 -25  -8   7   23.21    8.51
 -33  25  -7   29.32    8.07
  33 -24  -9    6.22    4.29
 -33  24   9   13.53    4.41
  33 -24  -6   11.56    8.39
 -33  24   3  213.86   15.15
  33 -24  -3  224.03   14.08
 -33  24   0  272.46   16.45
 -24  -9   0  251.29   16.39
 -33  24   0  261.68   16.62
 -33  24  -3  109.32   11.28
 -24  -9   3  121.34   11.68
 -33  24  -3  110.14   11.86
 -33  24  -6   79.86   10.39
 -33  24  -6   85.76   10.66
 -24  -9   6   93.68   10.84
 -33  24  -9    9.86    4.49
 -24  -9   9   26.01    4.80
 -33  23   7   85.49    9.62
  33 -23  -7   98.75    9.42
 -33  23   4   95.78   11.06
  33 -23  -4  124.87   10.64
 -33  23   1  297.29   17.41
  33 -23  -1  266.89   17.04
 -33  23  -2   23.28    9.19
 -33  23  -2   53.46    9.77
 -33  23  -5   87.92   11.03
 -33  23  -5   85.30   11.29
 -23 -10   5   96.92   11.48
 -33  23  -8   26.41    7.29
 -23 -10   8   22.38    7.25
 -33  22   8   29.63    7.06
  33 -22  -8   26.09    6.42
 -33  22   5    9.49    9.08
  33 -22  -5   12.27    8.98
 -22 -11  -2    1.37    9.22
  33 -22  -2    6.53    7.72
 -33  22   2   16.36    9.25
 -33  22  -1    2.88    8.90
 -33  22  -1   -1.81    8.07
 -33  22  -4    0.34    9.44
 -33  22  -4   17.04    9.22
 -33  22  -7    3.91    7.96
 -33  22  -7    1.65    8.45
 -33  21   9   66.04    6.48
  33 -21  -9   74.51    5.96
 -33  21   6   12.66    9.06
  33 -21  -6   25.83    8.50
 -33  21   3  746.93   38.41
 -21 -12  -3  734.30   38.42
  33 -21  -3  766.50   37.94
 -33  21   0   91.18   10.28
 -21 -12   0   97.94   10.35
 -33  21   0   79.60    9.90
 -33  21  -3  344.79   20.22
 -33  21  -3  361.75   20.77
 -33  21  -6   82.13   10.39
 -33  21  -6   69.19   10.53
 -33  21  -9   53.25    5.58
 -21 -12   9   62.72    6.28
 -33  20   7   25.73    8.62
  33 -20  -7   12.42    7.59
 -33  20   4  101.77   11.05
  33 -20  -4  102.86   10.32
  33 -20  -1  168.12   12.23
 -20 -13  -1  183.91   13.45
 -33  20   1  179.69   13.43
 -33  20  -2   14.92    8.04
 -20 -13   2   22.15    9.50
 -33  20  -2   19.89    9.34
 -33  20  -5  176.27   13.86
 -33  20  -5  179.48   13.96
 -33  20  -8    8.33    7.01
 -33  19   8   20.51    7.36
  33 -19  -8   23.00    6.35
 -33  19   5   21.96    9.46
  33 -19  -5   42.47    8.21
 -19 -14  -2    8.33    8.88
  33 -19  -2   16.42    7.88
 -33  19   2    4.11    9.06
 -33  19  -1   -5.44    7.42
 -33  19  -1   -0.32    8.81
 -19 -14   1    0.97    9.03
 -33  19  -4   13.23    9.17
 -33  19  -4   19.13   10.06
 -19 -14   4   -8.95    9.74
 -33  19  -7    4.63    8.73
 -33  19  -7    4.64    7.84
  33 -18  -9   13.50    4.20
  33 -18  -6  173.51   12.29
 -18 -15  -3   57.09    9.71
  33 -18  -3   74.67    8.85
 -33  18   0  571.35   29.47
 -18 -15   0  565.90   29.94
 -33  18   0  562.92   29.87
 -33  18  -3    3.96    8.37
 -18 -15   3   15.74    9.09
 -33  18  -3    2.07    9.36
 -33  18  -6  147.40   11.41
 -33  18  -6   93.72   11.76
 -33  18  -9   72.42    5.83
 -16  33  -7   23.85    6.16
  33 -17  -7   21.04    7.37
 -16  33  -4   17.36    6.91
  33 -17  -4   23.86    8.32
  33 -17  -1   40.65    7.89
 -17 -16  -1   53.70    9.50
 -33  17  -2   22.43    8.15
 -17 -16   2   27.14    8.93
 -33  17  -5  105.06   11.12
 -33  17  -8   15.00    6.49
 -17  33  -8   14.51    4.80
  33 -16  -8   13.68    5.97
 -17  33  -5   25.72    7.56
  33 -16  -5   26.78    8.49
  33 -16  -2  299.06   17.79
 -16 -17  -2  329.08   18.66
 -33  16  -1   14.34    7.47
 -16 -17   1    0.94    8.42
 -33  16  -4    8.26    8.32
 -33  16  -7   22.51    8.05
 -33  15   9   13.19    5.40
  33 -15  -9    9.39    3.84
 -18  33  -6   43.08    7.90
 -33  15   6   60.30    9.81
  33 -15  -6   62.71    8.36
 -33  15   3   13.13    9.47
 -18  33  -3    3.13    6.88
 -15 -18  -3   -0.66    9.08
  33 -15  -3    1.61    7.47
 -33  15   0   65.54    8.09
 -15 -18   0   58.11    9.22
 -33  15  -3   67.43    8.93
  18 -33  -3   83.15    7.50
 -15 -18   3   50.97    9.89
 -33  15  -3   55.82   10.29
 -33  15  -6   65.24    9.28
 -33  15  -6   62.57   10.62
  18 -33  -6   87.98    7.52
 -15 -18   9   28.27    5.60
 -19  33  -7   11.48    6.75
 -33  14   7    1.62    8.32
  33 -14  -7   17.76    6.62
  33 -14  -4  406.72   21.55
 -33  14   4  427.15   22.52
 -19  33  -4  365.47   21.52
 -19  33  -1   30.88    7.04
  33 -14  -1   51.66    7.66
 -14 -19  -1   53.42    9.16
 -33  14   1   45.34    9.38
 -33  14  -2  325.28   17.91
  19 -33  -2  303.24   17.07
 -14 -19   2  307.93   18.70
 -33  14  -2  325.09   18.99
 -33  14  -5   44.55    8.58
 -33  14  -5   53.90   10.29
  19 -33  -5   65.58    7.60
 -33  14  -8   85.67    7.54
  19 -33  -8   81.25    6.16
  33 -13  -8  149.51    9.37
 -33  13   8  145.81   10.49
 -20  33  -8  134.99    9.30
 -20  33  -5    2.73    7.70
 -33  13   5    2.56    9.73
  33 -13  -5   -8.94    7.47
 -20  33  -2  424.14   22.00
 -33  13   2  405.58   23.18
  33 -13  -2  388.61   22.01
 -13 -20  -2  438.38   22.95
 -33  13  -1   30.87    9.03
 -33  13  -1   38.06    7.63
 -20  33   1   39.55    7.10
 -13 -20   1   36.94    9.01
  20 -33  -4  460.54   24.02
 -13 -20   4  475.95   25.47
 -33  13  -4  446.14   25.67
 -33  13  -4  461.19   24.74
 -33  13  -7    2.28    8.54
 -33  13  -7    9.94    6.91
  20 -33  -7   12.90    5.76
 -33  12   9    1.76    5.04
 -21  33  -6   22.45    8.14
 -33  12   6   11.10    9.23
  33 -12  -6   16.54    7.19
 -33  12   3  433.35   23.35
  33 -12  -3  406.91   22.08
 -12 -21  -3  421.90   23.05
 -21  33  -3  406.05   22.40
 -21  33   0  118.21    9.50
 -33  12   0  115.65    9.44
 -33  12   0  111.01   11.22
 -12 -21   0  111.29   10.65
 -33  12  -3   60.00    8.39
  21 -33  -3   52.92    7.52
 -12 -21   3   53.00    9.50
 -33  12  -3   51.70   10.30
 -33  12  -6   33.00    7.91
 -33  12  -6   36.47    9.83
  21 -33  -6   47.18    7.33
 -12 -21   9    4.68    4.77
 -22  33  -7   52.99    7.93
 -33  11   7   41.58    8.67
  33 -11  -7   43.45    6.73
 -22  33  -4   19.23    8.40
 -33  11   4   25.46    9.13
  33 -11  -4   21.79    7.25
 -22  33  -1  359.51   19.76
 -33  11   1  351.79   20.60
 -11 -22  -1  365.56   20.29
 -33  11  -2   37.21    7.25
  22 -33  -2   25.84    6.90
 -11 -22   2   34.93    8.84
 -33  11  -2   19.24    9.39
 -33  11  -5   89.47    9.39
 -33  11  -5  101.11   11.36
  22 -33  -5  109.30    9.33
  22 -33  -8  104.21    7.29
 -11 -22   8  108.44    8.83
 -33  11  -8  104.09    7.24
 -23  33  -8   12.13    6.12
 -33  10   8    8.38    6.76
  33 -10  -8   11.85    4.57
 -23  33  -5   62.85    9.56
 -33  10   5   88.57   10.45
  33 -10  -5   67.07    8.06
 -23  33  -2   28.95    7.90
 -10 -23  -2   21.98    8.45
  33 -10  -2   32.71    6.93
 -33  10   2   24.75    9.22
 -33  10  -1   15.72    9.08
 -33  10  -1   15.24    6.58
 -23  33   1    5.53    7.14
  23 -33  -1    2.81    7.04
 -33  10  -1    7.03    6.92
 -10 -23   1   13.01    8.22
 -33  10  -4   -1.01    7.31
 -33  10  -4    3.06    9.03
  23 -33  -4    1.03    7.09
 -10 -23   4    6.88    8.94
 -33  10  -7   23.76    6.07
  23 -33  -7   21.26    6.39
 -33  10  -7   23.47    8.57
 -33   9   9   -3.23    4.18
 -24  33  -6  124.87   11.44
 -33   9   6  153.57   11.86
  33  -9  -6  146.22    9.93
 -24  33  -3    7.64    8.59
  -9 -24  -3   -3.44    8.18
  33  -9  -3    8.08    6.35
 -33   9   3    2.36    6.97
 -33   9   3    7.13    9.31
 -33   9   0   42.12    6.95
 -33   9   0   29.74    9.31
 -24  33   0   35.24    7.79
 -33   9   0   37.43    7.44
  -9 -24   0   48.67    8.30
 -33   9  -3   50.82    7.53
  24 -33  -3   39.27    8.10
  -9 -24   3   59.26    9.18
 -33   9  -3   53.70    9.81
 -33   9  -6   56.20    7.45
 -33   9  -6   55.15    9.78
  24 -33  -6   71.80    8.08
  -9 -24   9   23.86    4.34
 -25  33  -7   -9.91    7.44
 -33   8   7   -5.42    7.55
  33  -8  -7    2.65    4.92
 -33   8   4   36.17    9.39
 -25  33  -4   27.43    8.65
  33  -8  -4   19.38    6.37
 -33   8   4   14.51    7.48
 -25  33  -1   30.90    8.27
  -8 -25  -1   31.69    7.96
 -33   8   1   29.92    7.38
 -33   8   1   13.31    8.91
 -33   8  -2   14.22    7.93
  25 -33  -2   22.58    7.71
  -8 -25   2   15.33    8.32
 -33   8  -2    5.74    9.15
 -33   8  -5   24.08    6.75
 -33   8  -5   15.70    9.60
  25 -33  -5   34.84    7.85
  -8 -25   5   20.62    8.80
  25 -33  -8   68.76    6.12
  -8 -25   8   44.18    6.98
 -33   7   8   10.96    5.98
 -26  33  -8   -7.70    6.11
  33  -7  -5  391.13   19.76
 -33   7   5  378.36   21.11
 -33   7   5  343.84   20.32
 -26  33  -5  392.59   21.46
 -26  33  -2   60.47    9.11
  -7 -26  -2   82.04    8.71
 -33   7   2   48.85    8.61
 -33   7   2   72.38    9.90
 -33   7  -1  177.67   13.26
  26 -33  -1  177.38   12.40
 -33   7  -1  196.16   12.55
  -7 -26   1  166.03   12.42
 -33   7  -4   29.69    9.42
  26 -33  -4   16.29    7.90
  -7 -26   4   25.41    8.43
  26 -33  -7  124.20    8.88
  -7 -26   7   92.22    9.42
 -27  33  -6  126.82   11.55
 -33   6   6  145.84   11.25
 -33   6   6  138.73   10.09
 -27  33  -3  584.86   30.69
 -33   6   3  602.66   30.76
 -33   6   3  574.07   30.29
 -27  33   0  202.50   13.86
 -33   6   0  212.71   13.75
  -6 -27   0  210.78   13.39
 -33   6   0  202.26   14.17
  27 -33  -3  104.73   10.09
 -33   6  -3  113.79   11.28
  -6 -27   3  100.83    9.99
 -33   6  -6  140.15   11.47
  27 -33  -6  142.93   10.77
  -6 -27   6  137.11   11.04
 -33   5   7   -0.40    6.84
 -28  33  -7    2.86    7.37
 -33   5   7    6.36    5.66
 -28  33  -4    7.12    9.31
 -33   5   4    0.80    8.12
 -33   5   4   10.62    8.75
 -28  33  -1   30.96    8.70
 -33   5   1   29.46    8.74
  -5 -28  -1   42.60    7.52
 -33   5   1   49.97    8.50
 -33   5  -2   24.01    8.66
  28 -33  -2   15.57    8.12
  -5 -28   2   38.81    7.90
 -33   5  -2   21.26    9.00
 -33   5  -5   12.21    8.81
  28 -33  -5   22.34    8.19
  -5 -28   5    8.80    7.85
  28 -33  -8   36.43    5.44
  -5 -28   8   29.75    5.13
 -29  33  -8   -6.92    5.54
 -33   4   8    5.47    4.75
 -33   4   5  200.42   13.69
 -33   4   5  221.59   13.62
 -29  33  -5  205.62   12.73
 -29  33  -5  211.15   14.67
 -29  33  -2   40.28    9.85
 -33   4   2   38.03    8.76
 -33   4   2   54.69    9.11
 -29  33   1  199.37   13.50
 -33   4  -1  188.70   13.17
  -4 -29   1  184.67   12.12
  29 -33  -1  169.17   13.27
 -33   4  -1  184.85   13.36
 -33   4  -4    7.95    8.54
  29 -33  -4   10.09    8.47
  -4 -29   4   14.67    7.69
 -29  33   4   13.18    7.12
  29 -33  -7   21.24    6.39
  -4 -29   7   12.65    6.11
 -30  33  -6    7.57    8.33
 -33   3   6    3.06    7.05
 -33   3   6   14.01    7.33
 -30  33  -3   58.99   10.22
 -30  33  -3   48.30    7.81
 -33   3   3   34.26    8.82
 -33   3   3   49.16    9.10
 -33   3   0   18.50    8.20
 -30  33   0   18.72    8.39
 -33   3   0    2.42    8.37
 -30  33   0   -1.38    7.05
 -33   3  -3   14.46    8.44
  30 -33  -3   21.91    8.54
 -30  33   3   12.91    7.41
  -3 -30   3    8.52    7.31
  30 -33  -6   45.43    7.78
  -3 -30   6   28.44    6.83
 -30  33   6   31.58    6.52
 -33   3  -6   22.83    7.51
 -31  33  -7   21.18    7.39
 -33   2   7   38.11    6.09
 -33   2   7   37.51    6.12
 -31  33  -4  136.37   10.45
 -31  33  -4  140.46   12.40
 -33   2   4  113.18   11.45
 -33   2   4  141.66   11.07
 -33   2   1   77.12    9.18
 -31  33  -1   80.52   10.36
 -33   2   1   63.20    9.58
 -31  33  -1   75.79    8.81
 -31  33   2  148.08   11.02
 -33   2  -2  146.17   12.35
  31 -33  -2  134.77   11.56
 -33   2  -2  153.83   11.84
 -33   2  -5  100.51    9.71
  31 -33  -5   97.79    9.73
  -2 -31   5   96.45    8.62
 -31  33   5   91.05    8.78
  31 -33  -8   41.48    5.04
 -32  33  -8   10.34    5.11
 -32  33  -5    8.12    6.96
 -33   1   5   11.12    8.11
 -33   1   5   23.70    7.36
 -32  33  -2   16.77    9.24
 -33   1   2   20.58    8.08
 -32  33  -2   34.28    7.98
 -33   1   2   17.87    8.90
 -32  33   1   65.13    8.57
 -32  33   1   78.37    9.99
 -33   1  -1   72.89   10.18
 -33   1  -1   55.97    8.84
 -33   1  -4    8.79    7.73
  32 -33  -4   32.18    8.62
 -32  33   4   19.61    7.50
  32 -33  -7   29.39    6.13
 -33  33  -6   20.44    8.09
 -33   0   6   16.28    7.00
 -33   0   6   19.12    6.11
 -33   0   3  193.04   12.71
 -33  33  -3  205.41   14.04
 -33   0   3  187.83   13.51
 -33  33  -3  174.23   12.71
 -33  33   0   59.96   10.00
 -33   0   0   54.54    9.43
 -33   0   0   41.05    8.26
 -33  33   0   43.26    8.51
 -33   0  -3   50.12    8.32
 -33  33   3   53.05    8.63
  33 -33  -3   59.67    9.28
  33 -33  -6    5.99    7.00
 -33  33   6   10.53    6.12
  34 -33  -8    1.88    3.59
 -34  33   5  572.20   28.79
  34 -33  -5  604.49   29.32
 -33  -1  -5  534.16   28.41
  34 -33  -2  306.01   18.42
 -33  -1  -2  338.11   19.10
 -33  -1  -2  298.33   17.62
 -34  33   2  328.97   18.17
 -34  33  -1  182.74   13.39
 -33  -1   1  173.32   13.18
 -34  33  -1  173.33   12.67
 -33  -1   1  178.99   11.94
 -33  -1   4  189.32   12.10
 -33  -1   4  193.52   13.53
 -34  33  -4  186.17   12.66
 -34  33  -4  194.89   14.20
 -33  -1   7  193.33   11.18
 -34  33  -7  188.71   11.98
  34 -32  -6   29.29    7.58
 -34  32   6   30.88    6.83
 -34  32   3  183.99   12.89
  34 -32  -3  175.11   13.01
 -32  -2  -3  180.50   11.87
 -34  32   0   11.36    9.28
 -32  -2   0   10.60    9.01
 -32  -2   0    8.14    6.98
 -34  32   0   -0.27    8.49
 -34  32  -3   16.63    9.50
 -32  -2   3   16.54    7.12
 -34  32  -3   20.57    8.40
 -32  -2   3   19.53    9.11
 -34  32  -6   14.03    7.93
 -32  -2   6    4.77    7.33
  34 -31  -7   16.72    6.17
 -34  31   7   18.00    5.64
  34 -31  -4   37.56    9.15
 -31  -3  -4   31.07    6.99
 -34  31   4   41.99    8.52
 -34  31   1   82.16    9.68
 -34  31   1   79.27   10.57
 -31  -3  -1   84.79   10.73
 -34  31  -2   14.16    9.57
 -31  -3   2    3.64    9.29
 -34  31  -2    5.79    8.69
 -31  -3   5  255.31   15.58
 -34  31  -5  251.70   15.03
 -34  31  -5  221.73   15.78
 -34  31  -8   40.19    5.70
 -31  -3   8   31.99    4.51
  34 -30  -8   14.20    4.76
 -34  30   8    6.50    4.03
  34 -30  -5   87.80   10.01
 -34  30   5   88.63    9.91
 -30  -4  -2   51.04   10.32
  34 -30  -2   28.52    9.39
 -34  30   2   47.23    9.00
 -34  30  -1   31.64   10.07
 -30  -4   1   11.15    9.66
 -34  30  -1    1.49    8.64
 -30  -4   4  343.59   20.47
 -34  30  -4  370.14   20.34
 -34  30  -4  350.93   20.61
 -30  -4   7   86.07    8.31
  34 -29  -6   64.42    8.54
 -34  29   6   46.80    8.43
 -29  -5  -3    5.71    9.74
  34 -29  -3   13.61    8.71
 -34  29   3   23.19    8.94
 -34  29   0   55.12    9.53
 -29  -5   0   50.94    9.95
 -34  29  -3   73.19    9.92
 -29  -5   3   52.19   10.44
 -34  29  -6   21.97    7.75
 -29  -5   6   14.44    8.11
 -34  28   7  182.91   11.81
 -34  28   4   27.05    9.56
 -28  -6  -1  237.75   15.45
 -34  28   1  208.85   14.87
 -28  -6   2   45.77   10.43
 -34  28  -2   51.81    9.72
 -34  28  -5  120.05   11.33
 -28  -6   5  138.97   11.98
 -28  -6   8   -0.63    5.36
 -34  27   8    8.22    5.49
 -34  27   5    6.86    8.94
 -27  -7  -2   21.70    9.90
 -34  27   2    1.85    9.28
 -27  -7   1   -0.34    9.34
 -34  27  -1    2.84    9.05
 -34  27  -4   14.10    9.49
 -27  -7   4   15.11    9.55
 -34  27  -7   29.28    8.13
 -27  -7   7   47.52    7.98
 -34  26   6  150.33   11.79
 -34  26   3  427.56   22.93
 -26  -8  -3  382.90   23.02
 -34  26   0  101.47   10.91
 -34  26   0  107.33   11.17
 -26  -8   0   96.00   11.13
 -34  26  -3   40.60    9.86
 -34  26  -3   42.13   10.03
 -26  -8   3   29.92   10.42
 -34  26  -6   10.37    8.90
 -34  26  -6   25.31    8.94
 -26  -8   6   35.68    9.09
 -34  26  -9   28.95    3.98
 -26  -8   9   27.46    3.75
 -34  25   7  234.01   14.54
  34 -25  -7  247.34   14.53
 -34  25   4   32.84    9.37
  34 -25  -4   28.79    9.44
  34 -25  -1  175.45   12.86
 -34  25   1  158.80   13.19
 -34  25  -2   58.69    9.90
 -25  -9   2   62.59   10.38
 -34  25  -2   77.77   10.65
 -34  25  -5   38.39   10.17
 -34  25  -5   51.10   10.18
 -25  -9   5   50.19    9.93
 -34  25  -8    4.82    6.13
 -25  -9   8   10.35    6.47
 -34  24   8   17.73    6.49
  34 -24  -8   30.80    5.93
 -34  24   5  111.20   11.45
  34 -24  -5  132.90   10.92
  34 -24  -2   58.68    9.29
 -34  24   2   43.28    9.97
 -34  24  -1   82.03   10.59
 -34  24  -1   75.54   10.24
 -34  24  -4   57.32   10.25
 -34  24  -4   73.67   10.42
 -24 -10   4   49.33   10.25
 -34  24  -7    5.78    7.79
 -24 -10   7   15.11    8.11
 -34  24  -7    6.99    7.97
  34 -23  -9   12.46    3.96
 -34  23   9   15.93    4.16
 -34  23   6  148.79   12.04
  34 -23  -6  148.06   11.67
 -23 -11  -3   61.87   10.47
  34 -23  -3   70.44    9.39
 -34  23   3   67.61   10.48
 -34  23   0  390.86   21.23
 -34  23   0  363.19   21.71
 -34  23  -3   68.24    9.47
 -34  23  -3   48.49   10.20
 -34  23  -6  142.89   12.68
 -34  23  -6  143.28   12.24
 -34  23  -9   11.54    4.16
 -23 -11   9    4.02    4.42
 -34  22   7   16.98    8.05
  34 -22  -7   16.74    7.25
 -34  22   4   18.12    9.52
  34 -22  -4    6.09    7.76
 -34  22   1  387.61   22.37
  34 -22  -1  377.75   21.78
 -22 -12  -1  432.49   22.73
 -34  22  -2   23.19    9.02
 -34  22  -2   11.81    9.32
 -34  22  -5  158.77   13.14
 -34  22  -5  172.33   13.45
 -34  22  -8    8.28    6.36
 -22 -12   8    2.28    6.91
 -34  21   8   11.76    6.61
  34 -21  -8   17.24    5.94
 -34  21   5    3.49    9.41
  34 -21  -5    2.97    7.98
 -21 -13  -2   15.55    9.21
  34 -21  -2   10.15    8.38
 -34  21   2   24.25    9.24
 -34  21  -1   13.19    9.36
 -34  21  -1   24.19    8.77
 -21 -13   1   -5.05    8.95
 -34  21  -4   12.52    9.02
 -34  21  -4   14.80    9.93
 -34  21  -7   38.25    8.49
 -34  21  -7   31.78    8.74
  34 -20  -9   53.05    4.77
 -34  20   9   56.49    5.78
 -34  20   6  -12.53    9.34
  34 -20  -6    9.94    8.00
 -20 -14  -3   16.20    9.64
  34 -20  -3   10.62    8.06
 -34  20   0   16.80    8.10
 -34  20   0    1.62    9.30
 -20 -14   0    4.00    9.36
 -34  20  -3  249.89   16.14
 -20 -14   3  246.40   16.59
 -34  20  -3  259.11   16.58
 -34  20  -6   -4.48    9.59
 -34  20  -6    1.20    8.68
 -34  20  -9    3.77    3.85
 -34  19   7    1.56    8.28
  34 -19  -7   -8.70    7.12
  34 -19  -4  176.15   13.00
 -34  19   4  199.32   14.38
  34 -19  -1   79.64    9.54
 -19 -15  -1   86.88   10.61
 -34  19   1   98.77   10.84
 -34  19  -2  186.60   13.92
 -19 -15   2  212.45   14.36
 -34  19  -2  201.25   14.38
 -34  19  -5    2.25    9.14
 -34  19  -5   10.78    9.65
 -19 -15   5   -4.09   10.01
 -34  19  -8   77.66    7.69
  34 -18  -8  122.81    8.90
  34 -18  -5   61.31    9.00
  34 -18  -2  411.10   22.28
 -18 -16  -2  417.19   23.19
 -34  18  -1    1.43    7.85
 -18 -16   1  -11.48    9.02
 -18 -16   4  613.34   31.67
 -34  18  -4  582.61   31.15
 -34  18  -7   18.50    7.92
  34 -17  -9    2.71    3.42
 -17  34  -6    7.32    6.43
  34 -17  -6   15.57    7.66
 -17 -17  -3  139.21   11.89
  34 -17  -3  138.26   10.97
 -34  17   0  221.22   13.84
 -17 -17   0  204.97   14.72
 -34  17  -3   70.84    9.26
 -17 -17   3   66.33   10.55
 -34  17  -6   13.97    8.37
 -34  17  -9    8.44    3.30
 -17 -17   9    7.59    4.85
 -18  34  -7  129.59    9.61
  34 -16  -7  169.28   10.59
 -18  34  -4  140.70   10.47
  34 -16  -4  139.93   11.06
  34 -16  -1   14.57    7.66
 -16 -18  -1   22.41    8.93
 -34  16  -2  164.33   12.25
 -16 -18   2  169.76   13.04
  18 -34  -5  239.29   13.54
 -34  16  -5  231.13   15.27
 -34  16  -8   22.36    6.08
 -16 -18   8   36.49    7.21
 -19  34  -8    6.59    4.37
 -34  15   8    6.06    6.68
  34 -15  -8    7.52    4.97
 -19  34  -5    1.74    7.32
 -34  15   5    4.49    9.46
  34 -15  -5   11.52    7.90
 -19  34  -2   24.75    6.78
 -15 -19  -2    0.32    8.94
  34 -15  -2   19.01    7.38
 -34  15   2   15.20    9.13
 -34  15  -1   32.56    9.18
 -34  15  -1    6.18    7.39
 -15 -19   1   17.78    8.92
 -34  15  -4   36.87   10.37
  19 -34  -4   55.65    6.95
 -15 -19   4   47.59    9.98
 -34  15  -4   45.70    8.70
 -34  15  -7   53.74    7.88
  19 -34  -7   54.03    5.92
 -34  15  -7   47.92    9.03
 -34  14   9    3.78    4.73
 -20  34  -6   22.69    7.49
 -34  14   6   24.98    9.53
  34 -14  -6   39.19    7.31
 -34  14   3   30.84   10.03
 -20  34  -3   22.37    7.39
 -14 -20  -3   27.23    8.94
  34 -14  -3   18.89    7.33
 -20  34   0   51.26    7.40
 -34  14   0   68.92    8.20
 -14 -20   0   52.27    9.43
 -34  14  -3  122.78   10.34
  20 -34  -3  117.71    9.10
 -14 -20   3  102.50   10.92
 -34  14  -3  101.55   11.80
 -34  14  -6  122.70   10.82
 -34  14  -6  149.56   12.57
  20 -34  -6  153.37    9.90
 -14 -20   9    3.97    4.57
 -21  34  -7    9.35    6.63
 -34  13   7   23.82    8.44
  34 -13  -7   20.03    6.37
 -34  13   4   50.83    9.66
 -21  34  -4   38.22    8.32
  34 -13  -4   42.03    7.87
 -21  34  -1  150.92   11.14
  34 -13  -1  162.07   11.39
 -13 -21  -1  162.92   12.33
 -34  13   1  161.48   12.69
 -34  13  -2   15.10    7.63
  21 -34  -2    9.13    6.49
 -13 -21   2    1.26    8.56
 -34  13  -2    0.34    9.45
 -34  13  -5   10.50    7.69
 -34  13  -5   10.57    9.91
  21 -34  -5    5.18    6.46
 -13 -21   5   -2.58    9.14
  21 -34  -8   90.88    6.33
 -13 -21   8  109.25    8.54
 -34  13  -8   97.38    7.00
 -22  34  -8   38.82    5.59
 -34  12   8   49.90    7.24
  34 -12  -8   44.11    5.12
 -22  34  -5   82.47    9.52
 -34  12   5   93.54   10.64
  34 -12  -5   78.87    8.44
 -22  34  -2   22.37    7.59
 -12 -22  -2   18.00    8.73
  34 -12  -2   16.39    7.10
 -34  12   2   14.05    9.16
 -34  12  -1  481.52   24.59
 -22  34   1  458.93   24.44
 -12 -22   1  471.21   25.34
 -34  12  -1  455.59   25.58
 -34  12  -4   54.89    8.63
 -34  12  -4   56.84   10.80
  22 -34  -4   61.80    7.74
 -12 -22   4   58.46    9.80
  22 -34  -7  352.90   18.31
 -34  12  -7  352.11   19.62
 -34  12  -7  339.98   18.48
 -34  11   9   48.14    4.86
 -23  34  -6   40.90    8.08
 -34  11   6   23.90    8.92
  34 -11  -6   30.39    6.68
 -34  11   3  344.84   19.71
  34 -11  -3  319.17   18.45
 -11 -23  -3  362.64   19.54
 -23  34  -3  329.03   19.05
 -23  34   0  186.60   12.56
 -34  11   0  187.02   11.93
 -11 -23   0  176.98   13.10
 -34  11   0  189.80   13.62
  23 -34  -3  256.59   15.31
 -11 -23   3  262.96   16.50
 -34  11  -3  279.38   17.08
 -34  11  -3  252.72   15.40
  23 -34  -6  365.95   18.39
 -34  11  -6  307.49   19.49
 -34  11  -6  325.35   18.33
 -11 -23   9   23.20    4.01
 -24  34  -7   10.95    7.07
 -34  10   7   -5.18    7.62
  34 -10  -7   12.77    5.24
 -34  10   4   16.95    9.18
 -24  34  -4   19.02    8.43
  34 -10  -4   13.22    6.59
 -24  34  -1   -0.27    7.71
 -34  10   1    6.18    6.38
 -10 -24  -1    8.58    7.93
 -34  10   1    3.21    6.82
 -34  10   1   10.67    9.14
 -34  10  -2   50.80    7.22
  24 -34  -2   31.94    7.68
 -10 -24   2   37.92    8.76
 -34  10  -2   38.52    9.91
 -34  10  -5    5.03    6.74
 -34  10  -5   22.43    9.36
  24 -34  -5   14.05    6.91
 -10 -24   5    3.92    8.80
  24 -34  -8  111.83    7.17
 -10 -24   8  102.25    8.41
 -34   9   8    3.17    6.00
 -25  34  -8    4.43    5.41
 -34   9   5  136.79   11.53
 -25  34  -5  133.99   11.34
  34  -9  -5  133.18    9.48
 -34   9   5  113.99    9.57
 -25  34  -2   63.32    8.83
  34  -9  -2   37.03    6.94
  -9 -25  -2   50.90    8.84
 -34   9   2   59.26    7.82
 -34   9   2   53.21    9.73
 -34   9  -1  131.08   11.59
 -34   9  -1   94.65    8.75
 -25  34   1  116.12    9.91
 -34   9  -1  101.75    9.66
  -9 -25   1  112.06   10.15
 -34   9  -4    2.01    6.72
 -34   9  -4    1.32    9.06
  25 -34  -4   17.36    7.63
  -9 -25   4   13.50    8.80
  25 -34  -7   53.55    6.62
  -9 -25   7   39.92    7.73
 -34   9  -7   54.89    8.19
 -34   8   6   35.17    8.60
 -26  34  -6   47.05    8.50
  34  -8  -6   40.76    5.81
 -34   8   6   26.69    6.44
 -26  34  -3  335.64   18.50
 -34   8   3  326.28   19.04
  34  -8  -3  300.97   17.14
 -34   8   3  315.55   17.92
 -34   8   0  130.29   11.65
 -26  34   0  128.38   10.78
 -34   8   0  121.54   10.36
  -8 -26   0  138.76   10.82
  26 -34  -3   11.54    7.80
 -34   8  -3   20.27    9.31
  -8 -26   3    3.76    8.17
 -34   8  -6   77.36    9.64
  26 -34  -6   86.79    8.53
  -8 -26   6   87.68    9.35
 -34   7   7  301.13   16.92
 -27  34  -7  300.57   16.91
 -27  34  -4   53.29    9.75
 -34   7   4   44.07    8.26
 -34   7   4   58.80    9.79
 -27  34  -1  312.02   17.63
  -7 -27  -1  276.27   16.96
 -34   7   1  291.96   16.99
 -34   7   1  303.63   17.81
 -34   7  -2   46.62    8.70
  27 -34  -2   39.64    8.15
  -7 -27   2   29.89    8.39
 -34   7  -2   34.77    9.65
 -34   7  -5   52.98    9.89
  27 -34  -5   60.42    8.46
  -7 -27   5   76.72    9.05
  27 -34  -8   53.39    5.24
  -7 -27   8   41.33    5.59
 -28  34  -8    5.38    5.42
 -34   6   8   15.96    5.09
 -28  34  -5   20.01    9.09
 -34   6   5   32.39    7.57
 -34   6   5   32.70    8.64
 -34   6   2  193.64   13.77
 -28  34  -2  188.86   13.50
  -6 -28  -2  202.12   12.61
 -34   6   2  179.09   13.08
 -28  34   1   74.24    9.57
 -34   6  -1   86.70    9.55
  -6 -28   1   71.92    8.90
 -34   6  -1   59.12    9.71
 -34   6  -4   -3.06    8.63
  28 -34  -4    8.61    7.74
  -6 -28   4   10.72    7.87
  28 -34  -7   21.24    5.92
  -6 -28   7    6.77    6.20
 -34   5   6  190.21   12.33
 -34   5   6  168.03   11.44
 -29  34  -6  183.11   12.94
 -29  34  -3   72.47   10.25
 -34   5   3   83.08    9.36
 -34   5   3   64.75    9.90
 -29  34   0  199.48   13.68
 -34   5   0  200.33   13.47
  -5 -29   0  179.72   12.36
 -34   5   0  202.84   13.61
  29 -34  -3   21.30    8.14
 -34   5  -3   33.38    9.01
  -5 -29   3   24.54    7.92
 -34   5  -6    6.69    7.48
  29 -34  -6   14.11    6.89
  -5 -29   6   17.21    6.96
 -34   4   7  137.29    8.99
 -34   4   7  106.96    8.12
 -30  34  -7  137.03    9.90
 -30  34  -4  145.23   12.62
 -34   4   4  151.25   11.55
 -34   4   4  155.90   11.89
 -30  34  -1  329.75   18.94
 -34   4   1  331.94   18.55
 -34   4   1  301.74   18.68
 -34   4  -2    8.08    8.93
  30 -34  -2   11.52    8.32
  -4 -30   2   21.33    7.11
 -34   4  -2    5.87    8.75
  30 -34  -5  355.06   19.04
  -4 -30   5  320.36   18.43
 -34   4  -5  335.90   19.07
  30 -34  -8   10.35    4.13
 -31  34  -8    8.20    4.79
 -31  34  -5    1.81    8.76
 -34   3   5   19.98    7.57
 -34   3   5    6.58    7.52
 -31  34  -2   99.17   10.85
 -34   3   2   94.24   10.39
 -34   3   2   98.32   10.25
 -31  34   1   50.04    8.93
 -34   3  -1   37.53    9.03
 -34   3  -1   40.29    8.87
 -34   3  -4   56.59    8.91
  31 -34  -4   65.28    8.76
 -31  34   4   41.89    7.76
  -3 -31   4   55.92    7.74
  31 -34  -7   19.30    5.75
  -3 -31   7    6.33    4.56
 -34   2   6  148.96   10.30
 -34   2   6  155.79   10.56
 -32  34  -6  157.09   11.43
 -32  34  -3    4.53    9.07
 -32  34  -3    0.90    7.22
 -34   2   3    3.84    8.08
 -34   2   3   10.11    8.50
 -32  34   0   26.17    9.24
 -34   2   0   24.35    9.17
 -32  34   0   20.99    7.70
 -34   2   0   35.08    8.41
 -34   2  -3    1.33    8.19
 -32  34   3    6.46    7.27
  32 -34  -3   -0.60    8.36
  32 -34  -6   51.43    7.44
 -32  34   6   45.06    6.10
 -33  34  -7    8.64    6.57
 -34   1   7   14.32    4.99
 -34   1   4  159.34   11.59
 -33  34  -4  178.50   13.11
 -34   1   4  180.64   12.58
 -33  34  -4  158.60   11.36
 -34   1   1    9.60    7.86
 -33  34  -1    7.14    9.76
 -34   1   1   11.70    8.95
 -33  34  -1    0.48    7.62
 -33  34   2   88.32    8.91
 -34   1  -2   89.19   10.74
  33 -34  -2   88.97   10.06
 -34   1  -2   71.03    9.17
 -34   1  -5   13.55    6.91
  33 -34  -5   12.89    7.41
 -33  34   5    6.27    6.48
  33 -34  -8   29.99    3.99
 -34  34  -8    5.59    3.87
 -34  34  -5   27.42    8.80
 -34   0   5   26.75    6.60
 -34   0   5   38.02    7.84
 -34  34  -5   40.49    6.82
 -34   0   2   36.40    7.69
 -34  34  -2   17.90    9.64
 -34  34  -2   38.59    8.15
 -34   0   2   25.60    9.19
 -34  34   1   96.78    9.60
 -34  34   1  102.05   10.94
 -34   0  -1  106.56   11.01
 -34   0  -1   83.30    9.34
 -34   0  -4   21.00    7.20
 -34  34   4   29.21    7.55
  34 -34  -4   26.31    8.51
  34 -34  -7   47.29    6.14
 -35  34   6   44.45    5.92
  35 -34  -6   34.97    7.13
 -34  -1  -3   25.76    6.78
 -35  34   3   10.48    7.79
  35 -34  -3   10.53    8.35
 -35  34   0    7.71    9.18
 -34  -1   0   13.07    9.24
 -34  -1   0   10.45    7.13
 -35  34   0    4.04    7.80
 -35  34  -3   46.82    9.83
 -34  -1   3   34.29    7.15
 -35  34  -3   26.68    7.83
 -34  -1   3   30.76    9.02
 -35  34  -6   15.26    7.24
 -34  -1   6   18.63    6.45
 -35  33   7    8.18    4.07
  35 -33  -7    7.13    5.41
 -33  -2  -4   14.67    6.32
  35 -33  -4   -1.43    7.83
 -35  33   4    9.73    7.86
 -35  33   1  118.14   10.68
 -35  33   1  136.77   12.26
 -33  -2  -1  111.07   11.76
 -35  33  -2   -9.56    9.90
 -33  -2   2   13.61    9.03
 -35  33  -2    9.03    8.26
 -35  33  -5   29.84    7.19
 -35  33  -5   36.42    8.87
 -33  -2   5   30.64    8.13
 -35  33  -8    7.11    4.09
  35 -32  -8   66.10    5.33
  35 -32  -5  130.84   10.54
 -35  32   5  127.81   10.38
 -35  32   2   25.14    8.86
 -32  -3  -2   24.52    9.94
  35 -32  -2   12.58    9.12
 -35  32  -1   17.30    9.73
 -32  -3   1    7.27    9.28
 -35  32  -1   14.66    8.70
 -35  32  -4    7.07    9.30
 -35  32  -4    7.40    8.10
 -32  -3   4    4.74    8.66
 -35  32  -7    9.09    6.57
 -32  -3   7   13.95    5.64
 -35  31   6  244.21   14.56
  35 -31  -6  254.69   14.99
 -35  31   3  451.67   24.93
  35 -31  -3  473.42   25.34
 -31  -4  -3  469.45   25.76
 -35  31   0  176.00   13.63
 -35  31   0  202.55   14.44
 -31  -4   0  201.22   14.32
 -35  31  -3  125.56   11.68
 -35  31  -3  103.12   10.77
 -31  -4   3  112.89   11.29
 -31  -4   6   78.63    8.74
 -35  31  -6   71.17    8.06
 -35  30   7  138.20    9.65
  35 -30  -7  153.95   10.08
  35 -30  -4  126.69   11.41
 -35  30   4  127.00   11.17
 -35  30   1   16.60    8.69
 -30  -5  -1   20.81    9.61
 -30  -5   2    9.13    9.14
 -35  30  -2   -0.30    9.07
 -35  30  -5   12.49    7.89
 -30  -5   5   24.04    8.51
 -30  -5   8   14.63    4.36
 -35  29   8   31.15    4.59
 -35  29   5   79.64    9.64
 -29  -6  -2    3.90    9.98
 -35  29   2   14.49    9.12
 -29  -6   1  125.16   11.93
 -35  29  -1  116.41   11.56
 -35  29  -4   23.93    9.19
 -29  -6   4   16.18    9.24
 -29  -6   7   45.18    7.29
 -35  28   6  390.70   21.25
 -28  -7  -3  179.80   14.09
 -35  28   3  172.23   13.46
 -35  28   0  126.87   11.69
 -28  -7   0  134.64   12.31
 -35  28  -3   68.87   10.22
 -28  -7   3   45.92   10.27
 -35  28  -6  141.27   11.51
 -28  -7   6  156.02   11.90
 -35  27   7   58.91    7.85
 -27  -8  -1  209.71   14.12
 -35  27   1  173.98   14.04
 -35  27  -2  252.77   16.64
 -27  -8   2  246.48   16.66
 -35  27  -2  266.93   16.94
 -27  -8   5  323.72   18.96
 -35  27  -5  313.65   18.67
 -35  27  -5  304.08   18.98
 -35  27  -8   13.05    5.82
 -27  -8   8   24.85    5.71
  35 -26  -8   30.83    5.56
 -35  26   8   34.24    5.95
 -35  26   5   11.33    8.91
  35 -26  -5   13.40    8.28
  35 -26  -2   31.42    8.92
 -35  26   2   11.76    9.70
 -35  26  -1  244.21   15.56
 -26  -9   1  245.66   16.25
 -35  26  -1  231.47   16.07
 -35  26  -4   32.08    9.66
 -35  26  -4   46.57    9.96
 -26  -9   4   40.31   10.20
 -35  26  -7   35.53    7.86
 -26  -9   7   38.98    7.88
 -35  25   6   32.25    8.88
  35 -25  -6   21.66    8.01
  35 -25  -3    0.31    8.49
 -35  25   3    8.99    9.20
 -35  25   0   15.90    9.40
 -35  25   0    2.21    8.78
 -35  25  -3   27.81    9.25
 -25 -10   3   18.09   10.15
 -35  25  -3   26.84    9.87
 -35  25  -6   39.13    9.00
 -35  25  -6   41.15    8.84
 -25 -10   6   21.09    9.08
 -35  25  -9   10.50    3.22
 -25 -10   9   16.84    3.33
 -35  24   7   16.58    7.62
  35 -24  -7    5.99    6.83
  35 -24  -4   50.99    8.62
 -35  24   4   50.25   10.31
  35 -24  -1   35.60    8.54
 -35  24   1   42.00    9.82
 -35  24  -2  113.18   12.01
 -35  24  -2  148.05   12.35
 -35  24  -5   12.78    9.60
 -35  24  -5   16.83    9.63
 -24 -11   5   35.87    9.59
 -35  24  -8   90.71    8.13
 -24 -11   8  106.34    8.22
 -35  23   8  190.51   11.74
  35 -23  -8  193.90   11.28
 -35  23   5  -15.08    9.21
  35 -23  -5   12.26    7.98
 -35  23   2  208.28   14.74
  35 -23  -2  196.72   14.34
 -23 -12  -2  223.69   15.26
 -35  23  -1  200.25   14.16
 -35  23  -1  185.83   13.60
 -35  23  -4  170.87   13.75
 -35  23  -4  171.92   13.93
 -35  23  -7   41.92    8.50
 -23 -12   7   61.39    8.75
 -35  23  -7   73.76    8.78
  35 -22  -9   42.93    4.03
 -35  22   9   38.82    4.36
 -35  22   6   28.94    9.12
  35 -22  -6   24.19    7.86
 -22 -13  -3   39.48    9.99
  35 -22  -3   37.07    8.36
 -35  22   3   42.72    9.76
 -35  22   0  131.32   12.33
 -35  22   0  137.44   11.88
 -22 -13   0  152.25   12.53
 -35  22  -3   16.90    9.23
 -35  22  -3   23.10   10.10
 -35  22  -6    2.72    9.04
 -35  22  -6   -3.81    8.88
 -35  22  -9   24.55    3.53
 -22 -13   9   37.83    4.47
 -35  21   7   15.79    7.84
  35 -21  -7   11.56    6.55
 -35  21   4  264.04   17.15
  35 -21  -4  265.63   16.44
  35 -21  -1   57.08    9.45
 -21 -14  -1   73.86   10.54
 -35  21   1   81.08   10.64
 -35  21  -2  169.42   13.21
 -21 -14   2  173.16   13.52
 -35  21  -2  170.83   13.58
 -35  21  -5   49.63    9.90
 -35  21  -5   29.72   10.22
 -35  21  -8   79.64    7.29
 -35  20   8    7.06    6.27
  35 -20  -8   14.63    5.44
 -35  20   5   19.95    9.68
  35 -20  -5   13.40    7.81
 -20 -15  -2    0.35    9.64
  35 -20  -2    9.24    8.02
 -35  20   2   18.83    9.45
 -35  20  -1   22.33    9.87
 -35  20  -1   13.88    8.14
 -20 -15   1   17.71    9.80
 -35  20  -4  -10.57    8.78
 -35  20  -4   -4.95    9.23
 -20 -15   4   10.02    9.81
 -35  20  -7   59.07    8.33
 -35  20  -7   52.63    8.99
  35 -19  -9    3.65    3.04
  35 -19  -6   86.46    9.26
 -19 -16  -3   -3.85    9.43
  35 -19  -3   14.26    7.77
 -35  19   0   32.55    8.66
 -19 -16   0   23.55    9.55
 -35  19  -3   35.29    8.47
 -19 -16   3   15.83    9.81
 -35  19  -3   12.04    9.57
 -35  19  -6  130.05   12.50
 -35  19  -6  155.66   11.84
 -19 -16   6  156.28   12.47
  35 -18  -7   15.54    6.69
  35 -18  -4   50.06    8.48
  35 -18  -1   -4.06    7.77
 -18 -17  -1   -0.33    8.77
 -35  18  -2   -0.60    8.44
 -18 -17   2  -14.53    9.34
 -35  18  -5   -2.13    8.77
 -18 -17   5   12.64    9.63
 -35  18  -8   13.84    5.61
 -18 -17   8    8.35    6.50
  35 -17  -8    3.89    5.05
 -18  35  -5   40.49    7.17
  35 -17  -5   48.92    8.25
 -17 -18  -2   15.75    8.95
  35 -17  -2   13.82    7.58
 -35  17  -1  155.97   11.79
 -17 -18   1  151.67   12.66
 -35  17  -4   74.63    9.86
 -17 -18   4   73.01   10.72
 -35  17  -7   84.25    8.64
 -17 -18   7   99.43    9.86
 -35  16   9  107.63    7.10
 -19  35  -6   68.47    7.72
 -35  16   6   66.35    9.96
  35 -16  -6   66.07    8.16
 -35  16   3  415.61   23.73
  35 -16  -3  438.82   22.67
 -16 -19  -3  408.32   23.34
 -19  35  -3  414.32   22.19
 -35  16   0  231.80   13.85
 -35  16   0  197.96   15.02
 -16 -19   0  199.80   14.62
 -35  16  -3  159.64   11.75
 -16 -19   3  164.35   12.73
 -35  16  -6  147.16   11.22
 -35  16  -6  138.48   12.34
 -16 -19   6  160.85   12.39
 -16 -19   9   35.99    4.66
 -20  35  -7    4.66    5.65
 -35  15   7   20.11    8.40
  35 -15  -7   17.72    6.24
 -35  15   4   37.93    9.91
 -20  35  -4   18.25    7.46
  35 -15  -4   18.59    7.63
 -20  35  -1   22.32    6.75
 -15 -20  -1   19.85    9.04
 -35  15   1   11.82    9.21
 -35  15  -2   57.10    8.67
 -20  35   2   74.55    7.72
 -15 -20   2   68.02   10.04
 -35  15  -2   59.94   10.23
 -35  15  -5   -4.99    8.08
 -35  15  -5    7.12    9.63
  20 -35  -5    2.39    5.99
 -15 -20   5   11.64    9.43
 -35  15  -8   25.83    4.90
 -15 -20   8   26.50    6.77
 -21  35  -8   22.57    4.16
 -35  14   8   17.61    6.43
 -21  35  -5   38.19    7.89
 -35  14   5   25.66    9.63
  35 -14  -5   24.79    7.54
 -21  35  -2   39.29    7.49
  35 -14  -2   21.08    7.46
 -14 -21  -2   36.72    9.23
 -35  14   2   21.62   10.00
 -35  14  -1  191.28   12.75
 -21  35   1  185.84   12.20
 -35  14  -1  179.45   14.33
 -14 -21   1  213.69   13.93
 -35  14  -4   55.63    8.64
 -35  14  -4   50.02   10.71
  21 -35  -4   52.27    7.40
 -14 -21   4   75.04    9.69
  21 -35  -7  246.34   12.98
 -14 -21   7  235.50   14.83
 -35  14  -7  227.75   14.73
 -35  14  -7  235.01   13.78
 -35  13   9   32.05    4.27
 -22  35  -6   14.43    7.29
 -35  13   6   22.03    8.88
  35 -13  -6   28.28    6.75
 -22  35  -3    9.79    7.85
 -13 -22  -3   21.13    8.99
  35 -13  -3   14.72    7.33
 -35  13   3   39.79    9.77
 -35  13   0   -3.28    9.43
 -22  35   0    7.69    7.17
 -35  13   0   13.92    7.35
 -13 -22   0   17.63    8.71
 -35  13  -3   86.80    9.00
  22 -35  -3   82.39    8.28
 -13 -22   3   79.80   10.25
 -35  13  -3   68.05   10.73
 -35  13  -6   64.53    7.95
 -35  13  -6   54.37    9.61
  22 -35  -6   64.95    7.08
 -13 -22   6   57.06    9.44
 -13 -22   9   26.77    3.82
 -23  35  -7  103.18    8.54
 -35  12   7  107.42    9.82
  35 -12  -7   97.93    7.63
 -35  12   4  241.86   16.60
  35 -12  -4  258.24   14.88
 -23  35  -4  251.23   15.47
 -23  35  -1   19.01    7.65
 -35  12   1   18.07    7.00
 -12 -23  -1   16.29    8.60
 -35  12   1   14.91    9.46
 -35  12  -2   30.16    7.38
  23 -35  -2   27.57    7.17
 -12 -23   2   29.60    9.03
 -35  12  -2   16.25    9.49
 -35  12  -5   35.49    7.55
 -35  12  -5   46.71    9.59
  23 -35  -5   46.09    7.37
 -12 -23   5   43.40    9.46
 -12 -23   8   14.87    6.01
 -24  35  -8    4.76    4.42
 -35  11   8   -8.18    5.91
 -35  11   5   33.65    9.38
 -24  35  -5   17.13    8.19
  35 -11  -5   22.70    6.78
 -24  35  -2   33.82    7.86
  35 -11  -2   14.97    6.94
 -11 -24  -2   29.31    8.62
 -35  11   2   30.14    9.32
 -35  11  -1   18.73    9.38
 -35  11  -1   11.88    6.81
 -24  35   1   15.74    7.56
 -35  11  -1   10.90    6.95
 -11 -24   1   21.37    8.70
 -35  11  -4    1.92    7.07
 -35  11  -4    7.42    9.49
  24 -35  -4    3.46    7.12
 -11 -24   4   12.35    9.30
 -35  11  -7    8.55    5.02
  24 -35  -7    8.18    5.37
 -11 -24   7   15.53    7.48
 -35  11  -7   15.58    7.43
 -35  10   6   20.34    8.48
 -25  35  -6   42.35    8.18
  35 -10  -6   37.35    6.06
 -25  35  -3   19.63    8.41
  35 -10  -3    1.80    6.49
 -35  10   3   28.52    9.63
 -35  10   0   13.43    9.14
 -35  10   0   13.59    6.62
 -25  35   0   18.85    7.71
 -35  10   0   21.72    7.25
 -10 -25   0   18.72    8.05
 -35  10  -3   81.74    8.39
  25 -35  -3   84.60    8.94
 -10 -25   3   97.38   10.46
 -35  10  -3   82.21   10.96
 -35  10  -6   21.09    5.85
 -35  10  -6   18.40    8.36
  25 -35  -6   15.30    6.33
 -10 -25   6   13.82    8.15
 -35   9   7  197.95   12.55
 -26  35  -7  192.88   12.12
 -26  35  -4    6.56    8.43
  35  -9  -4   11.47    6.29
 -35   9   4   16.23    6.81
 -35   9   4   -0.61    9.07
 -26  35  -1  329.56   19.33
  -9 -26  -1  332.61   19.11
 -35   9   1  336.69   18.60
 -35   9   1  346.41   19.95
  26 -35  -2    6.85    7.47
  -9 -26   2    4.34    8.29
 -35   9  -2    2.94    9.58
  26 -35  -5  297.87   16.77
  -9 -26   5  295.59   17.49
 -35   9  -5  285.57   17.85
  26 -35  -8    5.46    3.69
  -9 -26   8    3.56    4.89
 -27  35  -8    6.01    4.74
 -35   8   8   13.60    4.98
 -27  35  -5   10.86    8.13
 -35   8   5   12.02    6.64
 -35   8   5    6.41    8.68
 -27  35  -2    6.80    8.01
  -8 -27  -2   -6.59    7.79
 -35   8   2   -1.73    7.30
 -35   8   2  -12.34    9.34
 -27  35   1   18.92    8.13
 -35   8  -1   12.11    7.84
  -8 -27   1   14.02    8.17
 -35   8  -1   18.04    9.44
 -35   8  -4   21.43    9.26
  27 -35  -4    5.84    7.54
  -8 -27   4    8.97    8.19
  27 -35  -7   43.02    5.98
  -8 -27   7   41.14    6.75
 -35   7   6  223.03   13.62
 -28  35  -6  249.74   14.99
 -28  35  -3   32.47    9.07
 -35   7   3   33.24    7.93
 -35   7   3   43.90    9.35
 -28  35   0  427.79   22.13
 -35   7   0  407.81   21.69
  -7 -28   0  367.57   21.37
 -35   7   0  390.40   22.20
  28 -35  -3    0.28    7.76
 -35   7  -3    1.58    9.00
  -7 -28   3    6.79    7.88
 -35   7  -6   12.78    7.65
  28 -35  -6   17.10    6.74
  -7 -28   6   14.21    7.13
 -29  35  -7   68.69    7.62
 -35   6   7   72.08    7.43
 -29  35  -4  104.41   11.17
 -35   6   4  103.83    9.74
 -35   6   4  123.27   10.79
 -29  35  -1   35.29    8.84
 -35   6   1   20.87    8.84
  -6 -29  -1   24.37    7.17
 -35   6   1   36.48    8.35
 -35   6  -2   73.53    9.60
  29 -35  -2   62.85    9.07
  -6 -29   2   61.35    8.50
 -35   6  -2   73.68    9.87
 -35   6  -5    8.68    8.36
  29 -35  -5   -4.01    7.27
  -6 -29   5    5.22    7.37
  29 -35  -8    6.11    3.72
 -30  35  -8   13.54    4.21
 -35   5   8    7.55    3.38
 -30  35  -5   68.59    9.75
 -35   5   5   75.73    8.59
 -35   5   5   92.90    9.39
 -30  35  -2   36.82    9.16
 -35   5   2   44.35    9.30
 -35   5   2   37.54    8.26
 -30  35   1  404.01   21.47
 -35   5  -1  378.92   21.25
  -5 -30   1  365.08   20.45
 -35   5  -1  385.50   21.39
 -35   5  -4   88.71   10.14
  30 -35  -4  105.71    9.88
  -5 -30   4  100.99    9.40
  30 -35  -7  144.33    8.92
  -5 -30   7  118.47    8.37
 -35   4   6  208.87   12.10
 -35   4   6  182.43   11.38
 -31  35  -6  167.23   12.53
 -31  35  -3   59.30   10.09
 -35   4   3   66.53    9.20
 -35   4   3   53.58    9.09
 -31  35   0   83.48   10.56
 -35   4   0   89.50   10.02
 -35   4   0   96.84   10.18
  31 -35  -3  452.94   22.80
  -4 -31   3  380.91   21.91
 -35   4  -3  418.75   22.68
  31 -35  -6   43.58    7.09
  -4 -31   6   34.92    6.19
 -35   4  -6   39.29    7.12
 -32  35  -7    7.86    5.98
 -35   3   7    3.36    4.61
 -35   3   7    2.16    4.05
 -35   3   4   68.77    8.67
 -35   3   4   71.30    8.59
 -35   3   1   12.16    8.13
 -32  35  -1   -0.63    9.60
 -35   3   1   11.73    8.55
  32 -35  -2  363.29   21.73
 -35   3  -2  399.75   22.05
 -35   3  -2  405.52   21.66
 -35   3  -5   24.94    7.41
  32 -35  -5   32.01    7.70
  -3 -32   5   34.56    6.40
  32 -35  -8   19.25    3.37
 -33  35  -8   73.12    5.29
 -33  35  -5   28.38    8.73
 -35   2   5   17.10    7.29
 -35   2   5   22.82    7.04
 -33  35  -2  743.51   36.76
 -35   2   2  706.74   36.35
 -33  35  -2  670.68   35.61
 -35   2   2  747.51   36.04
 -33  35   1   44.75    9.16
 -35   2  -1   43.04    9.47
 -35   2  -1   43.73    8.42
 -33  35   1   39.22    7.62
  33 -35  -4  680.28   33.46
 -35   2  -4  667.97   33.05
 -33  35   4  622.39   32.59
  33 -35  -7    6.96    5.04
 -34  35  -6   11.55    7.26
 -35   1   6    6.94    5.11
 -35   1   6    9.51    5.85
 -34  35  -3   54.52    9.64
 -34  35  -3   37.78    7.50
 -35   1   3   38.32    7.81
 -35   1   3   35.12    8.79
 -34  35   0  190.12   13.88
 -35   1   0  205.25   13.69
 -34  35   0  179.18   12.24
 -35   1   0  174.89   12.52
 -34  35   3    7.97    7.02
 -35   1  -3   -1.62    7.34
  34 -35  -3   -1.18    8.52
  34 -35  -6   27.99    6.55
 -35  35  -7   41.65    5.76
 -35   0   7   30.69    4.09
 -35  35  -4   14.27    6.38
 -35  35  -4   18.65    8.69
 -35   0   4   19.68    6.53
 -35   0   4   26.68    8.20
 -35  35  -1   69.56   10.33
 -35   0   1   72.73    9.86
 -35  35  -1   68.67    8.69
 -35   0   1   68.35    8.26
 -35  35   2  340.36   18.53
 -35   0  -2  317.25   18.52
 -35   0  -2  293.17   17.27
 -35  35   2  299.26   17.42
 -35  35   5   12.46    5.95
  35 -35  -5    8.81    7.13
  36 -35  -7   10.84    4.72
 -36  35   4   88.53    8.34
  36 -35  -4   84.38    9.33
 -36  35   1  318.50   17.21
 -35  -1  -1  279.20   17.07
 -35  -1  -1  259.89   15.57
 -36  35   1  265.48   16.11
 -36  35  -2   25.35    9.38
 -36  35  -2   20.87    7.46
 -35  -1   2   22.83    8.89
 -36  35  -5   45.37    8.43
 -35  -1   5   28.24    7.28
 -36  35  -5   33.06    5.96
 -36  34   5   63.87    7.45
  36 -34  -5   74.50    8.47
 -36  34   2   33.81    8.12
 -36  34   2   36.40    8.90
 -34  -2  -2   14.22    9.16
 -36  34  -1   -6.14    9.79
 -34  -2   1    0.94    9.10
 -36  34  -1    3.83    8.16
 -36  34  -4   15.15    7.04
 -36  34  -4    4.49    8.31
 -34  -2   4    8.80    7.74
 -36  34  -7    0.16    5.34
 -34  -2   7    5.57    4.17
  36 -33  -6   58.19    7.43
 -36  33   6   58.81    6.78
 -36  33   3  108.35   10.38
  36 -33  -3  118.58   10.99
 -36  33   0  150.98   12.45
 -33  -3   0  141.80   12.32
 -36  33   0  126.56   11.37
 -36  33  -3   17.00    9.42
 -36  33  -3   14.32    8.09
 -33  -3   3   -2.43    8.96
 -36  33  -6   55.28    8.06
 -33  -3   6   55.33    7.48
  36 -32  -7   11.50    5.35
 -36  32   7    9.53    4.66
  36 -32  -4    4.04    8.30
 -36  32   4   14.75    7.91
 -36  32   1  169.11   13.34
 -32  -4  -1  153.78   13.02
 -36  32   1  173.14   12.64
 -36  32  -2   12.26    9.53
 -32  -4   2    2.60    9.32
 -36  32  -2   11.31    8.68
 -36  32  -5   10.36    7.38
 -36  32  -5    1.73    8.48
 -32  -4   5    2.34    7.79
 -36  32  -8   -2.64    3.63
  36 -31  -8   -0.11    3.88
  36 -31  -5   58.43    8.59
 -36  31   5   45.24    8.44
 -36  31   2  114.01   11.20
  36 -31  -2  104.93   11.10
 -31  -5   1    6.08    9.17
 -36  31  -1   15.16    8.61
 -36  31  -4   11.03    8.39
 -31  -5   4    7.87    8.53
 -31  -5   7   14.88    5.90
 -36  30   6   49.05    7.69
 -30  -6  -3    4.20    9.40
 -36  30   3   11.80    8.82
 -36  30   0   19.76    9.19
 -30  -6   0   39.03    9.34
 -36  30  -3   44.11    9.49
 -30  -6   3   56.37   10.15
 -30  -6   6  136.97   10.81
 -36  30  -6  141.21   10.30
 -36  29   7   22.76    6.29
 -36  29   4  408.37   22.60
 -36  29   1    8.02    9.00
 -29  -7  -1    1.41    9.28
 -29  -7   2  266.73   16.59
 -36  29  -2  246.13   16.50
 -36  29  -5   51.65    9.06
 -29  -7   5   46.87    9.29
 -36  29  -8   51.79    5.68
 -29  -7   8   52.07    5.24
 -36  28   8   45.50    5.13
 -36  28   5   18.85    8.81
 -28  -8  -2   89.08   11.18
 -36  28   2   46.78   10.38
 -36  28  -1   -2.00    9.41
 -28  -8   1    0.70    9.21
 -36  28  -1   14.14    9.56
 -36  28  -4   30.02    9.58
 -36  28  -4   20.29    9.31
 -28  -8   4   23.84    9.91
 -36  28  -7   53.50    7.54
 -28  -8   7   50.98    7.37
 -36  27   6  307.65   17.62
  36 -27  -6  313.41   17.69
  36 -27  -3   37.90    9.39
 -36  27   3   41.14    9.95
 -36  27   0   12.93    9.67
 -36  27   0   17.50    9.00
 -27  -9   0    6.69    9.37
 -36  27  -3   23.14    9.55
 -36  27  -3    7.24    9.62
 -27  -9   3    9.62    9.89
 -36  27  -6   36.67    8.21
 -36  27  -6   24.20    8.31
 -27  -9   6   32.82    8.61
 -36  26   7  258.85   14.96
  36 -26  -7  256.39   14.69
 -36  26   4  947.78   47.42
  36 -26  -4  940.34   47.27
 -36  26   1  133.60   12.10
  36 -26  -1   89.77   10.48
 -36  26  -2   42.40    9.57
 -26 -10   2   47.00   10.11
 -36  26  -2   35.56   10.20
 -36  26  -5   23.13    9.03
 -36  26  -5   16.00    9.25
 -26 -10   5   22.59    9.20
 -36  26  -8   23.80    5.35
 -26 -10   8   29.34    5.52
  36 -25  -8   17.66    4.97
 -36  25   8   15.36    5.46
 -36  25   5  212.65   14.84
  36 -25  -5  228.60   14.45
  36 -25  -2  -11.18    8.64
 -36  25   2   24.10    9.76
 -36  25  -1   89.38   10.36
 -36  25  -1   53.99   10.37
 -36  25  -4  120.17   11.57
 -36  25  -4   98.33   11.58
 -25 -11   4  117.20   11.82
 -36  25  -7   14.09    7.18
 -25 -11   7   11.70    7.52
 -36  24   6   25.14    8.84
  36 -24  -6   27.34    7.97
 -24 -12  -3  -11.92   10.20
 -36  24   3    1.96    9.60
 -36  24   0  186.47   13.57
 -36  24   0  165.51   13.54
 -36  24  -3   21.75    9.48
 -36  24  -3   16.57    9.97
 -36  24  -6  148.85   12.18
 -36  24  -6  168.98   12.30
 -24 -12   6  180.67   12.70
 -36  23   7   15.50    7.39
  36 -23  -7    1.87    6.29
  36 -23  -4  180.67   12.94
 -36  23   4  171.84   13.81
  36 -23  -1    4.43    8.49
 -36  23   1  -13.68    9.93
 -23 -13  -1    1.76    9.32
 -36  23  -2   -5.83    8.72
 -36  23  -2   18.36    9.94
 -36  23  -5   -1.26    8.79
 -36  23  -5   11.28    9.01
 -36  23  -8    5.50    5.21
 -23 -13   8    0.17    5.75
  36 -22  -8    6.82    5.13
 -36  22   8    4.42    5.80
 -36  22   5   68.27   10.20
  36 -22  -5   93.83    9.69
 -22 -14  -2   15.97   10.14
  36 -22  -2   21.63    8.56
 -36  22   2    8.00    9.98
 -36  22  -1  373.45   21.46
 -22 -14   1  368.92   21.73
 -36  22  -1  398.11   21.91
 -36  22  -4    5.81    9.20
 -36  22  -4   12.12   10.16
 -36  22  -7   59.99    7.84
 -36  22  -7   46.14    8.36
 -36  21   9   61.81    4.66
 -36  21   6   -7.22    8.72
  36 -21  -6   17.49    7.27
 -36  21   3  385.40   21.53
  36 -21  -3  364.49   20.61
 -21 -15  -3  341.13   21.28
 -36  21   0   34.48    9.36
 -36  21   0    1.50    8.54
 -21 -15   0   19.39    9.65
 -36  21  -3  735.41   37.16
 -21 -15   3  736.84   37.52
 -36  21  -3  694.46   37.37
 -36  21  -6    0.88    8.64
 -36  21  -6   -1.37    8.17
 -36  20   7    8.37    7.91
  36 -20  -7    4.67    6.17
  36 -20  -4   43.30    8.36
 -36  20   4   27.80    9.76
  36 -20  -1   53.57    9.31
 -36  20   1   69.03   10.70
 -20 -16  -1   75.45   10.33
 -36  20  -2   87.43    9.75
 -20 -16   2   84.36   10.89
 -36  20  -2   94.99   11.29
 -36  20  -5   88.85   10.42
 -36  20  -5   93.43   11.42
 -20 -16   5  109.92   11.20
 -36  20  -8    5.35    5.26
  36 -19  -8   12.90    4.78
  36 -19  -5   23.78    7.90
 -19 -17  -2   18.99    9.14
  36 -19  -2   20.63    8.30
 -36  19  -1  182.26   12.58
 -19 -17   1  160.10   13.45
 -36  19  -4   29.91    8.53
 -19 -17   4   28.60   10.21
 -36  19  -7   42.73    7.22
 -19 -17   7   52.48    8.37
  36 -18  -6  113.58    9.67
 -18 -18  -3   36.78    9.69
  36 -18  -3   18.83    7.82
 -36  18   0   14.48    7.75
 -18 -18   0   -3.37    9.13
 -36  18  -3   40.87    8.79
 -18 -18   3   49.86   10.31
 -36  18  -6   54.28    8.31
 -18 -18   6   59.91    9.79
 -18 -18   9   23.56    3.64
  36 -17  -7   23.88    6.28
  36 -17  -4  118.58   10.28
 -36  17   1  101.92   10.08
 -17 -19  -1   99.39   11.11
 -36  17  -2   -2.89    8.03
 -17 -19   2    0.34    9.05
 -36  17  -5   76.91    9.61
 -17 -19   5  106.32   11.16
 -36  17  -8   21.72    4.71
 -17 -19   8   26.69    6.28
  36 -16  -8   11.43    4.37
 -36  16   8   18.37    6.17
 -36  16   5   11.47    9.22
 -20  36  -5   13.42    6.71
  36 -16  -5   15.35    7.29
  36 -16  -2   70.55    8.89
 -16 -20  -2   74.17   10.28
 -36  16   2   76.13   10.18
 -36  16  -1    1.37    9.60
 -36  16  -1    5.54    7.85
 -16 -20   1    3.31    9.36
 -36  16  -4   82.07    9.60
 -36  16  -4   86.35   11.27
 -16 -20   4   84.48   10.39
 -36  16  -7    3.37    6.06
 -16 -20   7    0.24    7.44
 -36  16  -7    2.92    7.55
 -36  15   9   25.26    3.63
 -21  36  -6   60.44    7.25
 -36  15   6   51.18    9.51
  36 -15  -6   47.91    7.26
 -21  36  -3   27.19    7.52
 -15 -21  -3   38.13    9.29
  36 -15  -3   32.19    7.95
 -36  15   3   28.25   10.21
 -36  15   0   30.24    9.70
 -21  36   0    2.88    6.60
 -36  15   0   25.03    7.75
 -15 -21   0   26.76    9.22
 -36  15  -3  143.34   10.84
  21 -36  -3  125.25    9.56
 -15 -21   3  128.90   12.05
 -36  15  -3  130.83   12.83
 -36  15  -6    9.09    8.76
 -36  15  -6   10.51    6.87
  21 -36  -6   17.13    5.34
 -15 -21   9   45.89    3.95
 -36  14   7  214.80   13.51
  36 -14  -7  235.35   12.32
 -22  36  -7  195.49   12.15
 -22  36  -4   31.50    7.90
  36 -14  -4   43.23    7.66
 -36  14   4   33.11    9.83
 -22  36  -1   85.25    8.62
 -36  14   1   88.80    8.99
 -36  14   1   74.57   11.09
 -14 -22  -1  104.70   10.80
 -36  14  -2   32.01    7.91
 -22  36   2   54.46    7.54
 -14 -22   2   37.76    9.29
 -36  14  -2   52.24   10.61
  22 -36  -5  467.75   23.42
 -14 -22   5  460.87   24.90
 -36  14  -5  460.75   25.15
 -36  14  -5  428.08   23.90
 -14 -22   8   21.58    5.83
  36 -13  -8    0.56    3.07
 -36  13   8   -2.99    5.68
 -36  13   5   -0.90    9.01
 -23  36  -5   13.08    7.48
  36 -13  -5   14.13    6.85
 -23  36  -2   60.12    8.39
  36 -13  -2   45.74    8.06
 -13 -23  -2   76.63    9.89
 -36  13   2   64.03   10.31
 -36  13  -1    1.35    9.59
 -36  13  -1    1.25    7.26
 -23  36   1    5.95    7.08
 -13 -23   1   -1.26    8.86
 -36  13  -4   -0.51    7.47
 -36  13  -4    1.36    9.35
  23 -36  -4   -1.82    6.51
 -13 -23   4    8.50    8.88
 -36  13  -7   29.10    5.34
  23 -36  -7   32.43    4.79
 -13 -23   7   22.78    7.40
 -36  13  -7   26.91    7.76
 -36  12   6  249.13   14.93
  36 -12  -6  223.98   13.38
 -24  36  -6  237.21   14.10
 -24  36  -3   35.64    8.35
 -12 -24  -3   45.72    9.10
  36 -12  -3   34.26    7.32
 -36  12   3   52.65   10.28
 -24  36   0  233.26   14.26
 -36  12   0  225.68   14.00
 -12 -24   0  233.12   15.13
 -36  12   0  236.27   15.64
 -36  12  -3    1.47    7.04
  24 -36  -3  -10.08    7.20
 -12 -24   3    3.12    9.10
  24 -36  -6  448.83   22.39
 -12 -24   6  459.76   23.48
 -36  12  -6  418.47   23.46
 -36  12  -6  415.34   22.42
 -25  36  -7   12.26    5.90
 -36  11   7    4.54    7.06
 -25  36  -4   42.91    8.74
  36 -11  -4   58.79    7.46
 -36  11   4   56.98   10.01
 -25  36  -1   -2.15    7.72
 -36  11   1    9.59    6.53
 -36  11   1    1.62    9.53
 -11 -25  -1   13.73    8.04
 -36  11  -2   14.83    6.82
 -25  36   2   21.29    7.45
  25 -36  -2   10.09    7.40
 -11 -25   2    9.08    9.00
 -36  11  -2    7.05    9.24
 -36  11  -5   45.27    6.94
 -36  11  -5   42.02    9.86
  25 -36  -5   53.49    7.37
 -11 -25   5   48.99    8.97
 -11 -25   8   13.29    5.01
 -26  36  -8   52.77    4.98
 -36  10   8   77.81    6.16
 -36  10   5  387.76   21.32
  36 -10  -5  372.33   19.69
 -26  36  -5  373.99   20.81
 -26  36  -2   12.66    8.05
 -36  10   2   32.74    6.66
 -10 -26  -2   14.32    8.32
 -36  10   2   13.02    9.46
 -26  36   1   56.78    8.88
 -36  10  -1   78.20    8.73
 -10 -26   1   87.72    9.45
 -36  10  -1   64.69   10.19
 -36  10  -4  114.63   11.65
  26 -36  -4  126.75    9.96
 -10 -26   4  113.15   11.06
  26 -36  -7   74.04    6.45
 -10 -26   7   74.15    7.81
 -27  36  -6   -3.26    7.15
 -36   9   6    9.77    7.80
 -27  36  -3   67.44    9.36
 -36   9   3   59.25    7.95
 -36   9   3   74.61   10.46
 -36   9   0  230.13   14.11
  -9 -27   0  227.15   14.52
 -27  36   0  220.17   14.47
 -36   9   0  230.70   15.39
  27 -36  -3  248.71   15.19
  -9 -27   3  255.91   15.64
 -36   9  -3  236.94   16.07
 -36   9  -6    0.99    7.91
  27 -36  -6   11.87    6.28
  -9 -27   6   18.90    7.47
 -28  36  -7   71.09    7.47
 -36   8   7   79.56    7.73
 -28  36  -4   83.57    9.62
 -36   8   4   70.90    8.08
 -36   8   4   75.75    9.99
 -28  36  -1    2.34    8.54
 -36   8   1   21.37    9.24
  -8 -28  -1    6.49    7.50
 -36   8   1   25.02    7.66
  28 -36  -2   78.98    9.30
  -8 -28   2   76.25    9.46
 -36   8  -2   83.95   10.57
 -36   8  -5    0.28    8.43
  28 -36  -5   -2.12    6.97
  -8 -28   5    8.91    7.48
  28 -36  -8   36.30    3.65
  -8 -28   8   46.25    4.11
 -29  36  -8   46.55    4.48
 -36   7   8   48.17    4.50
 -29  36  -5    7.87    7.80
 -36   7   5    7.73    6.25
 -36   7   5   10.68    8.40
 -36   7   2  223.34   14.57
 -29  36  -2  234.73   14.41
  -7 -29  -2  202.69   13.30
 -36   7   2  198.75   13.52
 -29  36   1   13.43    8.16
 -36   7  -1    6.89    8.11
  -7 -29   1   10.96    7.62
 -36   7  -1    7.71    9.04
  29 -36  -4  379.46   20.49
  -7 -29   4  365.51   20.45
 -36   7  -4  369.45   21.03
  29 -36  -7    2.10    4.96
  -7 -29   7   11.23    5.28
 -30  36  -6   56.41    8.55
 -36   6   6   83.44    8.04
 -30  36  -3   16.71    8.77
 -36   6   3    1.24    7.42
 -36   6   3    8.19    8.61
 -36   6   0   67.87    9.72
 -30  36   0   63.36    9.41
 -36   6   0   72.94    9.09
  -6 -30   0   49.42    7.95
  30 -36  -3   16.93    8.22
 -36   6  -3   15.63    8.79
  -6 -30   3    8.55    7.55
  30 -36  -6   36.88    6.77
  -6 -30   6   37.46    6.53
 -36   6  -6   36.70    7.34
 -36   5   7   24.40    5.17
 -31  36  -7   16.08    5.73
 -31  36  -4   49.97    9.63
 -36   5   4   48.04    7.95
 -36   5   4   64.06    8.97
 -36   5   1   45.28    8.98
 -31  36  -1   41.78    9.39
 -36   5   1   40.96    8.60
 -31  36   2   18.47    8.75
  -5 -31   2   22.42    7.17
 -36   5  -2    8.98    8.72
 -36   5  -5   72.29    8.54
  31 -36  -5   69.67    8.03
  -5 -31   5   54.13    7.41
 -32  36  -8   12.38    3.18
 -36   4   5  149.45   10.41
 -32  36  -5  127.56   11.02
 -36   4   5  130.43    9.90
 -32  36  -2   59.68    9.48
 -36   4   2   58.14    9.16
 -36   4   2   52.37    8.80
 -32  36   1   40.56    9.07
 -36   4  -1   21.75    8.86
 -36   4  -1   29.80    8.49
 -36   4  -4   92.82    9.22
  32 -36  -4   80.55    9.34
  -4 -32   4   77.13    8.05
  32 -36  -7   15.73    5.06
 -33  36  -6   57.89    7.63
 -36   3   6   57.36    6.36
 -36   3   6   37.99    6.00
 -33  36  -3    9.77    8.85
 -36   3   3   14.62    7.84
 -36   3   3   15.90    7.94
 -33  36   0  214.24   14.57
 -36   3   0  208.33   14.18
 -36   3   0  204.83   13.81
 -36   3  -3   28.10    8.13
  33 -36  -3   22.36    8.18
  33 -36  -6   57.74    7.09
 -34  36  -7    8.22    5.18
 -34  36  -4   11.87    8.62
 -36   2   4   24.01    7.19
 -36   2   4   19.90    7.47
 -34  36  -1   -9.68    9.49
 -36   2   1   -2.02    8.37
 -36   2   1   13.00    7.93
 -34  36   2  131.92   11.41
 -36   2  -2  107.52   10.82
 -36   2  -2   99.82    9.87
  34 -36  -5    4.85    6.99
 -36   2  -5    2.99    6.12
 -35  36  -5   19.44    7.99
 -36   1   5    7.37    5.54
 -36   1   5   13.34    6.58
 -36   1   2   78.46    8.40
 -35  36  -2   64.53    9.77
 -35  36  -2   69.96    7.89
 -36   1   2   66.61    9.41
 -35  36   1  107.42   10.89
 -36   1  -1   86.46   10.27
 -35  36   1   88.85    8.65
 -36   1  -4   76.59    7.80
  35 -36  -4   89.31    8.91
  35 -36  -7    5.91    4.14
 -36  36  -6   16.38    6.37
 -36   0   6   30.73    5.22
 -36  36  -3  135.50    9.66
 -36  36  -3  131.12   11.72
 -36   0   3  131.05   11.01
 -36  36   0  160.04   12.98
 -36   0   0  182.09   12.92
 -36   0   0  169.99   11.31
 -36  36   0  154.69   11.49
 -36  36   3  237.60   13.92
  36 -36  -3  190.16   13.77
 -36   0  -3  200.41   12.46
 -36  36   3  206.56   12.61
  36 -36  -6   98.68    7.92
  37 -36  -5   81.23    8.13
 -37  36   2  106.84   10.66
 -36  -1  -2   82.99   10.14
 -37  36   2   87.86    8.70
 -37  36  -1    1.52    9.12
 -36  -1   1    0.58    8.41
 -37  36  -4  102.17    8.10
 -37  36  -4   95.80   10.22
 -36  -1   4  110.53    9.41
 -37  36  -7   21.02    4.11
  37 -35  -6  251.04   14.05
 -37  35   3   25.56    7.35
  37 -35  -3   25.83    8.46
 -37  35   0   17.13    9.03
 -35  -2   0   -7.40    8.94
 -37  35   0    5.99    7.75
 -37  35  -3   46.85    9.33
 -37  35  -3   31.52    7.39
 -35  -2   3   28.09    8.43
 -37  35  -6   38.61    6.87
 -35  -2   6   40.16    5.79
  37 -34  -7   33.79    4.92
  37 -34  -4  440.20   22.71
 -37  34   4  401.24   22.06
 -37  34   1    8.04    9.13
 -34  -3  -1    2.58    9.07
 -37  34   1   11.42    7.93
 -37  34  -2  290.61   18.19
 -34  -3   2  310.06   17.80
 -37  34  -2  288.22   17.21
 -34  -3   5   24.13    7.53
 -37  34  -5   34.19    6.31
  37 -33  -5   19.96    7.88
 -37  33   5   32.48    7.10
 -37  33   2   66.82    9.32
 -37  33   2   80.61   10.19
 -33  -4  -2   71.14   10.19
 -37  33  -1    0.32    9.31
 -33  -4   1    8.70    8.77
 -37  33  -1   -6.82    8.33
 -37  33  -4   91.04   10.56
 -37  33  -4   93.82    9.21
 -33  -4   4   84.77    9.82
 -37  33  -7    1.76    5.50
 -33  -4   7   -5.31    4.58
  37 -32  -6    5.22    6.48
 -37  32   6    8.94    6.04
 -37  32   3   15.29    8.44
  37 -32  -3   11.27    8.86
 -37  32   0   26.65    9.71
 -32  -5   0   27.79    9.45
 -37  32   0   49.45    9.00
 -37  32  -3  113.90   10.67
 -32  -5   3  125.07   11.44
 -32  -5   6   15.94    6.91
  37 -31  -7   28.89    5.61
 -37  31   7   38.88    5.23
 -37  31   4   21.50    8.24
 -37  31   1   -0.88    8.80
 -31  -6  -1    1.72    9.77
 -31  -6   2  165.80   13.20
 -37  31  -2  157.32   12.72
 -37  31  -5    6.95    7.43
 -31  -6   5   15.32    8.20
 -37  30   5   15.08    7.68
 -37  30   2   -4.77    9.15
 -30  -7  -2   -0.70    9.46
 -30  -7   1   10.63    9.92
 -37  30  -1   16.98    9.43
 -37  30  -4   35.70    8.96
 -30  -7   4   15.62    9.30
 -30  -7   7   39.11    6.32
 -37  29   6  151.74   11.04
 -29  -8  -3   17.18   10.27
 -37  29   3   21.91    9.10
 -37  29   0   26.44    9.78
 -29  -8   0   24.80    9.65
 -37  29  -3   19.73    9.36
 -37  29  -3    3.09    8.99
 -29  -8   3   -3.33    9.26
 -37  29  -6   64.61    8.51
 -29  -8   6   55.08    8.40
  37 -28  -7    5.83    5.77
 -37  28   7   11.25    6.24
  37 -28  -4   19.30    8.34
 -37  28   4    6.06    9.12
 -37  28   1   31.13    9.27
 -37  28   1   30.83    9.65
 -28  -9  -1   17.34    9.46
 -37  28  -2  211.00   15.25
 -28  -9   2  226.88   15.53
 -37  28  -2  207.74   14.77
 -37  28  -5   24.62    9.05
 -37  28  -5    6.57    8.35
 -28  -9   5   26.06    9.20
 -37  28  -8    4.94    4.19
 -28  -9   8    2.87    4.24
  37 -27  -8    4.62    4.28
 -37  27   8    5.40    4.26
 -37  27   5  436.77   23.26
  37 -27  -5  414.49   23.01
  37 -27  -2   12.62    9.32
 -37  27   2   18.21    9.70
 -37  27  -1  297.65   18.19
 -27 -10   1  285.00   18.63
 -37  27  -1  296.35   18.37
 -37  27  -4   16.46    9.20
 -37  27  -4   23.72    9.25
 -27 -10   4   37.22    9.91
 -37  27  -7   73.82    8.20
 -27 -10   7   77.12    8.06
  37 -26  -6   -0.71    7.22
 -37  26   6    1.93    8.06
  37 -26  -3   26.89    9.04
 -37  26   3   14.89    9.54
 -37  26   0   20.22    9.96
 -37  26   0    8.36    8.71
 -37  26  -3   57.89   10.06
 -37  26  -3   80.91   10.72
 -26 -11   3   62.98   10.62
 -37  26  -6   89.79    9.41
 -37  26  -6   77.28    9.37
 -26 -11   6   88.31    9.71
  37 -25  -7   47.72    6.58
 -37  25   7   47.33    7.51
 -37  25   4  244.83   16.21
  37 -25  -4  247.26   15.63
 -37  25   1   16.08    9.37
 -37  25   1    3.99    9.31
 -37  25  -2  165.69   13.14
 -37  25  -2  162.27   13.58
 -37  25  -5   26.76    8.80
 -37  25  -5   26.20    9.24
 -25 -12   5   32.80    9.73
 -37  25  -8   12.10    4.89
 -25 -12   8   16.49    5.31
  37 -24  -8   15.27    4.71
 -37  24   8   18.21    5.22
  37 -24  -5  130.52   10.76
 -37  24   5  120.17   11.66
  37 -24  -2    9.18    8.76
 -24 -13  -2   11.12    9.48
 -37  24   2   19.23   10.02
 -37  24  -1  230.08   15.47
 -37  24  -1  230.82   15.88
 -37  24  -4  104.15   11.44
 -37  24  -4  129.18   11.80
 -37  24  -7   17.53    6.90
 -24 -13   7    0.66    7.21
  37 -23  -6    0.24    6.95
 -37  23   6   14.76    8.52
 -23 -14  -3   -2.85   10.00
  37 -23  -3   10.08    8.47
 -37  23   3    1.32    9.57
 -37  23   0  155.59   13.01
 -37  23   0  153.37   12.60
 -23 -14   0  138.58   12.65
 -37  23  -3   34.99    9.73
 -37  23  -3   23.32   10.31
 -37  23  -6  133.96   11.22
 -37  23  -6  133.64   11.00
  37 -22  -7  122.47    8.99
 -37  22   7  120.04    9.81
  37 -22  -4  106.30   10.18
 -37  22   4   88.57   11.21
 -37  22   1   52.56    9.39
 -37  22   1   50.28   10.32
 -22 -15  -1   72.40   10.83
 -37  22  -2   -6.34    9.34
 -22 -15   2   21.04    9.81
 -37  22  -2    3.16    9.99
 -37  22  -5   95.01   10.52
 -37  22  -5  106.87   11.27
 -37  22  -8   16.07    4.84
  37 -21  -8   63.10    5.83
 -37  21   8   83.23    6.81
  37 -21  -5   17.61    7.88
 -37  21   5   20.17    9.21
  37 -21  -2   -8.83    8.47
 -21 -16  -2   -2.11    9.25
 -37  21   2    6.07    9.61
 -37  21  -1    8.00   10.27
 -37  21  -1   -6.78    9.10
 -21 -16   1   -1.05    9.65
 -37  21  -4   22.00    8.91
 -37  21  -4   37.10   10.16
 -21 -16   4   46.89   10.16
 -37  21  -7   25.41    6.58
 -37  21  -7   14.37    7.26
  37 -20  -6   23.58    7.26
  37 -20  -3  318.70   18.80
 -20 -17  -3  339.22   19.71
 -37  20   0   76.96    9.49
 -20 -17   0   67.34   10.72
 -37  20  -3  182.52   13.30
 -20 -17   3  174.13   14.24
 -37  20  -6   15.84    8.70
 -37  20  -6   33.30    7.80
 -20 -17   6   19.13    8.60
  37 -19  -7   21.82    6.15
  37 -19  -4   13.28    7.71
 -37  19   1  614.94   31.63
 -19 -18  -1  601.82   32.15
 -37  19  -2   22.16    8.69
 -19 -18   2   16.82    9.61
 -19 -18   5  624.86   32.40
 -37  19  -5  613.65   31.88
 -37  19  -8    9.55    4.09
 -19 -18   8    8.90    5.55
  37 -18  -8   12.64    4.14
  37 -18  -5   39.88    7.94
  37 -18  -2   47.51    8.18
 -18 -19  -2   32.33    9.69
 -37  18  -1   79.29    9.43
 -18 -19   1   82.00   10.79
 -37  18  -4    1.46    8.16
 -18 -19   4   22.87   10.08
 -37  18  -7   13.80    6.07
 -18 -19   7   21.77    7.53
 -37  17   6   25.38    8.81
  37 -17  -6   44.34    7.20
 -17 -20  -3   53.05    9.99
  37 -17  -3   35.80    8.15
 -37  17   3   28.34   10.18
 -37  17   0  575.68   29.68
 -17 -20   0  553.71   30.21
 -37  17   0  580.29   30.44
 -37  17  -3   -3.43    8.11
 -17 -20   3   10.74    9.22
 -37  17  -3  -12.70   10.47
 -37  17  -6   84.66    9.92
 -37  17  -6   90.01    8.51
  37 -16  -7   32.36    5.76
 -37  16   7   25.81    7.47
 -21  37  -4   17.51    6.82
  37 -16  -4    9.03    7.30
 -37  16   4   26.99    9.82
 -37  16   1    7.45    7.81
 -37  16   1  -10.52    9.81
 -16 -21  -1    4.25    9.18
 -37  16  -2   47.02    8.40
 -16 -21   2   31.83   10.12
 -37  16  -2   35.42   10.42
 -37  16  -5   13.34    7.55
 -37  16  -5   19.45    9.45
 -16 -21   5   10.36    8.97
 -16 -21   8    8.85    5.48
  37 -15  -8    5.97    3.03
 -37  15   8    1.63    5.39
 -22  37  -5   37.08    7.23
  37 -15  -5   46.08    7.32
 -37  15   5   19.92    9.46
 -22  37  -2   11.43    6.76
  37 -15  -2    2.66    7.26
 -15 -22  -2   -1.61    9.10
 -37  15   2   14.69    9.96
 -37  15  -1   14.80    9.40
 -37  15  -1   14.54    7.92
 -22  37   1    6.77    6.75
 -15 -22   1   -0.98    9.20
 -37  15  -4   20.75    7.87
 -37  15  -4   23.40    9.89
  22 -37  -4   27.76    6.33
 -15 -22   4   19.39    9.32
 -37  15  -7   47.50    5.93
 -15 -22   7   44.66    7.46
 -37  15  -7   50.85    7.81
 -23  37  -6   43.05    6.68
  37 -14  -6   42.32    6.65
 -37  14   6   24.74    8.39
 -23  37  -3   14.48    7.68
 -14 -23  -3    4.98    8.73
  37 -14  -3   16.82    7.20
 -37  14   3   27.75    9.82
 -37  14   0  137.91   12.04
 -23  37   0  105.97    9.78
 -37  14   0  129.00   10.17
 -14 -23   0  112.21   11.21
 -37  14  -3   74.33    8.98
  23 -37  -3   89.54    8.39
 -14 -23   3  101.28   10.90
 -37  14  -3   97.38   11.08
 -37  14  -6   -1.89    8.32
 -37  14  -6    8.89    6.21
  23 -37  -6   -4.62    5.18
 -14 -23   6   11.09    7.84
 -24  37  -7   11.19    5.07
  37 -13  -7   17.26    4.62
 -37  13   7   27.80    7.25
 -24  37  -4  149.22   11.43
  37 -13  -4  161.24   10.83
 -37  13   4  150.28   12.67
 -24  37  -1    1.75    7.28
 -37  13   1   24.09    7.17
 -37  13   1    8.98    9.47
 -13 -24  -1   10.70    8.64
 -37  13  -2   48.00    7.67
 -24  37   2   61.66    7.93
 -13 -24   2   44.88    9.82
 -37  13  -2   41.03   10.44
 -37  13  -5    7.00    6.54
 -37  13  -5   -3.97    8.94
  24 -37  -5    5.16    6.18
 -13 -24   5    8.83    8.74
 -13 -24   8  126.77    8.11
 -37  12   8  101.82    7.30
 -25  37  -5    9.09    7.19
  37 -12  -5    8.58    6.04
 -37  12   5   -3.68    8.65
 -37  12   2  143.01   10.12
 -25  37  -2  125.36   10.73
 -12 -25  -2  128.79   11.34
 -37  12   2  136.36   12.70
 -37  12  -1   20.25    7.17
 -25  37   1   50.36    8.05
 -12 -25   1   39.77    9.15
 -37  12  -1   34.14   10.10
  25 -37  -4  313.01   16.94
 -12 -25   4  334.34   18.19
 -37  12  -4  329.18   18.52
  25 -37  -7   21.19    4.41
 -12 -25   7   17.18    6.43
 -26  37  -6   21.73    6.86
  37 -11  -6   34.97    5.35
 -37  11   6   42.45    8.17
 -26  37  -3    7.41    7.99
  37 -11  -3    6.67    6.41
 -37  11   3    7.51    9.45
 -37  11   0   35.00    9.82
 -37  11   0   33.49    6.97
 -26  37   0   36.48    8.14
 -11 -26   0   35.35    8.72
 -37  11  -3   26.58    6.71
  26 -37  -3   18.01    7.48
 -37  11  -3   24.11    9.64
 -11 -26   3   27.13    8.83
 -37  11  -6   15.62    7.70
  26 -37  -6   23.06    5.86
 -11 -26   6   23.43    7.53
 -27  37  -7   36.24    5.66
 -37  10   7   27.18    6.66
 -27  37  -4   12.31    8.11
  37 -10  -4    9.69    5.81
 -37  10   4   11.13    8.89
 -27  37  -1  113.59   10.64
 -37  10   1  111.93   11.63
 -10 -27  -1  120.23   10.47
 -27  37   2   50.46    8.45
 -10 -27   2   44.21    8.76
 -37  10  -2   37.53    9.81
 -37  10  -5   -0.28    8.53
  27 -37  -5    9.10    6.58
 -10 -27   5    4.31    8.02
 -10 -27   8    5.21    3.43
 -37   9   8    7.73    3.60
 -28  37  -5   94.14    9.67
 -37   9   5  118.21   10.30
 -28  37  -2   17.94    8.31
  -9 -28  -2   14.15    7.66
 -37   9   2    9.26    8.96
 -37   9   2   24.39    7.11
 -28  37   1   28.58    8.30
 -37   9  -1   42.79    8.12
  -9 -28   1   27.16    8.44
 -37   9  -1   35.34    9.94
 -37   9  -4   66.25    9.74
  28 -37  -4   70.78    8.54
  -9 -28   4   62.21    9.03
  28 -37  -7    7.65    4.53
  -9 -28   7   16.56    5.59
 -29  37  -6   51.29    7.45
 -37   8   6   55.27    7.84
 -29  37  -3    0.29    8.34
 -37   8   3   21.87    6.97
 -37   8   3    4.07    9.07
 -29  37   0  507.29   26.07
 -37   8   0  475.67   25.61
  -8 -29   0  482.49   25.70
 -37   8   0  495.37   26.44
  29 -37  -3   67.25    8.77
 -37   8  -3   85.88   10.35
  -8 -29   3   65.61    8.86
  29 -37  -6  181.86   10.80
  -8 -29   6  164.64   11.03
 -37   8  -6  163.99   11.49
 -30  37  -7   22.11    5.23
 -37   7   7   14.23    5.37
 -30  37  -4   40.92    8.77
 -37   7   4   54.52    7.25
 -37   7   4   35.57    8.90
 -37   7   1    2.96    8.82
 -30  37  -1   -2.36    8.41
  -7 -30  -1   -1.38    6.96
 -37   7   1    9.60    7.70
 -30  37   2   45.97    8.61
  -7 -30   2   38.58    7.79
 -37   7  -2   35.25    9.35
 -37   7  -5    2.44    7.78
  30 -37  -5   11.40    6.67
  -7 -30   5    3.74    6.84
 -31  37  -5   20.11    7.68
 -37   6   5   23.76    6.02
 -37   6   5   16.81    7.35
 -31  37  -2    8.03    8.57
 -37   6   2   -5.34    8.54
 -37   6   2    9.97    7.58
 -31  37   1  371.26   20.89
 -37   6  -1  384.15   20.74
  -6 -31   1  352.75   19.88
 -37   6  -1  382.40   21.00
 -37   6  -4   39.87    8.56
  31 -37  -4   40.15    8.13
  -6 -31   4   48.87    7.63
  31 -37  -7   21.53    4.49
 -32  37  -6   24.75    6.63
 -37   5   6   16.73    6.02
 -37   5   3  278.29   16.96
 -32  37  -3  321.22   17.86
 -32  37   0   79.05   10.35
 -37   5   0   96.34   10.05
 -37   5   0   99.39    9.97
 -37   5  -3  156.48   11.70
  32 -37  -3  156.71   11.68
  -5 -32   3  142.28   10.28
  32 -37  -6   56.86    6.95
 -33  37  -7    6.72    4.59
 -33  37  -4   17.56    8.60
 -37   4   4   16.35    7.48
 -37   4   4   16.74    7.13
 -37   4   1   51.66    8.83
 -33  37  -1   42.99    9.45
 -37   4   1   58.94    8.85
 -33  37   2  381.27   21.30
 -37   4  -2  383.75   21.08
 -37   4  -5   -1.92    6.55
  33 -37  -5    0.44    6.68
 -34  37  -5   -1.44    7.31
 -37   3   5    6.87    5.98
 -37   3   5    8.54    5.88
 -37   3   2   16.95    7.50
 -34  37  -2   17.34    8.89
 -37   3   2   14.90    7.76
 -34  37   1   11.43    8.84
 -37   3  -1    5.44    8.39
 -37   3  -1   17.04    7.89
 -37   3  -4    7.65    6.86
  34 -37  -4    2.01    7.32
  34 -37  -7    7.54    3.84
 -35  37  -6   -5.38    6.05
 -37   2   6   10.76    4.37
 -37   2   3    9.20    6.99
 -35  37  -3   13.24    8.60
 -37   2   3   10.45    7.46
 -35  37   0   -1.20    9.04
 -37   2   0    6.54    8.80
 -37   2   0    6.75    7.31
 -37   2  -3   78.10    8.18
 -35  37   3   73.97    9.30
  35 -37  -6    5.66    5.60
 -36  37  -7   48.05    4.92
 -37   1   4   14.38    5.75
 -36  37  -4    3.15    8.12
 -37   1   4    5.08    6.75
 -37   1   1   99.78   10.31
 -37   1   1  105.82    9.06
 -36  37   2   77.14    9.70
 -37   1  -2   64.24    7.90
  36 -37  -5   75.18    7.82
 -37  37  -5   75.15    8.20
 -37   0   5   81.61    7.17
 -37  37  -2   22.75    8.95
 -37   0   2   40.54    8.21
 -37  37   1    9.20    8.66
 -37   0  -1    0.57    8.55
 -37  37   1   12.77    6.59
 -37  37   4    6.39    7.54
  37 -37  -4    8.47    7.25
 -37  37   7   21.79    3.42
 -38  37   6    6.67    5.05
 -38  37   3   54.76    8.48
 -38  37   3   45.72    6.63
 -38  37   0   10.70    8.78
 -37  -1   0   16.19    8.53
 -38  37   0   22.35    6.88
 -38  37  -3    9.29    5.71
 -38  37  -3   -3.49    7.93
 -37  -1   3    4.20    7.36
 -38  37  -6    8.37    5.13
 -37  -1   6   10.00    3.69
 -38  36   7   14.03    3.42
 -38  36   4   11.23    5.99
  38 -36  -4    0.24    7.33
 -38  36   1   57.90    9.38
 -36  -2  -1   30.03    9.23
 -38  36   1   35.90    7.68
 -38  36  -2    2.34    8.44
 -38  36  -2   -6.15    6.88
 -36  -2   2   -5.44    7.95
 -38  36  -5   21.71    7.28
 -36  -2   5   16.09    6.16
 -38  35   5   26.52    5.65
  38 -35  -5    9.02    6.76
 -38  35   2    9.72    7.53
 -38  35   2   18.03    8.79
 -35  -3  -2   -2.74    8.87
 -38  35  -1   -6.46    9.46
 -35  -3   1    1.19    8.72
 -38  35  -1   10.46    7.72
 -38  35  -4   44.31    6.94
 -38  35  -4   57.83    8.83
 -35  -3   4   60.61    8.17
 -38  35  -7    0.60    4.05
 -38  34   6   26.59    4.88
  38 -34  -6   27.15    5.92
 -38  34   3   19.57    7.72
  38 -34  -3   -3.43    8.59
 -38  34   0   33.53    9.49
 -34  -4   0   35.99    9.48
 -38  34   0   19.07    8.29
 -38  34  -3   14.35    8.83
 -38  34  -3   -9.95    7.54
 -34  -4   3   16.33    8.29
 -38  34  -6   14.26    6.57
 -34  -4   6   25.03    5.92
  38 -33  -7   44.83    5.25
 -38  33   4    5.32    7.53
  38 -33  -4    1.88    7.69
 -38  33   1   11.29    8.16
 -38  33   1   11.15    9.01
 -33  -5  -1    4.27    9.26
 -38  33  -2   50.14    9.89
 -33  -5   2   54.89    9.65
 -38  33  -2   32.16    8.72
 -38  33  -5   30.01    6.75
 -33  -5   5   24.40    7.80
 -38  32   5  165.18   11.17
  38 -32  -5  161.76   11.37
 -32  -6  -2  240.57   16.60
 -38  32   2  264.30   15.86
 -32  -6   1  306.38   18.12
 -38  32  -1  277.36   17.40
 -38  32  -4  164.23   12.36
 -32  -6   4  207.64   13.20
 -32  -6   7   90.84    6.76
 -38  31   6   33.68    6.71
 -38  31   3   12.84    8.44
 -31  -7   0   11.86    9.95
 -38  31   0   18.13    9.10
 -38  31  -3   -0.56    8.43
 -31  -7   3   -5.03    9.19
 -31  -7   6   51.72    7.33
 -38  31  -6   35.15    6.58
 -38  30   7   81.59    6.74
 -38  30   4  116.40   10.79
 -38  30   1   23.92    9.60
 -30  -8  -1   25.63   10.00
 -30  -8   2   26.11    9.44
 -38  30  -2   13.75    9.44
 -38  30  -5   50.24    8.28
 -38  30  -5   72.99    9.41
 -30  -8   5   56.23    9.24
 -38  30  -8    3.49    3.15
  38 -29  -8   10.27    3.47
 -38  29   5  206.59   13.55
 -38  29   2   20.19    9.42
 -29  -9  -2   17.45   10.39
 -38  29  -1    5.60    9.21
 -29  -9   1   23.14   10.02
 -38  29  -1    7.93    9.43
 -38  29  -4   98.57   10.32
 -29  -9   4  118.51   10.92
 -38  29  -7    6.37    5.81
 -29  -9   7    9.62    5.83
  38 -28  -6    1.76    6.79
 -38  28   6    8.44    7.22
  38 -28  -3    7.41    8.89
 -38  28   3    6.03    9.47
 -38  28   0   10.33    9.42
 -38  28   0   24.29    9.22
 -28 -10   0    5.96    9.77
 -38  28  -3   11.96    9.25
 -38  28  -3   -9.14    9.32
 -28 -10   3   -7.67    9.50
 -38  28  -6   41.57    7.69
 -38  28  -6   50.09    8.06
 -28 -10   6   45.10    8.21
  38 -27  -7   71.04    6.67
 -38  27   7   61.17    7.14
  38 -27  -4    5.80    8.44
 -38  27   4   -2.04    8.95
 -38  27   1   39.24    9.61
 -38  27   1   29.49    9.46
 -38  27  -2  176.07   13.63
 -27 -11   2  175.14   13.80
 -38  27  -2  182.43   13.87
 -38  27  -5   58.20    9.29
 -38  27  -5   30.13    8.82
 -27 -11   5   38.75    9.36
 -38  27  -8   22.30    4.16
 -27 -11   8   19.62    4.37
  38 -26  -8   35.50    4.28
 -38  26   8   32.89    4.50
  38 -26  -5  154.25   11.90
 -38  26   5  175.54   12.48
  38 -26  -2   -7.01    8.58
 -38  26   2   11.03    9.27
 -38  26  -1   -5.54    9.45
 -38  26  -1   13.11   10.05
 -38  26  -4   39.75    9.39
 -38  26  -4   39.77    9.53
 -26 -12   4   49.44    9.80
 -38  26  -7    2.81    6.10
 -26 -12   7    1.75    6.41
  38 -25  -6  142.09   10.27
 -38  25   6  127.80   10.77
 -25 -13  -3   34.17   10.05
  38 -25  -3   37.40    9.02
 -38  25   3   35.10   10.24
 -38  25   0  265.94   16.93
 -38  25   0  267.86   17.01
 -38  25  -3  386.23   21.57
 -38  25  -3  371.69   22.02
 -38  25  -6   43.64    8.11
 -38  25  -6   22.31    7.93
 -25 -13   6   34.85    8.44
  38 -24  -7   32.51    6.14
 -38  24   7   35.76    7.16
  38 -24  -4    6.33    7.99
 -38  24   4   19.12    9.61
 -38  24   1  262.74   16.54
 -24 -14  -1  270.81   17.31
 -38  24   1  243.10   17.11
 -38  24  -2   11.86    9.14
 -38  24  -2    9.31   10.09
 -38  24  -5  309.56   17.40
 -38  24  -5  262.74   17.12
 -38  24  -8   19.64    4.28
 -24 -14   8   19.34    4.98
  38 -23  -8    0.34    4.03
 -38  23   8    6.25    4.87
  38 -23  -5   98.19    9.73
 -38  23   5  102.51   10.94
  38 -23  -2   18.33    8.68
 -23 -15  -2   28.36   10.12
 -38  23   2   23.44   10.28
 -38  23  -1    9.46    9.58
 -23 -15   1   -5.29   10.11
 -38  23  -1   22.49    9.44
 -38  23  -4   -9.83    8.77
 -38  23  -4   -5.28    9.02
 -38  23  -7    2.79    6.12
  38 -22  -6    8.65    6.87
 -38  22   6   15.03    8.33
 -22 -16  -3    9.76    9.48
  38 -22  -3    8.02    8.11
 -38  22   3   17.10   10.08
 -38  22   0  417.41   22.96
 -22 -16   0  417.26   23.60
 -38  22   0  410.20   23.51
 -38  22  -3   35.63    9.27
 -22 -16   3   41.16   10.11
 -38  22  -3   27.78    9.80
 -38  22  -6    9.42    8.10
 -38  22  -6    6.70    7.31
  38 -21  -7   38.65    6.33
 -38  21   7   43.11    7.47
  38 -21  -4   34.51    8.42
 -38  21   4   28.24   10.17
 -38  21   1   63.60    9.22
 -38  21   1   31.92   10.48
 -21 -17  -1   54.57   10.35
 -38  21  -2  104.75   10.86
 -21 -17   2  108.37   11.33
 -38  21  -2   97.05   11.76
 -38  21  -5   19.84    8.28
 -38  21  -5   31.40    9.54
 -21 -17   5   22.86    9.19
 -38  21  -8    3.42    3.68
 -21 -17   8   14.51    4.98
  38 -20  -8   16.29    3.73
  38 -20  -5  179.16   12.21
  38 -20  -2  168.00   12.86
 -20 -18  -2  189.76   14.25
 -38  20  -1   26.32    8.32
 -20 -18   1   28.74    9.76
 -38  20  -4   -5.57    8.30
 -20 -18   4    1.64    9.41
 -38  20  -7  108.72    8.74
 -20 -18   7  135.43    9.65
  38 -19  -6   13.42    6.59
 -19 -19  -3   -2.02    9.27
  38 -19  -3   21.17    8.27
 -38  19   0   39.77    8.52
 -19 -19   0   19.76    9.68
 -38  19  -3   -7.29    8.35
 -19 -19   3   13.14    9.75
 -38  19  -6   -0.44    6.81
 -19 -19   6    2.90    8.07
  38 -18  -7    4.01    5.10
  38 -18  -4   30.61    7.98
 -38  18   1    3.04    7.81
 -18 -20  -1    1.34    8.84
 -38  18  -2   62.91    9.14
 -18 -20   2   61.48   10.49
 -38  18  -5   12.60    7.59
 -18 -20   5   24.19    8.97
 -18 -20   8   76.15    6.47
 -38  17   8   33.72    5.29
  38 -17  -5   37.26    7.27
 -38  17   5    1.45    9.06
 -38  17   2  304.85   17.59
  38 -17  -2  251.78   15.94
 -17 -21  -2  261.51   16.95
 -38  17  -1  115.25   10.59
 -17 -21   1  125.75   11.54
 -38  17  -1  127.27   12.29
 -17 -21   4  465.50   24.45
 -38  17  -4  439.75   24.51
 -38  17  -4  420.80   23.51
 -38  17  -7   14.93    5.01
 -17 -21   7   -6.08    6.70
 -38  17  -7    1.86    6.96
  38 -16  -6    8.23    5.87
 -38  16   6   22.95    8.24
 -22  38  -3    1.53    6.77
 -16 -22  -3   14.01    8.70
  38 -16  -3    9.89    7.43
 -38  16   3    3.27    9.85
 -38  16   0   20.19    9.86
 -38  16   0    2.92    7.59
 -16 -22   0    4.55    9.26
 -38  16  -3    8.22    7.59
 -16 -22   3   -5.18    9.27
 -38  16  -3   10.71   10.05
 -38  16  -6    9.38    8.06
 -38  16  -6    6.09    6.23
 -16 -22   6    9.30    7.83
 -38  15   7  141.76    9.78
  38 -15  -7  121.53    8.03
 -23  38  -4    8.99    6.73
  38 -15  -4   13.49    7.05
 -38  15   4   14.90    9.46
 -23  38  -1   56.81    7.55
 -38  15   1   52.33    8.15
 -38  15   1   31.07   10.08
 -15 -23  -1   44.94    9.50
 -38  15  -2   -1.02    7.36
 -23  38   2   18.14    6.80
 -15 -23   2    8.05    9.25
 -38  15  -2   13.12    9.89
 -38  15  -5   60.92    7.82
 -38  15  -5   59.35    9.83
 -15 -23   5   61.38    9.28
 -15 -23   8   47.97    5.11
 -38  14   8   18.06    4.71
  38 -14  -5  157.65   10.31
 -38  14   5  159.62   12.29
 -24  38  -5  146.84   10.71
 -24  38  -2    9.38    7.16
 -38  14   2    3.81    7.14
 -14 -24  -2    7.64    8.69
 -38  14   2   -3.29    9.46
 -38  14  -1   -2.21    7.26
 -24  38   1   25.09    7.23
 -14 -24   1   21.66    9.24
 -38  14  -1   20.76    9.75
 -38  14  -4   13.11    7.01
 -38  14  -4   17.77    9.30
  24 -38  -4   14.94    6.34
 -14 -24   4   16.15    8.72
 -14 -24   7   12.29    6.22
 -25  38  -6   41.74    6.46
  38 -13  -6   48.62    5.76
 -38  13   6   48.67    8.31
 -25  38  -3   28.45    7.63
  38 -13  -3   15.94    6.79
 -38  13   3   28.14    9.40
 -25  38   0  180.25   12.46
 -38  13   0  190.10   12.21
 -13 -25   0  180.94   13.49
 -38  13   0  206.14   14.50
 -38  13  -3   24.74    7.19
 -25  38   3   36.09    7.23
 -38  13  -3   51.31   10.38
 -13 -25   3   35.34    9.37
 -38  13  -6   15.82    7.55
  25 -38  -6   16.38    4.92
 -13 -25   6    0.23    7.27
 -26  38  -7   26.21    4.72
 -38  12   7   22.13    6.36
 -26  38  -4   17.82    7.54
 -38  12   4    8.54    9.21
 -26  38  -1   18.44    7.70
 -38  12   1   32.87    9.98
 -38  12   1   32.43    6.94
 -12 -26  -1   13.34    8.13
 -38  12  -2  122.36   10.00
 -26  38   2  151.32   10.69
 -12 -26   2  155.08   11.97
 -38  12  -2  136.51   12.53
 -38  12  -5    5.04    8.34
  26 -38  -5   -1.53    5.87
 -12 -26   5  -14.63    8.12
 -12 -26   8    9.41    3.31
 -38  11   8    9.45    3.62
 -27  38  -5   43.28    7.77
 -38  11   5   55.02    8.91
 -27  38  -2    9.60    7.99
 -38  11   2   11.48    6.23
 -11 -27  -2   10.90    7.95
 -38  11   2    5.04    9.43
 -27  38   1  344.59   19.38
 -11 -27   1  371.93   19.99
 -38  11  -1  333.50   20.57
 -38  11  -4   13.57    8.93
  27 -38  -4    6.54    6.70
 -11 -27   4    3.77    8.14
  27 -38  -7   36.46    4.07
 -11 -27   7   47.14    6.03
 -28  38  -6  100.16    8.41
 -38  10   6  101.39    9.10
 -38  10   3  523.56   28.34
 -28  38  -3  542.32   27.93
 -38  10   0  112.73   11.02
 -28  38   0   94.75    9.93
 -38  10   0   85.69    8.87
 -10 -28   0   95.25    9.71
 -28  38   3  208.49   12.39
  28 -38  -3  177.04   12.22
 -38  10  -3  167.57   13.43
 -10 -28   3  171.26   12.61
 -38  10  -6   37.99    7.53
  28 -38  -6   34.33    5.77
 -10 -28   6   41.61    6.90
 -29  38  -7    3.13    4.59
 -38   9   7   20.29    5.33
 -29  38  -4   24.17    8.05
 -38   9   4   41.99    8.81
 -38   9   1   27.82    9.36
  -9 -29  -1   32.21    7.78
 -38   9   1   14.92    6.87
 -29  38   2   21.51    7.78
  -9 -29   2   -2.61    7.64
 -38   9  -2   -5.89    9.04
 -38   9  -5    6.96    7.83
  29 -38  -5   -0.20    6.30
  -9 -29   5   19.49    7.02
 -30  38  -5   63.21    8.24
 -38   8   5   67.07    8.47
 -30  38  -2   87.23    9.68
 -38   8   2   87.30   10.23
 -38   8   2   77.86    8.44
 -30  38   1   19.17    8.31
 -38   8  -1   13.89    7.57
  -8 -30   1   12.65    7.56
 -38   8  -1   26.37    9.20
 -38   8  -4  104.39   10.12
  30 -38  -4  124.71    9.58
  -8 -30   4   97.41    9.45
  30 -38  -7    4.65    3.80
  -8 -30   7    4.15    3.73
 -31  38  -6   51.11    7.25
 -38   7   6   65.93    7.12
 -38   7   3  239.19   14.21
 -38   7   3  248.83   15.34
 -31  38  -3  239.53   15.17
 -31  38   0   13.97    8.66
 -38   7   0   25.44    7.67
  -7 -31   0   25.18    7.10
 -38   7   0   26.49    8.86
 -31  38   3    7.35    7.69
 -38   7  -3   12.73    8.43
  -7 -31   3   -4.68    7.09
  31 -38  -6   21.80    5.69
  -7 -31   6   12.11    5.10
 -38   7  -6   10.03    6.07
 -32  38  -7   20.82    4.44
 -38   6   7   19.89    3.69
 -32  38  -4   10.05    8.03
 -38   6   4   10.21    7.70
 -38   6   4   20.82    6.43
 -38   6   1  128.52   11.15
 -32  38  -1  137.41   11.63
 -38   6   1  140.46   10.75
  -6 -32   2   25.91    6.90
 -38   6  -2   12.96    8.62
 -38   6  -5   40.46    7.25
  32 -38  -5   48.68    7.02
  -6 -32   5   33.31    6.01
 -33  38  -5    9.04    7.01
 -38   5   5   14.87    6.57
 -38   5   5   17.20    5.46
 -38   5   2   14.45    8.08
 -33  38  -2    4.89    8.33
 -38   5   2    1.91    7.40
 -33  38   1  127.23   10.93
 -38   5  -1  118.66   10.52
 -38   5  -1  103.52   10.50
 -38   5  -4   33.22    7.48
  33 -38  -4   35.04    7.51
 -33  38   7   23.98    3.74
 -34  38  -6   36.97    6.44
 -38   4   6   37.79    4.81
 -34  38  -3  138.61   11.90
 -38   4   3  154.86   10.98
 -38   4   3  167.53   11.15
 -34  38   0   98.64   10.63
 -38   4   0  101.41    9.93
 -38   4   0  107.01   10.01
 -38   4  -3    8.87    7.37
 -34  38   3   14.18    7.73
  34 -38  -6   -9.42    5.08
 -35  38  -7   91.56    6.01
 -38   3   4  213.45   13.22
 -38   3   4  240.36   13.09
 -35  38  -4  214.63   14.12
 -35  38  -1  386.35   22.08
 -38   3   1  393.70   21.57
 -38   3   1  410.22   21.44
 -35  38   2  277.86   15.97
 -38   3  -2  242.68   15.11
  35 -38  -5  310.91   16.00
 -38   3  -5  271.27   15.22
 -36  38  -5   94.37    8.60
 -38   2   5   88.79    7.17
 -36  38  -2   65.48    9.37
 -38   2   2   50.35    8.15
 -38   2   2   62.90    7.60
 -36  38   1  158.63   12.16
 -38   2  -1  147.09   11.98
 -38   2  -1  166.06   11.02
 -38   2  -4    7.54    5.62
 -36  38   4   29.27    7.29
 -37  38  -6   27.56    5.40
 -37  38  -3   42.36    8.72
 -38   1   3   55.53    7.70
 -37  38   0    6.51    8.61
 -38   1   0   -7.69    8.20
 -38   1   0   16.61    6.45
 -37  38   3   24.64    7.82
 -37  38   6    5.93    4.72
 -38  38  -4   19.82    7.38
 -38   0   4   26.15    6.35
 -38  38  -1   26.84    8.58
 -38   0   1   13.70    7.70
 -38  38   2   47.87    8.64
 -38  38   5   58.00    6.96
 -39  38   4    6.33    6.44
 -39  38   1   21.93    8.28
 -38  -1  -1   12.93    7.83
 -39  38  -2   12.04    7.86
 -38  -1   2    1.63    7.32
 -39  38  -5   36.56    6.34
 -38  -1   5   37.11    5.12
 -39  37   5  103.58    8.18
 -39  37   2    7.03    7.77
 -39  37   2   11.37    6.33
 -39  37  -1  214.63   14.35
 -37  -2   1  230.24   14.17
 -39  37  -1  204.75   12.81
 -39  37  -4   71.50    8.50
 -37  -2   4   68.07    7.62
 -39  36   6   13.24    5.07
 -39  36   3   30.86    6.80
 -39  36   3   41.86    8.22
 -39  36   0    7.30    9.01
 -36  -3   0    9.81    8.61
 -39  36   0   16.05    7.20
 -39  36  -3   47.82    8.55
 -39  36  -3   33.23    6.72
 -36  -3   3   46.47    7.98
 -39  36  -6   36.85    5.60
 -36  -3   6   38.47    4.68
 -39  35   7   29.65    3.81
 -39  35   4   18.49    6.34
  39 -35  -4   -4.10    7.39
 -39  35   1   11.70    8.84
 -35  -4  -1    3.92    8.91
 -39  35   1    1.63    7.64
 -39  35  -2   37.49    9.23
 -39  35  -2   61.37    8.09
 -35  -4   2   49.06    8.76
 -39  35  -5   24.10    7.41
 -35  -4   5   37.91    6.70
 -39  34   5   28.07    6.00
  39 -34  -5   20.77    6.81
 -39  34   2    2.65    7.75
 -39  34   2    0.29    8.57
 -34  -5  -2   -6.47    9.00
 -39  34  -1   33.22    9.75
 -34  -5   1   22.56    8.79
 -39  34  -1   14.45    8.23
 -39  34  -4    0.79    6.66
 -34  -5   4    9.83    7.33
 -39  33   6   11.08    4.87
  39 -33  -6   14.88    5.83
 -39  33   3   89.42    9.19
  39 -33  -3   76.36    9.49
 -33  -6   0   24.66    9.01
 -39  33   0    9.47    8.48
 -39  33  -3   62.92    8.77
 -33  -6   3   62.50    9.29
 -33  -6   6   12.60    5.81
 -39  32   4   26.04    8.01
 -39  32   1  133.79   11.66
 -32  -7  -1  143.60   12.51
 -32  -7   2   21.66    9.13
 -39  32  -2   14.15    8.49
 -39  32  -5   14.90    6.73
 -32  -7   5   23.31    7.48
 -39  31   5   29.06    7.44
 -39  31   2   10.99    8.70
 -31  -8  -2  -10.65    9.68
 -31  -8   1    8.59    9.32
 -39  31  -1    0.89    8.82
 -39  31  -4    1.00    8.07
 -31  -8   4   10.14    8.45
 -39  31  -7   11.25    5.11
 -31  -8   7   21.14    4.98
 -39  30   6  115.32    8.96
 -39  30   3  133.50   11.75
 -39  30   0  147.61   12.76
 -30  -9   0  134.38   12.52
 -39  30   0  144.55   12.45
 -39  30  -3   98.68   11.23
 -39  30  -3  134.98   11.43
 -30  -9   3  107.40   11.41
 -39  30  -6   10.03    6.81
 -30  -9   6   16.05    6.75
 -39  30  -6    9.95    6.21
  39 -29  -7   10.73    5.00
 -39  29   7   15.73    5.08
  39 -29  -4   68.03    9.22
 -39  29   4   53.78    9.09
 -39  29   1   34.99    9.63
 -39  29   1   22.57    9.39
 -29 -10  -1   29.40   10.41
 -39  29  -2   33.33    9.40
 -29 -10   2   19.43    9.79
 -39  29  -2   18.06    9.35
 -39  29  -5   17.31    7.81
 -39  29  -5    6.65    8.13
 -29 -10   5   14.19    8.31
  39 -28  -8   34.54    3.42
  39 -28  -5   22.60    7.57
 -39  28   5   20.42    8.15
 -39  28   2   43.48    9.74
  39 -28  -2   47.81    9.34
 -39  28  -1   53.73    9.93
 -28 -11   1   47.62   10.29
 -39  28  -1   34.89   10.18
 -39  28  -4   13.48    9.17
 -39  28  -4   18.64    8.60
 -28 -11   4   18.56    9.14
 -39  28  -7   12.16    5.61
 -28 -11   7    6.22    5.55
  39 -27  -6  142.60    9.89
 -39  27   6  133.38   10.33
  39 -27  -3    4.52    8.36
 -39  27   3   -1.52    9.32
 -39  27   0  144.63   13.31
 -39  27   0  167.58   12.79
 -39  27  -3  123.32   12.09
 -39  27  -3  151.45   12.40
 -27 -12   3  133.60   12.17
 -39  27  -6   16.43    7.17
 -39  27  -6   26.93    7.30
 -27 -12   6   17.52    7.33
  39 -26  -7   21.02    5.33
 -39  26   7   17.15    5.94
  39 -26  -4   10.38    8.05
 -39  26   4    0.87    9.16
 -39  26   1   54.45   10.08
 -39  26   1   47.51    9.63
 -39  26  -2  132.97   12.18
 -39  26  -2  139.62   12.65
 -39  26  -5   69.28    9.53
 -39  26  -5   91.41    9.66
 -26 -13   5   65.08    9.80
 -39  26  -8    0.79    2.99
 -26 -13   8    1.77    3.71
  39 -25  -8   18.82    3.50
 -39  25   8   20.96    3.88
  39 -25  -5  101.23    9.26
 -39  25   5   91.14   10.22
  39 -25  -2   69.08    9.54
 -39  25   2   65.04   10.90
 -25 -14  -2   76.36   11.07
 -39  25  -1   21.93    9.12
 -39  25  -1    4.75    9.85
 -39  25  -4    1.49    8.54
 -39  25  -4    7.45    9.09
 -39  25  -7   74.01    7.00
 -25 -14   7   77.63    7.46
  39 -24  -6    9.02    6.54
 -39  24   6    8.00    7.40
 -24 -15  -3   51.92   10.30
  39 -24  -3   49.56    8.85
 -39  24   3   40.46   10.22
 -39  24   0   79.63   10.97
 -39  24   0   72.30   10.08
 -24 -15   0   66.20   10.96
 -39  24  -3   -0.62    8.83
 -39  24  -3   -4.69    9.73
 -39  24  -6   80.09    9.15
 -39  24  -6   90.80    8.69
  39 -23  -7   25.30    5.33
 -39  23   7   21.71    6.43
  39 -23  -4  126.00   10.66
 -39  23   4  145.43   12.21
 -39  23   1   13.90   10.37
 -39  23   1   31.25    8.99
 -23 -16  -1   31.41   10.05
 -39  23  -2   68.81   10.23
 -23 -16   2   63.70   11.07
 -39  23  -2   75.53   11.40
 -39  23  -5   -7.44    7.94
 -39  23  -5   -2.30    8.69
 -39  23  -8  119.95    6.79
 -39  22   8  161.72    8.70
  39 -22  -8  137.48    7.90
  39 -22  -5    7.34    7.38
 -39  22   5   -0.56    8.75
 -39  22   2  514.56   27.84
  39 -22  -2  505.81   27.34
 -22 -17  -2  523.12   27.90
 -39  22  -1   10.37    9.22
 -22 -17   1   18.07    9.91
 -39  22  -1    1.04    9.73
 -22 -17   4  226.41   15.08
 -39  22  -4  229.90   14.76
 -39  22  -7   33.47    5.72
 -22 -17   7   42.90    6.91
  39 -21  -6    2.42    6.18
 -21 -18  -3   34.35   10.03
  39 -21  -3   37.34    8.47
 -39  21   0   30.53    9.18
 -21 -18   0   44.74   10.33
 -39  21  -3   12.93    8.13
 -21 -18   3    4.34    9.94
 -39  21  -6   -3.95    7.73
 -39  21  -6    0.85    6.67
 -21 -18   6    6.69    7.87
  39 -20  -7   43.47    5.62
  39 -20  -4   10.24    7.69
 -39  20   1  144.44   11.40
 -20 -19  -1  128.82   12.43
 -39  20  -2    6.98    7.92
 -20 -19   2   25.16    9.69
 -39  20  -5   59.51    8.45
 -20 -19   5   53.66    9.44
 -20 -19   8   19.23    4.43
  39 -19  -5   52.78    7.50
 -19 -20  -2   10.00    9.44
 -39  19  -1   54.15    8.98
 -19 -20   1   57.46    9.98
 -39  19  -4    9.69    7.78
 -19 -20   4   17.24    9.42
 -39  19  -7   16.58    4.82
 -19 -20   7    6.42    6.21
  39 -18  -6   96.02    7.95
 -39  18   6  103.98    9.61
 -18 -21  -3   24.74    9.50
  39 -18  -3   14.36    7.65
 -39  18   3   12.32    9.93
 -39  18   0   16.54    9.99
 -39  18   0   15.42    8.28
 -18 -21   0   24.85    9.49
 -39  18  -3   51.21    8.49
 -18 -21   3   50.56   10.04
 -39  18  -3   47.82   10.04
 -39  18  -6  130.50   10.77
 -18 -21   6  150.44   11.02
 -39  18  -6  129.35    9.47
  39 -17  -7    3.02    4.26
 -39  17   7   11.20    6.34
  39 -17  -4   35.85    7.42
 -39  17   4   24.11    9.80
 -39  17   1   -3.05   10.04
 -39  17   1    6.29    7.70
 -17 -22  -1    1.30    8.97
 -39  17  -2   29.43    7.94
 -17 -22   2   34.31    9.71
 -39  17  -5   10.06    6.75
 -39  17  -5    5.80    8.85
 -17 -22   5    4.44    8.37
 -17 -22   8   12.33    3.96
 -39  16   8   31.83    4.39
  39 -16  -5    8.17    6.28
 -39  16   5   25.18    8.64
 -39  16   2   25.53    7.57
 -16 -23  -2   16.91    8.97
 -39  16   2    1.65    9.77
 -39  16  -1   30.59    7.70
 -16 -23   1   50.09    9.65
 -39  16  -1   38.06   10.44
 -39  16  -4   15.63    7.17
 -39  16  -4   11.76    8.90
 -16 -23   4   18.49    8.87
 -16 -23   7  120.67    8.86
  39 -15  -6   -0.76    5.13
 -39  15   6    6.36    7.51
 -39  15   3  354.17   20.07
 -24  39  -3  324.05   18.30
 -39  15   0   75.33   10.41
 -24  39   0   61.26    7.89
 -39  15   0   59.99    8.14
 -15 -24   0   64.77    9.94
 -24  39   3  145.63    9.96
 -39  15  -3  140.99   10.65
 -39  15  -3  141.00   12.72
 -15 -24   3  155.86   12.17
 -39  15  -6   80.60    8.76
 -39  15  -6   79.00    6.86
 -15 -24   6   91.82    8.66
 -39  14   7   12.94    6.05
 -25  39  -4    2.36    6.74
  39 -14  -4    6.85    6.40
 -39  14   4   -0.29    8.99
 -25  39  -1   33.48    7.31
 -39  14   1   32.59    9.60
 -39  14   1   32.36    7.39
 -14 -25  -1   26.42    8.73
 -39  14  -2   42.59    7.30
 -25  39   2   27.81    7.15
 -14 -25   2   24.11    9.13
 -39  14  -2   26.44    9.73
 -39  14  -5   18.48    5.95
 -39  14  -5   35.25    8.57
  25 -39  -5   24.50    5.46
 -39  13   8   10.05    3.35
 -26  39  -5   13.30    6.49
  39 -13  -5   20.64    5.56
 -39  13   5   34.42    8.57
 -26  39  -2   19.43    7.27
 -39  13   2   12.30    6.70
 -39  13   2   10.52    9.51
 -13 -26  -2   -8.23    8.43
 -39  13  -1   12.60    6.65
 -26  39   1   10.73    7.13
 -13 -26   1   31.33    8.54
 -39  13  -1   18.19   10.13
 -39  13  -4    5.04    5.96
 -26  39   4   13.12    6.32
 -39  13  -4   18.66    9.01
 -13 -26   4   -4.09    8.13
 -13 -26   7   30.16    5.59
 -27  39  -6   -0.62    5.33
 -39  12   6   20.79    7.10
 -27  39  -3   52.87    8.33
 -39  12   3   65.65    7.08
 -39  12   3   65.78   10.12
 -39  12   0   64.05   10.35
 -27  39   0   71.35    8.58
 -12 -27   0   61.71    8.98
 -27  39   3   15.49    6.89
 -39  12  -3   19.14    9.33
 -12 -27   3   20.61    8.60
 -39  12  -6    2.12    6.79
  27 -39  -6    4.74    4.38
 -12 -27   6   -1.73    6.34
 -39  11   7  258.76   11.65
 -28  39  -7  176.94   10.57
 -28  39  -4   53.97    7.95
 -39  11   4   53.78    9.19
 -39  11   1   75.24   10.44
 -28  39  -1   84.42    9.05
 -11 -28  -1   64.64    8.90
 -28  39   2  177.05   11.97
 -11 -28   2  179.32   12.56
 -39  11  -2  171.52   13.57
 -39  11  -5   28.42    8.00
  28 -39  -5   16.51    6.07
 -11 -28   5   21.01    7.14
 -29  39  -5   57.23    7.59
 -39  10   5   49.39    8.33
 -29  39  -2    7.91    7.79
 -39  10   2    9.82    8.83
 -29  39   1   15.91    8.00
 -10 -29   1   35.88    8.15
 -39  10  -1   20.81    8.78
 -39  10  -4    2.18    8.24
 -29  39   4   10.42    6.55
  29 -39  -4    3.23    6.63
 -10 -29   4    4.71    7.40
 -10 -29   7   13.49    3.92
 -30  39  -6   54.58    6.67
 -39   9   6   59.26    7.00
 -30  39  -3  110.14    9.95
 -39   9   3  102.06   10.56
 -30  39   0  202.32   13.18
 -39   9   0  173.88   12.31
  -9 -30   0  191.07   12.61
 -39   9   0  211.53   13.89
 -30  39   3  155.79   10.97
 -39   9  -3  154.78   12.11
  -9 -30   3  136.31   10.97
  30 -39  -6   67.75    5.95
 -39   9  -6   77.62    7.28
 -31  39  -7   20.51    3.77
 -39   8   7   19.62    3.94
 -31  39  -4   99.17    9.20
 -39   8   4   66.82    8.98
 -31  39  -1  336.02   19.22
  -8 -31  -1  322.14   18.33
 -39   8   1  334.03   18.52
 -39   8   1  373.56   19.62
  -8 -31   2   57.60    8.09
 -39   8  -2   70.20    9.45
 -39   8  -5  115.38    9.44
  31 -39  -5  120.76    8.70
  -8 -31   5  107.78    8.63
 -32  39  -5   72.00    7.87
 -39   7   5   66.58    7.90
 -39   7   2   12.94    8.49
 -32  39  -2    2.46    8.11
 -39   7   2   -1.91    6.72
 -32  39   1  100.83    9.75
  -7 -32   1   96.82    8.65
 -39   7  -1  100.62   10.17
 -39   7  -4   11.57    7.37
 -32  39   4   30.01    7.04
  -7 -32   4   16.63    6.21
 -33  39  -6    8.00    5.31
 -39   6   6   15.49    4.92
 -39   6   3  178.23   11.41
 -39   6   3  187.98   12.24
 -33  39  -3  173.84   12.56
 -33  39   0    7.19    8.29
 -39   6   0    8.98    7.54
 -33  39   3   26.29    7.53
 -39   6  -3   19.72    7.70
 -33  39   6   18.51    4.82
 -39   5   4  193.29   11.40
 -39   5   4  192.29   11.96
 -34  39  -4  184.91   12.68
 -34  39  -1   -4.71    8.13
 -39   5   1    6.88    7.34
 -39   5   1   10.51    7.95
 -34  39   2  117.42    9.98
 -39   5  -2   89.19    9.45
 -34  39   5   15.08    6.07
 -39   5  -5   11.65    5.46
 -35  39  -5    9.62    6.47
 -39   4   5   14.99    5.12
 -35  39  -2  242.29   14.84
 -39   4   2  220.56   13.99
 -39   4   2  233.60   14.01
 -35  39   1   12.41    8.38
 -39   4  -1   21.98    7.77
 -39   4  -1   22.99    7.58
 -39   4  -4    6.24    5.96
 -35  39   4   15.21    6.90
 -36  39  -6   42.90    5.68
 -39   3   3    8.62    6.21
 -36  39  -3    5.08    7.89
 -39   3   3   12.67    6.64
 -36  39   0    0.27    8.37
 -39   3   0   11.66    7.66
 -39   3   0    7.17    6.93
 -39   3  -3   58.81    7.40
 -36  39   3   83.55    8.61
 -36  39   6   35.62    4.94
 -37  39  -4   10.02    7.36
 -39   2   4   16.19    5.76
 -37  39  -1   68.48    9.48
 -39   2   1   71.91    8.58
 -39   2   1   71.48    7.61
 -39   2  -2   19.69    6.17
 -37  39   2   16.91    7.86
 -37  39   5   18.56    5.81
 -38  39  -5   12.24    5.68
 -39   1   5   15.44    4.10
 -38  39  -2  192.51   12.93
 -39   1   2  188.40   12.26
 -38  39   1    4.13    8.03
 -39   1  -1   12.81    7.69
 -38  39   4  143.85   10.09
 -39  39  -6   39.68    4.48
 -39  39  -3   -1.16    7.42
 -39   0   3   17.03    6.56
 -39  39   0    7.47    8.03
 -39   0   0    9.07    7.37
 -39  39   3    2.35    6.95
 -39  39   6    7.42    3.48
 -40  39   5   34.30    5.44
 -40  39   2   12.13    7.27
 -40  39  -1   18.01    7.77
 -39  -1   1   17.27    7.32
 -40  39  -4    8.66    6.30
 -40  38   6    0.70    3.65
 -40  38   3   27.94    7.58
 -40  38   0   20.97    8.37
 -38  -2   0   19.28    7.82
 -40  38   0   30.18    6.23
 -40  38  -3   64.20    8.23
 -38  -2   3   59.10    7.39
 -40  38  -6   12.04    4.03
 -40  37   4    8.23    6.66
 -40  37   4   -1.18    4.79
 -40  37   1   63.02    9.15
 -37  -3  -1   66.61    9.09
 -40  37   1   65.96    7.60
 -40  37  -2    2.38    7.96
 -40  37  -2    3.10    6.10
 -37  -3   2   -4.86    7.28
 -37  -3   5  112.66    7.86
 -40  37  -5  118.63    8.60
 -40  36   5   12.90    4.15
 -40  36   5   17.31    6.01
 -40  36   2   61.26    8.81
 -40  36   2   54.20    7.65
 -40  36  -1   23.44    8.89
 -36  -4   1    6.83    8.08
 -40  36  -1   33.35    7.37
 -40  36  -4    7.80    5.24
 -40  36  -4    5.39    7.46
 -36  -4   4   10.82    6.70
 -40  35   6   31.87    5.34
 -40  35   3  162.49   11.76
 -40  35   3  160.93   10.95
 -40  35   0  119.08   11.17
 -35  -5   0  129.40   11.15
 -40  35   0  116.31   10.10
 -35  -5   3  292.87   16.75
 -40  35  -3  272.08   16.08
 -40  35  -3  302.26   17.12
 -40  35  -6   81.95    7.08
 -35  -5   6   84.22    6.25
 -40  34   4   31.99    6.94
  40 -34  -4   16.73    7.22
 -34  -6  -1   30.50    9.02
 -40  34   1   34.04    8.25
 -40  34  -2   -0.24    7.57
 -34  -6   2    7.98    8.40
 -34  -6   5   87.27    7.93
 -40  34  -5   70.79    6.77
 -40  33   5    7.90    6.18
 -40  33   2    2.77    7.55
 -33  -7  -2   -3.09    9.06
 -33  -7   1   26.49    9.28
 -40  33  -1   15.64    8.50
 -40  33  -4   11.47    6.95
 -33  -7   4   13.67    7.93
 -33  -7   7   23.87    3.41
 -40  32   6   20.15    5.25
 -40  32   3   15.11    8.26
 -32  -8   0   18.33    9.32
 -40  32   0   17.37    9.01
 -40  32  -3    1.27    7.68
 -32  -8   3  -10.38    8.51
 -40  32  -6   25.43    6.14
 -32  -8   6   16.58    6.01
 -40  31   7   42.80    4.11
 -40  31   4   62.35    8.87
 -40  31   1   71.57   10.17
 -40  31   1   86.81   10.46
 -31  -9  -1   89.85   11.03
 -31  -9   2   40.55    9.85
 -40  31  -2   45.25    8.99
 -40  31  -5   20.89    6.81
 -40  31  -5   11.23    7.53
 -31  -9   5    7.89    7.29
  40 -30  -5  115.72    9.52
 -40  30   5  116.12    9.77
 -40  30   2   10.91    8.98
 -40  30   2   29.51    8.44
 -30 -10  -2    9.24    9.49
 -40  30  -1   39.94    9.72
 -30 -10   1   48.80   10.39
 -40  30  -1   55.90    9.84
 -40  30  -4    6.45    8.58
 -40  30  -4   15.47    8.15
 -30 -10   4    6.15    8.61
 -40  30  -7   22.10    4.96
 -30 -10   7   32.63    4.89
  40 -29  -6    9.39    6.04
 -40  29   6   14.55    6.35
 -40  29   3    7.89    8.88
  40 -29  -3   -8.13    8.57
 -40  29   0   46.23    9.91
 -29 -11   0   45.34   10.38
 -40  29   0   49.72   10.00
 -40  29  -3   51.44    9.49
 -40  29  -3   51.87    9.60
 -29 -11   3   46.84    9.81
 -40  29  -6   56.31    7.17
 -29 -11   6   47.80    7.15
  40 -28  -7    9.82    4.75
 -40  28   7   10.03    4.77
 -40  28   4  267.90   17.11
  40 -28  -4  307.89   17.08
 -40  28   1   42.01    9.95
 -40  28   1   31.24    9.50
 -40  28  -2  631.15   31.99
 -28 -12   2  594.19   32.15
 -40  28  -2  607.30   32.10
 -40  28  -5    5.97    7.51
 -40  28  -5    8.28    7.66
  40 -27  -5   -2.13    7.46
 -40  27   5   10.78    8.06
 -40  27   2  207.71   13.54
 -40  27   2  151.73   13.70
 -40  27  -1    2.20    9.15
 -40  27  -1   -2.28    9.64
 -40  27  -4  262.57   16.23
 -40  27  -4  252.63   15.99
 -40  27  -7    1.57    4.65
 -27 -13   7   -7.90    5.32
  40 -26  -6   25.97    6.31
 -40  26   6   29.65    7.27
 -26 -14  -3   28.29    9.72
  40 -26  -3   21.85    8.80
 -40  26   3   30.29    9.62
 -40  26   0   30.67   10.04
 -40  26   0   36.68    9.20
 -40  26  -3    1.80    8.83
 -40  26  -3   10.42    9.08
 -40  26  -6    9.50    6.68
 -40  26  -6   -1.85    6.45
  40 -25  -7   40.95    5.58
 -40  25   7   51.71    6.31
 -40  25   4  369.63   20.52
  40 -25  -4  345.14   19.90
 -40  25   1  156.17   13.00
 -40  25   1  134.81   12.26
 -25 -15  -1  156.43   13.11
 -40  25  -2   44.66    9.51
 -40  25  -2   39.23   10.24
 -40  25  -5  133.51   10.88
 -40  25  -5  139.36   11.30
 -25 -15   8    7.76    3.08
 -40  24   8    5.33    3.11
  40 -24  -5   21.60    7.30
 -40  24   5    8.50    8.34
 -40  24   2    0.29    8.75
 -40  24   2   -0.98    9.51
 -24 -16  -2    7.16    9.61
 -40  24  -1   88.45   10.74
 -24 -16   1   91.09   11.21
 -40  24  -1   89.78   11.15
 -40  24  -4   33.76    8.88
 -40  24  -4   26.10    9.44
 -24 -16   4   21.39    9.45
 -40  24  -7    8.27    5.06
  40 -23  -6   72.61    7.67
 -40  23   6   97.74    8.90
 -23 -17  -3    7.28    9.34
  40 -23  -3   -0.57    8.16
 -40  23   3   15.42    9.70
 -40  23   0  166.21   13.34
 -40  23   0  145.90   12.25
 -23 -17   0  154.59   13.06
 -40  23  -3   30.86    8.47
 -40  23  -3   32.29    9.76
 -23 -17   3   25.53    9.96
 -40  23  -6   83.79    8.79
 -40  23  -6   80.49    7.95
 -23 -17   6   86.06    8.77
  40 -22  -7   -0.67    4.36
 -40  22   7    3.11    5.91
  40 -22  -4  133.46   10.30
 -40  22   4  108.01   11.55
 -40  22   1    9.75    9.33
 -40  22   1    0.29    8.65
 -22 -18  -1   -9.86    9.72
 -40  22  -2   70.48    9.46
 -22 -18   2   60.70   10.69
 -40  22  -2   53.88   10.96
 -40  22  -5   12.19    7.37
 -40  22  -5   -8.53    8.60
 -22 -18   5   11.52    8.67
 -22 -18   8    1.47    3.30
  40 -21  -5   17.93    6.80
 -40  21   2   22.66    8.22
 -21 -19  -2   24.65    9.54
 -40  21  -1   93.03   10.11
 -21 -19   1   98.37   11.35
 -40  21  -4   23.92    8.24
 -21 -19   4   32.26    9.22
 -40  21  -7   47.29    5.22
 -21 -19   7   47.51    6.46
  40 -20  -6   26.18    5.89
  40 -20  -3  507.66   27.33
 -20 -20  -3  542.97   28.08
 -40  20   0   28.47    8.27
 -20 -20   0   48.13    9.50
 -20 -20   3  176.75   13.57
 -40  20  -3  165.51   12.32
 -40  20  -6   56.32    6.91
 -20 -20   6   63.78    8.33
  40 -19  -7   47.81    4.94
 -40  19   7   52.77    6.71
  40 -19  -4    9.64    7.22
 -40  19   1   11.83    7.74
 -19 -21  -1   24.27    9.45
 -40  19  -2   36.27    8.20
 -19 -21   2   44.20    9.79
 -40  19  -5    6.91    6.67
 -19 -21   5   -3.48    8.19
 -19 -21   8    0.55    3.16
 -40  18   8   -3.70    3.24
  40 -18  -5   14.61    6.21
 -40  18   5   11.03    8.48
 -40  18   2   47.01    8.20
 -40  18   2   43.42   10.17
 -18 -22  -2   45.59    9.75
 -40  18  -1   55.71    8.56
 -18 -22   1   47.70    9.91
 -40  18  -1   52.29   10.55
 -40  18  -4   73.84    8.35
 -40  18  -4   75.98    9.95
 -18 -22   4   61.34    9.97
 -18 -22   7   31.27    5.97
  40 -17  -6   29.96    5.48
 -40  17   6   36.92    7.56
 -40  17   3    0.31    9.57
 -40  17   0    7.44    9.80
 -40  17   0   14.31    7.65
 -17 -23   0   14.28    8.91
 -40  17  -3    7.60    7.30
 -40  17  -3   24.59    9.30
 -17 -23   3    9.82    8.74
 -40  17  -6   14.92    7.38
 -40  17  -6    7.61    5.03
 -17 -23   6   12.84    6.78
 -40  16   7   38.39    6.27
 -40  16   4  182.84   13.33
  40 -16  -4  171.28   11.37
 -40  16   1  108.10   11.79
 -40  16   1  108.18    9.53
 -16 -24  -1   99.29   10.79
 -40  16  -2   27.59    7.49
 -16 -24   2   33.08    9.23
 -40  16  -2   48.74   10.20
 -40  16  -5   65.26    6.97
 -40  16  -5   69.09    9.23
 -16 -24   5   63.45    8.88
 -25  40  -5   10.83    5.35
  40 -15  -5    0.51    5.47
 -40  15   5   -6.02    8.05
 -25  40  -2   62.43    7.66
 -40  15   2   57.37    7.65
 -40  15   2   55.92   10.02
 -15 -25  -2   56.44    9.72
 -40  15  -1   23.65    7.02
 -25  40   1   10.57    6.55
 -15 -25   1   10.28    8.73
 -40  15  -1    7.64    9.75
 -40  15  -4   84.20    7.70
 -40  15  -4   62.49   10.00
 -15 -25   4   71.20    9.50
 -15 -25   7   -8.30    4.93
 -40  14   6    8.79    6.97
 -40  14   3  120.93    9.16
 -40  14   3  111.09   11.52
 -40  14   0  144.29   12.52
 -26  40   0  139.79   10.56
 -40  14   0  142.37   10.33
 -14 -26   0  147.78   11.86
 -40  14  -3   88.27    8.22
 -26  40   3  111.90    8.18
 -40  14  -3   86.05   10.61
 -14 -26   3   82.75    9.96
 -40  14  -6    6.57    6.60
 -14 -26   6    6.04    6.30
 -40  13   7  116.09    7.91
 -27  40  -4  100.00    8.74
 -40  13   4  104.73    8.01
 -40  13   4  109.13   10.44
 -40  13   1  139.58   11.68
 -27  40  -1  110.37    9.61
 -40  13   1  111.22    9.06
 -13 -27  -1  120.94   10.63
 -27  40   2    6.21    6.91
 -13 -27   2    9.25    8.01
 -40  13  -2   20.96    9.40
 -40  13  -5   84.39    9.28
 -27  40   5   84.62    6.67
 -13 -27   5   79.42    8.70
 -28  40  -5   49.85    6.76
 -40  12   5   58.08    8.33
 -28  40  -2   50.54    7.79
 -40  12   2   34.91    9.35
 -12 -28  -2   25.09    7.88
 -28  40   1   15.84    7.45
 -12 -28   1   20.73    7.84
 -40  12  -1   13.22    9.43
 -40  12  -4   -5.45    8.51
 -28  40   4    6.68    5.95
 -12 -28   4   -7.22    7.40
 -12 -28   7   24.25    4.19
 -40  11   6  130.68    8.92
 -29  40  -6  111.34    7.89
 -29  40  -3    9.07    7.36
 -40  11   3    6.12    8.61
 -29  40   0   33.20    7.90
 -11 -29   0   42.81    8.24
 -40  11   0   41.60    9.46
 -29  40   3   47.44    7.37
 -40  11  -3   59.79    9.32
 -11 -29   3   37.30    7.98
 -29  40   6   23.82    4.22
 -40  11  -6   30.07    6.31
 -40  10   7   10.50    3.81
 -30  40  -4  133.42   10.15
 -40  10   4  130.99   10.90
 -40  10   1   26.04    8.88
 -30  40  -1   25.24    7.79
 -10 -30  -1   20.46    7.29
 -30  40   2   17.08    7.15
 -10 -30   2   31.85    7.71
 -40  10  -2    6.70    8.61
 -40  10  -5   68.50    8.28
 -30  40   5   72.48    6.80
 -10 -30   5   77.86    7.38
 -40   9   5   50.68    7.44
 -40   9   2   15.21    8.40
 -31  40  -2   10.92    7.52
 -31  40   1  126.82   10.80
  -9 -31   1  130.97   10.18
 -40   9  -1  149.60   11.68
 -31  40   4  222.50   12.42
  -9 -31   4  190.34   12.30
 -40   9  -4  192.76   13.09
 -32  40  -6   56.64    5.65
 -40   8   6   38.35    5.78
 -32  40  -3   43.72    8.22
 -40   8   3   43.62    8.39
 -32  40   0   12.98    7.96
 -40   8   0    5.15    6.93
 -40   8   0   -4.66    8.36
 -32  40   3  187.81   11.88
  -8 -32   3  174.91   11.27
 -40   8  -3  171.83   12.28
 -32  40   6   14.47    4.22
 -33  40  -4    1.11    7.15
 -40   7   4   22.11    7.03
 -33  40  -1   13.05    7.72
 -40   7   1   -9.18    6.81
 -40   7   1    6.14    8.04
 -33  40   2  310.30   17.69
 -40   7  -2  309.79   17.76
 -40   7  -5   -2.32    5.70
 -33  40   5   10.50    5.40
 -34  40  -5    7.93    6.14
 -40   6   5   12.45    5.21
 -34  40  -2  291.37   16.56
 -40   6   2  263.93   15.67
 -40   6   2  293.94   16.32
 -34  40   1   46.73    8.40
 -40   6  -1   42.93    8.22
 -34  40   4  258.26   14.39
 -40   6  -4  242.00   14.25
 -35  40  -6   37.18    4.96
 -40   5   3    7.31    6.68
 -35  40  -3    0.97    7.43
 -40   5   3   -0.17    5.95
 -35  40   0    6.78    7.79
 -40   5   0   18.78    7.44
 -40   5   0    6.37    7.28
 -40   5  -3   12.12    6.50
 -35  40   3   19.28    7.16
 -35  40   6   23.33    4.07
 -40   4   4    4.18    5.19
 -40   4   4    7.68    4.83
 -36  40  -1   65.33    9.07
 -40   4   1   74.00    8.16
 -40   4   1   75.41    7.95
 -36  40   2   26.21    7.74
 -40   4  -2   29.02    6.74
 -36  40   5   25.02    5.48
 -37  40  -5   17.20    5.65
 -37  40  -2   11.58    7.67
 -40   3   2    1.98    6.59
 -40   3   2   13.37    5.99
 -37  40   1   43.48    8.45
 -40   3  -1   40.17    6.82
 -37  40   4   28.47    6.22
 -38  40  -6   30.14    3.88
 -38  40  -3    4.28    6.92
 -40   2   3    3.19    5.76
 -38  40   0   78.54    9.23
 -40   2   0   70.95    8.24
 -38  40   3   33.34    7.10
 -38  40   6   28.24    3.48
 -40   1   4  192.24   11.02
 -39  40  -4  208.33   12.00
 -39  40  -1   14.68    7.94
 -40   1   1   19.85    7.15
 -39  40   2  121.50   10.00
 -39  40   5    2.67    4.68
 -40  40  -5    4.91    4.37
 -40  40  -2   38.91    7.48
 -40   0   2   18.41    6.56
 -40  40   1  153.89   11.21
 -40  40   4   18.46    5.72
 -41  40   3   22.72    6.27
 -41  40   0   90.39    9.30
 -40  -1   0  119.18    9.09
 -41  40  -3  117.11    9.13
 -40  -1   3  119.88    8.25
 -41  39   4    2.46    5.74
 -41  39   1   21.45    7.85
 -41  39  -2    7.29    7.34
 -39  -2   2   13.35    6.61
 -41  39  -5   56.89    5.71
 -41  38   5    5.66    5.09
 -41  38   2  105.01    9.44
 -41  38   2   86.56    7.37
 -41  38  -1   17.96    7.83
 -41  38  -1   17.32    5.77
 -38  -3   1    3.99    7.45
 -41  38  -4   10.92    6.37
 -38  -3   4   10.32    5.52
 -41  37   6    3.75    3.44
 -41  37   3   20.65    7.24
 -41  37   3   24.59    5.74
 -41  37   0   -1.58    7.93
 -37  -4   0    5.16    7.73
 -41  37   0    9.42    6.54
 -41  37  -3   -0.42    5.21
 -41  37  -3   -2.60    7.35
 -37  -4   3   -5.47    6.75
 -41  37  -6   -2.26    3.62
 -41  36   4   60.21    6.53
 -41  36   4   89.37    8.11
 -41  36   1  109.63   10.19
 -36  -5  -1   81.98   10.15
 -41  36   1  104.04    9.01
 -41  36  -2   32.83    8.57
 -41  36  -2   52.99    7.13
 -36  -5   2   33.21    8.08
 -41  36  -5   22.11    6.18
 -36  -5   5   24.95    5.51
 -41  35   5   39.12    5.14
 -41  35   5   45.78    6.56
 -41  35   2   19.23    8.02
 -35  -6  -2   23.35    8.24
 -41  35   2   18.56    7.25
 -35  -6   1   20.80    8.59
 -41  35  -1   27.20    7.72
 -41  35  -4    4.57    5.67
 -35  -6   4   12.76    6.78
 -41  34   3    7.72    6.95
 -34  -7   0   79.96   10.06
 -41  34   0   78.74    9.24
 -41  34  -3   19.14    7.10
 -34  -7   3    5.85    7.74
 -34  -7   6   17.22    4.62
 -41  33   4  202.50   12.50
 -33  -8  -1   14.04    8.87
 -41  33   1   18.66    8.31
 -33  -8   2  304.14   17.85
 -41  33  -2  293.09   17.22
 -41  33  -5   74.25    7.31
 -33  -8   5  101.98    8.21
 -41  32   5   13.81    6.08
 -32  -9  -2  240.96   15.27
 -41  32   2  212.74   14.40
 -41  32  -1   41.14    9.18
 -32  -9   1   47.72    9.68
 -41  32  -1   48.23    8.96
 -32  -9   4  214.78   13.55
 -41  32  -4  205.40   13.10
 -41  32  -4  214.76   13.92
 -41  32  -7   27.57    3.83
 -32  -9   7   30.52    3.48
 -41  31   6   22.54    5.46
  41 -31  -6   18.86    5.40
 -41  31   3   24.39    8.30
 -41  31   3   25.35    8.22
 -41  31   0   80.81   10.16
 -31 -10   0   87.37   10.93
 -41  31   0   91.46   10.24
 -41  31  -3   81.01    9.77
 -41  31  -3   77.08    9.59
 -41  31  -6   49.60    6.41
 -31 -10   6   43.56    6.41
 -41  30   7  144.33    7.67
 -41  30   7  119.40    7.32
 -41  30   4   69.28    8.94
  41 -30  -4   70.39    8.71
 -41  30   1   25.64    9.03
 -41  30   1   12.45    8.81
 -30 -11  -1   22.55    9.72
 -41  30  -2   86.02   10.12
 -30 -11   2   69.10    9.93
 -41  30  -2   75.15    9.96
 -41  30  -5   48.13    7.56
 -41  30  -5   46.43    8.01
  41 -29  -5   -0.87    6.63
 -41  29   5    5.86    7.24
 -41  29   2   15.60    8.62
 -41  29   2   14.87    8.93
 -41  29  -1   30.80    9.26
 -41  29  -1   26.21    9.37
 -41  29  -4   12.80    8.36
 -41  29  -4   25.28    8.20
 -29 -12   4   34.47    8.69
 -41  29  -7   12.57    4.27
 -29 -12   7   11.28    4.41
  41 -28  -6   29.95    5.95
 -41  28   6   32.49    6.41
 -41  28   3   18.28    8.75
  41 -28  -3   37.94    8.72
 -41  28   0  153.74   12.35
 -41  28   0  153.10   12.69
 -41  28  -3   47.15    8.88
 -41  28  -3   45.57    9.60
 -41  28  -6   70.42    7.18
 -28 -13   6   63.61    7.50
 -41  28  -6   71.88    7.22
  41 -27  -7    1.31    3.93
 -41  27   7    5.28    4.49
  41 -27  -4    5.35    7.53
 -41  27   4   -2.36    8.22
 -41  27   1   10.04    9.46
 -41  27   1    6.52    8.92
 -41  27  -2   18.16    8.53
 -41  27  -2    5.64    9.52
 -41  27  -5    4.42    7.28
 -41  27  -5   -1.16    7.19
  41 -26  -5   24.25    7.17
 -41  26   5   30.72    7.89
 -41  26   2   30.37    9.56
 -41  26   2   31.88    8.87
 -26 -15  -2   15.87    9.61
 -41  26  -1  509.55   26.63
 -26 -15   1  454.88   26.86
 -41  26  -1  519.74   26.95
 -41  26  -4   66.38    9.26
 -41  26  -4   74.09    9.80
 -41  26  -7   75.40    5.95
  41 -25  -6   -3.16    5.73
 -41  25   6    7.86    6.71
  41 -25  -3  101.21   10.44
 -41  25   3  119.42   11.43
 -41  25   0   15.43   10.12
 -41  25   0   19.69    9.01
 -25 -16   0   25.62    9.60
 -25 -16   3  191.81   14.56
 -41  25  -3  217.49   14.44
 -41  25  -3  187.98   13.56
 -41  25  -6   16.05    6.51
 -41  25  -6    7.97    5.89
  41 -24  -7   -5.03    4.11
 -41  24   7    4.44    5.11
  41 -24  -4   70.52    9.03
 -41  24   4   85.73   10.27
 -41  24   1   52.83   10.31
 -41  24   1   35.42    9.09
 -24 -17  -1   25.53    9.91
 -41  24  -2   91.47    9.99
 -24 -17   2   65.42   11.03
 -41  24  -2   89.09   11.26
 -41  24  -5   20.78    6.97
 -41  24  -5    7.04    7.97
 -24 -17   5   11.76    8.20
  41 -23  -5   17.36    6.78
 -41  23   5   22.58    8.17
 -41  23   2   39.01    8.48
 -41  23   2   33.67    9.89
 -23 -18  -2   19.33    9.47
 -41  23  -1   42.36    8.89
 -23 -18   1   32.33    9.72
 -41  23  -1   30.45    9.90
 -41  23  -4   55.40    8.76
 -41  23  -4   53.20    9.51
 -23 -18   4   52.73    9.44
 -41  23  -7    6.85    3.89
 -23 -18   7   -1.65    5.04
  41 -22  -6   26.94    5.76
  41 -22  -3   -2.12    7.83
 -41  22   0   78.98    9.79
 -22 -19   0   93.36   11.01
 -41  22  -3   -9.44    7.87
 -22 -19   3   -3.76    9.12
 -41  22  -6   -2.07    6.83
 -41  22  -6    9.73    5.70
 -22 -19   6    5.02    6.57
  41 -21  -4   67.10    8.43
 -41  21   1  320.99   18.12
 -21 -20  -1  305.72   18.92
 -41  21  -2  133.75   10.64
 -21 -20   2  110.55   11.98
 -41  21  -5   64.18    7.51
 -21 -20   5   59.98    8.88
  41 -20  -5   -1.59    6.14
 -41  20   2   60.77    8.58
 -20 -21  -2   49.57    9.59
 -41  20  -1   40.67    8.25
 -20 -21   1   48.88    9.54
 -41  20  -4   13.48    7.21
 -20 -21   4   15.11    8.77
 -20 -21   7    2.05    5.12
  41 -19  -6   22.79    5.20
 -41  19   6   32.00    7.07
 -41  19   3   72.76    8.33
 -41  19   3   57.76   10.42
 -41  19   0  369.02   21.36
 -19 -22   0  405.52   22.21
 -41  19   0  414.55   22.70
 -41  19  -3  120.12   10.40
 -41  19  -3  144.32   12.16
 -19 -22   3  139.93   11.77
 -41  19  -6   24.77    6.94
 -41  19  -6   37.71    5.39
 -19 -22   6   29.59    7.17
  41 -18  -4   11.06    6.48
 -41  18   4   17.58    8.80
 -41  18   1  255.89   15.91
 -18 -23  -1  281.24   17.23
 -41  18   1  301.23   17.80
 -41  18  -2   68.26    8.37
 -18 -23   2   55.24    9.78
 -41  18  -2   69.04   10.75
 -41  18  -5   78.46    7.66
 -41  18  -5   95.25    9.39
 -18 -23   5   90.76    9.23
 -41  17   5   12.54    8.01
 -41  17   2   74.43    8.29
 -41  17   2   80.33   10.50
 -17 -24  -2   77.06    9.80
 -41  17  -1   22.86    7.37
 -17 -24   1   14.34    8.84
 -41  17  -1   13.21   10.12
 -41  17  -4   16.76    6.32
 -41  17  -4    2.30    8.76
 -17 -24   4    9.42    8.37
 -17 -24   7    8.73    4.61
 -41  16   6   15.08    4.17
 -41  16   6   15.99    6.71
 -41  16   3   -0.20    6.36
 -41  16   3    1.19    8.97
 -41  16   0  102.58   11.21
 -41  16   0   76.75    8.62
 -16 -25   0   77.61    9.98
 -41  16  -3    8.80    6.55
 -41  16  -3   10.47    9.16
 -16 -25   3   -0.28    8.49
 -41  16  -6   16.75    6.55
 -16 -25   6   26.42    6.44
 -41  15   7   55.10    5.65
 -41  15   4  154.16    9.80
 -41  15   4  144.86   11.91
 -41  15   1   14.21    9.33
 -26  41  -1   10.20    6.24
 -41  15   1    2.96    6.63
 -15 -26  -1    5.10    8.09
 -41  15  -2    2.26    6.37
 -15 -26   2   15.90    8.50
 -41  15  -2   12.01    9.63
 -41  15  -5   21.72    7.85
 -15 -26   5   35.26    7.58
 -27  41  -5   67.06    6.27
 -41  14   5   76.42    8.50
 -27  41  -2   53.35    7.32
 -41  14   2   47.19    9.79
 -41  14   2   39.68    6.71
 -14 -27  -2   45.01    8.41
 -41  14  -1   22.34    6.44
 -27  41   1   22.51    6.72
 -14 -27   1   39.25    8.38
 -41  14  -1   32.85    9.47
 -41  14  -4   26.62    8.61
 -14 -27   4   18.35    7.90
 -14 -27   7    6.43    3.68
 -41  13   6   18.90    6.24
 -28  41  -3   72.98    8.09
 -41  13   3   98.06   10.08
 -28  41   0   20.47    6.97
 -13 -28   0   22.91    7.84
 -41  13   0   24.35    9.50
 -28  41   3   97.14    8.05
 -41  13  -3   98.14   10.29
 -13 -28   3   77.58    9.42
 -13 -28   6    7.13    5.28
 -41  13  -6   12.68    6.07
 -41  12   7   15.52    3.87
 -29  41  -4   85.55    7.98
 -41  12   4   97.91    9.66
 -41  12   1   14.20    9.21
 -29  41  -1   16.15    7.13
 -12 -29  -1    2.91    7.36
 -29  41   2  154.43   10.62
 -12 -29   2  139.91   11.07
 -41  12  -2  163.88   12.28
 -41  12  -5   16.90    7.00
 -29  41   5    5.44    4.54
 -12 -29   5    2.36    6.14
 -30  41  -5    6.74    5.38
 -41  11   5   -0.78    6.77
 -30  41  -2  110.31    9.59
 -41  11   2  120.13   10.76
 -30  41   1   -5.66    7.06
 -11 -30   1   -2.34    7.13
 -41  11  -1    0.58    8.75
 -41  11  -4  109.53    9.75
 -30  41   4  103.94    8.08
 -11 -30   4  105.43    8.92
 -41  10   6  138.39    8.70
 -31  41  -6  130.28    7.88
 -31  41  -3    6.47    7.05
 -41  10   3    9.38    7.96
 -31  41   0   13.54    7.45
 -10 -31   0   20.97    7.03
 -41  10   0   17.67    8.87
 -31  41   3   -0.20    6.28
 -41  10  -3   -6.60    8.00
 -10 -31   3   11.91    6.48
 -32  41  -4    7.32    6.19
 -41   9   4   14.48    7.14
 -32  41  -1   40.70    7.97
 -41   9   1   29.01    8.74
 -32  41   2  130.56    9.84
  -9 -32   2  125.80    9.33
 -41   9  -2  117.76   10.65
 -41   9  -5    2.56    5.90
 -32  41   5   11.65    4.82
  -9 -32   5    8.11    4.63
 -41   8   5  175.09    9.89
 -33  41  -5  133.92    9.65
 -41   8   2   43.26    8.20
 -33  41  -2   24.27    7.35
 -33  41   1   14.23    7.62
 -41   8  -1    8.11    7.79
 -41   8  -4   36.48    6.97
 -33  41   4   50.84    6.49
 -34  41  -6   57.79    4.89
 -41   7   3   12.00    7.09
 -34  41  -3   -0.22    7.12
 -34  41   0  206.48   13.31
 -41   7   0  202.38   12.54
 -41   7   0  201.52   13.21
 -41   7  -3   18.41    6.96
 -34  41   3   12.54    6.66
 -41   6   4   34.54    6.05
 -35  41  -4   23.13    6.51
 -35  41  -1   21.55    7.39
 -41   6   1   17.77    6.56
 -41   6   1   19.35    7.22
 -35  41   2   90.48    8.54
 -41   6  -2   73.93    8.20
 -35  41   5    9.99    4.82
 -36  41  -5   13.10    5.31
 -36  41  -2    1.40    7.33
 -41   5   2    9.42    5.84
 -41   5   2   -2.96    6.42
 -36  41   1   23.25    7.58
 -41   5  -1   26.71    6.73
 -41   5  -4   22.17    5.07
 -36  41   4   16.71    5.88
 -37  41  -3   73.02    8.12
 -41   4   3   59.04    6.34
 -41   4   3   67.92    6.50
 -37  41   0   24.23    7.79
 -41   4   0   10.72    6.69
 -41   4   0   29.85    6.50
 -37  41   3  129.01    9.49
 -41   4  -3  119.25    8.34
 -38  41  -4  100.51    7.91
 -38  41  -1   24.44    7.49
 -41   3   1   17.56    6.25
 -41   3   1   15.39    5.57
 -38  41   2   -3.39    6.85
 -38  41   5    9.10    4.23
 -39  41  -5    3.58    4.10
 -39  41  -2    2.37    6.91
 -41   2   2   14.45    5.88
 -39  41   1  114.38    9.60
 -39  41   4   -4.67    5.17
 -40  41  -3   10.78    6.08
 -41   1   3   16.36    5.02
 -40  41   0    8.07    7.03
 -41   1   0   14.51    6.35
 -40  41   3   31.28    6.23
 -41  41  -4   13.04    4.78
 -41  41  -1   28.20    7.10
 -41   0   1   28.14    6.23
 -41  41   2    4.91    6.25
 -41  41   5    1.58    3.14
 -42  41   4   13.43    4.54
 -42  41   1    5.78    6.32
 -42  41  -2   33.84    6.55
 -41  -1   2   37.99    5.72
 -42  41  -5   63.84    4.49
 -42  40   5   15.07    3.45
 -42  40   2   31.41    6.97
 -42  40  -1   13.35    6.92
 -40  -2   1   -2.62    6.18
 -42  40  -4   54.41    5.85
 -40  -2   4   42.83    4.56
 -42  39   3   -4.07    6.30
 -42  39   0   -9.80    7.36
 -39  -3   0   15.94    7.12
 -42  39  -3    3.57    6.42
 -39  -3   3    5.21    5.60
 -42  38   4   42.29    6.05
 -42  38   1    9.38    7.59
 -38  -4  -1    3.73    7.33
 -42  38   1    7.05    5.73
 -42  38  -2  307.49   16.81
 -38  -4   2  307.55   16.47
 -42  38  -2  280.33   15.47
 -42  38  -5    2.62    4.84
 -38  -4   5    4.88    3.50
 -42  37   5    7.86    5.04
 -42  37   2   43.51    8.06
 -42  37   2   42.07    6.45
 -42  37  -1   10.20    7.84
 -42  37  -1   11.73    6.12
 -37  -5   1    7.95    7.46
 -42  37  -4   58.86    7.37
 -37  -5   4   55.16    6.68
 -42  36   6   37.48    4.31
 -42  36   3   56.13    7.80
 -42  36   3   21.13    6.11
 -42  36   0   -0.26    7.95
 -36  -6   0   -4.98    7.77
 -42  36   0  -12.21    7.00
 -42  36  -3   -3.33    5.83
 -36  -6   3   10.77    7.13
 -42  35   4   36.50    6.04
 -35  -7  -1   11.22    7.88
 -42  35   1   13.36    7.26
 -42  35  -2    5.08    6.86
 -35  -7   2   11.87    7.93
 -35  -7   5   11.28    5.24
 -42  34   5    5.13    4.83
 -34  -8  -2    4.71    8.58
 -42  34   2   12.75    7.34
 -34  -8   1    8.62    8.25
 -42  34  -1   17.81    7.70
 -42  34  -4   37.44    6.43
 -34  -8   4   47.74    7.35
 -42  33   6  103.70    6.36
 -42  33   3   17.16    7.20
 -33  -9   0   45.43    9.18
 -42  33   0   17.18    8.17
 -42  33  -3   -4.10    7.92
 -42  33  -3   13.03    7.09
 -33  -9   3   11.42    7.89
 -42  33  -6   10.10    4.83
 -33  -9   6   18.94    4.60
 -42  32   4   33.99    7.12
 -42  32   4   41.65    7.55
 -42  32   1   -6.45    8.52
 -32 -10  -1   11.47    9.30
 -42  32   1   15.64    8.16
 -42  32  -2   30.38    8.41
 -42  32  -2   21.78    7.94
 -32 -10   2   13.35    8.44
 -42  32  -5   49.19    6.36
 -42  32  -5   51.48    7.21
 -32 -10   5   53.57    7.02
  42 -31  -5  281.55   15.45
 -42  31   5  273.07   15.43
 -42  31   2  167.96   12.32
 -42  31   2  175.84   12.54
 -42  31  -1  164.71   12.63
 -31 -11   1  165.13   12.94
 -42  31  -1  178.25   12.85
 -31 -11   4  195.15   12.73
 -42  31  -4  196.45   12.57
 -42  31  -4  184.86   12.84
 -42  31  -7   55.57    4.19
 -42  30   6    1.48    5.02
 -42  30   3  112.08   10.43
 -42  30   3  112.39   10.23
 -42  30   0   21.30    8.75
 -42  30   0   21.87    9.06
 -42  30  -3   60.45    8.89
 -42  30  -3   59.83    9.34
 -30 -12   3   62.47    9.33
 -42  30  -6   25.57    5.45
 -30 -12   6   12.27    5.64
 -42  29   7    9.35    3.26
 -42  29   4   10.28    7.81
  42 -29  -4    7.09    7.35
 -42  29   1   93.02   10.55
 -42  29   1   87.16    9.95
 -42  29  -2  104.18   10.18
 -42  29  -2   95.68   10.54
 -42  29  -5   -4.54    6.48
 -42  29  -5    3.53    6.77
 -29 -13   5    5.03    6.87
  42 -28  -5    0.81    6.34
 -42  28   5    9.79    7.14
 -42  28   2   50.78    9.38
 -42  28   2   53.89    9.13
 -28 -14  -2   29.23    9.50
 -42  28  -1  117.57   11.36
 -42  28  -1  124.72   11.61
 -42  28  -4   40.35    7.91
 -42  28  -4   29.27    8.16
 -42  28  -7    2.83    3.24
 -28 -14   7    2.08    3.86
  42 -27  -6    7.66    4.93
 -42  27   6   13.70    5.92
 -42  27   3  214.15   14.10
 -42  27   3  228.78   14.86
 -42  27   0   59.37    9.40
 -27 -15   0   71.05   10.65
 -42  27   0   41.90   10.03
 -42  27  -3   36.53    8.83
 -42  27  -3   53.03    9.38
 -42  27  -6   40.10    6.00
 -42  27  -6   40.14    6.27
 -42  26   7   14.96    3.67
 -42  26   7   12.87    4.03
  42 -26  -4    2.61    7.11
 -42  26   4   -2.55    8.31
 -42  26   1  116.17   11.19
 -42  26   1   98.28   10.40
 -26 -16  -1   99.56   11.50
 -42  26  -2   15.18    8.60
 -26 -16   2   17.59    9.46
 -42  26  -2   21.26    9.53
 -42  26  -5   21.40    7.27
 -42  26  -5   21.02    6.82
  42 -25  -5   26.49    6.65
 -42  25   5   31.13    7.66
 -42  25   2   10.32    9.24
 -42  25   2   16.64    8.22
 -25 -17  -2    4.12    9.32
 -42  25  -1    0.29    8.23
 -25 -17   1    3.87    9.35
 -42  25  -1  -11.84    9.61
 -42  25  -4   14.21    7.82
 -42  25  -4   24.67    8.47
 -25 -17   4    3.55    8.26
 -42  25  -7    6.70    3.16
  42 -24  -6   74.19    6.61
 -42  24   6   79.51    7.74
 -42  24   3   41.18    8.34
 -42  24   3   24.09    9.56
 -42  24   0  204.68   14.23
 -24 -18   0  227.24   15.18
 -42  24   0  217.16   15.34
 -24 -18   3  231.89   16.30
 -42  24  -3  271.21   16.41
 -42  24  -3  266.22   15.57
 -42  24  -6   55.99    6.89
 -42  24  -6   50.15    6.03
 -24 -18   6   51.20    7.02
 -42  23   7   90.72    6.23
 -42  23   7   70.26    5.16
  42 -23  -4   79.34    8.43
 -42  23   4   78.06   10.09
 -42  23   1  354.88   19.53
 -23 -19  -1  336.40   20.16
 -42  23   1  338.15   20.32
 -42  23  -2   29.52    8.05
 -23 -19   2   22.59    9.33
 -42  23  -2   25.79    9.83
 -42  23  -5  100.99    8.48
 -42  23  -5   92.94    9.30
 -23 -19   5  101.51    9.61
  42 -22  -5   31.18    6.35
 -42  22   2    9.43    7.68
 -22 -20  -2   11.47    9.12
 -42  22  -1   20.44    8.07
 -22 -20   1   25.75    9.41
 -42  22  -4    3.44    7.00
 -22 -20   4    6.00    8.21
 -22 -20   7    9.63    4.40
 -42  21   3   23.56    7.50
 -42  21   0   66.80    8.83
 -21 -21   0   54.61    9.94
 -42  21  -3    2.93    7.27
 -21 -21   3    9.71    8.98
 -42  21  -6    3.23    4.59
 -21 -21   6    6.50    6.15
 -42  20   7    6.71    4.65
 -42  20   4   15.65    6.83
 -42  20   1   43.44    8.30
 -20 -22  -1   35.54    9.25
 -42  20  -2  199.92   12.97
 -20 -22   2  196.20   13.93
 -42  20  -5   48.20    6.52
 -20 -22   5   50.88    7.95
 -42  19   5   43.27    5.99
 -42  19   5   30.80    7.87
 -42  19   2   13.25    9.46
 -42  19   2   18.75    7.48
 -19 -23  -2    5.86    8.69
 -42  19  -1   53.54    7.90
 -19 -23   1   38.56    9.25
 -42  19  -1   42.45   10.46
 -42  19  -4    6.16    6.28
 -42  19  -4   -5.21    8.33
 -19 -23   4    3.65    7.99
 -19 -23   7   18.43    4.32
 -42  18   6    3.49    4.01
 -42  18   6    7.82    6.42
 -42  18   3   75.24    7.97
 -42  18   3   70.46   10.16
 -42  18   0   -3.74    7.05
 -18 -24   0   24.09    8.74
 -42  18   0   15.72    9.63
 -42  18  -3    3.40    6.66
 -42  18  -3   18.83    9.00
 -18 -24   3   -2.79    8.34
 -42  18  -6    6.50    5.98
 -18 -24   6   -8.42    5.83
 -42  17   7    9.56    4.32
 -42  17   4   48.68    6.42
 -42  17   4   32.77    8.50
 -42  17   1    4.06    9.35
 -42  17   1    3.72    6.80
 -17 -25  -1   -7.14    8.65
 -42  17  -2   70.75    7.99
 -17 -25   2   86.16    9.75
 -42  17  -2   88.86   10.69
 -42  17  -5   28.35    5.08
 -42  17  -5   32.97    7.79
 -17 -25   5   39.44    7.22
 -42  16   5    4.02    4.54
 -42  16   5   -1.94    7.28
 -42  16   2  344.30   19.08
 -16 -26  -2  356.93   20.04
 -42  16   2  387.63   20.72
 -42  16  -1   -1.63    6.23
 -16 -26   1   -0.84    8.17
 -42  16  -1    4.70    8.90
 -16 -26   4  168.49   11.60
 -42  16  -4  145.05   10.00
 -16 -26   7   -1.59    3.27
 -42  15   6    4.03    5.85
 -42  15   3   18.02    5.70
 -42  15   3    1.92    8.96
 -42  15   0   -2.84    5.96
 -15 -27   0   -0.27    7.83
 -42  15   0   13.51    9.14
 -42  15  -3    7.06    8.70
 -15 -27   3   13.55    7.54
 -15 -27   6   39.01    5.63
 -42  15  -6   36.36    6.14
 -42  14   7   24.59    3.70
 -28  42  -4   33.79    5.79
 -42  14   4   36.63    7.87
 -28  42  -1    9.58    6.35
 -14 -28  -1   -3.75    7.83
 -28  42   2   41.69    6.42
 -14 -28   2   35.70    7.93
 -42  14  -2   57.86    9.77
 -42  14  -5   -6.79    6.61
 -14 -28   5   -0.54    6.11
 -42  13   5  107.89    8.81
 -29  42  -5   95.26    6.90
 -29  42  -2    9.25    6.40
 -42  13   2   15.18    8.58
 -29  42   1   60.04    7.16
 -13 -29   1   57.27    8.29
 -42  13  -1   62.70    9.57
 -42  13  -4    5.19    7.21
 -13 -29   4    3.23    6.57
 -42  12   6    5.92    4.93
 -30  42  -3    6.55    6.35
 -42  12   3   10.88    7.98
 -30  42   0  389.78   20.37
 -12 -30   0  359.32   20.52
 -42  12   0  400.07   21.41
 -30  42   3   31.61    6.14
 -42  12  -3   45.30    8.41
 -12 -30   3   42.04    7.13
 -12 -30   6   11.17    3.76
 -31  42  -4   64.01    7.06
 -42  11   4   82.48    8.26
 -31  42  -1    5.41    6.88
 -11 -31  -1   -1.39    6.44
 -42  11   1  -11.51    8.38
 -31  42   2   21.59    6.66
 -11 -31   2   28.00    6.82
 -42  11  -2   41.18    8.40
 -42  11  -5    1.37    5.90
 -11 -31   5    1.16    4.73
 -32  42  -5   17.60    4.98
 -42  10   5   24.18    5.91
 -42  10   2   22.22    8.04
 -32  42  -2   11.18    6.80
 -32  42   1  343.75   18.04
 -10 -32   1  311.74   17.58
 -42  10  -1  330.31   18.77
 -42  10  -4    3.98    6.52
 -32  42   4   13.39    5.36
 -10 -32   4    3.20    5.26
 -42   9   6   10.55    3.36
 -42   9   3   96.14    8.86
 -33  42  -3   94.73    8.48
 -33  42   0   28.86    7.06
 -42   9   0    3.46    7.81
 -33  42   3  201.28   12.31
 -42   9  -3  213.17   12.97
 -42   8   4    1.14    5.74
 -34  42  -4    0.34    5.74
 -34  42  -1    6.92    6.97
 -42   8   1    5.90    7.45
 -34  42   2   66.92    7.87
 -42   8  -2   57.99    8.08
 -34  42   5    9.30    4.00
 -42   8  -5   10.31    4.52
 -42   7   5   26.66    4.21
 -35  42  -5   22.90    4.87
 -35  42  -2    6.26    6.84
 -42   7   2    4.73    6.68
 -35  42   1   28.00    7.21
 -42   7  -1   25.65    7.21
 -42   7  -4   24.63    5.56
 -35  42   4   12.61    5.39
 -36  42  -3   -6.48    6.52
 -42   6   3   14.83    5.71
 -36  42   0   45.56    7.56
 -42   6   0   41.04    7.20
 -42   6  -3   79.10    7.21
 -36  42   3   89.89    7.85
 -37  42  -4   -3.18    5.39
 -37  42  -1  124.62    9.54
 -42   5   1  120.81    8.64
 -42   5   1  120.55    8.85
 -42   5  -2   57.74    6.50
 -37  42   2   53.99    7.37
 -37  42   5   17.45    3.88
 -38  42  -5   39.10    4.66
 -38  42  -2   93.73    8.28
 -42   4   2   77.94    6.80
 -38  42   1   93.44    8.60
 -42   4  -1   89.97    7.24
 -38  42   4   11.25    5.14
 -39  42  -3    2.85    5.81
 -39  42   0   20.94    6.89
 -39  42   3    5.07    5.62
 -40  42  -4    7.33    4.59
 -40  42  -1  121.12    9.01
 -42   2   1  101.42    8.10
 -40  42   2  102.95    8.40
 -41  42  -2   34.69    6.35
 -42   1   2   33.26    5.14
 -41  42   1   58.55    7.12
 -41  42   4    3.41    4.17
 -42  42  -3   -3.56    5.16
 -42   0   3    1.24    3.29
 -42  42   0   98.29    8.19
 -42  42   3    8.52    5.09
 -43  42  -1    3.72    5.49
 -43  42  -4   21.50    3.83
 -43  41   3   -3.30    4.98
 -43  41   0    9.71    6.22
 -43  41  -3    1.69    5.46
 -41  -2   3   10.97    3.98
 -43  40   4    8.45    4.38
 -43  40   1   24.51    6.67
 -43  40  -2   10.79    6.26
 -40  -3   2    7.95    5.37
 -43  40  -5   24.14    3.39
 -43  39   5    8.33    3.36
 -43  39   2    8.59    6.63
 -43  39  -1    8.93    6.89
 -39  -4   1   -4.12    6.53
 -39  -4   4  113.03    7.22
 -43  39  -4  112.02    8.06
 -43  38   3   22.54    6.49
 -43  38   0    3.86    7.12
 -38  -5   0   23.66    7.18
 -43  38   0    5.13    5.26
 -43  38  -3   21.46    6.68
 -38  -5   3   14.82    5.96
 -43  37   4   24.08    5.79
 -43  37   1    5.81    7.65
 -37  -6  -1   -8.49    7.51
 -43  37   1    3.78    5.95
 -43  37  -2   31.07    5.85
 -37  -6   2   43.57    7.28
 -37  -6   5    9.12    3.86
 -43  36   5   66.25    6.28
 -43  36   2  117.96    8.90
 -36  -7   1  264.75   14.85
 -43  36  -1  224.53   13.89
 -43  36  -4   85.04    6.30
 -36  -7   4   84.79    7.56
 -43  35   3   54.78    6.87
 -35  -8   0   17.56    8.14
 -43  35   0   25.44    7.29
 -43  35  -3  118.34    8.61
 -35  -8   3  107.91    9.32
 -43  34   4   40.75    6.34
 -34  -9  -1   71.94    9.76
 -43  34   1   87.69    8.74
 -43  34  -2    2.53    7.04
 -34  -9   2    6.79    7.87
 -43  34  -5   10.45    5.60
 -34  -9   5   -2.28    5.24
 -43  33   5   25.29    5.14
 -43  33   5   28.86    5.83
 -43  33   2   15.59    7.79
 -33 -10  -2   -4.90    8.60
 -43  33   2   -2.02    7.23
 -43  33  -1   19.38    8.09
 -33 -10   1   23.66    8.31
 -43  33  -1   22.27    7.72
 -43  33  -4   47.00    6.64
 -43  33  -4   44.49    7.42
 -33 -10   4   55.99    7.17
 -43  32   6   15.27    3.63
 -43  32   6   10.54    4.20
 -43  32   3    8.43    7.39
 -43  32   3    1.84    7.11
 -43  32   0   20.40    8.18
 -32 -11   0   29.60    8.80
 -43  32   0   12.78    8.42
 -43  32  -3   -9.55    7.59
 -43  32  -3    5.92    7.17
 -32 -11   3    9.21    7.50
 -43  32  -6   13.62    4.26
 -32 -11   6   -0.24    4.25
 -43  31   4   13.05    6.85
 -43  31   4    7.43    6.87
 -43  31   1  129.12   10.84
 -43  31   1  129.03   11.07
 -43  31  -2  212.67   13.78
 -31 -12   2  212.90   14.13
 -43  31  -2  206.42   13.88
 -43  31  -5   49.79    6.37
 -43  31  -5   55.48    6.71
 -31 -12   5   57.58    7.00
 -43  30   5   13.04    6.27
 -43  30   5   10.03    5.95
 -43  30   2   88.21    9.94
 -43  30   2   84.67    9.50
 -43  30  -1   37.76    8.94
 -43  30  -1   34.41    8.87
 -43  30  -4    7.68    7.47
 -43  30  -4   -4.25    7.08
 -43  29   6   56.75    5.84
 -43  29   6   61.41    5.76
 -43  29   3  207.76   13.09
 -43  29   3  191.11   13.20
 -43  29   0  169.03   12.71
 -43  29   0  188.44   13.34
 -43  29  -3  264.49   15.74
 -43  29  -3  255.91   15.76
 -43  29  -6   46.49    5.14
 -29 -14   6   37.98    5.80
 -43  28   4   27.03    7.22
 -43  28   4   21.57    7.75
 -43  28   1   16.70    9.25
 -28 -15  -1   33.55    9.03
 -43  28  -2  262.47   15.91
 -43  28  -2  254.09   16.16
 -43  28  -5   16.70    6.62
 -43  28  -5   16.63    6.10
 -43  27   5    8.51    5.99
 -43  27   5    0.39    6.76
 -43  27   2    2.25    8.49
 -43  27   2    2.83    8.02
 -27 -16  -2   16.54    9.18
 -43  27  -1    9.34    8.13
 -27 -16   1    6.75    8.85
 -43  27  -1    0.89    8.91
 -43  27  -4    4.78    7.14
 -43  27  -4   11.72    7.72
 -43  26   6   20.99    4.79
 -43  26   6   13.94    5.59
 -43  26   3  204.43   12.55
 -43  26   3  159.34   13.19
 -43  26   0   59.69    9.01
 -26 -17   0   57.97    9.89
 -43  26   0   50.23    9.97
 -43  26  -3   18.50    7.57
 -43  26  -3   28.40    8.39
 -26 -17   3    2.81    8.52
 -43  26  -6    4.23    4.73
 -43  26  -6   10.15    5.53
 -43  25   7   11.87    3.46
 -43  25   4    2.09    6.76
 -43  25   4    5.61    8.08
 -43  25   1    7.58    9.31
 -43  25   1    0.80    7.99
 -25 -18  -1  -11.49    9.36
 -43  25  -2    9.90    7.77
 -25 -18   2    6.28    8.84
 -43  25  -2    2.09    9.12
 -43  25  -5   23.20    6.92
 -43  25  -5   17.76    5.89
 -25 -18   5   14.88    6.97
 -43  24   5   27.89    6.14
 -43  24   5   13.54    7.20
 -43  24   2  163.55   11.67
 -43  24   2  155.42   12.31
 -24 -19  -2  134.22   12.22
 -43  24  -1  338.94   18.95
 -24 -19   1  335.93   19.47
 -43  24  -1  320.66   19.65
 -43  24  -4   -2.17    6.60
 -43  24  -4    0.25    7.97
 -24 -19   4   -1.78    8.03
 -24 -19   7   29.45    3.88
 -43  23   6    6.00    4.29
 -43  23   3  224.20   13.74
 -43  23   0   12.21    7.91
 -23 -20   0   22.47    9.27
 -43  23  -3   12.80    7.17
 -23 -20   3  -11.78    8.64
 -43  23  -6    3.11    4.15
 -23 -20   6    2.16    5.60
 -43  23  -6    0.82    5.53
 -43  22   4   60.37    7.36
 -43  22   1  125.26   10.15
 -22 -21  -1  109.17   11.22
 -43  22  -2   49.40    8.16
 -22 -21   2   57.06    9.38
 -43  22  -5   -1.79    5.39
 -22 -21   5   -1.07    6.62
 -43  21   5   16.24    5.40
 -43  21   2  263.07   15.38
 -21 -22  -2  259.32   16.15
 -43  21  -1   15.48    7.40
 -21 -22   1    9.83    8.76
 -43  21  -4  107.46    8.70
 -21 -22   4  109.86   10.09
 -21 -22   7   22.32    3.64
 -43  20   6    9.93    3.74
 -43  20   6    8.40    5.82
 -43  20   3   55.39    7.38
 -43  20   3   46.45    9.30
 -43  20   0    4.47    7.12
 -20 -23   0   -4.41    8.75
 -43  20   0    0.31    9.45
 -43  20  -3   45.20    7.52
 -43  20  -3   57.91    9.49
 -20 -23   6    3.15    5.39
 -43  20  -6   10.26    5.68
 -43  19   7   11.82    3.64
 -43  19   4   14.38    5.80
 -43  19   4    3.44    7.92
 -43  19   1   58.49   10.25
 -43  19   1   48.74    7.76
 -19 -24  -1   68.06    9.27
 -43  19  -2    7.91    6.67
 -19 -24   2   15.89    8.50
 -43  19  -2    6.62    9.19
 -43  19  -5    3.02    4.57
 -19 -24   5   14.27    6.66
 -43  18   5   28.39    4.72
 -43  18   5   22.23    7.07
 -43  18   2   20.21    8.85
 -43  18   2    5.21    6.45
 -18 -25  -2    5.03    8.10
 -43  18  -1  142.62   10.62
 -18 -25   1  170.07   12.22
 -43  18  -1  167.78   12.80
 -43  18  -4   12.72    5.25
 -43  18  -4    7.96    7.95
 -18 -25   4    6.93    7.24
 -43  17   6  179.39   10.80
 -43  17   3   -2.37    5.79
 -43  17   3    8.24    8.49
 -43  17   0   98.01    8.11
 -17 -26   0   81.64    9.75
 -43  17   0   74.59   10.47
 -43  17  -3    3.86    5.55
 -43  17  -3   12.32    8.52
 -17 -26   3   18.80    7.61
 -17 -26   6   13.52    4.96
 -43  17  -6    9.67    5.44
 -43  16   4   37.56    8.08
 -43  16   1   -7.57    8.57
 -43  16   1    1.79    5.88
 -16 -27  -1    2.28    7.79
 -43  16  -2    4.90    5.63
 -16 -27   2   22.90    7.62
 -43  16  -2   13.48    8.44
 -43  16  -5   82.87    8.19
 -16 -27   5   84.09    7.65
 -43  15   5   49.99    7.33
 -43  15   2   14.44    8.61
 -15 -28   1   22.43    7.73
 -43  15  -4    6.20    7.26
 -15 -28   4   -5.21    6.57
 -43  14   6   32.20    5.09
 -43  14   3  164.52   11.27
 -29  43  -3  126.00    8.91
 -29  43   0   92.73    8.01
 -14 -29   0  107.69    9.17
 -43  14   0   88.87   10.22
 -43  14  -3  116.72   10.55
 -14 -29   3  134.02    9.84
 -14 -29   6   17.99    3.76
 -43  13   4   24.08    7.13
 -30  43  -1   17.34    6.14
 -13 -30  -1    6.90    6.76
 -43  13   1    4.82    8.25
 -30  43   2   -2.44    5.69
 -13 -30   2    8.87    7.08
 -43  13  -2   12.03    8.22
 -43  13  -5   17.51    6.05
 -13 -30   5   15.58    5.10
 -43  12   5   29.92    5.95
 -43  12   2   30.91    8.19
 -31  43  -2   24.29    6.50
 -31  43   1  168.66   11.19
 -12 -31   1  173.28   11.50
 -43  12  -1  205.37   12.86
 -43  12  -4   31.73    7.05
 -12 -31   4   36.29    5.80
 -43  11   6   15.95    3.41
 -43  11   3   13.37    7.06
 -32  43  -3   -5.14    5.82
 -32  43   0   82.82    7.83
 -11 -32   0   67.75    7.46
 -43  11   0   79.60    9.25
 -32  43   3    6.66    5.32
 -43  11  -3    4.32    6.91
 -11 -32   3   11.07    5.64
 -43  10   4  188.34   10.96
 -33  43  -4  163.29   10.30
 -33  43  -1   40.40    6.87
 -43  10   1   32.06    8.08
 -33  43   2    0.53    6.07
 -43  10  -2    2.90    7.29
 -43  10  -5   -1.51    4.73
 -43   9   5   50.41    5.00
 -34  43  -5   45.97    4.60
 -34  43  -2   17.42    6.52
 -43   9   2   20.23    7.10
 -34  43   1   98.79    8.60
 -43   9  -1  106.22    9.27
 -43   9  -4    8.06    5.53
 -34  43   4   12.47    4.71
 -35  43  -3   76.95    7.38
 -43   8   3   79.54    7.29
 -35  43   0   31.09    6.85
 -43   8   0   26.11    7.19
 -43   8  -3    4.16    5.88
 -35  43   3    5.63    5.47
 -36  43  -4   46.69    5.68
 -43   7   4   46.30    5.10
 -36  43  -1  142.95   10.22
 -43   7   1  145.97   10.01
 -36  43   2  265.18   14.77
 -43   7  -2  264.31   14.64
 -37  43  -2   33.30    6.60
 -43   6   2   34.57    5.77
 -37  43   1   12.39    6.60
 -43   6  -1   29.87    5.86
 -37  43   4   -3.54    4.37
 -38  43  -3   -5.69    5.54
 -38  43   0   46.46    6.74
 -43   5   0   30.03    5.53
 -38  43   3    8.14    5.10
 -39  43  -4    1.58    4.28
 -39  43  -1   14.17    6.11
 -39  43   2   24.66    5.91
 -40  43  -2    4.25    5.63
 -40  43   1   19.20    6.00
 -40  43   4    0.30    3.70
 -41  43  -3   63.57    6.13
 -41  43   0   80.45    7.52
 -41  43   3   23.92    4.94
 -42  43  -4    4.97    3.26
 -42  43  -1    5.66    5.35
 -42  43   2    1.99    5.17
 -43  43  -2  103.98    7.26
 -43  43   1    8.36    5.22
 -44  43   3   26.22    3.73
 -44  43   0   19.11    4.96
 -44  43  -3    4.53    3.63
 -44  42   1   23.61    5.28
 -44  42  -2   20.49    5.04
 -42  -2   2   20.92    3.99
 -44  41   2   14.01    5.60
 -44  41  -1   46.41    6.23
 -41  -3   1   32.50    5.56
 -44  41  -4   17.99    3.66
 -44  40   3   22.95    5.35
 -44  40   0   37.40    6.58
 -40  -4   0   29.33    6.29
 -44  40  -3   51.21    5.98
 -40  -4   3   30.26    4.90
 -44  39   4   10.11    4.25
 -44  39   1    6.26    6.59
 -44  39  -2    9.61    6.37
 -39  -5   2    6.84    5.81
 -44  39  -5   22.52    3.19
 -44  38   5    9.44    3.54
 -44  38   2    3.86    6.40
 -44  38   2    9.95    4.51
 -44  38  -1   30.66    6.95
 -44  38  -1   33.25    5.32
 -38  -6   1   30.68    6.96
 -44  38  -4   21.40    5.41
 -38  -6   4   23.44    4.62
 -44  37   3   31.73    4.87
 -37  -7   0   12.04    6.96
 -44  37   0   28.30    6.04
 -44  37  -3   14.22    4.39
 -37  -7   3   11.12    5.90
 -44  36   4   23.79    4.24
 -36  -8  -1  100.01    9.33
 -44  36   1  104.81    8.37
 -44  36  -2   28.14    6.00
 -36  -8   2   26.42    7.16
 -36  -8   5   12.23    3.80
 -44  35   2    7.75    6.40
 -35  -9   1   10.62    7.44
 -44  35  -1   -0.97    6.55
 -44  35  -4   12.81    4.65
 -44  35  -4    2.32    6.09
 -35  -9   4   20.61    5.84
 -44  34   6   49.68    4.07
 -44  34   3   43.46    7.14
 -44  34   3   36.05    6.58
 -44  34   0   19.73    7.95
 -34 -10   0   25.06    8.06
 -44  34   0   27.16    7.56
 -34 -10   3  216.89   13.13
 -44  34  -3  202.25   12.44
 -44  34  -3  222.24   13.21
 -44  34  -6   11.05    3.04
 -44  33   4   50.19    6.60
 -44  33   4   64.50    7.06
 -44  33   1   16.75    8.07
 -33 -11  -1    3.19    8.18
 -44  33   1   22.29    7.74
 -44  33  -2   20.37    7.64
 -44  33  -2   22.63    7.28
 -33 -11   2   25.14    7.87
 -44  33  -5   54.33    6.13
 -33 -11   5   62.01    6.04
 -44  33  -5   52.30    5.24
 -44  32   5   11.18    4.88
 -44  32   5    9.08    5.08
 -44  32   2   16.10    7.79
 -44  32   2   39.51    7.84
 -44  32  -1   27.06    7.83
 -32 -12   1    9.67    8.49
 -44  32  -1   21.13    7.92
 -44  32  -4   53.76    6.71
 -44  32  -4   56.86    7.38
 -32 -12   4   47.34    7.29
 -44  31   6   35.29    3.79
 -44  31   6   27.86    4.07
 -44  31   3    2.35    7.23
 -44  31   3   13.27    7.29
 -44  31   0   16.57    8.03
 -44  31   0    1.02    8.26
 -44  31  -3   50.44    7.98
 -44  31  -3   53.83    7.78
 -31 -13   3   42.07    8.17
 -44  31  -6    7.29    3.72
 -31 -13   6    1.90    3.81
 -44  30   4   15.82    6.83
 -44  30   4    7.26    6.23
 -44  30   1   47.69    8.44
 -44  30   1   36.24    8.38
 -44  30  -2   -6.97    7.71
 -44  30  -2    3.00    8.07
 -44  30  -5    6.37    5.40
 -44  30  -5    5.34    5.28
 -30 -14   5   10.12    5.77
 -44  29   5  109.47    7.80
 -44  29   5   99.31    8.21
 -44  29   2   31.31    8.24
 -44  29   2   17.42    7.96
 -29 -15  -2   17.01    8.56
 -44  29  -1  258.97   15.25
 -44  29  -1  230.20   15.61
 -44  29  -4  199.84   12.07
 -44  29  -4  177.59   11.84
 -44  28   6   44.68    4.91
 -44  28   6   30.54    4.51
 -44  28   3   32.86    7.80
 -44  28   3   24.11    7.20
 -44  28   0  112.77   10.27
 -28 -16   0  120.39   11.24
 -44  28   0  112.30   10.67
 -44  28  -3    7.46    7.10
 -44  28  -3    5.41    7.79
 -44  28  -6   17.90    4.02
 -44  27   4  262.70   14.73
 -44  27   4  258.02   15.34
 -44  27   1   -6.73    8.65
 -44  27   1    3.05    8.11
 -27 -17  -1    6.73    8.77
 -44  27  -2  225.28   14.37
 -27 -17   2  229.41   15.03
 -44  27  -2  240.53   15.13
 -44  27  -5   58.77    6.84
 -44  27  -5   43.30    6.24
 -44  26   5   11.88    5.33
 -44  26   5   11.48    6.39
 -44  26   2  258.86   15.10
 -26 -18  -2  232.30   15.49
 -44  26   2  246.54   15.46
 -44  26  -1   24.02    8.01
 -26 -18   1   13.41    8.66
 -44  26  -1   15.60    8.97
 -44  26  -4  118.33    9.42
 -44  26  -4  128.51   10.16
 -26 -18   4  140.81   10.46
 -44  25   6   11.41    3.86
 -44  25   6    2.31    5.04
 -44  25   3   14.77    7.95
 -44  25   3    4.95    6.89
 -44  25   0   -2.52    7.67
 -25 -19   0   -2.95    8.73
 -44  25   0   16.17    8.98
 -44  25  -3   26.18    7.13
 -44  25  -3   16.78    8.17
 -25 -19   3   32.75    8.46
 -44  25  -6    7.81    3.59
 -25 -19   6   19.63    5.12
 -44  25  -6   15.05    4.89
 -44  24   4   39.49    6.62
 -44  24   4   34.28    7.93
 -44  24   1   86.44   10.25
 -44  24   1   86.45    8.86
 -24 -20  -1   69.32   10.14
 -44  24  -2   36.03    7.64
 -24 -20   2   21.25    8.57
 -44  24  -2   38.26    9.49
 -44  24  -5   19.54    6.53
 -44  24  -5   17.23    5.18
 -24 -20   5   18.99    6.64
 -44  23   5   23.78    5.34
 -44  23   2    5.39    6.83
 -23 -21  -2   -1.93    8.54
 -44  23  -1   16.81    7.31
 -23 -21   1   18.67    8.68
 -44  23  -4   27.63    6.19
 -23 -21   4   29.87    7.81
 -44  22   6   54.57    4.34
 -44  22   3    7.94    6.42
 -44  22   0  175.85   11.64
 -22 -22   0  151.22   12.27
 -44  22  -3   68.68    7.75
 -22 -22   3   74.61    9.09
 -22 -22   6   50.14    5.69
 -44  21   4   25.12    5.90
 -44  21   1   67.54    7.87
 -21 -23  -1   56.20    9.34
 -44  21  -2    8.45    6.72
 -21 -23   2    4.85    7.80
 -44  21  -5   36.48    4.98
 -21 -23   5   42.42    6.64
 -44  20   5   45.39    4.87
 -44  20   5   32.04    7.13
 -44  20   2   10.53    8.71
 -44  20   2   11.37    6.48
 -20 -24  -2    6.99    7.88
 -44  20  -1   30.60    6.87
 -20 -24   1   16.88    8.33
 -44  20  -1    4.70    8.96
 -44  20  -4    8.86    5.30
 -44  20  -4    4.19    7.61
 -20 -24   4    8.99    7.07
 -44  19   6   36.35    5.53
 -44  19   3   66.62    8.86
 -44  19   3   53.56    6.73
 -44  19   0   24.59    6.59
 -19 -25   0   12.03    8.03
 -44  19   0   12.28    8.94
 -44  19  -3   82.70    7.72
 -44  19  -3  109.32   10.18
 -19 -25   3  112.31    9.48
 -19 -25   6   23.11    4.58
 -44  19  -6   26.93    5.14
 -44  18   4    9.17    4.84
 -44  18   4    7.93    7.32
 -44  18   1   -1.42    8.88
 -44  18   1    1.10    6.03
 -18 -26  -1   -7.06    7.87
 -44  18  -2   16.83    5.85
 -18 -26   2   10.40    7.69
 -44  18  -2   18.02    8.67
 -44  18  -5   -8.42    6.02
 -18 -26   5   10.44    5.74
 -44  17   5   49.04    6.90
 -44  17   2    9.81    8.25
 -44  17   2   -5.52    5.33
 -44  17  -1   51.45    6.47
 -17 -27   1   68.13    8.53
 -44  17  -1   64.23    9.55
 -44  17  -4   12.27    7.02
 -17 -27   4   12.64    6.55
 -44  16   6   10.80    4.32
 -44  16   3   14.00    7.85
 -16 -28   0   34.92    7.67
 -44  16   0   35.19    8.92
 -44  16  -3    4.87    7.74
 -16 -28   3   20.56    6.92
 -16 -28   6    8.74    3.38
 -44  15   4   74.19    7.92
 -15 -29  -1   47.19    7.75
 -44  15   1   74.48    9.07
 -15 -29   2   26.24    7.03
 -44  15  -2   16.43    8.15
 -44  15  -5   10.14    5.77
 -15 -29   5   14.28    4.84
 -44  14   5   42.01    6.03
 -44  14   2   44.87    8.11
 -14 -30   1   98.77    8.75
 -44  14  -1   95.82    9.96
 -44  14  -4   32.55    6.90
 -14 -30   4   41.92    5.91
 -44  13   6   33.28    3.66
 -44  13   3   31.41    7.43
 -31  44  -3   33.99    5.19
 -31  44   0   17.06    5.55
 -13 -31   0   17.03    6.41
 -44  13   0    5.52    7.88
 -44  13  -3   91.12    8.91
 -13 -31   3   93.96    7.73
 -44  12   4   42.89    6.50
 -32  44  -1   61.46    6.58
 -44  12   1   43.70    8.36
 -32  44   2   46.03    5.78
 -44  12  -2   48.19    8.04
 -12 -32   2   40.24    6.25
 -44  12  -5   25.18    4.83
 -44  11   5   93.73    6.46
 -33  44  -2    7.37    5.73
 -44  11   2   22.81    7.20
 -33  44   1   41.24    6.30
 -44  11  -1   54.23    7.97
 -44  11  -4   30.13    5.88
 -34  44  -3   38.87    5.62
 -44  10   3   45.35    6.61
 -34  44   0   14.33    5.93
 -44  10   0    3.38    7.00
 -44  10  -3   15.60    6.10
 -34  44   3   24.51    5.03
 -35  44  -4   34.72    4.93
 -44   9   4   53.45    5.22
 -35  44  -1   -2.45    5.85
 -44   9   1    5.12    6.52
 -35  44   2  106.13    7.98
 -44   9  -2  110.43    8.52
 -36  44  -2    3.65    5.60
 -44   8   2    2.97    5.70
 -36  44   1   35.52    6.07
 -44   8  -1   30.84    6.36
 -36  44   4   14.33    3.69
 -44   8  -4   14.71    3.84
 -37  44  -3   20.66    5.11
 -44   7   3   16.35    4.32
 -37  44   0   61.57    6.85
 -44   7   0   56.84    6.64
 -44   7  -3   23.40    4.50
 -37  44   3   25.00    4.89
 -38  44  -4   10.81    3.71
 -38  44  -1   17.75    6.09
 -44   6   1   19.08    4.92
 -44   6  -2   30.00    4.53
 -38  44   2   31.99    5.57
 -39  44  -2   17.56    5.51
 -39  44   1    9.67    5.44
 -39  44   4   22.90    3.38
 -40  44  -3    4.54    4.41
 -40  44   0   15.50    5.58
 -40  44   3   -0.45    4.08
 -41  44  -1    5.72    5.36
 -41  44   2    7.79    4.58
 -42  44  -2   21.38    4.73
 -42  44   1   23.92    5.20
 -43  44  -3    4.38    3.30
 -43  44   0   41.59    5.44
 -43  44   3    4.73    3.02
 -44  44  -1   10.93    4.51
 -44  44   2   73.97    5.33
 -45  44   1   49.23    4.44
 -45  44  -2   20.61    3.52
 -45  43   2   38.60    4.27
 -45  43  -1   10.46    4.61
 -45  42   3    7.71    3.54
 -45  42   0   21.65    5.29
 -45  42  -3   23.44    4.08
 -45  41   4   17.45    3.00
 -45  41   1   14.33    5.25
 -45  41  -2   31.85    5.44
 -41  -4   2   23.97    4.47
 -45  40   2   18.62    5.47
 -45  40  -1   28.44    6.24
 -40  -5   1   21.97    5.52
 -45  40  -4    0.51    3.61
 -45  39   3   47.45    5.91
 -45  39   0    3.72    5.90
 -39  -6   0    3.40    5.97
 -39  -6   3  172.42    9.84
 -45  39  -3  167.91   10.31
 -45  38   4   17.42    4.30
 -45  38   1   20.14    4.73
 -45  38  -2   12.49    3.92
 -38  -7   2    5.62    5.76
 -45  37   2   27.51    5.14
 -45  37  -1    5.30    5.16
 -37  -8   1    2.21    6.49
 -37  -8   4   13.78    4.46
 -45  36   3   14.60    4.88
 -36  -9   0   33.78    7.38
 -45  36   0   32.12    6.26
 -45  36  -3    7.52    4.52
 -36  -9   3    4.50    5.69
 -45  35   4    4.47    4.15
 -45  35   1   18.06    7.18
 -35 -10  -1   26.78    7.66
 -45  35   1   28.41    6.59
 -45  35  -2    4.19    6.59
 -45  35  -2   -1.49    5.79
 -35 -10   2   -7.35    6.87
 -45  35  -5   74.61    5.78
 -35 -10   5   77.33    5.54
 -45  34   5   74.85    5.92
 -45  34   2   53.33    7.59
 -45  34   2   48.30    7.12
 -45  34  -1  188.45   12.12
 -34 -11   1  172.31   12.22
 -45  34  -1  183.29   11.76
 -45  34  -4    4.77    4.62
 -45  34  -4   -5.46    5.51
 -34 -11   4    6.03    5.64
 -45  33   3    9.83    6.41
 -45  33   3   10.81    6.24
 -45  33   0    3.51    7.38
 -33 -12   0   26.35    7.98
 -45  33   0   17.52    7.40
 -45  33  -3   55.10    7.27
 -45  33  -3   45.14    6.66
 -33 -12   3   51.42    7.60
 -45  32   4  222.74   12.47
 -45  32   4  208.21   12.37
 -45  32   1   -6.52    7.44
 -45  32   1  -11.18    7.37
 -45  32  -2  222.22   13.37
 -32 -13   2  221.89   13.88
 -45  32  -2  212.50   13.45
 -45  32  -5   16.83    4.43
 -32 -13   5   15.12    4.79
 -45  32  -5   14.69    4.22
 -45  31   5   39.84    5.21
 -45  31   5   31.35    5.19
 -45  31   2  166.73   11.40
 -45  31   2  156.07   11.41
 -45  31  -1   10.19    7.25
 -45  31  -1    1.66    7.69
 -31 -14   4  162.35   10.62
 -45  31  -4  163.06   10.34
 -45  31  -4  156.06   10.29
 -45  30   6    1.47    2.96
 -45  30   3   20.19    7.09
 -45  30   3    7.65    6.55
 -45  30   0   23.93    7.91
 -45  30   0   12.98    8.22
 -45  30  -3    2.76    6.64
 -45  30  -3    5.27    7.07
 -30 -15   6    4.32    3.43
 -45  29   4   31.04    6.61
 -45  29   4   38.30    6.24
 -45  29   1   -0.95    7.48
 -29 -16  -1  -16.72    8.11
 -45  29   1   -2.77    8.25
 -45  29  -2   83.89    8.87
 -45  29  -2   94.85    9.45
 -45  29  -5    5.84    5.09
 -45  29  -5   16.97    4.61
 -45  28   5   13.73    5.48
 -45  28   5    8.18    4.95
 -45  28   2    3.68    7.81
 -45  28   2    4.47    7.39
 -28 -17  -2   -0.79    8.15
 -45  28  -1   18.99    7.48
 -28 -17   1   14.58    8.46
 -45  28  -1    4.71    8.24
 -45  28  -4    3.24    5.84
 -45  28  -4   15.36    6.47
 -45  27   6   29.85    4.14
 -45  27   6   23.76    3.37
 -45  27   3   24.48    7.57
 -45  27   3   15.00    6.55
 -45  27   0  110.72   10.04
 -27 -18   0  128.35   10.90
 -45  27   0  129.74   11.23
 -45  27  -3   26.79    6.97
 -45  27  -3   39.45    7.80
 -45  26   4   31.51    6.98
 -45  26   4   24.95    6.11
 -45  26   1    4.85    7.27
 -26 -19  -1   -0.55    8.09
 -45  26   1   18.80    8.25
 -45  26  -2    6.01    6.73
 -26 -19   2   12.77    8.15
 -45  26  -2    7.56    7.89
 -45  26  -5   56.10    6.37
 -45  26  -5   44.06    5.35
 -26 -19   5   37.60    6.13
 -45  25   5    9.75    6.00
 -45  25   5   19.58    4.70
 -45  25   2   10.35    8.24
 -45  25   2    4.08    6.78
 -25 -20  -2    6.52    8.15
 -45  25  -1  211.94   13.80
 -25 -20   1  247.24   14.80
 -45  25  -1  232.36   15.10
 -45  25  -4   10.78    5.81
 -45  25  -4    7.33    6.91
 -25 -20   4   13.26    6.94
 -45  24   3   85.17    7.96
 -45  24   0   72.06    8.14
 -24 -21   0   57.74    8.98
 -45  24  -3   99.85    8.56
 -24 -21   3  108.73    9.52
 -24 -21   6   11.63    4.12
 -45  23   4    0.31    5.38
 -45  23   1   12.60    6.79
 -23 -22  -1   11.42    8.06
 -45  23  -2   38.19    6.88
 -23 -22   2   19.17    7.97
 -45  23  -5   19.87    4.17
 -23 -22   5   22.74    5.86
 -45  22   5   20.96    4.24
 -45  22   2   17.27    6.55
 -45  22  -1   12.52    6.60
 -22 -23   1   25.92    8.20
 -45  22  -4   34.14    5.55
 -22 -23   4   53.58    7.33
 -45  21   6   14.93    4.46
 -45  21   3   28.54    7.76
 -45  21   3   34.48    6.07
 -45  21   0   49.07    7.16
 -21 -24   0   48.85    8.76
 -45  21   0   52.42    9.25
 -45  21  -3    2.14    5.64
 -45  21  -3    2.68    7.64
 -21 -24   3   -3.19    7.18
 -21 -24   6    3.68    3.72
 -45  20   4   58.29    7.73
 -45  20   4   52.00    5.36
 -45  20   1   23.65    6.35
 -20 -25  -1   29.35    7.84
 -45  20   1   27.88    8.63
 -20 -25   2  168.49   11.22
 -45  20  -2  171.89   11.90
 -45  20  -2  139.63    9.95
 -45  20  -5   27.40    6.18
 -20 -25   5   32.51    5.72
 -45  19   5   14.13    5.86
 -45  19   2   65.26    8.96
 -45  19   2   50.68    6.35
 -45  19  -1    8.09    5.67
 -19 -26   1   16.64    7.72
 -45  19  -1   -0.81    8.48
 -45  19  -4   29.09    7.05
 -19 -26   4   35.11    6.67
 -45  18   6   61.11    5.10
 -45  18   3   29.74    7.65
 -45  18   0   13.24    5.39
 -18 -27   0    0.47    7.29
 -45  18   0   12.60    8.63
 -45  18  -3   22.73    7.51
 -18 -27   3   28.72    6.97
 -45  17   4   39.65    7.09
 -17 -28  -1   42.95    7.57
 -45  17   1   36.90    8.50
 -17 -28   2   11.60    6.82
 -45  17  -2   17.35    7.70
 -45  17  -5   20.54    5.44
 -17 -28   5   12.31    4.50
 -45  16   5   11.73    5.28
 -45  16   2   62.75    8.52
 -16 -29   1    1.25    6.57
 -45  16  -1   -5.29    7.87
 -45  16  -4   15.00    6.13
 -16 -29   4    3.78    5.25
 -45  15   3   19.11    7.04
 -15 -30   0   19.38    6.67
 -45  15   0   39.66    8.20
 -45  15  -3   26.26    7.35
 -15 -30   3   25.79    5.95
 -45  14   4   40.28    6.41
 -45  14   1   33.51    7.86
 -45  14  -2    3.31    7.22
 -14 -31   2    7.32    5.62
 -45  14  -5    3.50    4.34
 -45  13   5    0.86    3.97
 -45  13   2   12.99    7.06
 -13 -32   1   57.50    6.45
 -45  13  -1   67.79    8.28
 -45  13  -4   76.81    6.75
 -13 -32   4   65.87    5.23
 -45  12   3  137.21    9.39
 -33  45   0   28.71    5.28
 -45  12   0   29.54    7.26
 -45  12  -3   46.13    6.60
 -45  11   4   69.44    6.06
 -34  45  -1    9.43    5.27
 -45  11   1   12.16    6.64
 -34  45   2  103.19    6.92
 -45  11  -2   88.74    8.29
 -35  45  -2   74.34    6.38
 -45  10   2   70.58    7.06
 -35  45   1   39.20    5.56
 -45  10  -1   59.49    6.94
 -45  10  -4   53.29    4.92
 -36  45  -3    2.55    4.19
 -45   9   3   -0.12    4.52
 -36  45   0   15.59    5.24
 -45   9   0   11.77    5.92
 -45   9  -3    4.60    4.46
 -36  45   3   -0.95    3.79
 -37  45  -1   -1.03    5.12
 -45   8   1    4.24    5.14
 -45   8  -2   -4.47    4.56
 -37  45   2    2.95    4.34
 -38  45  -2    1.85    4.75
 -45   7  -1   11.26    4.29
 -39  45  -3   -2.82    3.78
 -39  45   0   32.77    5.38
 -39  45   3    7.95    3.42
 -40  45  -1    5.11    4.73
 -40  45   2  170.71    9.57
 -41  45  -2   11.48    4.14
 -41  45   1    0.61    4.38
 -42  45   0   19.96    4.44
 -43  45  -1   13.60    3.89
 -43  45   2   16.82    3.36
 -44  45   1   21.57    3.59
 -45  45   0   19.83    3.45
 -46  44   0   11.02    3.44
 -46  43   1   14.96    3.97
 -46  43  -2    8.83    3.50
 -46  42   2    7.71    3.67
 -46  42  -1    2.94    4.57
 -46  41   3    1.69    3.46
 -46  41   0    2.47    4.98
 -46  41  -3   10.05    3.57
 -46  40   4   -0.23    2.71
 -46  40   1   44.55    5.97
 -46  40  -2  -10.96    5.07
 -40  -6   2   -3.22    4.19
 -46  39   2   27.32    5.48
 -39  -7   1   76.46    7.02
 -46  38   0    4.73    4.19
 -38  -8   0    0.89    5.96
 -38  -8   3   11.85    4.52
 -46  37   1   11.64    4.90
 -37  -9   2   99.74    8.07
 -46  37  -2  108.31    6.95
 -46  36   2   40.52    5.76
 -46  36  -1    8.19    6.16
 -46  36  -1    8.52    5.51
 -36 -10   1   -5.73    6.45
 -46  36  -4   38.45    4.79
 -36 -10   4   24.83    4.55
 -46  35   3    3.59    5.56
 -46  35   3    5.70    4.97
 -46  35   0   22.85    6.80
 -35 -11   0    3.01    6.95
 -46  35   0   12.66    5.96
 -46  35  -3    8.92    4.72
 -46  35  -3   12.13    5.74
 -35 -11   3    2.19    5.76
 -46  34   4   13.67    4.25
 -46  34   1   -2.26    6.85
 -34 -12  -1    6.45    7.16
 -46  34   1    2.37    6.29
 -46  34  -2   19.04    6.59
 -46  34  -2    4.18    5.79
 -34 -12   2   -2.84    6.73
 -46  34  -5    8.71    3.43
 -34 -12   5   10.95    3.41
 -46  33   5   14.08    3.63
 -46  33   2   59.01    7.59
 -46  33   2   67.69    7.49
 -46  33  -1   -0.84    6.69
 -33 -13   1    3.87    7.19
 -46  33  -1    4.91    6.73
 -46  33  -4    6.53    4.63
 -46  33  -4    7.70    5.14
 -33 -13   4   13.89    5.38
 -46  32   3   12.08    6.09
 -46  32   3    7.83    6.16
 -46  32   0  152.31   10.72
 -46  32   0  139.87   10.77
 -46  32  -3   -5.56    6.10
 -46  32  -3    8.17    5.91
 -32 -14   3    9.99    6.49
 -46  31   4   -0.89    5.37
 -46  31   4   12.99    5.19
 -46  31   1   17.85    7.08
 -46  31   1   13.55    7.62
 -46  31  -2   49.71    7.36
 -46  31  -2   37.27    7.33
 -46  31  -5   -0.55    3.91
 -31 -15   5    5.55    4.21
 -46  31  -5    2.91    3.68
 -46  30   5  162.60    9.66
 -46  30   5  182.85    9.75
 -46  30   2   68.20    7.92
 -46  30   2   77.36    8.28
 -46  30  -1  128.38    9.81
 -46  30  -1  122.44   10.05
 -46  30  -4   23.98    5.79
 -46  30  -4   23.58    5.46
 -46  29   3  103.32    9.00
 -46  29   3  103.75    8.28
 -46  29   0   35.74    7.44
 -29 -17   0   22.81    7.87
 -46  29   0   38.47    8.06
 -46  29  -3  138.00   10.01
 -46  29  -3  138.62    9.90
 -46  28   4    9.16    6.07
 -46  28   4    8.56    5.17
 -46  28   1   -5.36    6.80
 -28 -18  -1    2.26    7.77
 -46  28   1    7.00    7.62
 -46  28  -2   25.87    6.65
 -46  28  -2   16.61    7.56
 -28 -18   2   26.31    7.78
 -46  28  -5   20.95    4.79
 -46  28  -5   16.54    4.06
 -46  27   5   23.33    5.16
 -46  27   5   27.13    4.35
 -46  27   2   12.09    7.58
 -46  27   2   10.36    6.50
 -46  27  -1   15.93    6.92
 -27 -19   1   10.05    7.71
 -46  27  -1    0.25    7.84
 -46  27  -4    3.73    5.16
 -46  27  -4   16.35    6.15
 -27 -19   4   11.51    6.22
 -46  26   6   32.71    3.57
 -46  26   3    1.28    7.19
 -46  26   3    8.05    5.77
 -46  26   0   31.79    7.17
 -26 -20   0   43.79    8.58
 -46  26  -3   31.70    6.37
 -46  26  -3   28.24    7.39
 -26 -20   3   23.25    7.20
 -26 -20   6   17.25    3.18
 -46  25   4    5.91    6.33
 -46  25   4    3.36    4.85
 -46  25   1   70.36    7.86
 -25 -21  -1   61.12    8.77
 -46  25   1   69.28    8.95
 -46  25  -2   26.43    6.49
 -25 -21   2   23.77    7.68
 -46  25  -2   29.21    8.14
 -46  25  -5   48.18    6.01
 -46  25  -5   44.58    4.38
 -46  24   5   28.18    3.80
 -46  24   2    8.29    6.26
 -46  24  -1    7.08    6.54
 -24 -22   1    4.94    7.30
 -46  24  -4   16.73    4.66
 -24 -22   4   14.57    6.17
 -46  23   3   17.15    5.42
 -46  23   0   64.62    7.28
 -23 -23   0   58.88    8.52
 -23 -23   3  152.40   10.04
 -46  23  -3  121.85    8.80
 -23 -23   6   42.84    3.80
 -46  22   4   -1.26    4.41
 -46  22   1  109.19    8.49
 -22 -24  -1  108.64    9.70
 -46  22  -2   11.89    5.65
 -22 -24   2   17.93    7.22
 -22 -24   5   52.52    5.71
 -46  21   5   16.31    5.41
 -46  21   2   -1.43    7.76
 -46  21   2    1.55    5.35
 -46  21  -1   16.28    5.66
 -21 -25   1   10.66    7.42
 -46  21  -1    6.63    7.97
 -46  21  -4   -1.68    6.36
 -21 -25   4   -2.22    5.78
 -46  20   6   16.06    3.26
 -46  20   3    4.26    7.05
 -46  20   3    4.67    4.58
 -46  20   0    2.65    5.38
 -20 -26   0   -4.75    7.23
 -46  20   0    2.55    7.98
 -46  20  -3    7.57    6.93
 -20 -26   3    5.42    6.42
 -46  19   4    5.66    6.07
 -46  19   1   54.50    5.85
 -19 -27  -1   58.53    7.59
 -46  19   1   57.24    8.34
 -19 -27   2  105.10    8.96
 -46  19  -2  108.95    9.75
 -46  19  -5   31.32    5.22
 -19 -27   5   18.40    4.24
 -46  18   5   85.69    6.56
 -46  18   2    2.93    7.32
 -18 -28   1   -0.20    6.59
 -46  18  -1    5.56    7.82
 -46  18  -4   12.96    6.11
 -18 -28   4   18.59    5.24
 -46  17   3   87.48    8.34
 -17 -29   0   11.12    6.36
 -46  17   0   11.66    7.74
 -46  17  -3   -0.79    6.43
 -17 -29   3    3.88    5.74
 -46  16   4   65.30    6.84
 -46  16   1    1.57    7.29
 -46  16  -2   21.55    7.10
 -16 -30   2   16.02    5.93
 -46  16  -5   22.78    4.37
 -46  15   5    4.23    3.84
 -46  15   2  211.55   12.97
 -15 -31   1   -4.29    5.60
 -46  15  -1    2.17    6.89
 -46  15  -4   39.19    5.76
 -15 -31   4   34.85    4.23
 -46  14   3    8.86    5.76
 -46  14   0   -9.85    7.20
 -46  14  -3    4.04    5.88
 -14 -32   3    1.74    4.18
 -46  13   4    8.53    4.49
 -46  13   1   -3.65    6.49
 -46  13  -2  121.18    9.04
 -46  12   2   16.90    6.01
 -46  12  -1   35.64    6.57
 -46  12  -4   -4.44    3.75
 -46  11   3   16.18    4.78
 -35  46   0   47.69    5.17
 -46  11   0   57.69    6.83
 -46  11  -3   40.52    5.17
 -36  46  -1    5.28    4.32
 -46  10   1    7.35    5.39
 -46  10  -2   45.52    5.47
 -37  46  -2   27.57    4.22
 -46   9   2   28.06    4.46
 -37  46   1    7.38    4.02
 -46   9  -1    9.90    4.59
 -38  46   0    9.38    4.39
 -46   8   0    3.96    4.06
 -39  46  -1   15.47    4.19
 -39  46   2   16.33    3.49
 -40  46  -2    0.09    3.32
 -40  46   1   27.07    4.17
 -41  46   0   -0.51    3.72
 -42  46  -1   41.00    4.11
 -47  43   0    3.71    3.46
 -47  42   1    8.85    3.77
 -47  41   2    9.64    3.70
 -47  41  -1    6.41    4.43
 -47  40   3   -4.70    3.39
 -47  40   0    8.89    4.79
 -39  -8   2   -2.91    4.23
 -47  38  -1    4.25    3.42
 -38  -9   1    1.08    5.34
 -47  37   0  128.36    8.88
 -37 -10   0  132.61    8.94
 -47  37   0  117.36    7.80
 -47  37  -3    0.40    4.40
 -37 -10   3    4.38    4.31
 -47  36   4    7.90    3.57
 -47  36   1   54.40    6.63
 -47  36   1   63.91    6.03
 -47  36  -2    2.30    5.64
 -47  36  -2    6.80    4.35
 -36 -11   2    0.99    5.60
 -47  35   2   10.79    5.92
 -47  35   2   10.64    4.96
 -47  35  -1   91.06    7.78
 -47  35  -1   77.83    7.11
 -35 -12   1   80.28    7.88
 -47  35  -4    5.46    3.94
 -35 -12   4    5.56    4.02
 -47  34   3   43.92    5.99
 -47  34   3   50.89    5.51
 -47  34   0   44.69    6.95
 -34 -13   0   53.46    7.51
 -47  34   0   45.08    6.64
 -47  34  -3   69.41    5.88
 -47  34  -3   63.23    6.41
 -34 -13   3   67.40    6.69
 -47  33   4    8.87    4.50
 -47  33   4    7.38    4.07
 -47  33   1   -9.63    6.31
 -47  33   1    3.04    6.30
 -47  33  -2   -7.36    6.19
 -47  33  -2   15.22    5.78
 -33 -14   2    3.47    6.39
 -33 -14   5    1.62    2.88
 -47  32   5    6.54    2.96
 -47  32   2    8.20    5.98
 -47  32   2    5.45    6.20
 -47  32  -1   54.55    7.11
 -47  32  -1   37.40    7.14
 -47  32  -4    9.07    4.24
 -47  32  -4    4.68    4.12
 -32 -15   4    9.22    4.80
 -47  31   3   25.44    5.87
 -47  31   3   13.31    5.85
 -47  31   0   17.18    6.43
 -47  31   0   13.96    6.93
 -47  31  -3   -0.98    5.43
 -47  31  -3   11.03    5.79
 -47  30   4   28.22    4.80
 -47  30   4   44.62    5.51
 -47  30   1   57.36    7.42
 -30 -17  -1   54.29    8.00
 -47  30   1   58.96    8.04
 -47  30  -2    7.74    5.89
 -47  30  -2    8.62    6.72
 -47  30  -5   12.36    3.33
 -47  29   5    5.99    3.12
 -47  29   5    9.73    3.73
 -47  29   2  102.96    8.62
 -47  29   2  125.44    9.31
 -47  29  -1    8.35    6.33
 -47  29  -1   20.04    7.23
 -47  29  -4   -0.73    5.24
 -47  29  -4    3.67    4.41
 -29 -18   4   -3.78    5.19
 -47  28   3  341.15   17.67
 -47  28   3  330.82   18.03
 -47  28   0   59.19    7.18
 -28 -19   0   60.76    8.37
 -47  28   0   48.20    8.38
 -47  28  -3   79.44    7.21
 -47  28  -3   80.70    7.86
 -28 -19   3   78.11    7.85
 -47  27   4   27.49    5.83
 -47  27   4   11.59    4.55
 -47  27   1  100.06    8.40
 -27 -20  -1  112.45    9.52
 -47  27   1  100.39    9.36
 -47  27  -2   54.26    6.91
 -47  27  -2   53.51    7.93
 -27 -20   2   66.54    7.80
 -27 -20   5   38.84    4.76
 -47  27  -5   32.23    4.43
 -47  26   5   17.46    4.64
 -47  26   2    4.25    5.79
 -47  26   2   13.37    7.14
 -47  26  -1   26.59    6.26
 -26 -21   1   21.68    7.43
 -47  26  -1   18.80    7.62
 -47  26  -4    4.39    4.06
 -47  26  -4   -5.48    5.68
 -26 -21   4    8.73    5.55
 -47  25   3   35.40    5.42
 -47  25   0   16.37    6.01
 -25 -22   0    8.04    7.07
 -47  25  -3   36.99    5.40
 -47  25  -3   33.52    6.91
 -25 -22   3   37.05    6.64
 -47  24   4    6.01    3.88
 -47  24   1   27.32    6.12
 -24 -23  -1   19.26    7.31
 -47  24  -2    5.98    5.36
 -24 -23   2    3.57    6.65
 -24 -23   5    1.95    4.03
 -47  23   2   -7.79    5.23
 -47  23  -1   31.29    5.79
 -23 -24   1   25.56    7.09
 -23 -24   4   21.09    5.60
 -47  22   3  202.88   11.67
 -47  22   3  253.26   13.15
 -47  22   0   17.72    5.37
 -22 -25   0    0.21    6.91
 -47  22   0    7.35    7.85
 -47  22  -3    5.00    3.93
 -47  22  -3   17.71    6.63
 -22 -25   3    8.26    6.02
 -47  21   4   52.43    6.49
 -47  21   1   14.81    4.82
 -21 -26  -1    2.22    6.65
 -47  21   1   -1.37    7.57
 -47  21  -2   40.63    4.96
 -21 -26   2   39.05    6.90
 -47  21  -5   13.81    4.15
 -21 -26   5   13.05    3.62
 -47  20   5    9.03    4.07
 -47  20   2  157.95   10.97
 -20 -27   1   -1.97    6.57
 -47  20  -1    3.87    7.17
 -47  20  -4   42.56    5.97
 -20 -27   4   35.45    5.19
 -47  19   3   25.63    6.65
 -19 -28   0   -8.41    6.38
 -47  19   0   -6.77    7.41
 -47  19  -3    4.06    6.30
 -19 -28   3   12.61    5.55
 -47  18   4    6.34    5.28
 -47  18   1   -1.07    7.26
 -47  18  -2   15.95    6.79
 -18 -29   2   17.73    5.77
 -47  18  -5    5.51    3.58
 -47  17   5   13.10    3.47
 -47  17   2   -4.23    6.38
 -17 -30   1   99.94    7.82
 -47  17  -1  105.58    9.04
 -47  17  -4    7.07    4.90
 -17 -30   4    5.43    3.54
 -47  16   3    7.20    5.68
 -47  16   0   14.60    7.05
 -47  16  -3   10.12    5.68
 -16 -31   3    4.26    4.12
 -47  15   4   22.01    4.48
 -47  15   1   22.85    6.82
 -47  15  -2   38.96    6.31
 -15 -32   2   26.25    4.53
 -47  14   2   19.67    5.86
 -47  14  -1   44.40    6.80
 -47  14  -4    1.30    3.70
 -47  13   3   20.04    4.69
 -47  13   0   14.54    5.86
 -47  13  -3  176.61   10.10
 -47  12   1    3.22    5.43
 -47  12  -2   44.08    5.55
 -47  11   2   59.31    5.36
 -47  11  -1   22.10    5.04
 -47  10   0   15.29    4.40
 -48  42   0   31.95    3.87
 -48  41   1   24.09    4.03
 -48  41  -2    6.13    3.10
 -48  38  -2   -2.29    4.53
 -38 -10   2   -0.59    4.16
 -48  37   2   20.54    4.76
 -48  37  -1    4.73    5.00
 -48  37  -1    4.00    3.53
 -37 -11   1    1.49    5.04
 -48  36   3   31.91    4.69
 -48  36   0   18.14    5.62
 -48  36   0   20.64    4.68
 -48  36  -3   25.74    4.43
 -36 -12   3   25.33    4.43
 -48  35   4    1.58    2.99
 -48  35   1   15.50    5.40
 -48  35   1   22.07    5.00
 -48  35  -2   97.53    7.18
 -48  35  -2   85.07    6.48
 -35 -13   2   92.23    7.38
 -48  34   2   19.15    5.34
 -48  34   2   17.26    5.15
 -48  34  -1    4.78    5.36
 -48  34  -1    6.57    5.32
 -48  34  -4   29.85    3.75
 -34 -14   4   29.92    3.95
 -48  33   3   88.19    6.54
 -48  33   3   89.50    6.64
 -48  33   0   29.59    6.21
 -48  33   0   38.08    6.26
 -33 -15   3  159.05    9.51
 -48  33  -3  147.03    8.98
 -48  33  -3  152.61    9.28
 -48  32   4    2.50    3.67
 -48  32   4    2.30    3.62
 -48  32   1   41.00    6.44
 -48  32   1   48.60    6.57
 -48  32  -2  185.94   10.90
 -48  32  -2  173.17   10.66
 -48  31   2   11.89    5.51
 -48  31   2   -0.50    5.96
 -48  31  -1   10.61    5.64
 -48  31  -1   11.95    6.31
 -48  31  -4   29.83    4.24
 -48  31  -4   33.42    3.91
 -48  30   3   19.15    5.14
 -48  30   3   25.16    5.67
 -48  30   0   11.11    5.64
 -30 -18   0   17.71    6.67
 -48  30   0    1.16    6.66
 -48  30  -3    3.11    4.47
 -48  30  -3   14.11    5.48
 -30 -18   3    3.27    5.50
 -48  29   4    9.63    3.60
 -48  29   4    7.93    4.51
 -48  29   1   14.77    5.61
 -29 -19  -1   11.25    6.41
 -48  29   1   19.37    6.97
 -48  29  -2   -0.79    5.36
 -48  29  -2    6.00    6.26
 -29 -19   2   -0.19    6.25
 -29 -19   5   17.65    3.19
 -48  28   5   36.50    3.63
 -48  28   2   44.54    5.83
 -48  28   2   37.13    6.92
 -48  28  -1  108.31    8.09
 -28 -20   1   93.95    8.92
 -48  28  -1  104.81    8.96
 -48  28  -4   65.68    5.81
 -48  28  -4   48.99    4.50
 -28 -20   4   59.34    5.68
 -48  27   3   29.30    4.95
 -48  27   3   24.42    6.17
 -48  27   0    4.93    5.61
 -27 -21   0   15.22    6.77
 -48  27   0    3.58    7.02
 -48  27  -3    7.88    4.44
 -48  27  -3    2.52    5.85
 -27 -21   3    3.20    5.62
 -48  26   4   21.23    3.56
 -48  26   4   36.40    5.42
 -48  26   1   23.62    5.54
 -26 -22  -1   23.28    6.65
 -48  26   1   27.48    7.15
 -48  26  -2   93.89    7.26
 -48  26  -2  105.62    8.59
 -26 -22   2   88.88    8.19
 -26 -22   5    1.86    3.07
 -48  26  -5    0.72    3.06
 -48  25   2    4.43    4.85
 -48  25  -1   25.31    5.32
 -25 -23   1   18.47    6.77
 -25 -23   4   89.68    6.78
 -48  24   3    8.96    3.85
 -48  24   0    2.98    4.92
 -24 -24   0   -2.79    6.50
 -24 -24   3    9.05    5.65
 -48  23   4   10.14    5.04
 -48  23   1   23.03    4.82
 -48  23  -2   43.14    4.91
 -23 -25   2   52.54    6.77
 -48  23  -5   10.69    3.37
 -48  22   5    7.23    3.39
 -48  22   2   22.80    4.00
 -48  22   2   26.80    6.76
 -48  22  -1    6.17    4.11
 -22 -26   1    5.70    6.23
 -48  22  -1    4.39    6.73
 -48  22  -4    7.50    4.96
 -22 -26   4   13.01    4.25
 -48  21   3   13.97    5.99
 -21 -27   0  172.16   11.03
 -48  21   0  180.42   11.59
 -48  21  -3   10.19    5.82
 -21 -27   3   10.92    5.01
 -48  20   4   11.18    4.69
 -48  20   1   28.95    7.11
 -48  20  -2    0.19    6.30
 -20 -28   2    2.62    5.55
 -48  19   2    9.15    6.22
 -19 -29   1    2.14    5.32
 -48  19  -1   12.68    6.54
 -48  19  -4    7.17    4.34
 -19 -29   4   11.08    3.25
 -48  18   3   13.83    5.51
 -48  18   0   44.38    7.22
 -48  18  -3    9.83    5.30
 -18 -30   3   11.78    3.98
 -48  17   4    9.63    3.92
 -48  17   1   10.17    6.19
 -48  17  -2   10.53    5.87
 -17 -31   2    7.52    4.14
 -48  16   2    3.70    5.55
 -48  16  -1  164.37   10.45
 -48  16  -4    9.92    3.44
 -48  15   3    3.17    4.49
 -48  15   0    9.75    5.74
 -48  15  -3   13.41    4.54
 -48  14   1   59.88    6.22
 -48  14  -2   30.92    5.17
 -48  13   2   -4.05    4.19
 -48  13  -1  105.77    7.31
 -48  12   0   10.26    4.41
 -48  11   1   54.27    4.57
 -49  39  -1   -0.66    3.73
 -49  38   0    8.18    4.07
 -49  37   1   11.27    4.39
 -49  37  -2   29.18    4.12
 -37 -12   2   24.54    4.31
 -49  36   2    7.90    3.88
 -49  36  -1   -0.93    4.72
 -49  36  -1   -2.35    3.50
 -36 -13   1    5.75    4.95
 -49  35   3   14.06    3.68
 -49  35   0   -1.98    4.91
 -35 -14   0    7.34    5.48
 -49  35   0    3.83    4.38
 -49  35  -3   14.88    3.63
 -35 -14   3   10.41    3.93
 -49  34   1   46.74    5.67
 -49  34   1   40.52    5.32
 -49  34  -2   29.87    4.93
 -34 -15   2   35.46    5.27
 -49  33   2   18.16    4.89
 -49  33   2   17.17    4.85
 -49  33  -1   79.13    6.39
 -49  33  -1   62.85    6.34
 -33 -16   4   23.42    3.31
 -49  32   3   11.75    4.10
 -49  32   3   18.96    4.27
 -49  32   0    9.83    5.25
 -32 -17   0    3.69    5.81
 -49  32   0   15.24    5.74
 -49  32  -3    8.42    3.98
 -49  32  -3    3.92    3.48
 -49  31   4   57.43    4.36
 -49  31   1    8.06    5.10
 -49  31   1   -5.11    5.83
 -31 -18   2  108.70    8.23
 -49  31  -2  131.28    8.05
 -49  31  -2  102.42    7.67
 -49  30   2  144.04    9.08
 -49  30   2  170.82    9.89
 -49  30  -1   15.84    5.10
 -30 -19   1   11.69    5.97
 -49  30  -1   12.90    6.06
 -49  30  -4   23.86    3.52
 -30 -19   4   22.81    3.90
 -49  29   3   31.66    4.34
 -49  29   3   38.25    5.34
 -49  29   0   -2.18    5.04
 -29 -20   0    3.12    5.95
 -49  29   0    2.15    5.89
 -49  29  -3   -2.89    3.57
 -49  29  -3   -2.01    4.94
 -29 -20   3   -0.57    4.94
 -49  28   4    6.85    3.93
 -49  28   1   39.89    5.45
 -49  28   1   38.23    6.59
 -49  28  -2   15.97    4.66
 -49  28  -2   24.81    6.05
 -28 -21   2   29.40    5.95
 -49  27   2    7.13    4.26
 -49  27   2    8.40    5.97
 -49  27  -1   23.90    4.77
 -27 -22   1   14.98    6.24
 -49  27  -1   19.75    6.28
 -49  27  -4   11.51    3.95
 -27 -22   4   10.87    3.72
 -49  26   3   13.81    3.35
 -49  26   0   89.89    6.71
 -26 -23   0   95.60    7.85
 -49  26  -3   43.21    6.00
 -26 -23   3   48.68    5.68
 -49  25   1   36.84    4.65
 -49  25  -2   17.51    3.77
 -25 -24   2   16.98    5.66
 -49  24  -1   49.10    4.81
 -24 -25   1   64.16    6.61
 -24 -25   4   32.64    4.02
 -49  23   3   15.75    5.43
 -23 -26   0   51.49    6.43
 -49  23   0   43.33    7.03
 -49  23  -3   21.57    5.53
 -23 -26   3   24.19    4.77
 -49  22   4   -1.41    4.08
 -49  22   1    8.71    6.24
 -49  22  -2    1.51    5.74
 -22 -27   2    2.25    4.87
 -49  21   2   52.08    6.60
 -21 -28   1   16.12    5.25
 -49  21  -1   12.11    5.99
 -49  21  -4   12.24    3.65
 -49  20   3   -3.34    4.97
 -49  20   0   15.45    6.11
 -49  20  -3   10.80    4.85
 -20 -29   3    3.94    3.53
 -49  19   4    4.33    3.32
 -49  19   1   81.89    7.47
 -49  19  -2   61.25    6.37
 -19 -30   2   53.39    4.97
 -49  18   2   -2.86    5.17
 -49  18  -1    8.22    5.64
 -49  17   3    3.13    3.97
 -49  17   0    7.22    5.41
 -49  17  -3   29.85    4.32
 -49  16   1    6.73    5.00
 -49  16  -2    7.52    4.50
 -49  15   2   -0.54    4.00
 -49  15  -1   11.13    4.65
 -49  14   0   15.56    4.41
 -49  13   1    7.75    3.53
 -50  39   1   51.17    3.98
 -50  38  -1   54.98    4.41
 -50  37   0   -0.11    3.68
 -50  36   1   10.24    3.90
 -36 -14   2   86.91    5.84
 -50  36  -2   93.72    5.79
 -50  35   2   24.66    3.77
 -50  35  -1   -0.11    4.08
 -50  35  -1   -1.64    3.30
 -35 -15   1    2.29    4.39
 -50  34   0   -0.96    4.24
 -50  34   0   -2.73    3.95
 -34 -16   3    2.47    3.18
 -50  33   1    3.84    4.22
 -50  33   1   11.39    4.36
 -50  33  -2   22.42    3.87
 -50  33  -2   25.93    4.04
 -50  32   2   41.08    4.52
 -50  32   2   43.89    4.84
 -50  32  -1    5.80    4.28
 -50  32  -1    6.37    4.70
 -32 -18   1   17.64    5.06
 -50  31   3   48.48    4.52
 -50  31   0   78.32    6.05
 -31 -19   0   70.39    6.86
 -50  31   0   74.43    6.55
 -50  31  -3    5.32    3.44
 -31 -19   3    3.95    3.88
 -50  30   1    8.66    4.18
 -50  30   1    8.67    5.38
 -50  30  -2    6.07    3.60
 -50  30  -2    6.17    4.55
 -30 -20   2   15.38    4.85
 -50  29   2   22.65    3.72
 -50  29   2   18.59    5.00
 -50  29  -1   51.48    4.87
 -29 -21   1   46.66    6.06
 -50  29  -1   37.97    6.02
 -50  28   3   71.12    5.85
 -50  28   0   27.92    4.39
 -28 -22   0   30.56    5.81
 -50  28   0   34.86    5.90
 -50  28  -3   35.88    4.62
 -28 -22   3   35.93    4.60
 -50  27   4   -0.65    2.87
 -50  27   1   10.12    3.61
 -50  27   1    3.94    5.68
 -50  27  -2   -2.28    5.17
 -27 -23   2    1.09    4.69
 -50  26  -1   12.92    3.41
 -26 -24   1   19.29    5.26
 -25 -25   0   -4.97    5.09
 -25 -25   3   24.61    4.00
 -50  24   4    9.66    3.01
 -24 -26   2   17.61    4.54
 -50  23   2    2.57    5.18
 -23 -27   1   44.27    5.32
 -50  23  -1   37.44    5.88
 -50  22   3   13.29    4.29
 -50  22   0   38.19    6.05
 -50  22  -3   36.10    4.60
 -50  21   1   50.13    6.13
 -50  21  -2    5.49    4.77
 -21 -29   2    2.01    3.44
 -50  20   2   -6.93    4.60
 -50  20  -1    2.14    5.18
 -50  19   3    7.04    3.49
 -50  19   0   12.51    5.23
 -50  19  -3   42.19    4.19
 -50  18   1   28.22    4.94
 -50  18  -2   20.91    4.23
 -50  17   2   79.42    5.67
 -50  17  -1   47.16    5.01
 -50  16   0   22.92    4.28
 -50  15   1   10.82    3.32
 -51  36   0   91.64    5.64
 -51  35   1   -2.07    2.87
 -35 -16   2    5.47    2.89
 -51  34  -1   18.30    3.22
 -51  33   0   11.97    3.38
 -51  33   0   11.99    3.69
 -51  32   1   -0.09    3.08
 -51  32   1   -3.00    3.77
 -51  32  -2    4.16    3.15
 -32 -19   2    8.31    3.64
 -51  31   2   21.46    3.81
 -51  31  -1   -0.83    3.03
 -51  31  -1    8.49    4.06
 -31 -20   1    4.42    4.10
 -51  30   0    1.95    3.18
 -51  30   0   10.09    4.37
 -51  29   1  112.57    7.52
 -51  29  -2   17.90    4.19
 -29 -22   2   15.64    4.02
 -51  28   2    1.37    4.24
 -51  28  -1   16.72    4.79
 -28 -23   1   11.30    4.35
 -51  27   3  134.24    7.58
 -51  27   0   29.53    5.08
 -51  27  -3   13.43    3.17
 -26 -25   2    1.92    3.63
 -25 -26   1    4.81    3.97
 -51  24   3   45.96    4.04
 -51  24   0    5.32    4.68
 -51  24  -3   20.99    3.31
 -51  23   1    4.12    4.72
 -51  23  -2   -4.38    4.14
 -51  22   2   67.47    5.35
 -51  22  -1   38.02    5.15
 -51  21   0    0.12    4.40
 -51  20   1   16.03    4.11
 -51  20  -2   54.65    4.57
 -51  19   2   99.49    6.02
 -51  19  -1   81.89    5.72
 -51  18   0    1.34    3.56
 -52  32   0    7.42    2.96
 -52  31   1   76.75    5.09
 -52  30  -1   -0.64    3.24
 -52  29   0    2.77    3.70
 -52  28   1   11.03    3.78
 -52  28  -2    0.58    2.85
 -52  25   1    2.78    3.53
 -52  25  -2   19.78    3.25
 -52  24   2   28.52    3.37
 -52  24  -1    8.39    3.52
 -52  23   0    4.18    3.71
 -52  22   1   -2.55    3.27
 -52  21  -1   28.62    3.44
   0   0   0    0.00    0.00


TITL JNU-74-MY in R-3
REM R-3 (#148 in standard setting)
CELL 1.54184  41.703743  41.703743   9.864438  90.0000  90.0000 120.0000
ZERR  207.00   0.000702   0.000702   0.000182   0.0000   0.0000   0.0000
LATT  3
SYMM -y, x-y, z
SYMM -x+y,-x, z
SFAC C H N O Co
UNIT 207.00 207.00 207.00 207.00 207.00
TREF
HKLF 4
END
_computing_structure_solution     'SHELXT 2014/5 (Sheldrick, 2014)'
;
_shelx_hkl_checksum              34828
_shelx_fab_file
;
0 0 3 -59.9786 20.2954
0 0 6 10.3443 15.3740
0 0 9 10.0490 -15.6377
0 0 12 -10.2745 -7.4085
0 1 -10 -9.5719 21.0871
0 1 -7 -0.9722 -10.5028
0 1 -4 24.1519 -27.2474
0 1 -1 38.8412 16.1297
0 1 2 145.4464 26.6588
0 1 5 -11.0334 -18.2474
0 1 11 1.1933 16.2629
0 2 -11 -2.8426 -16.2703
0 2 -8 4.6643 12.3230
0 2 -5 -3.9397 19.1407
0 2 -2 83.7452 -18.6664
0 2 1 5.3415 -18.6392
0 2 4 10.3249 19.7669
0 2 7 0.9687 11.9407
0 2 10 -1.7551 -16.8340
0 3 -12 -2.2132 10.5118
0 3 -9 9.5154 18.7041
0 3 -6 15.1415 -17.6066
0 3 -3 9.3616 -20.4939
0 3 3 -36.6185 17.0651
0 3 6 -11.6177 -21.3223
0 3 9 7.0724 -11.3836
0 3 12 -1.9491 13.9152
0 4 -10 0.5806 -3.8998
0 4 -7 -1.2725 -12.5198
0 4 -4 7.3993 6.1215
0 4 -1 35.7720 11.9308
0 4 2 -91.5686 -7.1600
0 4 5 -8.5173 -8.0560
0 4 8 -6.4644 5.1992
0 4 11 0.9884 4.7563
0 5 -11 -11.5331 -1.4621
0 5 -8 20.0600 -4.7326
0 5 -5 5.8905 4.7054
0 5 -2 27.3807 5.1701
0 5 1 -20.7961 -5.9401
0 5 4 -14.6784 -4.1893
0 5 7 0.7627 4.9534
0 5 10 3.1342 3.5537
0 6 -12 -7.3837 1.6624
0 6 -9 -7.1166 1.3395
0 6 -6 5.0156 -0.4920
0 6 -3 10.1251 -0.8279
0 6 3 7.8577 1.8666
0 6 6 -19.6333 -1.2933
0 6 9 -3.7375 -0.6815
0 6 12 -4.7664 5.4149
0 7 -10 3.2880 -5.8313
0 7 -7 -2.4320 -12.4131
0 7 -4 10.1151 8.3666
0 7 -1 8.8945 12.7590
0 7 2 -29.9435 -10.3657
0 7 5 -1.8399 -10.6322
0 7 8 -4.7452 9.2632
0 7 11 -10.6797 7.2843
0 8 -11 4.3105 -6.8680
0 8 -8 -12.5120 4.9760
0 8 -5 -6.2618 8.0946
0 8 -2 -13.7857 -7.9950
0 8 1 25.4907 -8.1524
0 8 4 -1.1164 7.5411
0 8 7 -1.0814 5.7831
0 8 10 -3.6147 -7.2036
0 9 -12 -10.5767 7.7728
0 9 -9 -3.2950 -6.7441
0 9 -6 -9.8320 -7.7366
0 9 -3 24.7946 9.4804
0 9 0 -56.1418 5.3168
0 9 3 -7.7408 -10.9803
0 9 6 3.7944 -3.5484
0 9 9 -11.4810 8.4686
0 9 12 2.6597 0.9865
0 10 -10 -4.9112 -4.5371
0 10 -7 1.8298 15.9933
0 10 -4 -14.6027 6.5063
0 10 -1 -47.6464 -19.8345
0 10 2 7.6863 -4.1961
0 10 5 -21.4168 18.0059
0 10 8 -8.6671 2.4256
0 10 11 -1.5856 -12.9816
0 11 -11 6.3949 6.6592
0 11 -8 3.5506 7.0617
0 11 -5 10.4010 -7.3822
0 11 -2 -23.7410 -6.4785
0 11 1 -26.3997 8.1629
0 11 4 -5.1805 4.7197
0 11 7 -4.4109 -7.2764
0 11 10 6.3185 -2.6640
0 12 -12 2.6125 -1.8513
0 12 -9 -1.3924 3.5570
0 12 -6 9.9764 1.0684
0 12 -3 -30.7703 -3.2090
0 12 0 -23.2925 0.6941
0 12 3 -17.4430 4.1377
0 12 6 -13.2800 -1.0667
0 12 9 0.8294 -3.3274
0 13 -10 2.5253 2.5737
0 13 -7 8.6575 -0.4323
0 13 -4 11.9641 -3.3756
0 13 -1 -53.7114 0.6026
0 13 2 6.7523 3.5298
0 13 5 16.5518 -1.1205
0 13 8 -9.8574 -3.3180
0 13 11 -6.2704 -1.6205
0 14 -11 -1.2188 6.7799
0 14 -8 0.7138 0.9418
0 14 -5 -0.4729 -12.1364
0 14 -2 -24.6073 -0.9959
0 14 1 26.2977 13.5019
0 14 4 6.4938 -0.7527
0 14 7 1.7175 -11.2573
0 14 10 8.1036 1.0060
0 15 -9 -0.2240 -10.8718
0 15 -6 0.6414 -4.2200
0 15 -3 -9.3913 14.3807
0 15 0 4.6281 3.2614
0 15 3 19.5145 -14.4351
0 15 6 10.1378 -0.5977
0 15 9 2.4091 11.6955
0 16 -10 9.5711 5.1694
0 16 -7 -0.0160 4.3706
0 16 -1 24.2527 -3.2319
0 16 2 2.1948 6.6996
0 16 5 6.0103 3.0522
0 16 8 1.3641 -5.1880
0 16 11 2.3423 -0.6498
0 17 -11 0.5369 3.9249
0 17 -8 3.7484 -11.5140
0 17 -5 5.2322 0.4394
0 17 -2 -4.3048 15.3991
0 17 1 -1.6402 -2.3156
0 17 4 -5.0523 -13.5755
0 17 7 -4.1343 4.2501
0 17 10 0.6866 8.9749
0 18 -9 -2.0909 -1.9382
0 18 -6 2.5900 8.8016
0 18 0 -9.6996 -10.0711
0 18 3 -17.0145 -0.0098
0 18 6 -1.7242 8.6505
0 18 9 -0.2149 -2.1393
0 19 -10 -0.7979 -1.9928
0 19 -7 -0.1669 1.8830
0 19 -4 2.6388 2.4607
0 19 -1 -3.8138 -1.7928
0 19 2 3.2204 -2.5067
0 19 5 -8.0652 1.5371
0 19 8 -5.8814 2.2789
0 19 11 -0.6558 0.3327
0 20 -11 -0.2966 -6.7071
0 20 -8 -3.7173 1.6897
0 20 -5 5.4964 3.6796
0 20 -2 3.7254 -3.2973
0 20 1 -34.9286 -4.0461
0 20 4 5.3640 3.7351
0 20 7 -5.0452 3.2422
0 20 10 7.9437 0.5422
0 21 -9 -7.8345 2.1841
0 21 -6 1.4118 8.1987
0 21 -3 -1.4918 -5.3489
0 21 0 11.5087 -8.2881
0 21 3 1.1337 6.5199
0 21 6 -4.6419 6.8170
0 21 9 2.5568 -3.8542
0 22 -10 -1.0675 10.3607
0 22 -7 -1.8464 -1.5693
0 22 -4 1.9087 -13.5767
0 22 -1 -6.2819 4.2993
0 22 2 9.6634 14.0631
0 22 5 2.4541 -4.6945
0 22 8 0.4441 -11.0296
0 23 -8 -9.3577 -3.3456
0 23 -5 -5.8401 3.5701
0 23 -2 -2.8604 2.5733
0 23 1 4.1084 -6.1702
0 23 4 0.2978 -2.2322
0 23 7 3.0507 5.2419
0 23 10 12.2770 -1.6879
0 24 -9 -5.8528 10.9638
0 24 -6 3.6888 -5.7404
0 24 -3 7.0170 -10.4498
0 24 0 -0.5944 8.4728
0 24 3 8.8879 9.0832
0 24 6 3.9449 -8.9561
0 24 9 3.2984 -6.9964
0 25 -10 6.6637 -3.5997
0 25 -7 -1.8895 -8.8061
0 25 -4 11.7762 4.4091
0 25 -1 -1.1803 9.6885
0 25 2 1.4017 -6.5798
0 25 5 -5.8993 -8.2933
0 25 8 -2.5912 5.4403
0 26 -8 10.4577 -0.4728
0 26 -5 6.6593 0.4033
0 26 -2 6.9306 2.5393
0 26 1 2.7798 -0.2731
0 26 4 -12.1489 -1.7894
0 26 7 3.8720 0.8667
0 27 -9 -5.3904 -3.2976
0 27 -6 10.7890 -0.1900
0 27 -3 7.5065 4.6183
0 27 0 -8.0154 -0.2571
0 27 3 -7.8534 -4.0349
0 27 6 -3.2634 1.3201
0 27 9 0.4384 1.2105
0 28 -7 9.9513 -3.1687
0 28 -4 2.0719 5.7988
0 28 -1 4.2351 2.3621
0 28 2 -5.2414 -5.9233
0 28 5 3.0562 -1.9542
0 28 8 -1.2074 4.9162
0 29 -8 -4.7578 5.8718
0 29 -5 4.7704 9.7627
0 29 -2 0.5152 -8.2323
0 29 1 -5.0060 -9.6229
0 29 4 5.1325 9.6131
0 29 7 1.4138 6.5846
0 30 -9 2.1628 1.1412
0 30 -6 -4.2696 -4.9592
0 30 -3 -0.6447 -2.9285
0 30 0 7.7290 5.3966
0 30 3 -12.7918 0.7888
0 30 6 -3.5679 -6.3725
0 30 9 0.1921 1.3752
0 31 -7 -2.8104 8.6344
0 31 -4 -4.5750 4.5356
0 31 -1 -9.3875 -10.2724
0 31 2 5.9140 -3.0649
0 31 5 2.3604 9.8320
0 31 8 5.3935 3.0361
0 32 -8 -7.9218 7.2798
0 32 -5 -2.9615 -9.4011
0 32 -2 3.7765 -5.4417
0 32 1 -10.2877 11.4092
0 32 4 2.7788 3.4937
0 32 7 -2.1400 -8.5941
0 33 -6 0.5586 -1.1858
0 33 -3 0.9250 0.1865
0 33 0 -0.6840 1.9453
0 33 3 2.3578 -0.7969
0 33 6 2.3827 -1.0890
0 34 -7 4.4606 -0.9794
0 34 -4 -7.0853 -2.6682
0 34 -1 -2.8393 3.3067
0 34 2 4.5231 1.5510
0 34 5 -3.4244 -4.1606
0 34 8 -1.1861 -1.8608
0 35 -5 -1.2943 -4.5040
0 35 -2 -0.7294 1.3918
0 35 1 1.3924 4.5209
0 35 4 4.9181 -0.9894
0 35 7 5.4517 -6.6718
0 36 -6 6.8605 -4.7056
0 36 -3 6.9595 10.6516
0 36 0 5.9903 3.8613
0 36 3 -0.0286 -10.9471
0 36 6 -1.7382 -0.7472
0 37 -7 1.3915 0.9282
0 37 -4 2.7328 0.8798
0 37 -1 2.1713 -6.7413
0 37 2 3.0925 0.1707
0 37 5 -5.4997 5.9144
0 38 -5 -1.9109 -0.9664
0 38 -2 -2.0336 7.6341
0 38 1 2.3182 -0.1432
0 38 4 -0.5172 -7.0087
0 39 -6 1.8011 9.2518
0 39 -3 -2.8403 -0.7307
0 39 0 4.4609 -11.3525
0 39 3 -1.7576 2.1745
0 39 6 0.6078 10.1155
0 40 -4 5.8416 -4.5068
0 40 -1 1.0331 -2.7442
0 40 2 7.3418 2.5344
0 40 5 8.1963 0.2011
0 41 -5 0.3487 1.5428
0 41 -2 7.8962 -2.2153
0 41 1 -9.7869 0.6827
0 41 4 0.0746 1.4611
0 42 -3 -5.8100 -4.1163
0 42 0 6.3478 -1.6216
0 42 3 -1.1031 3.4427
0 43 -1 -3.9892 4.1915
0 43 2 -0.5858 8.7414
0 44 -2 1.5144 5.8898
0 44 1 -5.5926 -4.0515
0 45 0 2.6542 0.4930
1 1 -12 -5.6619 1.6155
1 1 -9 11.4470 17.1533
1 1 -6 6.9292 -4.6624
1 1 -3 -33.9968 -22.2293
1 1 3 -50.2619 21.9616
1 1 6 5.3151 7.8264
1 1 9 9.4404 -17.4651
1 1 12 -6.3299 -3.4991
1 2 -10 0.1523 7.4256
1 2 -7 1.3400 -16.1860
1 2 -4 23.5674 -7.7208
1 2 -1 30.1071 18.9018
1 2 2 -11.7502 6.3595
1 2 5 -9.3774 -16.2524
1 2 8 -2.7684 -4.8993
1 2 11 -3.0896 12.0073
1 3 -11 -4.6063 -8.5892
1 3 -8 15.6209 0.9845
1 3 -5 15.4911 11.3417
1 3 -2 27.8316 -4.2786
1 3 1 -61.7358 -11.3641
1 3 4 -31.6389 5.4105
1 3 7 0.1670 5.8128
1 3 10 2.5428 -5.9395
1 4 -12 -2.7536 7.5922
1 4 -9 0.9355 8.9336
1 4 -6 20.3600 -9.2461
1 4 -3 47.2696 -7.9785
1 4 0 -100.1684 13.3591
1 4 3 -33.3128 6.0552
1 4 6 -21.4586 -13.8447
1 4 9 -2.5636 -3.2573
1 4 12 -0.4456 13.1453
1 5 -10 -1.2490 -2.3713
1 5 -7 0.0026 -7.2356
1 5 -4 23.3119 3.7341
1 5 -1 1.9601 8.2711
1 5 2 -94.2237 -5.1260
1 5 5 -9.9756 -7.5205
1 5 8 -3.6660 4.5672
1 5 11 -1.0588 3.3443
1 6 -11 -7.1912 -0.7387
1 6 -8 1.9506 -4.1275
1 6 -5 -14.4673 5.4795
1 6 -2 20.6619 4.5689
1 6 1 -39.0858 -6.5796
1 6 4 3.7856 -3.3091
1 6 7 1.5088 6.4853
1 6 10 -2.4027 2.1086
1 7 -12 -10.3876 -2.1710
1 7 -9 -3.7902 -0.9994
1 7 -6 -4.5648 1.9455
1 7 0 34.2430 -2.7999
1 7 3 0.1010 0.4009
1 7 6 -2.2282 2.0913
1 7 9 -12.6285 -1.2865
1 7 12 -0.8560 -1.9469
1 8 -10 -3.4819 -8.8040
1 8 -7 -0.9862 -2.5027
1 8 -4 -18.4720 11.0161
1 8 -1 -38.1492 0.5379
1 8 2 32.0109 -11.1439
1 8 5 -0.6763 1.1072
1 8 8 -10.5020 8.9412
1 8 11 -6.3251 -0.1283
1 9 -11 7.9186 -1.1754
1 9 -8 -6.3221 11.1226
1 9 -5 -2.1951 0.5837
1 9 -2 -45.2940 -13.4649
1 9 1 -12.9070 0.8792
1 9 4 1.9063 12.0743
1 9 7 2.1426 -2.1174
1 9 10 -0.1285 -9.0504
1 10 -12 -3.2904 5.8237
1 10 -9 -2.4702 -3.3163
1 10 -6 -3.8769 -7.1614
1 10 -3 -1.9876 5.8881
1 10 0 -60.3210 6.1370
1 10 3 -17.6623 -6.3938
1 10 6 -4.2972 -4.0772
1 10 9 1.4922 6.1447
1 10 12 0.6154 3.6862
1 11 -10 -0.5228 1.9339
1 11 -7 8.1196 9.6806
1 11 -4 -2.8355 -1.2392
1 11 -1 -23.7620 -10.8335
1 11 2 -4.5318 2.5343
1 11 5 -10.7182 8.8684
1 11 8 -11.7817 -2.6083
1 11 11 -2.0570 -8.8740
1 12 -11 3.7673 5.8871
1 12 -8 4.7378 -0.1080
1 12 -5 -6.3452 -8.2741
1 12 -2 -4.8895 1.5785
1 12 1 41.3445 7.9832
1 12 4 6.5859 -2.4268
1 12 7 -1.2181 -6.0122
1 12 10 17.7206 3.1224
1 13 -9 2.0220 1.2015
1 13 -6 5.6429 -1.5333
1 13 -3 -13.9580 -0.9323
1 13 0 -9.0753 2.7295
1 13 3 20.9153 1.4700
1 13 6 -0.6645 -2.1720
1 13 9 0.0142 -1.2507
1 14 -10 8.1900 -0.4924
1 14 -7 4.9903 0.6494
1 14 -4 -12.6740 -1.0657
1 14 -1 2.5396 -0.4806
1 14 2 -4.1214 1.3994
1 14 5 20.7034 0.2365
1 14 8 1.6988 -0.3601
1 14 11 -2.3655 1.1625
1 15 -11 2.9451 5.9535
1 15 -8 7.3000 -2.1752
1 15 -5 -0.0010 -9.1239
1 15 -2 -24.4085 3.8388
1 15 1 22.2476 9.6828
1 15 4 5.5047 -5.0764
1 15 7 8.6061 -6.7245
1 15 10 1.8541 5.0385
1 16 -9 0.2143 -11.0839
1 16 -6 -4.2210 2.8614
1 16 -3 -4.2605 14.0142
1 16 0 2.9750 -5.0445
1 16 3 -0.6684 -13.5002
1 16 6 5.7228 5.5745
1 16 9 6.4810 9.3515
1 17 -10 4.6721 3.2721
1 17 -7 1.4951 5.3234
1 17 -4 -0.2327 -3.9610
1 17 -1 18.3395 -4.7204
1 17 2 10.0535 4.4414
1 17 5 -8.0923 3.7749
1 17 8 -1.5647 -4.8310
1 17 11 2.8832 -1.9838
1 18 -11 2.1425 -6.1225
1 18 -8 -2.9385 -6.2070
1 18 -5 10.8765 5.0523
1 18 -2 12.0273 6.7655
1 18 1 -18.7677 -6.3495
1 18 4 0.9667 -5.4645
1 18 7 -8.2228 5.8735
1 18 10 0.7523 3.3452
1 19 -9 -3.5948 3.6053
1 19 -6 6.1322 5.9200
1 19 -3 -6.8804 -6.7847
1 19 0 8.4007 -5.6010
1 19 3 -16.7531 7.3619
1 19 6 0.1918 4.4900
1 19 9 1.0878 -5.4106
1 20 -10 -2.0260 -0.0847
1 20 -7 1.5743 0.5378
1 20 -4 6.1246 -1.0068
1 20 -1 -8.2022 -0.5116
1 20 2 6.7540 1.2111
1 20 5 -4.7685 0.1992
1 20 8 -2.1311 0.4467
1 21 -11 -0.1005 -0.2574
1 21 -8 -6.5581 1.1597
1 21 -5 -4.4744 -0.9506
1 21 -2 -8.9921 -1.4252
1 21 1 -8.9106 0.4980
1 21 4 7.6498 1.1381
1 21 7 -3.6323 -1.0037
1 21 10 11.9652 -0.8355
1 22 -9 -9.9823 4.2914
1 22 -6 -4.2676 3.6820
1 22 -3 -3.9857 -4.7351
1 22 0 -1.6000 -3.1067
1 22 3 10.8005 5.0795
1 22 6 3.1343 2.1918
1 22 9 2.6433 -4.5098
1 23 -10 0.5609 7.7273
1 23 -7 2.3107 -5.9844
1 23 -4 -2.3693 -8.9319
1 23 -1 -4.5832 8.6676
1 23 2 7.3271 8.0674
1 23 5 -0.5425 -8.0245
1 23 8 0.8550 -6.8504
1 24 -8 -1.2176 -2.7771
1 24 -5 0.4583 5.4713
1 24 -2 1.2165 3.0432
1 24 1 7.1122 -6.8605
1 24 4 -7.3177 -2.3946
1 24 7 11.5974 6.6606
1 24 10 -4.2835 0.2331
1 25 -9 -4.6293 3.7847
1 25 -6 9.6129 -5.8910
1 25 -3 7.4969 -3.2855
1 25 0 -4.6740 7.7831
1 25 3 -3.5370 2.9881
1 25 6 1.1092 -7.1317
1 25 9 1.5764 -0.8094
1 26 -10 -1.8437 -9.7221
1 26 -7 5.0617 -3.0974
1 26 -4 4.8107 8.3660
1 26 -1 3.4748 2.5892
1 26 2 -7.0259 -9.3791
1 26 5 -3.6214 -1.6905
1 26 8 -6.9932 8.1501
1 27 -8 6.5761 0.1512
1 27 -5 10.2522 2.3688
1 27 -2 1.0485 0.1567
1 27 1 2.2715 -2.2158
1 27 4 -5.0949 0.9576
1 27 7 1.0131 0.7561
1 28 -9 -10.4799 -1.7821
1 28 -6 -0.4441 2.8273
1 28 -3 3.2121 -0.1128
1 28 0 -2.8757 -3.0825
1 28 3 -14.1068 -0.0794
1 28 6 -3.0076 1.9976
1 28 9 1.6427 -1.2958
1 29 -7 -1.3857 -0.1790
1 29 -4 2.9068 2.1661
1 29 -1 -4.4621 0.2876
1 29 2 3.3571 -1.6376
1 29 5 3.1931 0.6337
1 29 8 1.3119 2.2057
1 30 -8 -0.5144 8.7640
1 30 -5 -6.2165 3.3480
1 30 -2 0.7352 -9.4759
1 30 1 -7.0508 -2.1807
1 30 4 4.2569 8.7808
1 30 7 -0.4061 2.1823
1 31 -6 -0.3866 -6.8603
1 31 -3 -4.4817 -0.5217
1 31 0 3.2813 7.6937
1 31 3 -6.2486 -0.6928
1 31 6 3.6822 -7.8783
1 32 -7 4.0548 6.4200
1 32 -4 -2.8536 1.5140
1 32 -1 -6.0262 -7.1781
1 32 2 5.3422 -0.6759
1 32 5 -1.3987 7.0329
1 32 8 -0.8417 -0.8040
1 33 -8 -5.3326 -2.4946
1 33 -5 3.3768 -9.0406
1 33 -2 4.1515 1.6427
1 33 1 -2.4810 8.9510
1 33 4 0.7748 -2.4441
1 33 7 4.0673 -7.7126
1 34 -6 2.4949 -0.8538
1 34 -3 1.8280 2.7674
1 34 0 0.3460 0.5984
1 34 3 -5.3145 -3.3935
1 34 6 -7.3033 0.5151
1 35 -7 1.4972 -3.2730
1 35 -4 -2.8712 0.4860
1 35 -1 0.8762 3.0855
1 35 2 5.5587 -0.8285
1 35 5 -7.4437 -3.3197
1 36 -5 -2.2488 0.3948
1 36 -2 -2.4553 0.6483
1 36 1 2.3697 0.8995
1 36 4 3.9701 0.1248
1 36 7 -1.4278 -0.3345
1 37 -6 12.5633 1.4082
1 37 -3 7.0622 8.1076
1 37 0 6.2177 -1.5934
1 37 3 -1.8381 -7.9143
1 37 6 0.8008 3.7489
1 38 -4 4.5605 -2.5092
1 38 -1 4.0450 -8.1007
1 38 2 2.6122 3.1141
1 38 5 2.0970 5.6753
1 39 -5 -0.9264 -0.1012
1 39 -2 -0.8539 4.4466
1 39 1 -7.3749 -0.4227
1 39 4 -5.5395 -4.6682
1 40 -3 -6.3640 -6.7828
1 40 0 -1.1947 -6.0468
1 40 3 -2.7505 6.4114
1 41 -4 6.9046 -2.9833
1 41 -1 -0.0792 2.9041
1 41 2 6.3908 1.9183
1 42 -2 6.8300 -0.8314
1 42 1 -3.9570 1.2487
1 42 4 -2.6029 4.3102
1 43 -3 -1.1947 2.6243
1 43 0 1.5133 0.6914
1 43 3 1.7019 -1.8679
1 44 -1 -6.7944 0.4057
2 1 -11 0.9599 -11.8586
2 1 -8 -2.8368 3.1605
2 1 -5 3.3707 13.8973
2 1 -2 40.5722 -6.4446
2 1 1 3.2291 -15.8938
2 1 4 -6.5587 7.6071
2 1 7 -2.2138 11.9845
2 1 10 -5.0453 -7.3082
2 2 -12 -1.3839 -4.8813
2 2 -9 10.2721 10.6681
2 2 -6 6.8259 9.1913
2 2 -3 31.8910 -14.3621
2 2 0 -122.7075 -7.8278
2 2 3 -37.7377 13.8706
2 2 6 -3.1938 4.5120
2 2 9 1.5555 -11.8817
2 2 12 -0.2338 -1.7840
2 3 -10 -1.1416 -0.2987
2 3 -7 3.5046 -4.9709
2 3 -4 26.1779 1.0386
2 3 -1 25.8385 4.8948
2 3 5 -12.4656 -3.6756
2 3 8 2.9685 0.2713
2 3 11 -1.0659 1.5415
2 4 -11 -3.4295 3.4922
2 4 -8 12.7389 -2.0060
2 4 -5 7.0137 -0.3602
2 4 -2 8.5083 2.0140
2 4 1 -91.4120 1.9424
2 4 4 -22.4179 -1.5632
2 4 7 -1.1740 -2.4529
2 4 10 -1.3467 1.1358
2 5 -12 -3.1010 -0.4711
2 5 -9 -4.3588 1.1305
2 5 -6 10.6697 0.9723
2 5 -3 -13.9302 -0.3482
2 5 0 43.9018 -1.0278
2 5 3 -20.3178 1.7901
2 5 6 -8.9648 1.2310
2 5 9 -8.9336 -1.6870
2 5 12 0.9911 2.8787
2 6 -10 -8.6891 -2.6502
2 6 -7 0.5437 -5.5912
2 6 -4 14.5113 4.3780
2 6 -1 -72.4801 7.1959
2 6 2 18.4632 -5.3158
2 6 5 9.9338 -6.6457
2 6 8 -7.4877 5.1342
2 6 11 0.7013 3.4702
2 7 -11 -2.4666 -3.8279
2 7 -8 -8.2184 5.9091
2 7 -5 -26.8483 4.0065
2 7 -2 -28.2820 -7.8354
2 7 1 -34.6790 -3.7777
2 7 4 21.0210 8.1932
2 7 7 8.6043 2.5951
2 7 10 -3.2999 -7.4671
2 8 -12 -3.4024 4.2920
2 8 -9 3.2852 -2.1454
2 8 -6 -9.8167 -9.4839
2 8 -3 -21.8574 3.0433
2 8 0 25.0857 9.6225
2 8 3 -4.0350 -4.4239
2 8 6 10.0979 -7.2141
2 8 9 -2.8429 4.2419
2 8 12 0.1584 1.2657
2 9 -10 2.3287 -5.4659
2 9 -7 -1.9855 5.9723
2 9 -4 -30.0729 6.0898
2 9 -1 17.3732 -8.1042
2 9 2 23.2833 -4.9059
2 9 5 -15.8807 8.2639
2 9 8 -7.0789 3.2744
2 9 11 -2.6573 -6.6702
2 10 -11 6.0328 4.9742
2 10 -8 3.2927 2.1765
2 10 -5 -5.0342 -4.5470
2 10 -2 4.1455 -0.5272
2 10 1 29.3271 4.3867
2 10 4 5.4820 -0.0786
2 10 7 -3.8765 -3.0006
2 10 10 10.6451 1.9956
2 11 -12 -2.1672 -3.3843
2 11 -9 -2.9164 2.4008
2 11 -6 0.4764 1.2127
2 11 -3 -4.8187 -2.8537
2 11 0 -34.3304 -0.8540
2 11 3 8.1875 3.5373
2 11 6 -11.9692 0.3560
2 11 9 4.7561 -2.3925
2 11 12 -2.0255 -0.3937
2 12 -10 3.4726 -0.0372
2 12 -7 10.1495 -1.4225
2 12 -4 -2.0252 0.6318
2 12 -1 10.8875 1.9504
2 12 2 -17.9868 -0.9408
2 12 5 17.6608 -2.5894
2 12 8 -2.6875 1.3613
2 12 11 -2.8815 1.1260
2 13 -11 6.6512 0.7164
2 13 -8 1.2769 1.3132
2 13 -5 -2.1180 -4.6757
2 13 -2 -12.9224 -2.0214
2 13 1 47.2141 4.9689
2 13 4 6.2982 1.2155
2 13 7 16.0665 -3.7116
2 13 10 9.5001 0.7969
2 14 -9 5.5464 -7.2252
2 14 -6 -2.5796 -2.3181
2 14 -3 10.3986 9.8626
2 14 0 -3.6875 0.3693
2 14 3 11.1632 -9.7258
2 14 6 9.0851 0.8968
2 14 9 5.8288 7.4720
2 15 -10 3.6575 1.6471
2 15 -7 0.0738 7.4710
2 15 -4 -9.0862 -4.6241
2 15 -1 11.0445 -8.0280
2 15 2 -1.9846 6.1454
2 15 5 -1.0481 6.7262
2 15 8 2.6124 -5.8016
2 15 11 -0.8179 -2.5108
2 16 -11 5.9264 0.4904
2 16 -8 6.5030 -5.8672
2 16 -5 3.2584 -2.3937
2 16 -2 3.9605 7.9210
2 16 1 2.5799 1.5168
2 16 4 4.3316 -8.3557
2 16 7 1.0787 -0.3744
2 16 10 -0.4662 5.0322
2 17 -9 -2.1325 2.2593
2 17 -6 1.8993 5.0995
2 17 0 15.5435 -4.2723
2 17 3 -10.5554 3.6048
2 17 6 2.4012 2.8297
2 17 9 -1.0334 -3.3218
2 18 -10 4.5348 -0.6873
2 18 -7 0.9594 -1.0436
2 18 -4 8.1063 1.9097
2 18 -1 8.5931 0.6521
2 18 2 10.6085 -2.4871
2 18 5 -8.9669 -0.9915
2 18 8 -0.8611 2.0176
2 18 11 -3.0788 1.9223
2 19 -11 1.0293 -3.4505
2 19 -8 -3.1166 1.4257
2 19 -5 5.6653 -0.2010
2 19 -2 2.1917 -1.7257
2 19 1 -12.3561 0.9835
2 19 4 4.6008 1.5146
2 19 7 -7.4800 -1.9126
2 19 10 2.6624 -0.4328
2 20 -9 -8.1903 -1.6233
2 20 -6 5.0112 2.9988
2 20 -3 -10.4762 1.2843
2 20 0 0.7308 -3.2217
2 20 3 -2.9323 -0.4269
2 20 6 1.5741 3.7966
2 20 9 2.0898 0.0155
2 21 -10 -2.6718 4.1284
2 21 -7 8.9318 -1.1640
2 21 -4 -4.0886 -7.5419
2 21 -1 -4.3019 2.3862
2 21 2 2.9308 7.7309
2 21 5 4.0274 -2.5548
2 21 8 -0.6326 -5.8353
2 22 -8 -9.0437 -4.2009
2 22 -5 -6.6422 4.6830
2 22 -2 -18.2371 4.0703
2 22 1 6.6531 -5.7147
2 22 4 4.8983 -3.0031
2 22 7 3.5428 5.5986
2 22 10 -1.2543 -0.7471
2 23 -9 -2.1640 6.6573
2 23 -6 -9.0383 -2.1716
2 23 -3 -3.4335 -6.6638
2 23 0 -8.2392 2.9883
2 23 3 0.0114 5.8550
2 23 6 3.2019 -3.5120
2 23 9 -2.3040 -4.3107
2 24 -10 -3.1033 -1.5781
2 24 -7 -1.2626 -3.2049
2 24 -4 -6.3870 5.0019
2 24 -1 -3.7045 2.9186
2 24 2 1.6749 -6.3278
2 24 5 -7.7289 -1.7339
2 24 8 -4.2466 5.1177
2 25 -8 8.3524 2.4871
2 25 -5 2.4269 -0.2292
2 25 -2 5.6546 -1.4936
2 25 1 5.8865 0.9339
2 25 4 -6.8427 1.2869
2 25 7 9.5395 -1.1497
2 26 -9 -15.7944 -2.9117
2 26 -6 5.3448 2.4150
2 26 -3 1.7431 0.6111
2 26 0 -1.7946 -1.3867
2 26 3 -8.0500 0.3548
2 26 6 -0.9423 1.4309
2 26 9 -2.0082 1.0105
2 27 -7 1.8122 -1.5147
2 27 -4 1.6709 -0.4591
2 27 -1 5.7482 3.0227
2 27 2 -5.7293 0.4655
2 27 5 -1.4430 -2.7617
2 27 8 -8.9832 1.3040
2 28 -8 0.6620 1.0747
2 28 -5 -0.9312 5.4167
2 28 -2 -4.1431 -2.8645
2 28 1 -0.3222 -5.3055
2 28 4 0.9233 3.4582
2 28 7 -1.3879 3.1657
2 29 -9 -5.7760 0.0875
2 29 -6 -3.8495 -5.8475
2 29 -3 -0.6087 -1.3308
2 29 0 -0.9563 6.1728
2 29 3 -9.1442 0.0584
2 29 6 0.8469 -6.4314
2 29 9 6.5226 0.7800
2 30 -7 -2.0413 3.5238
2 30 -4 7.0235 4.0422
2 30 -1 -6.4939 -4.7615
2 30 2 7.3873 -3.6611
2 30 5 2.8260 5.8825
2 30 8 1.2365 2.4319
2 31 -8 4.5055 1.7686
2 31 -5 -0.5701 -6.2802
2 31 -2 3.4069 -0.6395
2 31 1 -0.0865 5.8845
2 31 4 -0.0331 -0.0673
2 31 7 4.8605 -3.6920
2 32 -6 1.9475 1.7444
2 32 -3 -6.1840 1.8122
2 32 0 -0.9220 -2.0864
2 32 3 -5.9825 -0.5526
2 32 6 -3.1447 1.4220
2 33 -7 2.9817 -1.0958
2 33 -4 -2.3046 -0.0156
2 33 -1 -0.6484 2.0349
2 33 2 4.6706 0.2660
2 33 5 -4.3688 -0.9861
2 33 8 -6.8872 -4.9750
2 34 -5 1.6889 1.0931
2 34 -2 4.2892 -1.9888
2 34 1 1.5600 0.0063
2 34 4 4.3163 1.2422
2 34 7 2.8442 -0.4162
2 35 -6 10.2020 -3.0686
2 35 -3 1.7740 4.2028
2 35 0 3.4245 3.2091
2 35 3 -10.4387 -5.2989
2 35 6 -4.9465 -2.1631
2 36 -4 0.1861 -1.0240
2 36 -1 1.1825 -5.9154
2 36 2 -0.5819 1.9872
2 36 5 -5.9735 4.7710
2 37 -5 1.4199 -1.7940
2 37 -2 -9.0143 5.0845
2 37 1 -4.6114 1.8088
2 37 4 -3.1327 -4.7530
2 38 -6 7.4434 6.0970
2 38 -3 0.8686 -1.5874
2 38 0 -4.1572 -4.7759
2 38 3 -1.1474 1.5706
2 38 6 1.3036 6.0234
2 39 -4 -0.9369 -0.4520
2 39 -1 3.3488 2.8181
2 39 2 4.2079 0.7140
2 39 5 9.7369 -4.4570
2 40 -2 -0.9414 -1.9423
2 40 1 -5.7922 -0.4495
2 40 4 -4.3229 2.8897
2 41 -3 -2.3755 0.3450
2 41 0 -3.0512 -0.1006
2 41 3 -1.6066 -0.0458
2 42 -1 -4.4702 -1.2200
2 42 2 -0.7599 2.2735
2 43 -2 5.6575 3.1873
2 43 1 6.7159 -1.5969
3 1 -10 6.5972 5.5324
3 1 -7 5.2510 -9.1446
3 1 -4 7.0364 -5.2679
3 1 -1 -0.2512 12.7524
3 1 2 -27.7312 4.3921
3 1 5 -1.4735 -11.4744
3 1 8 15.8461 -3.2152
3 1 11 -9.3208 8.7101
3 2 -11 4.1856 -0.7857
3 2 -8 2.8623 -2.6803
3 2 -5 8.5003 0.4266
3 2 -2 -28.7880 2.5786
3 2 1 -23.4824 -1.0527
3 2 4 -28.6470 -2.9653
3 2 7 -2.7697 0.9655
3 2 10 -1.6759 1.7763
3 3 -12 -2.5628 -1.0949
3 3 -9 3.3103 -2.4112
3 3 -6 7.7385 4.9894
3 3 -3 40.2347 2.0062
3 3 0 -46.6531 -6.6100
3 3 3 -27.2646 -1.4546
3 3 6 -4.5669 6.9719
3 3 9 -7.7529 1.1186
3 3 12 4.3564 -2.3088
3 4 -10 -12.8215 0.8744
3 4 -7 0.2241 8.1146
3 4 -4 26.9389 -1.0096
3 4 -1 -15.8927 -8.3371
3 4 2 -27.1543 1.5125
3 4 5 -5.1378 6.0956
3 4 8 1.6731 -0.8671
3 4 11 8.0445 -5.0333
3 5 -11 -5.9881 2.9750
3 5 -8 -1.6198 2.5518
3 5 -5 -18.8017 -1.9475
3 5 -2 -1.5649 -2.1580
3 5 1 -63.2478 3.1084
3 5 4 28.6865 2.7940
3 5 7 4.3546 -2.9887
3 5 10 -5.0244 -2.6687
3 6 -12 4.8302 -0.4407
3 6 -9 4.0106 4.0907
3 6 -6 -2.8570 -3.7142
3 6 -3 -60.1444 -4.6337
3 6 0 141.4129 6.0452
3 6 3 -10.0100 4.0660
3 6 6 13.6097 -5.8677
3 6 9 -2.3696 -3.9431
3 6 12 -0.0971 0.2070
3 7 -10 -1.4479 -6.4851
3 7 -7 -1.4406 -4.9323
3 7 -4 -10.4706 8.1323
3 7 -1 -34.7847 4.6545
3 7 2 55.3951 -7.7137
3 7 5 9.5756 -2.3903
3 7 8 -2.2192 5.4645
3 7 11 1.2702 0.8578
3 8 -11 1.8837 -0.0909
3 8 -8 -3.1978 5.2590
3 8 -5 -7.8317 -1.6439
3 8 -2 -12.1346 -6.4089
3 8 1 8.5070 2.3530
3 8 4 5.1568 5.7392
3 8 7 1.9098 -1.5905
3 8 10 -0.2232 -3.0236
3 9 -12 -1.0849 0.9321
3 9 -9 -0.5152 -4.0126
3 9 -6 -7.5529 -4.6368
3 9 -3 14.0316 4.6363
3 9 0 7.4990 3.6187
3 9 3 9.9314 -4.9175
3 9 6 -1.4170 -1.9870
3 9 9 7.4441 5.4792
3 9 12 -1.3837 2.5023
3 10 -10 6.0212 0.8542
3 10 -7 -0.8422 1.1057
3 10 -4 -9.2934 -0.2968
3 10 -1 72.5560 -0.7484
3 10 2 -11.5978 -0.3416
3 10 5 -4.3283 0.2143
3 10 8 -1.8372 0.0737
3 10 11 -4.3272 -2.1074
3 11 -11 5.8157 -0.6005
3 11 -8 -1.7076 -2.2615
3 11 -5 -3.8961 0.9476
3 11 -2 31.7985 3.1740
3 11 1 41.7067 -2.0238
3 11 4 3.1853 -2.7199
3 11 7 5.1663 1.7634
3 11 10 7.3341 1.4432
3 12 -9 0.3451 2.3697
3 12 -6 4.1652 0.1299
3 12 -3 12.8734 -2.5395
3 12 0 -25.0988 -0.5888
3 12 3 4.7943 1.9901
3 12 6 -3.1334 0.2934
3 12 9 3.5532 -1.7090
3 13 -10 -1.1457 -2.9537
3 13 -7 6.2700 2.9714
3 13 -4 0.9462 2.1835
3 13 -1 -3.6755 -3.5337
3 13 2 -17.4220 -0.9614
3 13 5 9.4586 2.7719
3 13 8 3.4880 1.5876
3 13 11 -0.5200 2.0812
3 14 -11 8.3780 0.8501
3 14 -8 3.7735 0.9609
3 14 -5 5.5941 -3.9394
3 14 -2 -6.9437 -0.9524
3 14 1 13.8420 4.0641
3 14 4 8.2988 0.2674
3 14 7 16.0426 -3.2709
3 14 10 -1.0444 1.5515
3 15 -9 1.9415 -3.4796
3 15 -6 -3.4799 3.7932
3 15 -3 -3.3402 3.7365
3 15 0 12.4652 -4.2797
3 15 3 -4.2359 -2.7860
3 15 6 3.9303 3.2821
3 15 9 -0.6062 1.7112
3 16 -10 2.8349 4.9082
3 16 -7 -0.9432 0.1164
3 16 -4 -4.8887 -5.9983
3 16 -1 8.0631 -0.5125
3 16 2 -2.2793 6.0843
3 16 5 -9.1506 -0.0755
3 16 8 -0.3456 -6.6792
3 16 11 -5.2837 -3.0279
3 17 -11 3.2532 -1.6557
3 17 -8 0.6384 -3.1505
3 17 -5 8.2025 1.3405
3 17 -2 11.3737 3.0771
3 17 1 3.5653 -1.6993
3 17 4 -2.5210 -3.3199
3 17 7 -4.3906 1.1616
3 17 10 -0.7124 1.0926
3 18 -9 -1.9929 3.8336
3 18 -6 10.1860 -0.5735
3 18 -3 -9.7703 -3.5633
3 18 0 10.8818 1.8733
3 18 3 1.0313 3.1225
3 18 6 -0.0437 -1.7633
3 18 9 -1.2152 -1.4215
3 19 -10 4.5490 -2.9015
3 19 -7 1.5945 -1.0127
3 19 -4 4.9897 1.9971
3 19 -1 8.2087 0.8366
3 19 2 1.5261 -2.4038
3 19 5 2.1177 -0.8590
3 19 8 -0.0911 2.7455
3 20 -8 0.1906 -1.0494
3 20 -5 -7.4682 -1.1097
3 20 -2 -19.9280 1.8129
3 20 1 1.8135 2.0982
3 20 4 5.3798 -1.4860
3 20 7 -4.7911 -1.9700
3 20 10 -0.2650 -1.3959
3 21 -9 -7.1065 -1.5404
3 21 -6 -5.9492 2.7299
3 21 -3 -12.7953 1.3396
3 21 0 -16.2774 -3.6548
3 21 3 -3.3681 -0.7790
3 21 6 4.1873 3.9195
3 21 9 -7.3940 -1.6503
3 22 -10 -5.0850 2.5187
3 22 -7 6.7893 -2.8791
3 22 -4 -16.3463 -1.4878
3 22 -1 -6.6302 2.9043
3 22 2 2.0179 0.8141
3 22 5 -0.6491 -2.4892
3 22 8 -2.3502 -0.5331
3 23 -8 -3.6310 1.8235
3 23 -5 -5.7594 5.1797
3 23 -2 -6.1303 -2.0112
3 23 1 5.0932 -5.1846
3 23 4 5.0685 2.5552
3 23 7 11.0432 4.5791
3 23 10 -8.7570 1.6310
3 24 -9 -1.8099 1.5820
3 24 -6 -7.9544 -2.6222
3 24 -3 -8.3551 -3.3132
3 24 0 3.8040 3.4382
3 24 3 -7.9915 2.4169
3 24 6 -4.2018 -3.3735
3 24 9 -3.5996 0.2252
3 25 -10 -4.5930 -1.2576
3 25 -7 -3.2097 2.1728
3 25 -4 -6.7169 2.8741
3 25 -1 5.3592 -2.2646
3 25 2 -1.3407 -2.7443
3 25 5 -8.4016 2.2459
3 25 8 -7.6655 2.7117
3 26 -8 1.7277 -0.3189
3 26 -5 -0.0862 -2.3285
3 26 -2 -0.4268 -0.7763
3 26 1 2.9761 3.2513
3 26 4 -5.2230 0.6141
3 26 7 -0.7048 -3.3465
3 27 -9 -18.5220 -0.4410
3 27 -6 -3.8074 1.3639
3 27 -3 2.2464 -0.9958
3 27 0 -3.1291 -0.6506
3 27 3 -3.5636 1.1577
3 27 6 1.4669 0.2206
3 27 9 -1.1814 0.3735
3 28 -7 -3.3914 -2.8889
3 28 -4 7.2742 0.1248
3 28 -1 2.3504 4.1677
3 28 2 2.2356 -0.9426
3 28 5 3.2258 -3.4024
3 28 8 -5.5016 1.1453
3 29 -8 8.8969 2.3688
3 29 -5 -8.0814 0.4165
3 29 -2 1.7074 -2.5694
3 29 1 4.0063 -0.4929
3 29 4 1.4348 2.3385
3 29 7 5.1896 -0.2960
3 30 -6 4.6316 -4.1788
3 30 -3 -3.4527 3.8946
3 30 0 -2.9144 3.6762
3 30 3 -0.4017 -3.0832
3 30 6 0.4795 -2.1101
3 31 -7 1.7827 2.9313
3 31 -4 7.3447 1.8451
3 31 -1 -2.8565 -4.1822
3 31 2 3.6402 -0.9751
3 31 5 -0.0893 4.7405
3 31 8 -4.7969 -0.1737
3 32 -8 5.7982 -5.3877
3 32 -5 4.6967 -1.5972
3 32 -2 3.1001 3.1799
3 32 1 4.9310 0.5164
3 32 4 1.3998 -2.7471
3 32 7 8.7940 -1.6383
3 33 -6 0.6570 3.3885
3 33 -3 -6.8278 -0.8956
3 33 0 -0.4655 -3.8842
3 33 3 -11.3978 1.3372
3 33 6 -9.0469 2.5454
3 34 -7 2.3845 -1.5318
3 34 -4 -2.9300 -0.6116
3 34 -1 0.1498 0.0854
3 34 2 2.2056 0.4550
3 34 5 -6.5235 0.4179
3 35 -5 2.1165 0.1420
3 35 -2 -3.3063 -2.3018
3 35 1 -4.2367 1.6396
3 35 4 3.1009 0.4775
3 35 7 -1.1496 3.4358
3 36 -6 11.7258 0.6062
3 36 -3 -3.4848 1.9089
3 36 0 -2.7485 0.4186
3 36 3 -5.9591 -1.8943
3 36 6 3.0163 -0.8611
3 37 -4 -3.1034 -2.2620
3 37 -1 -1.5915 -0.1629
3 37 2 -7.2568 3.6620
3 37 5 5.2420 1.3681
3 38 -5 3.2851 -0.1615
3 38 -2 -11.4567 4.0533
3 38 1 -5.0207 -1.2850
3 38 4 -5.1164 -3.7196
3 39 -3 -2.2655 -2.5799
3 39 0 -9.0988 -0.3393
3 39 3 -2.0835 2.5832
3 40 -4 -5.6316 2.4606
3 40 -1 0.9863 2.1624
3 40 2 3.1950 -1.8660
3 41 -2 1.4308 -2.2267
3 41 1 7.3435 -0.6074
3 42 0 -0.8415 -0.1241
4 1 -12 -3.9164 -14.5398
4 1 -9 7.2597 0.3709
4 1 -6 -15.1634 21.4526
4 1 -3 15.0775 -4.2550
4 1 0 -101.6242 -22.5918
4 1 3 9.7333 6.4702
4 1 6 9.9660 18.2194
4 1 9 -1.3948 -7.6179
4 1 12 0.1805 -12.3631
4 2 -10 -4.1297 -2.8080
4 2 -7 0.6930 5.1074
4 2 -4 13.9502 1.9318
4 2 -1 55.9483 -7.1738
4 2 2 -14.9051 -1.1048
4 2 5 -8.2504 7.1442
4 2 8 13.6432 0.1683
4 2 11 -3.6035 -3.8426
4 3 -11 0.5238 4.3643
4 3 -8 1.6305 0.0662
4 3 -5 -2.4680 -5.7080
4 3 -2 -22.0142 0.8649
4 3 1 -12.0871 6.7619
4 3 4 11.7934 -1.9574
4 3 7 -1.5313 -5.0338
4 3 10 -2.2203 1.6486
4 4 -12 4.1947 1.5776
4 4 -9 1.3030 -1.2784
4 4 -6 0.0566 -2.3285
4 4 -3 -18.8143 1.0421
4 4 0 123.9312 1.5497
4 4 3 -20.8012 -0.8770
4 4 6 6.8526 -0.8215
4 4 9 -5.3073 0.9401
4 4 12 4.6023 0.6167
4 5 -10 -7.5963 0.5260
4 5 -7 -2.1259 1.4198
4 5 -4 23.3997 1.0088
4 5 -1 -49.4230 -1.2141
4 5 2 43.0592 -0.8126
4 5 5 8.5013 0.7586
4 5 8 1.4744 0.5616
4 5 11 10.5865 -2.0283
4 6 -11 -3.0244 -2.7596
4 6 -8 -8.7265 4.6988
4 6 -5 -7.1589 0.5047
4 6 -2 6.2129 -5.8266
4 6 1 -1.2980 -0.1097
4 6 4 21.8990 6.2691
4 6 7 8.0397 -0.6672
4 6 10 -3.9974 -4.3393
4 7 -12 6.7969 2.9941
4 7 -9 5.3834 1.5337
4 7 -6 -3.4639 -5.3172
4 7 -3 0.0548 -1.3118
4 7 3 10.1639 -0.0270
4 7 6 17.6019 -5.6905
4 7 9 7.7814 0.3465
4 7 12 -1.1545 1.6149
4 8 -10 6.0081 -1.6454
4 8 -7 -4.4491 -0.4502
4 8 -4 -15.5253 1.3395
4 8 -1 68.2126 0.6698
4 8 2 7.7097 -1.2373
4 8 5 -5.3897 0.0288
4 8 8 4.8599 0.2938
4 8 11 -3.2822 -0.6246
4 9 -11 4.5844 1.9639
4 9 -8 -0.5446 -2.9861
4 9 -5 6.2857 -1.2639
4 9 -2 28.4190 3.9053
4 9 1 17.4692 1.1786
4 9 4 -4.9160 -4.3820
4 9 7 -8.1976 -0.4186
4 9 10 -4.3049 3.2051
4 10 -12 -3.3460 -4.3896
4 10 -9 -6.8253 -1.0412
4 10 -6 4.1109 2.2783
4 10 -3 20.2466 0.2073
4 10 0 -4.2209 -2.9117
4 10 3 -0.6071 -0.2652
4 10 6 -13.6354 2.1071
4 10 9 4.5313 0.5970
4 10 12 -0.9751 -2.6955
4 11 -10 -1.6663 -0.9458
4 11 -7 6.0611 -1.5884
4 11 -4 18.8596 2.3475
4 11 -1 27.1728 1.5808
4 11 2 -12.9699 -2.7764
4 11 5 9.7792 -1.3123
4 11 8 1.9218 2.4621
4 11 11 0.7745 2.2891
4 12 -11 3.3335 -3.4367
4 12 -8 -6.2459 1.9073
4 12 -5 7.2999 2.1548
4 12 -2 15.5852 -3.0568
4 12 1 2.6999 -2.3909
4 12 4 4.2991 3.7643
4 12 7 14.8275 1.4869
4 12 10 -5.1848 -3.3853
4 13 -9 2.0186 -1.2991
4 13 -6 1.6450 0.4576
4 13 -3 4.7419 1.6560
4 13 0 -10.0606 -1.2555
4 13 3 -13.9392 -1.5186
4 13 6 2.9731 1.2135
4 13 9 0.0374 0.9846
4 14 -10 -3.0793 3.1520
4 14 -7 1.5780 2.6386
4 14 -4 -8.2719 -4.6291
4 14 -1 -16.3008 -2.6472
4 14 2 -18.4035 5.6050
4 14 5 -11.3034 1.8453
4 14 8 -0.3504 -4.5783
4 14 11 -4.4408 -0.4389
4 15 -11 5.9828 1.0487
4 15 -8 4.6068 -2.7900
4 15 -5 6.7371 -0.3665
4 15 -2 4.4436 3.2678
4 15 1 14.9760 -0.3126
4 15 4 -0.4183 -3.2374
4 15 7 3.5759 -0.1226
4 15 10 -1.8780 2.2607
4 16 -9 1.2159 4.4539
4 16 -6 3.3124 2.2539
4 16 0 10.6457 -0.8787
4 16 3 11.2045 5.2732
4 16 6 -5.0613 -0.3313
4 16 9 -5.1990 -3.5036
4 17 -10 7.0701 -0.0308
4 17 -7 -5.4593 -3.8745
4 17 -4 -7.3045 0.3211
4 17 -1 18.3450 3.5004
4 17 2 -9.2199 -1.2803
4 17 5 -1.2113 -3.0988
4 17 8 2.8944 0.7295
4 17 11 -2.1320 1.6531
4 18 -11 -1.3095 4.1366
4 18 -8 3.2604 0.0692
4 18 -5 -0.8354 -0.9102
4 18 1 9.9434 1.5219
4 18 4 -3.3882 0.2193
4 18 7 -0.8910 -1.2200
4 18 10 -1.2634 -0.4664
4 19 -9 -3.6034 -3.0800
4 19 -6 7.7913 -0.3023
4 19 -3 -8.2073 4.1282
4 19 0 -7.8191 -0.1596
4 19 3 3.0010 -3.7407
4 19 6 3.9826 0.7053
4 19 9 -4.9735 2.2052
4 20 -10 -0.2203 -1.0239
4 20 -7 6.0322 -0.5378
4 20 -4 -4.6852 -1.0336
4 20 -1 0.2761 0.5940
4 20 2 -4.0460 0.8541
4 20 5 7.9358 -0.6862
4 20 8 -2.3949 -0.6411
4 21 -8 -3.0766 -0.7570
4 21 -5 -6.6648 4.5174
4 21 -2 -18.4109 1.3053
4 21 1 2.6326 -4.4215
4 21 4 7.3131 -0.4498
4 21 7 1.5642 4.0492
4 21 10 -3.1649 -1.5809
4 22 -9 2.7860 2.1545
4 22 -6 -15.4699 -0.7490
4 22 -3 -14.2504 -4.0185
4 22 0 -7.5555 0.4111
4 22 3 -11.3679 2.8576
4 22 6 -1.0295 -0.4739
4 22 9 -8.3428 -2.4646
4 23 -10 -6.1187 0.3732
4 23 -7 -1.3462 0.2435
4 23 -4 -16.8257 3.9652
4 23 -1 -3.5418 -0.9262
4 23 2 5.1106 -3.9570
4 23 5 -7.3509 1.1455
4 23 8 -2.4812 3.8198
4 24 -8 2.5886 3.5975
4 24 -5 -8.5397 -2.7896
4 24 -2 3.0691 -4.4222
4 24 1 -0.1987 3.6907
4 24 4 0.1909 3.7886
4 24 7 4.8393 -3.2671
4 25 -9 -9.5195 -1.2268
4 25 -6 -4.2608 0.6469
4 25 -3 -6.0194 0.8434
4 25 0 7.5034 -0.2921
4 25 3 -2.4366 -0.8007
4 25 6 -4.7220 -0.0156
4 25 9 -6.5420 1.6044
4 26 -7 -1.7662 0.0035
4 26 -4 -0.8213 -1.9652
4 26 -1 12.1550 0.9795
4 26 2 1.9389 1.8192
4 26 5 -0.6299 -1.3253
4 26 8 -4.4967 -1.9155
4 27 -8 -1.9308 -1.0378
4 27 -5 -4.3664 0.5234
4 27 -2 0.2959 -0.8940
4 27 1 4.8028 -0.0024
4 27 4 -4.1884 0.6568
4 27 7 2.0024 -0.5836
4 28 -9 -6.2379 -2.4894
4 28 -6 -1.4535 -4.0252
4 28 -3 4.4789 1.1929
4 28 0 -8.1181 4.3556
4 28 3 4.1651 -1.5623
4 28 6 1.7208 -2.8005
4 28 9 6.0371 3.4359
4 29 -7 -2.6040 -0.0080
4 29 -4 11.7089 3.3772
4 29 -1 -3.4142 -1.3331
4 29 2 1.9592 -3.1844
4 29 5 3.4137 1.3230
4 29 8 -3.4524 2.2943
4 30 -8 15.7112 -1.7468
4 30 -5 -4.2900 -2.5429
4 30 -2 3.0802 1.9794
4 30 1 7.6750 1.8289
4 30 4 2.3409 -1.0645
4 30 7 8.8001 -2.9044
4 31 -6 5.0886 3.8314
4 31 -3 -3.5131 1.8897
4 31 0 0.1640 -4.9044
4 31 3 -0.8540 -0.8097
4 31 6 -3.3927 5.4237
4 32 -7 1.8967 0.0277
4 32 -4 1.7662 -2.1088
4 32 -1 -0.2423 0.4004
4 32 2 3.2210 1.7388
4 32 5 -4.6109 -0.2650
4 32 8 -4.4415 -3.0934
4 33 -5 -0.1150 1.8079
4 33 -2 -1.2473 -0.9140
4 33 1 -1.1188 -1.2654
4 33 4 2.8600 0.0612
4 33 7 6.1757 1.0347
4 34 -6 0.8806 0.0541
4 34 -3 -12.9848 -0.3791
4 34 0 -4.6101 -0.2831
4 34 3 -8.0861 0.4906
4 34 6 -3.5710 -0.2176
4 35 -4 -1.4674 -1.9710
4 35 -1 -2.6875 -2.3791
4 35 2 -8.7887 2.1591
4 35 5 1.2136 2.6123
4 36 -5 8.7784 -2.7369
4 36 -2 -9.7187 3.1564
4 36 1 -3.4952 1.3497
4 36 4 -2.2765 -3.6243
4 37 -3 -6.7897 -2.1263
4 37 0 -8.2418 -1.1186
4 37 3 -0.9511 2.5106
4 38 -4 -11.2002 1.3128
4 38 -1 -2.2260 5.5367
4 38 2 -5.0478 0.3195
4 38 5 7.2532 -3.4925
4 39 -2 -4.9010 -1.2722
4 39 1 2.1532 -2.4759
4 39 4 5.2878 -0.6514
4 40 -3 4.5678 1.8840
4 40 0 -1.9018 1.0762
4 40 3 -1.2509 -0.6521
4 41 -1 -0.9201 -2.7182
4 41 2 0.6391 -2.3278
4 42 1 12.5748 -0.1842
5 1 -11 -1.7281 -2.4854
5 1 -8 -1.2841 -5.4828
5 1 -5 -9.5042 3.8119
5 1 -2 -78.9422 7.1078
5 1 1 46.4383 -5.7191
5 1 4 8.4349 -6.9752
5 1 7 -2.2162 7.1763
5 1 10 5.3585 5.1387
5 2 -12 -4.2922 0.2088
5 2 -9 2.2504 -5.3629
5 2 -6 -9.3509 -0.3602
5 2 -3 29.6480 4.5194
5 2 0 27.5979 -1.4834
5 2 3 -3.3225 -4.3978
5 2 6 -1.6390 2.9787
5 2 9 -7.5102 4.3323
5 2 12 0.8713 -2.1135
5 3 -10 -5.7476 0.4554
5 3 -7 -9.5895 8.6607
5 3 -4 21.2039 -1.4503
5 3 -1 66.0212 -10.9158
5 3 2 31.7488 2.3002
5 3 5 -8.5818 9.3751
5 3 8 3.7561 -2.0252
5 3 11 6.1341 -5.3398
5 4 -11 -3.5327 -1.4757
5 4 -8 -5.2248 -1.0634
5 4 -5 3.3332 0.4945
5 4 -2 27.2337 1.3421
5 4 1 17.4890 -1.1299
5 4 4 34.2388 -0.9600
5 4 7 3.2483 0.0371
5 4 10 -3.9981 0.5872
5 5 -12 10.4370 -0.3074
5 5 -9 2.8398 6.0274
5 5 -6 1.6888 0.9011
5 5 -3 -14.7794 -6.9421
5 5 0 142.0817 0.9010
5 5 3 -8.1273 6.0256
5 5 6 18.0908 -3.3249
5 5 9 5.1184 -5.2127
5 5 12 4.2160 0.8170
5 6 -10 1.1398 -0.1410
5 6 -7 0.6248 -2.7723
5 6 -4 12.2329 0.5493
5 6 -1 -12.7173 3.4443
5 6 2 10.6065 -0.6306
5 6 5 7.2549 -2.8199
5 6 8 8.6775 0.1691
5 6 11 3.8836 2.3982
5 7 -11 6.6337 0.2877
5 7 -8 -6.0901 0.8748
5 7 -5 20.1836 -1.1099
5 7 -2 4.6723 -1.3186
5 7 1 21.9752 2.0553
5 7 4 -12.1146 0.7398
5 7 7 -1.5418 -1.1703
5 7 10 -5.3524 1.1287
5 8 -12 0.1108 -0.3007
5 8 -9 -4.6135 -4.9597
5 8 -6 5.2729 0.7033
5 8 -3 44.5137 5.3910
5 8 0 26.1898 -1.7957
5 8 3 7.4761 -4.8185
5 8 6 -0.1535 2.4655
5 8 9 6.0323 3.6821
5 8 12 -1.1233 -0.4672
5 9 -10 -0.0335 3.4200
5 9 -7 2.8120 0.5240
5 9 -4 9.7590 -3.5659
5 9 -1 63.7457 -0.4205
5 9 2 -8.9349 3.2103
5 9 5 -5.8000 0.4319
5 9 8 2.1336 -2.9474
5 9 11 -1.3387 -1.2684
5 10 -11 -0.9351 -2.2935
5 10 -8 -2.1160 -2.5865
5 10 -5 6.5665 2.0421
5 10 -2 28.1195 2.8113
5 10 1 -21.2054 -2.4737
5 10 4 4.5337 -2.3978
5 10 7 -5.5955 1.5294
5 10 10 -12.5179 -0.9041
5 11 -9 -6.6912 2.4053
5 11 -6 8.4391 0.0641
5 11 -3 -7.5374 -2.8989
5 11 0 2.0733 0.6209
5 11 3 -25.1022 2.0906
5 11 6 -9.1101 -1.0383
5 11 9 -0.5987 -1.1627
5 12 -10 -4.9194 -2.1311
5 12 -7 5.9030 0.5532
5 12 -4 11.4053 2.9105
5 12 -1 -31.0872 -0.5883
5 12 2 -3.4808 -2.6261
5 12 5 -4.7050 0.8403
5 12 8 4.1225 2.8999
5 12 11 2.9115 2.4977
5 13 -11 0.8488 1.4263
5 13 -8 -0.1046 0.8854
5 13 -5 9.1611 -0.4321
5 13 -2 1.2992 -1.3125
5 13 1 -3.9189 0.5765
5 13 4 -0.2877 1.8501
5 13 7 8.7715 -0.9324
5 13 10 -7.2930 -1.1521
5 14 -9 1.9547 -1.2187
5 14 -6 0.7504 3.7791
5 14 -3 -5.1240 0.4331
5 14 0 -1.4654 -3.8166
5 14 3 -1.6765 1.0317
5 14 6 -5.6199 2.9071
5 14 9 -4.5641 -1.7455
5 15 -10 2.2266 4.9087
5 15 -7 -4.2818 -2.8248
5 15 -4 -24.5995 -5.5386
5 15 -1 13.4587 3.5584
5 15 2 -23.8767 4.9467
5 15 5 -6.8101 -3.4167
5 15 8 -0.4913 -4.1837
5 15 11 -1.9338 -0.1898
5 16 -11 -0.4995 0.1169
5 16 -8 1.4069 -1.7008
5 16 -5 0.7901 2.6188
5 16 -2 0.0903 1.0606
5 16 1 27.7032 -3.3490
5 16 4 -8.1188 -0.3459
5 16 7 3.4712 3.0114
5 16 10 -2.2995 1.8495
5 17 -9 4.7841 2.6379
5 17 -6 2.7518 -3.1268
5 17 -3 -2.8147 -1.4834
5 17 0 -5.8049 3.0418
5 17 3 19.5292 0.4526
5 17 6 -0.3573 -2.7530
5 17 9 1.2178 0.6184
5 18 -10 4.1222 -3.1866
5 18 -7 -5.2143 0.0662
5 18 -4 -0.7404 2.6319
5 18 -1 9.7062 -0.6770
5 18 2 -12.6544 -3.0480
5 18 5 4.3387 0.7778
5 18 8 4.1414 2.3976
5 19 -8 4.5297 0.7891
5 19 -5 -3.5378 -0.9087
5 19 -2 -7.7316 0.4018
5 19 1 6.7414 1.1020
5 19 4 3.0885 -0.5145
5 19 7 2.7614 -0.5354
5 19 10 3.1317 -2.9412
5 20 -9 -2.2620 -1.8117
5 20 -6 -2.2531 2.7691
5 20 -3 -7.1259 -0.0981
5 20 0 -11.8959 -2.8704
5 20 3 -4.9596 0.8597
5 20 6 8.8106 2.1102
5 20 9 -12.4963 -1.3861
5 21 -10 -2.9659 0.1458
5 21 -7 5.4909 -2.3943
5 21 -4 -11.1407 0.0870
5 21 -1 -3.7481 2.9397
5 21 2 -1.5194 0.0574
5 21 5 3.8079 -2.7658
5 21 8 -3.2758 0.6491
5 22 -8 -0.2407 2.1569
5 22 -5 -5.7278 2.9485
5 22 -2 -3.1406 -2.8069
5 22 1 -4.5111 -2.8442
5 22 4 4.7083 2.8240
5 22 7 3.6191 2.5286
5 22 10 -1.5960 1.4460
5 23 -9 7.6977 1.0305
5 23 -6 -8.1120 -3.7132
5 23 -3 -11.9203 -0.3525
5 23 0 6.1274 3.2391
5 23 3 -10.3965 -1.1336
5 23 6 -10.6905 -2.7253
5 23 9 -1.9991 0.4593
5 24 -7 -1.3546 3.4189
5 24 -4 -6.3685 0.4703
5 24 -1 6.0868 -3.6398
5 24 2 8.0352 0.0661
5 24 5 -1.8245 3.1091
5 24 8 2.0914 -0.4923
5 25 -8 -0.4379 -1.2492
5 25 -5 -5.6865 -3.5685
5 25 -2 1.7188 -0.2271
5 25 1 0.7764 3.8022
5 25 4 -9.2058 -0.3419
5 25 7 -1.4019 -3.3111
5 26 -9 -5.2757 -0.9450
5 26 -6 -5.9632 0.9444
5 26 -3 3.8445 0.5809
5 26 0 -1.6335 -0.4446
5 26 3 5.7248 -0.3521
5 26 6 -0.4069 0.0050
5 26 9 -6.2365 2.2797
5 27 -7 -1.2757 -2.8029
5 27 -4 4.3622 2.2871
5 27 -1 4.1355 2.1610
5 27 2 1.2947 -2.3013
5 27 5 4.0867 -1.9708
5 27 8 0.4686 0.4805
5 28 -8 5.5509 2.0952
5 28 -5 -7.6692 0.0917
5 28 -2 5.7623 -2.8512
5 28 1 6.1741 0.5918
5 28 4 0.5285 2.5133
5 28 7 7.5226 -0.4849
5 29 -6 7.3915 -1.5412
5 29 -3 4.1414 2.9591
5 29 0 -3.7321 1.1650
5 29 3 3.6595 -3.3610
5 29 6 2.3831 0.5593
5 30 -7 -1.7894 2.3370
5 30 -4 7.6974 -1.6921
5 30 -1 -4.6735 -3.2527
5 30 2 1.4595 1.9833
5 30 5 -4.1380 2.1382
5 30 8 -3.5980 -0.8931
5 31 -5 -5.6846 -0.1025
5 31 -2 -3.8489 3.8077
5 31 1 2.7541 -0.2244
5 31 4 1.3751 -2.7736
5 31 7 6.6693 -1.7618
5 32 -6 -2.3323 2.6373
5 32 -3 -7.8684 -1.8487
5 32 0 -2.4455 -3.0895
5 32 3 -0.9080 1.4429
5 32 6 -6.3927 3.8009
5 33 -7 4.0527 -0.7905
5 33 -4 -0.3628 -1.3194
5 33 -1 1.3104 0.8519
5 33 2 -2.8357 0.0766
5 33 5 0.4001 -1.2932
5 34 -5 4.3917 -1.9864
5 34 -2 -3.3003 -1.1633
5 34 1 -4.4656 1.5167
5 34 4 0.1981 1.0255
5 35 -6 -3.5089 0.0699
5 35 -3 -14.5089 1.0263
5 35 0 -3.4822 -1.7299
5 35 3 0.5749 -0.3881
5 35 6 5.3703 0.7414
5 36 -4 -3.8528 -1.5167
5 36 -1 -6.6386 1.6605
5 36 2 -12.2753 2.7654
5 36 5 6.5216 -0.8322
5 37 -5 7.9583 1.4362
5 37 -2 -5.7969 2.6476
5 37 1 2.2588 -2.3384
5 37 4 2.5243 -3.2511
5 38 -3 -1.1608 -2.0529
5 38 0 -5.8527 1.2009
5 38 3 -0.1289 2.6021
5 39 -4 -10.0033 0.7100
5 39 -1 2.3168 0.4693
5 39 2 -2.0368 -2.1771
5 40 -2 2.3912 -3.0909
5 40 1 9.0721 -0.2800
5 41 0 1.6501 0.2765
6 1 -10 -2.4021 -4.4428
6 1 -7 -7.1774 -2.5340
6 1 -4 3.1763 4.2391
6 1 2 44.3573 -4.0964
6 1 5 -8.4366 0.7082
6 1 8 2.3149 3.6401
6 1 11 -4.1652 0.2739
6 2 -11 -7.1410 -3.3853
6 2 -8 0.5591 -8.0206
6 2 -5 0.8002 4.5233
6 2 -2 -9.6623 9.2635
6 2 1 52.0499 -6.6391
6 2 4 20.0691 -8.5646
6 2 7 -2.9543 7.0733
6 2 10 3.4122 5.7469
6 3 -12 3.6560 -0.1252
6 3 -9 -3.4290 -1.6608
6 3 -6 -0.0759 0.8703
6 3 -3 13.1831 1.5446
6 3 3 1.6194 -1.0159
6 3 6 -1.3568 -0.0854
6 3 9 -2.3047 1.5761
6 3 12 2.8659 0.7928
6 4 -10 2.7409 4.7648
6 4 -7 -6.8611 0.4048
6 4 -4 25.4512 -5.7360
6 4 -1 0.7780 0.0484
6 4 2 1.5848 5.1891
6 4 5 6.6947 -1.2789
6 4 8 7.1998 -4.0803
6 4 11 4.6682 1.6688
6 5 -11 3.9924 -3.2294
6 5 -8 -5.7590 -0.9898
6 5 -5 21.7825 2.7427
6 5 -2 26.7954 0.6039
6 5 1 30.2458 -3.0163
6 5 4 -2.9916 -0.3283
6 5 7 7.5952 1.8453
6 5 10 -0.0530 1.5859
6 6 -12 3.5609 0.4142
6 6 -9 -1.2644 1.2027
6 6 -6 10.8833 4.2574
6 6 -3 40.5957 -1.2789
6 6 0 21.4032 -4.4115
6 6 3 -1.1131 1.3778
6 6 6 12.1585 3.6688
6 6 9 8.5639 -1.5050
6 6 12 5.3351 -0.8729
6 7 -10 -1.9442 2.9772
6 7 -7 6.0534 3.2141
6 7 -4 5.5290 -4.2950
6 7 -1 23.2225 -2.7539
6 7 2 -16.9857 4.6652
6 7 5 -11.1264 1.8955
6 7 8 4.4675 -3.3100
6 7 11 0.3560 0.4687
6 8 -11 5.1877 2.6512
6 8 -8 3.1531 -2.1566
6 8 -5 18.2570 -1.9477
6 8 -2 -11.7720 3.2285
6 8 1 -4.8710 2.3434
6 8 4 2.2494 -3.4747
6 8 7 -12.0125 -1.9894
6 8 10 -10.6171 2.0178
6 9 -9 -10.6820 -1.1018
6 9 -6 7.9146 1.1985
6 9 -3 -2.7624 0.8186
6 9 0 18.2305 -0.5951
6 9 3 -20.3779 -0.4782
6 9 6 -11.1084 0.2680
6 9 9 -1.3616 -0.3498
6 10 -7 8.7345 -1.9859
6 10 -4 17.2473 0.8975
6 10 -1 -18.6149 1.2666
6 10 2 13.1668 -0.9440
6 10 5 -2.0747 -0.2235
6 10 8 6.1350 0.5956
6 10 11 4.7726 -0.7558
6 11 -11 -5.6631 -1.2397
6 11 -8 -1.4302 0.2692
6 11 -5 5.1517 1.4322
6 11 -2 9.7940 -1.1930
6 11 1 -34.5639 -1.2292
6 11 4 -0.3343 1.5221
6 11 7 -0.3140 1.3115
6 11 10 -11.1290 -1.7639
6 12 -9 -2.5009 -0.4218
6 12 -6 3.2286 0.5449
6 12 -3 -8.4450 0.5085
6 12 0 13.0056 -0.4687
6 12 3 -17.5609 0.1839
6 12 6 -5.2977 0.3928
6 12 9 -2.5000 -0.1643
6 13 -10 0.5465 2.4552
6 13 -7 -2.3244 -0.1016
6 13 -4 -17.2881 -1.8756
6 13 -1 -6.4005 1.2774
6 13 2 -7.7935 1.2877
6 13 5 -11.7091 -1.3892
6 13 8 0.8525 -0.6595
6 13 11 1.5219 1.1748
6 14 -11 -1.9605 0.4018
6 14 -8 4.0992 -1.0981
6 14 -5 -1.4600 0.9975
6 14 -2 -5.5923 1.1641
6 14 1 20.9045 -1.1298
6 14 4 -8.3448 -0.5801
6 14 7 5.2549 0.3787
6 14 10 -4.6454 0.4728
6 15 -9 4.6253 0.9594
6 15 -6 -2.4572 -0.1866
6 15 -3 -0.1608 -1.2469
6 15 0 -13.1000 -0.2271
6 15 3 14.1683 1.0089
6 15 6 -5.5041 0.5122
6 15 9 1.8413 -1.1855
6 16 -10 3.0639 -1.6861
6 16 -7 -9.5431 -0.5514
6 16 -4 -15.7943 1.5203
6 16 -1 22.2462 0.2479
6 16 2 -21.3832 -1.9642
6 16 5 0.6857 -0.0800
6 16 8 6.1900 2.0044
6 16 11 7.6779 1.4220
6 17 -11 -2.8752 1.6722
6 17 -8 0.8051 1.9706
6 17 -5 -2.5262 0.0451
6 17 -2 4.9633 -1.7927
6 17 1 17.1675 -0.4701
6 17 4 3.5941 2.2212
6 17 7 7.9216 1.0253
6 17 10 1.1409 0.5667
6 18 -9 3.1169 -0.7115
6 18 -6 -3.4629 -0.7081
6 18 -3 0.3822 0.6230
6 18 0 -10.6489 0.3915
6 18 3 9.0419 -0.4812
6 18 6 11.1215 -0.7865
6 18 9 -1.3305 0.1639
6 19 -10 -0.5568 0.9055
6 19 -7 2.5904 -0.9174
6 19 -4 4.2427 -0.8466
6 19 -1 -1.9043 1.1900
6 19 2 -9.3128 1.0492
6 19 5 5.3682 -0.9607
6 19 8 -0.0393 -1.0488
6 20 -8 0.3887 0.2004
6 20 -5 6.4993 2.0631
6 20 -2 -1.0581 0.2022
6 20 1 -1.1372 -2.3933
6 20 4 2.7082 -0.6189
6 20 7 2.7675 2.3551
6 20 10 4.5924 -1.9899
6 21 -9 7.0789 1.6459
6 21 -6 -3.6288 -0.6359
6 21 -3 -0.6616 -2.2174
6 21 0 -3.7776 0.6663
6 21 3 -10.0181 1.7395
6 21 6 1.6491 -0.9007
6 21 9 -5.9768 -0.6119
6 22 -10 -3.4404 -2.4768
6 22 -7 2.0084 0.4740
6 22 -4 -3.6191 1.0705
6 22 -1 -0.5753 0.4898
6 22 2 2.7233 -0.4426
6 22 5 1.9451 -0.6141
6 22 8 -0.6200 0.6767
6 23 -8 8.9207 -0.2215
6 23 -5 -10.5788 -2.2738
6 23 -2 2.6425 -0.5119
6 23 1 -4.5471 2.3023
6 23 4 -6.0573 0.3287
6 23 7 -2.9988 -1.9675
6 24 -9 5.8065 -0.6543
6 24 -6 0.1053 -0.4207
6 24 -3 -5.6848 2.8559
6 24 0 3.7905 0.2504
6 24 3 -1.9294 -2.4793
6 24 6 -10.6036 -0.1423
6 24 9 -3.9901 0.0713
6 25 -7 1.3118 0.2093
6 25 -4 -0.2462 -0.2392
6 25 -1 5.7153 -1.1765
6 25 2 2.6544 0.2030
6 25 5 5.2621 1.0036
6 25 8 7.3752 -0.5485
6 26 -8 -4.5673 0.7941
6 26 -5 -0.7467 0.6818
6 26 -2 2.8880 -1.1669
6 26 1 2.1569 -0.9892
6 26 4 -7.9193 0.3202
6 26 7 3.3955 0.5994
6 27 -6 -5.0073 -0.7768
6 27 -3 7.8396 -0.2648
6 27 0 -5.0776 1.2695
6 27 3 3.4310 -0.4134
6 27 6 3.1350 -1.3038
6 28 -7 -3.3868 0.8777
6 28 -4 3.8599 1.7199
6 28 -1 -4.3523 -2.1905
6 28 2 0.3863 -0.7711
6 28 5 -2.0333 2.0770
6 28 8 3.0965 -0.4398
6 29 -8 5.3598 -1.0135
6 29 -5 -10.4416 -1.0311
6 29 -2 0.6842 0.1262
6 29 1 1.1419 2.0233
6 29 4 1.9484 0.2152
6 29 7 2.2505 -0.2393
6 30 -6 5.4901 0.9594
6 30 -3 2.2096 0.2293
6 30 0 1.7764 -1.4218
6 30 3 0.1180 -1.1116
6 30 6 0.6420 1.2679
6 31 -7 2.4282 0.1501
6 31 -4 1.3373 -3.0959
6 31 -1 -1.4939 0.9671
6 31 2 0.7847 1.9433
6 31 5 -3.0233 -1.5419
6 32 -5 -4.7661 -0.4841
6 32 -2 -2.2788 0.3462
6 32 1 -3.5082 0.0637
6 32 4 0.2392 -0.4384
6 32 7 2.9929 -1.1233
6 33 -6 -5.8299 -0.0854
6 33 -3 -12.2113 0.5752
6 33 0 -1.1602 -0.1052
6 33 3 2.9464 -0.5826
6 33 6 -1.6288 2.0486
6 34 -4 1.5915 0.2625
6 34 -1 -1.3757 -0.4335
6 34 2 -10.8259 0.1162
6 34 5 5.1534 -0.5647
6 35 -5 9.9687 -0.5168
6 35 -2 -2.8415 1.8957
6 35 1 1.2774 -0.5494
6 35 4 -1.0962 0.2072
6 36 -3 -4.9244 -1.2684
6 36 0 -0.1595 -1.4032
6 36 3 7.0137 0.6247
6 37 -4 -5.3716 -0.7970
6 37 -1 -0.6369 0.9685
6 37 2 -5.3448 0.4249
6 38 -2 2.2385 -1.2110
6 38 1 4.3750 -0.6295
6 38 4 10.7740 -0.9836
6 39 -3 2.9222 0.3063
6 39 0 -3.2834 0.7536
6 39 3 -3.9744 0.7077
6 40 -1 0.4760 1.4224
6 40 2 -2.2005 -1.3739
7 1 -12 -1.8017 2.4436
7 1 -9 -11.1092 -3.8652
7 1 -6 -4.7205 -4.2024
7 1 -3 24.1459 5.2038
7 1 0 11.7590 4.5644
7 1 3 20.8508 -5.3326
7 1 6 -11.7104 -2.5572
7 1 9 -7.1628 5.4673
7 1 12 -9.6788 0.8198
7 2 -10 1.5086 7.1491
7 2 -7 -12.2426 -0.8273
7 2 -4 2.5024 -8.8188
7 2 -1 69.0959 2.1194
7 2 2 1.2704 9.1307
7 2 5 5.7739 -3.3231
7 2 8 -3.7876 -6.4033
7 2 11 3.7217 3.9673
7 3 -11 -3.3818 -1.1630
7 3 -8 4.7005 -8.5714
7 3 -5 10.8993 1.7349
7 3 -2 31.2018 9.4911
7 3 1 25.5680 -3.1290
7 3 4 1.4415 -8.9857
7 3 7 1.3572 2.2697
7 3 10 2.5217 6.3534
7 4 -12 5.0368 -5.5039
7 4 -9 -1.1853 0.4996
7 4 -6 9.8407 9.4473
7 4 -3 16.7741 -0.7636
7 4 0 6.9600 -9.9384
7 4 3 -4.5835 1.7343
7 4 6 1.9689 7.1339
7 4 9 8.3741 -1.4606
7 4 12 8.1330 -2.6987
7 5 -10 -0.5052 1.1741
7 5 -7 4.3528 1.2396
7 5 -4 18.7319 -3.5202
7 5 -1 -43.8468 -0.7588
7 5 2 -21.5835 3.2504
7 5 5 4.5568 -0.1006
7 5 8 7.8564 -2.0753
7 5 11 0.5761 3.5946
7 6 -11 8.5726 1.9886
7 6 -8 2.2402 0.5475
7 6 -5 19.9790 -0.9328
7 6 -2 -30.9537 -0.2217
7 6 1 21.6788 1.1719
7 6 4 -10.7675 0.0728
7 6 7 3.4160 -0.3507
7 6 10 1.3500 0.8739
7 7 -12 -3.4277 -0.9778
7 7 -9 -7.2243 -2.5183
7 7 -6 6.2462 1.5248
7 7 -3 23.9146 2.6732
7 7 0 -35.8595 -2.0205
7 7 3 -10.3134 -2.0105
7 7 6 0.0161 2.4114
7 7 9 0.8693 0.2482
7 7 12 1.9803 -2.0186
7 8 -10 -3.1841 2.9193
7 8 -7 7.7385 1.3663
7 8 -4 1.2128 -3.8182
7 8 -1 -2.5325 -1.5539
7 8 2 -0.3763 4.3803
7 8 5 -16.5192 1.1602
7 8 8 1.7189 -3.4892
7 8 11 1.8113 -2.6307
7 9 -11 -1.6915 -1.0018
7 9 -8 7.6211 -1.2388
7 9 -5 4.8580 1.2825
7 9 -2 -9.7164 1.5933
7 9 1 -16.3929 -1.4750
7 9 4 13.4114 -1.2744
7 9 7 -9.0917 0.8666
7 9 10 -7.1056 0.7234
7 10 -9 -8.0595 3.1379
7 10 -6 2.6715 -0.5099
7 10 -3 -26.3427 -3.2887
7 10 0 43.7317 1.3790
7 10 3 -19.9874 3.4223
7 10 6 -7.6861 -1.2467
7 10 9 -1.7433 -2.2039
7 11 -7 0.0259 -2.1622
7 11 -4 -3.5921 2.4385
7 11 -1 -31.5194 2.0506
7 11 2 20.1380 -2.9971
7 11 5 -3.5804 -1.5881
7 11 8 9.8860 2.5849
7 11 11 4.3481 0.3965
7 12 -11 -5.5492 2.1438
7 12 -8 2.3290 -0.1456
7 12 -5 -2.3888 -0.6528
7 12 -2 -1.7172 -0.0491
7 12 1 -8.5114 1.3308
7 12 4 -11.5483 -0.3735
7 12 7 2.0264 -0.9254
7 12 10 -5.6960 -0.2053
7 13 -9 -0.1298 -2.5831
7 13 -6 0.0087 1.2204
7 13 -3 11.1295 2.4352
7 13 0 3.7619 -1.6047
7 13 3 -1.5356 -1.8377
7 13 6 -3.7063 1.4458
7 13 9 -2.0159 0.2621
7 14 -10 1.6629 0.8585
7 14 -7 -8.7502 0.6160
7 14 -4 -18.2337 -0.1076
7 14 -1 30.5611 -0.2574
7 14 2 -9.0151 -0.0359
7 14 5 -0.6918 0.3641
7 14 8 1.8657 -0.2035
7 14 11 7.3484 0.3175
7 15 -11 -5.0201 -3.4711
7 15 -8 0.7409 1.2321
7 15 -5 -5.2906 1.8267
7 15 -2 -0.3021 -1.4776
7 15 1 16.4539 -2.0435
7 15 4 0.8879 2.2356
7 15 7 6.4805 1.9549
7 15 10 -2.3713 0.7240
7 16 -9 6.5692 1.0986
7 16 -6 -13.2912 -4.1402
7 16 -3 -1.5533 -0.6201
7 16 0 -17.0867 3.3985
7 16 3 9.0805 -0.5353
7 16 6 5.8298 -2.0889
7 16 9 9.7099 0.5487
7 17 -10 -1.6308 -1.5180
7 17 -7 -5.0319 0.8604
7 17 -4 4.3565 2.3139
7 17 -1 -1.5668 -1.2281
7 17 2 -11.8610 -2.3815
7 17 5 -2.1196 1.2990
7 17 8 4.5065 2.1017
7 18 -8 -0.5666 1.8324
7 18 -5 7.4276 -1.5381
7 18 -2 13.6622 -1.1031
7 18 1 1.2940 1.3490
7 18 4 10.6660 0.4231
7 18 7 5.5174 -1.3116
7 18 10 5.3429 -1.4625
7 19 -9 0.2913 0.4647
7 19 -6 -2.7310 2.2985
7 19 -3 9.9621 -1.0949
7 19 0 -5.5564 -1.8374
7 19 3 -0.1804 1.8310
7 19 6 11.6039 0.9037
7 19 9 -7.3370 -1.1764
7 20 -10 -0.5853 1.2992
7 20 -7 4.0777 -1.6322
7 20 -4 7.2242 -1.0338
7 20 -1 2.9203 2.8716
7 20 2 -3.4131 1.5846
7 20 5 4.1566 -2.4783
7 20 8 -2.0553 -0.9557
7 21 -8 7.3580 -1.5285
7 21 -5 2.0508 1.0758
7 21 -2 -0.3308 0.9327
7 21 1 -1.8578 -1.0672
7 21 4 -3.1509 -0.7239
7 21 7 -2.5719 1.2981
7 21 10 0.5101 1.3657
7 22 -9 12.8326 0.1588
7 22 -6 4.6597 -2.3972
7 22 -3 -2.0156 1.8355
7 22 0 -3.7769 2.0531
7 22 3 -10.5599 -1.9365
7 22 6 -7.9655 -1.3570
7 22 9 1.3492 0.7515
7 23 -7 0.5967 2.2373
7 23 -4 5.6900 -0.7349
7 23 -1 -2.1048 -2.7750
7 23 2 -3.2244 0.8904
7 23 5 4.8535 2.1839
7 23 8 3.3719 -1.0369
7 24 -8 6.2848 -0.7002
7 24 -5 -4.5847 -1.2071
7 24 -2 1.1738 1.6455
7 24 1 -2.2683 0.1899
7 24 4 -11.5015 -1.9777
7 24 7 -4.5831 -0.9916
7 25 -9 5.6703 -0.2166
7 25 -6 -5.8700 1.9668
7 25 -3 0.6181 -0.2560
7 25 0 0.1645 -1.4660
7 25 3 2.7804 0.9785
7 25 6 -1.7984 0.9640
7 25 9 -5.1799 0.0471
7 26 -7 -0.2527 -1.0086
7 26 -4 -2.8552 1.3418
7 26 -1 -0.6606 0.8737
7 26 2 -2.6079 -1.2560
7 26 5 2.4990 -0.1805
7 26 8 9.1511 1.6960
7 27 -8 -5.3283 2.3683
7 27 -5 -4.3844 0.5403
7 27 -2 4.2371 -2.0705
7 27 1 -2.5495 0.0298
7 27 4 1.2351 1.6734
7 27 7 3.4390 1.6412
7 28 -6 0.4795 -0.5942
7 28 -3 5.5570 0.2366
7 28 0 -0.4547 0.2984
7 28 3 -5.0203 -0.8853
7 28 6 3.5109 -1.2435
7 29 -7 -2.4736 1.7865
7 29 -4 1.3100 -2.1707
7 29 -1 -4.9195 -2.2021
7 29 2 4.1207 2.2959
7 29 5 -5.4830 1.8088
7 29 8 2.5131 -2.8573
7 30 -5 -8.1516 0.0741
7 30 -2 -1.6388 1.8310
7 30 1 -3.3850 0.1162
7 30 4 0.1963 -2.3296
7 30 7 -1.3787 0.4342
7 31 -6 0.8175 -0.5046
7 31 -3 -2.4246 -0.9973
7 31 0 2.5391 1.2780
7 31 3 0.3475 0.7857
7 31 6 -1.7591 -1.3215
7 32 -4 -0.7941 1.5414
7 32 -1 1.9677 1.6689
7 32 2 -8.1647 -1.5128
7 32 5 2.7752 -1.1465
7 33 -5 2.8861 -0.6995
7 33 -2 1.3952 -1.2054
7 33 1 -2.3011 0.4131
7 33 4 -0.0433 2.1338
7 34 -3 -3.3984 1.3848
7 34 0 8.9685 -0.6752
7 34 3 7.7378 -1.7675
7 34 6 6.8724 0.9871
7 35 -4 1.6107 -0.6452
7 35 -1 -3.7836 -0.5280
7 35 2 -4.3362 1.0267
7 35 5 1.8186 -1.1542
7 36 -2 -0.0642 0.9243
7 36 1 2.6539 -1.1973
7 36 4 2.3998 0.3017
7 37 -3 -0.6799 -1.0620
7 37 0 -4.4980 0.4268
7 37 3 2.0566 -0.0758
7 38 -1 6.5259 -1.2246
7 38 2 -4.3516 -1.1731
7 39 -2 5.1015 -0.5571
7 39 1 5.9319 0.5239
8 1 -11 -8.5479 1.4527
8 1 -8 0.0826 -11.1907
8 1 -5 -2.6486 -1.9399
8 1 -2 6.7402 13.2494
8 1 1 1.7686 0.7468
8 1 4 -10.3348 -12.6375
8 1 7 -3.2017 1.0559
8 1 10 0.6388 8.6854
8 2 -12 3.6331 -5.1378
8 2 -9 -6.4653 -7.6225
8 2 -6 4.8022 6.6802
8 2 -3 3.8009 9.8766
8 2 0 -30.3701 -8.0310
8 2 3 30.7606 -7.6953
8 2 6 -9.8552 8.1835
8 2 9 0.9266 5.3750
8 2 12 -1.8017 -7.0942
8 3 -10 1.2746 6.3443
8 3 -7 -2.6159 -0.1882
8 3 -4 2.4188 -9.2023
8 3 -1 -44.8318 1.5864
8 3 2 -24.9352 9.3000
8 3 5 23.7216 -2.8326
8 3 8 5.6863 -7.0462
8 3 11 0.9865 3.3363
8 4 -11 1.1963 2.0948
8 4 -8 9.1349 -1.3022
8 4 -5 3.1343 -2.9564
8 4 -2 -2.9621 1.6964
8 4 1 -1.7939 3.0414
8 4 4 -12.6465 -2.4989
8 4 7 7.1335 -2.4362
8 4 10 7.4963 2.7512
8 5 -12 -0.4511 -0.2000
8 5 -9 -0.3424 -1.3024
8 5 -6 2.6830 2.8450
8 5 -3 18.8970 0.8068
8 5 0 -77.1472 -3.3870
8 5 3 -13.3533 -0.7388
8 5 6 -0.3306 3.4031
8 5 9 8.6325 0.9998
8 5 12 5.8006 0.4555
8 6 -10 -1.0663 -1.1687
8 6 -7 2.3599 3.0123
8 6 -4 -0.2317 0.1296
8 6 -1 -27.2541 -3.1288
8 6 2 -9.7178 0.0983
8 6 5 -16.8152 2.2488
8 6 8 -2.1965 0.1068
8 6 11 0.4835 -0.2606
8 7 -11 3.8503 1.0967
8 7 -8 10.9198 -0.3795
8 7 -5 6.1853 0.6901
8 7 -2 -47.8655 0.9487
8 7 1 28.9926 -1.4422
8 7 4 11.2590 -0.1975
8 7 7 0.6707 0.8005
8 7 10 1.0403 -0.8200
8 8 -9 -8.5002 2.6892
8 8 -6 -1.1552 0.5764
8 8 -3 -20.2221 -2.8030
8 8 0 8.0393 -0.3083
8 8 3 -9.3427 3.1780
8 8 6 -4.5237 0.1065
8 8 9 -2.2318 -3.4008
8 9 -10 -0.4511 -1.3601
8 9 -7 -0.2049 -3.9062
8 9 -4 -5.6393 -0.3274
8 9 -1 -26.4078 3.8469
8 9 2 15.5387 0.3159
8 9 5 1.3737 -3.3877
8 9 8 10.4847 -0.4245
8 9 11 0.3730 0.1447
8 10 -11 -2.0471 -1.1158
8 10 -8 0.1974 -0.3285
8 10 -5 -0.3713 2.9736
8 10 -2 3.4659 -0.1547
8 10 1 -1.3221 -2.6980
8 10 4 -5.6389 -0.1267
8 10 7 -2.9101 2.8243
8 10 10 -0.1188 1.5932
8 11 -9 -3.0291 0.4682
8 11 -6 -0.1732 -0.1618
8 11 -3 11.5171 -0.7007
8 11 0 35.9231 -0.0831
8 11 3 -2.4933 0.6744
8 11 6 -0.2499 0.1222
8 11 9 -1.5455 -0.3837
8 12 -10 2.4892 0.7189
8 12 -7 -7.8372 0.1895
8 12 -4 -8.2280 0.9405
8 12 -1 12.9833 -0.3832
8 12 2 11.9110 -0.9937
8 12 5 -2.0804 0.3645
8 12 8 5.1105 0.3844
8 12 11 4.1720 -1.3940
8 13 -11 -6.9490 -0.5134
8 13 -8 3.6426 0.9423
8 13 -5 -5.1895 -1.2037
8 13 -2 -6.5067 -0.3958
8 13 1 3.0948 1.6052
8 13 4 -3.3752 0.0861
8 13 7 2.9158 -1.6226
8 13 10 -2.1644 -1.1966
8 14 -9 -0.7279 -0.6465
8 14 -6 -7.0236 -2.2014
8 14 -3 5.1418 0.6485
8 14 0 -7.0085 2.2925
8 14 3 -1.4919 -1.3837
8 14 6 3.2469 -1.4570
8 14 9 1.8092 1.2257
8 15 -10 -3.3509 -3.7381
8 15 -7 -8.0858 1.1901
8 15 -4 -0.1849 3.7281
8 15 -1 9.4387 -1.4977
8 15 2 -2.3552 -3.5279
8 15 5 0.4051 1.5930
8 15 8 3.2796 2.6154
8 15 11 9.0565 1.4920
8 16 -8 -2.0323 1.8441
8 16 -5 1.0317 -0.1667
8 16 -2 16.5942 -2.4125
8 16 1 -9.9001 0.4987
8 16 4 13.4221 2.3647
8 16 7 1.5456 -0.4104
8 16 10 0.5220 -0.3255
8 17 -9 0.4576 0.2639
8 17 -6 -13.2318 -1.3805
8 17 -3 0.0611 0.2077
8 17 0 -7.0265 1.5276
8 17 3 -0.8223 -0.2293
8 17 6 5.4526 -0.9043
8 17 9 4.6364 -0.2106
8 18 -10 -0.8946 2.8835
8 18 -7 -0.2783 -0.2868
8 18 -4 12.9008 -0.4752
8 18 -1 -1.7774 0.5678
8 18 2 0.7011 0.6606
8 18 5 -1.8676 0.0850
8 18 8 -1.2930 -0.1741
8 19 -8 1.1083 -1.0436
8 19 -5 12.6345 -0.5245
8 19 -2 2.4943 0.8140
8 19 1 0.3563 0.4280
8 19 4 4.3822 -1.2799
8 19 7 -1.2414 -0.7741
8 19 10 0.8268 1.5110
8 20 -9 5.4707 0.4665
8 20 -6 1.0116 0.4890
8 20 -3 13.8985 0.4231
8 20 0 -6.4723 -0.6454
8 20 3 -4.6561 -0.5787
8 20 6 5.2299 0.5979
8 20 9 -3.1617 1.0408
8 21 -10 -3.0323 -1.9014
8 21 -7 0.5087 1.1727
8 21 -4 12.9366 -0.0779
8 21 -1 0.6635 -1.2143
8 21 2 -8.4176 0.2911
8 21 5 0.4472 0.7435
8 21 8 -0.5970 -0.9974
8 22 -8 14.4376 -0.6855
8 22 -5 -6.3061 -1.1308
8 22 -2 1.9883 1.4494
8 22 1 1.0175 1.1622
8 22 4 -6.0566 -0.7277
8 22 7 -7.1427 -0.8555
8 23 -9 7.1957 -0.8841
8 23 -6 4.5670 0.8463
8 23 -3 -8.2564 1.5212
8 23 0 -3.1225 -0.6006
8 23 3 -4.9326 -0.1399
8 23 6 -5.0369 0.7602
8 23 9 -1.9509 -0.7416
8 24 -7 -2.1761 -0.3438
8 24 -4 1.7921 -1.5876
8 24 -1 -4.6820 0.0884
8 24 2 -9.5524 1.1068
8 24 5 4.9046 -0.0777
8 24 8 5.2401 0.7283
8 25 -8 -1.2609 0.6109
8 25 -5 1.3446 0.6973
8 25 -2 0.8714 1.0239
8 25 1 -6.5719 -1.7006
8 25 4 -0.8247 -1.4415
8 25 7 0.9830 0.8781
8 26 -6 -8.2661 0.5201
8 26 -3 2.5694 -1.7640
8 26 0 -0.4725 -0.7632
8 26 3 -3.5533 1.5718
8 26 6 2.2946 0.6643
8 27 -7 -1.1194 1.3600
8 27 -4 -2.0179 -0.1625
8 27 -1 -0.7737 -0.1956
8 27 2 3.2386 0.2626
8 27 5 -2.3258 0.3903
8 27 8 8.0753 -0.0508
8 28 -8 -7.7193 -0.4291
8 28 -5 -5.9860 0.4681
8 28 -2 4.0511 0.8412
8 28 1 -4.9954 0.2552
8 28 4 4.8621 -0.3002
8 28 7 -2.1180 1.3017
8 29 -6 1.1542 -0.0237
8 29 -3 1.6721 0.3624
8 29 0 3.3741 -0.0408
8 29 3 -3.9463 0.3963
8 29 6 0.8507 -1.8996
8 30 -7 5.1594 -1.4754
8 30 -4 -2.6601 0.0714
8 30 -1 -3.7409 0.9537
8 30 2 -2.1053 0.0954
8 30 5 -1.2149 -0.5348
8 31 -5 -0.6445 0.4559
8 31 -2 3.4691 -1.2921
8 31 1 -3.5852 -1.0903
8 31 4 0.3987 -0.4055
8 31 7 -2.8111 1.3722
8 32 -6 4.1074 0.0190
8 32 -3 -1.1219 -0.5304
8 32 0 8.8123 1.8705
8 32 3 -1.7629 1.0148
8 32 6 3.5499 -1.6879
8 33 -4 -0.7531 2.0127
8 33 -1 0.9596 -0.2041
8 33 2 -7.3404 -1.0992
8 33 5 0.0989 1.3667
8 34 -5 -1.6309 1.4080
8 34 -2 -1.2641 0.0057
8 34 1 1.1410 0.2478
8 34 4 -1.1795 1.3008
8 35 -3 3.1673 -0.0884
8 35 0 7.1560 0.6739
8 35 3 8.2811 -1.1239
8 36 -4 3.3101 -1.0239
8 36 -1 1.8183 -1.4104
8 36 2 1.6877 -0.9095
8 37 -2 1.8781 -0.5630
8 37 1 0.2467 0.0790
8 38 0 -9.1603 -0.3647
9 1 -10 -2.1232 11.8923
9 1 -7 -2.8964 1.3828
9 1 -4 -15.4793 -14.3973
9 1 -1 -22.2634 1.2935
9 1 2 -40.8018 15.9747
9 1 5 23.5312 -3.3346
9 1 8 -4.6762 -12.4253
9 1 11 8.4464 2.5551
9 2 -11 -3.4543 9.6789
9 2 -8 7.1486 -2.5680
9 2 -5 -12.7484 -13.5747
9 2 -2 5.7275 4.3079
9 2 1 -45.4194 15.1491
9 2 4 -4.2583 -6.3224
9 2 7 0.3360 -12.9245
9 2 10 1.1375 4.6244
9 3 -12 3.3775 -3.4578
9 3 -9 4.8771 -4.5590
9 3 -6 -4.6602 3.8414
9 3 -3 -16.4057 5.2575
9 3 0 -56.3316 -4.3511
9 3 3 -3.8692 -4.4136
9 3 6 -3.0786 4.7296
9 3 9 10.7955 3.2684
9 3 12 3.3311 -2.5373
9 4 -10 -0.7772 -4.0624
9 4 -7 0.7709 0.7447
9 4 -4 -1.5304 2.7596
9 4 -1 -77.1446 -1.4900
9 4 2 1.8076 -2.5895
9 4 5 7.5194 1.9687
9 4 8 -0.4675 1.8672
9 4 11 -0.3864 0.1821
9 5 -11 0.4650 0.9272
9 5 -8 9.1310 0.2217
9 5 -5 -6.8327 -0.8848
9 5 1 12.4712 -0.0257
9 5 4 -7.0749 0.4943
9 5 7 8.0942 0.7149
9 5 10 5.0552 -0.6966
9 6 -9 -4.3023 0.9047
9 6 -6 -6.7501 -1.6466
9 6 -3 4.2023 -1.1480
9 6 0 -58.8784 1.4675
9 6 3 6.0333 0.7336
9 6 6 -3.6989 -1.5622
9 6 9 -0.8548 -0.5897
9 7 -10 0.4589 0.4731
9 7 -7 -8.8573 -2.5232
9 7 -4 -9.0818 -0.4533
9 7 -1 0.5483 3.1445
9 7 2 -6.2761 0.0768
9 7 5 -7.9612 -3.3646
9 7 8 -0.0768 -0.5975
9 7 11 -2.5558 0.1717
9 8 -11 1.6777 -3.3508
9 8 -8 2.2803 -0.6704
9 8 -5 3.8431 5.3787
9 8 -2 -14.0622 0.3431
9 8 1 45.5391 -5.7790
9 8 4 3.5918 0.2590
9 8 7 3.1184 4.2248
9 8 10 5.2830 -0.3717
9 9 -9 -4.5036 3.5881
9 9 -6 1.0847 1.7532
9 9 -3 -2.1912 -4.3090
9 9 0 30.6461 -2.2154
9 9 3 1.4675 4.4573
9 9 6 -1.6392 2.2620
9 9 9 4.0420 -2.7960
9 10 -10 0.4851 -0.7041
9 10 -7 -6.7077 -2.3762
9 10 -4 -2.3199 0.2830
9 10 -1 -8.0480 2.2222
9 10 2 13.5971 -0.3153
9 10 5 8.7781 -2.1584
9 10 8 10.6564 0.5119
9 10 11 -0.9542 1.3742
9 11 -11 -4.3712 0.6222
9 11 -8 -4.0859 0.6627
9 11 -5 1.0479 0.0356
9 11 -2 2.8725 0.0509
9 11 1 6.5975 0.2505
9 11 4 -3.0838 -0.3198
9 11 7 -2.2772 -0.1698
9 11 10 0.6934 0.1161
9 12 -9 -3.5984 -0.1574
9 12 -6 -0.1285 -1.1258
9 12 -3 21.8783 -0.2594
9 12 0 11.8973 1.6488
9 12 3 0.7295 -0.7502
9 12 6 5.7415 -2.0769
9 12 9 -7.8627 0.4492
9 13 -10 -5.4548 -0.7485
9 13 -7 -6.0427 1.0017
9 13 -4 1.8055 2.0166
9 13 -1 16.5441 -1.3399
9 13 2 8.8240 -1.1901
9 13 5 1.4779 1.6839
9 13 8 3.6708 0.2221
9 13 11 4.5857 -0.9559
9 14 -11 -6.2903 -0.2645
9 14 -8 0.8945 0.8066
9 14 -5 0.9680 -0.1529
9 14 -2 0.3892 -1.4886
9 14 1 -18.0453 0.3188
9 14 4 4.5539 1.3240
9 14 7 -1.8001 0.0915
9 14 10 0.9419 -1.4040
9 15 -9 -3.0657 -0.1169
9 15 -6 -10.8666 -3.0578
9 15 -3 -10.8995 0.5025
9 15 0 -0.8903 3.4879
9 15 3 -6.8435 -0.5099
9 15 6 0.7264 -2.3909
9 15 9 4.8017 1.5659
9 16 -10 -2.2770 -1.6717
9 16 -7 -4.5047 -0.2156
9 16 -4 9.4786 1.9645
9 16 -1 -10.0989 0.3518
9 16 2 6.2501 -2.1983
9 16 5 -5.9205 -0.0352
9 16 8 -4.2937 1.6421
9 17 -8 -0.5619 0.1204
9 17 -5 5.9326 -1.3994
9 17 -2 13.7882 -1.0319
9 17 1 -14.2565 1.8874
9 17 4 11.8694 0.2272
9 17 7 -5.5501 -2.5343
9 17 10 -1.1554 -0.2104
9 18 -9 -5.0071 -0.6479
9 18 -6 -6.1537 1.3135
9 18 -3 9.7321 1.2153
9 18 0 -1.9423 -0.9219
9 18 3 -1.5370 -1.5391
9 18 6 0.0984 1.0703
9 18 9 -2.8025 0.9123
9 19 -10 -0.4624 2.0650
9 19 -7 -2.2008 1.5095
9 19 -4 12.3692 0.1401
9 19 -1 7.2925 -2.1447
9 19 2 1.2482 -0.0069
9 19 5 -0.8887 2.1826
9 19 8 1.9217 0.3688
9 20 -8 7.9633 -0.7953
9 20 -5 4.4852 -0.9925
9 20 -2 -3.7172 0.9874
9 20 1 7.0250 1.2320
9 20 4 1.0884 -0.3114
9 20 7 -5.2144 -1.0601
9 20 10 -3.3179 0.6019
9 21 -9 8.0598 -0.7648
9 21 -6 2.1525 -0.2301
9 21 -3 0.2638 1.1470
9 21 0 -7.6938 -0.1889
9 21 3 -3.9996 -0.7895
9 21 6 3.7216 0.3431
9 21 9 0.6026 0.4087
9 22 -7 -4.0181 0.3812
9 22 -4 11.8576 -1.4240
9 22 -1 -7.1487 -1.5630
9 22 2 -13.1002 1.1219
9 22 5 -1.4837 1.0760
9 22 8 0.0583 -1.9883
9 23 -8 8.8519 0.3814
9 23 -5 -2.5542 -0.6651
9 23 -2 3.5589 0.9628
9 23 1 -5.5530 0.2342
9 23 4 -0.0370 -0.9717
9 23 7 -3.2986 -0.1127
9 24 -9 -0.5284 0.5974
9 24 -6 -2.4400 1.1099
9 24 -3 -6.5646 -0.5944
9 24 0 2.3933 -1.3398
9 24 3 -3.6946 1.2652
9 24 6 3.1426 1.3997
9 24 9 -2.8205 -0.5179
9 25 -7 -0.4795 -0.0608
9 25 -4 -2.1003 -1.1239
9 25 -1 -0.3687 2.4823
9 25 2 -3.4629 0.8848
9 25 5 1.0901 -2.2800
9 25 8 4.0366 1.0945
9 26 -8 -2.4287 -1.0182
9 26 -5 -0.6548 0.4182
9 26 -2 5.1202 1.9496
9 26 1 -6.7328 -0.4079
9 26 4 12.1830 -0.9223
9 26 7 2.4748 0.4697
9 27 -6 -3.6406 0.9581
9 27 -3 0.2417 -0.4258
9 27 0 -1.6999 -1.3584
9 27 3 -3.4886 0.7249
9 27 6 -1.1743 1.5271
9 28 -7 0.2366 -0.5519
9 28 -4 -0.8445 -0.5865
9 28 -1 -3.1556 0.3232
9 28 2 5.0814 0.2112
9 28 5 -1.3775 -1.1140
9 28 8 5.2948 0.3051
9 29 -5 0.0737 1.8787
9 29 -2 5.5835 0.1313
9 29 1 -4.2077 -2.4549
9 29 4 3.1253 -0.5449
9 29 7 -3.5106 0.7913
9 30 -6 4.6437 -0.2349
9 30 -3 -0.6610 -0.8541
9 30 0 4.6594 0.7743
9 30 3 -3.4696 2.2508
9 30 6 2.0825 -1.9647
9 31 -4 -4.7452 2.0356
9 31 -1 0.5011 0.5407
9 31 2 -10.4121 -0.9498
9 31 5 -1.4745 0.9299
9 32 -5 -3.6201 0.1596
9 32 -2 0.4925 -1.5167
9 32 1 1.9444 0.3311
9 32 4 -2.5221 0.8934
9 33 -3 3.3379 -0.5833
9 33 0 11.4126 1.3847
9 33 3 -2.9240 0.6836
9 33 6 5.6271 -2.4966
9 34 -4 0.3316 0.1903
9 34 -1 -3.9725 -0.0752
9 34 2 4.0286 -0.8818
9 34 5 -2.1910 0.5319
9 35 -2 0.1767 -0.8655
9 35 1 -3.3492 0.8361
9 35 4 3.4059 -0.3109
9 36 -3 -1.9178 1.4124
9 36 0 -0.3451 0.7514
9 36 3 -2.7046 -1.7656
9 37 -1 5.1996 -1.6912
9 37 2 -5.4869 -1.5294
10 1 -12 2.3174 -4.2221
10 1 -9 1.7811 -7.2478
10 1 -6 -7.4040 3.8197
10 1 -3 -34.8780 9.1933
10 1 0 -62.6724 -5.0630
10 1 3 9.2826 -8.0866
10 1 6 1.3717 6.3672
10 1 9 1.6409 4.2289
10 1 12 -0.8000 -8.2610
10 2 -10 -1.6989 1.6410
10 2 -7 -0.5365 3.9151
10 2 -4 -14.5850 -2.5013
10 2 -1 -83.8389 -4.3533
10 2 2 -6.9482 4.0625
10 2 5 22.9557 4.4039
10 2 8 2.2787 -3.8682
10 2 11 2.1733 -3.4470
10 3 -11 -5.4470 4.6072
10 3 -8 4.7718 3.1072
10 3 -5 -15.2099 -8.0254
10 3 -2 1.3000 -2.3753
10 3 1 -57.2195 8.8110
10 3 4 7.0332 0.6106
10 3 7 1.3739 -7.1436
10 3 10 1.9586 1.0085
10 4 -9 1.9140 0.5416
10 4 -6 -12.2607 -4.6618
10 4 -3 -5.2164 -1.2350
10 4 0 -44.1954 5.0898
10 4 3 2.3369 0.5368
10 4 6 -3.7872 -4.4670
10 4 9 4.0513 0.7799
10 4 12 -3.0470 6.7829
10 5 -10 2.1312 -2.4737
10 5 -7 -10.2464 -2.2148
10 5 -4 -6.5512 3.7557
10 5 -1 -14.8138 2.0311
10 5 2 1.6671 -4.5964
10 5 5 -7.6814 -1.7669
10 5 8 -10.7735 3.2194
10 5 11 0.2130 -0.7939
10 6 -11 -0.4998 -2.6573
10 6 -8 1.6195 -2.7710
10 6 -5 -2.2764 3.1040
10 6 1 47.0724 -3.9340
10 6 4 -9.8154 -1.4738
10 6 7 9.3571 2.8765
10 6 10 0.4672 -0.6248
10 7 -9 -4.1338 2.1845
10 7 -6 1.3727 2.9618
10 7 -3 2.7420 -2.1305
10 7 0 -11.0299 -3.3914
10 7 3 18.3933 2.4636
10 7 6 -5.8592 2.8012
10 7 9 3.0419 -1.3122
10 8 -10 -5.3817 0.8713
10 8 -7 -11.0289 -2.9940
10 8 -4 2.4039 -1.6225
10 8 -1 6.9290 3.5326
10 8 2 -1.6645 1.3072
10 8 5 16.8297 -3.1405
10 8 8 7.5618 -1.2173
10 8 11 -4.0357 3.7727
10 9 -11 -0.4917 -1.6675
10 9 -8 -12.4966 0.2338
10 9 -5 9.4695 4.3849
10 9 -2 7.6782 -0.3885
10 9 1 34.7388 -4.4747
10 9 4 -2.3390 0.6983
10 9 7 -1.1785 4.0258
10 9 10 5.4247 -0.7874
10 10 -9 -0.4714 1.4505
10 10 -6 4.0870 -0.4519
10 10 -3 21.7126 -2.6048
10 10 0 7.7713 0.4730
10 10 3 5.7038 1.5910
10 10 6 4.7292 -0.8115
10 10 9 0.6690 -1.2975
10 11 -10 -4.2727 1.6513
10 11 -7 -2.0893 0.2772
10 11 -4 2.2914 0.1085
10 11 -1 5.2322 -0.1542
10 11 2 6.3440 0.5134
10 11 5 -0.2858 0.2300
10 11 8 6.3625 0.0056
10 11 11 -1.5181 -0.3973
10 12 -11 -7.2039 0.3481
10 12 -8 -1.0494 0.9887
10 12 -5 4.9425 -1.7840
10 12 -2 -8.0067 -0.2286
10 12 1 -3.8909 1.6272
10 12 4 7.8848 0.2781
10 12 7 -1.2376 -1.3665
10 12 10 1.7548 -0.3500
10 13 -9 -7.2510 0.3809
10 13 -6 1.2764 -1.0747
10 13 -3 -2.5889 -0.4669
10 13 0 6.0237 1.6277
10 13 3 -1.9713 0.5506
10 13 6 2.7981 -1.7528
10 13 9 -9.4709 0.8619
10 14 -10 -7.3537 -2.2856
10 14 -7 -2.5968 -1.0357
10 14 -4 4.5657 1.3717
10 14 -1 -5.5960 1.4539
10 14 2 8.2104 -1.5355
10 14 5 -2.1725 -1.4035
10 14 8 -0.5368 0.9937
10 14 11 2.0117 1.1774
10 15 -8 0.6320 -0.5015
10 15 -5 2.5074 0.7542
10 15 -2 12.0408 -1.2464
10 15 1 -28.2637 -0.4798
10 15 4 1.5098 0.6707
10 15 7 -9.8950 0.0843
10 15 10 -0.9584 -2.3678
10 16 -9 -6.8412 -1.4744
10 16 -6 -5.3492 -0.9203
10 16 -3 -10.5770 1.4369
10 16 0 5.9817 1.8315
10 16 3 -7.5102 -1.2921
10 16 6 -10.1675 -1.5688
10 16 9 0.6669 1.6893
10 17 -10 2.7595 0.1302
10 17 -7 -5.3516 1.5073
10 17 -4 7.3456 0.7891
10 17 -1 1.7722 -2.3345
10 17 2 8.8546 -0.3656
10 17 5 -2.1751 2.6911
10 17 8 -4.0426 0.5168
10 18 -8 2.0241 -0.4436
10 18 -5 6.6380 -1.9040
10 18 -2 -4.6052 0.1999
10 18 1 -0.5106 1.8322
10 18 4 5.9291 -0.4287
10 18 7 -6.4103 -1.8001
10 18 10 -2.9640 2.1962
10 19 -9 -0.7964 -0.4846
10 19 -6 -6.1996 0.7988
10 19 -3 9.0106 0.9409
10 19 0 -2.4102 -1.1838
10 19 3 7.1395 -1.6065
10 19 6 5.3199 1.2450
10 19 9 -0.1169 0.7375
10 20 -10 -5.2216 0.0944
10 20 -7 -2.4272 1.0223
10 20 -4 9.5511 -0.3422
10 20 -1 -1.1703 -2.2315
10 20 2 -6.0692 -0.4706
10 20 5 -4.9072 1.5014
10 20 8 5.0820 -0.8912
10 21 -8 8.5871 1.3892
10 21 -5 -1.6365 -1.1239
10 21 -2 8.0336 -0.9779
10 21 1 4.3664 1.8944
10 21 4 3.9062 1.2083
10 21 7 -1.3651 -1.4539
10 22 -9 2.0048 -1.3583
10 22 -6 1.2572 0.2148
10 22 -3 -9.4837 0.9934
10 22 0 1.2175 -0.5806
10 22 3 -4.1043 -0.2689
10 22 6 6.7667 0.5055
10 22 9 -2.4477 0.3487
10 23 -7 -5.4253 -0.7272
10 23 -4 5.5351 -1.2534
10 23 -1 -4.7985 0.8633
10 23 2 -3.4242 1.7738
10 23 5 -1.0859 -0.5217
10 23 8 -0.3027 -1.0423
10 24 -8 4.6830 -2.2248
10 24 -5 2.1973 -0.3285
10 24 -2 2.0180 2.3448
10 24 1 -10.3185 -0.2927
10 24 4 10.8629 -2.1303
10 24 7 2.9875 0.8686
10 25 -6 -1.5702 0.3718
10 25 -3 -2.3541 -1.4069
10 25 0 -0.5853 -0.9391
10 25 3 -5.5263 0.7155
10 25 6 2.5087 1.6260
10 26 -7 3.1241 0.2971
10 26 -4 -0.1332 -0.6493
10 26 -1 2.2851 1.5409
10 26 2 3.1208 0.0963
10 26 5 -1.0412 -2.3044
10 26 8 2.5479 -0.5432
10 27 -8 -1.8010 0.2949
10 27 -5 -0.5571 1.5326
10 27 -2 8.7512 0.7430
10 27 1 -3.0755 -1.2019
10 27 4 13.1400 0.3589
10 27 7 -1.6700 -0.3204
10 28 -6 -2.2966 1.2764
10 28 -3 -1.0438 0.3121
10 28 0 -1.1705 -1.3929
10 28 3 6.2927 0.7335
10 28 6 -0.6120 1.5551
10 29 -7 1.5572 -2.4914
10 29 -4 -1.7071 -0.2663
10 29 -1 -6.9194 1.3183
10 29 2 -4.7307 0.1611
10 29 5 -0.8114 -1.7462
10 30 -5 -1.5185 0.4397
10 30 -2 2.8414 -0.6944
10 30 1 1.3176 -2.1221
10 30 4 -3.0700 0.7352
10 30 7 -3.6635 1.5040
10 31 -3 -1.9915 -2.2200
10 31 0 2.3459 0.2923
10 31 3 -12.1422 2.1190
10 31 6 1.6263 -0.2558
10 32 -4 -3.2346 0.7727
10 32 -1 0.4629 -0.0731
10 32 2 -2.7602 -0.4063
10 32 5 -4.8167 0.7353
10 33 -5 -12.3853 0.1794
10 33 -2 -1.6143 -0.5838
10 33 1 3.3760 1.9051
10 33 4 -1.4788 -0.0840
10 34 -3 0.9189 1.0671
10 34 0 6.7739 1.5560
10 34 3 -1.9525 0.2515
10 35 -4 2.9509 0.5498
10 35 -1 -3.3702 -0.2723
10 35 2 2.5139 -2.3163
10 36 -2 -0.8139 -1.5105
10 36 1 -7.4952 -0.0526
10 37 0 -2.1733 0.6098
11 1 -11 -4.2290 10.8065
11 1 -8 -8.1958 6.0228
11 1 -5 -12.5849 -14.2478
11 1 -2 7.2007 -4.8999
11 1 1 -89.4236 16.7378
11 1 4 21.8277 2.2114
11 1 7 4.1358 -14.6396
11 1 10 -3.8495 -1.4573
11 2 -9 2.3507 1.7122
11 2 -6 -14.6857 -2.4511
11 2 -3 -30.0405 -2.2001
11 2 0 -4.9552 3.1339
11 2 3 -20.4074 1.8297
11 2 6 7.2787 -3.4605
11 2 9 3.4775 -1.5320
11 2 12 0.2890 5.1673
11 3 -10 -0.4313 -2.1275
11 3 -7 -3.2931 2.3712
11 3 -4 -7.4075 3.7675
11 3 -1 -55.1455 -3.0958
11 3 2 17.5460 -3.2361
11 3 5 4.4486 3.7337
11 3 8 -11.3778 2.6069
11 3 11 0.8598 -3.1641
11 4 -11 -4.5537 -1.3370
11 4 -8 -2.5643 -2.2789
11 4 -5 -8.8547 0.6864
11 4 -2 13.1015 2.4028
11 4 1 -17.4944 -1.3006
11 4 4 -9.8547 -1.8906
11 4 7 0.7238 1.7610
11 4 10 -5.2187 2.2830
11 5 -9 -1.3159 0.8887
11 5 -6 0.2335 -1.2990
11 5 -3 11.0946 -0.8978
11 5 0 -15.0620 1.3803
11 5 3 37.3716 0.7089
11 5 6 -8.2433 -1.2173
11 5 9 -4.4810 0.2539
11 6 -10 -4.1148 2.7950
11 6 -7 -11.8026 -2.8426
11 6 -1 23.7237 2.9488
11 6 2 -10.9659 1.4450
11 6 5 5.1033 -2.7714
11 6 8 -1.8788 -1.3502
11 6 11 0.3496 1.5251
11 7 -11 -1.5873 -1.6047
11 7 -8 -12.6540 -1.4339
11 7 -5 9.7108 1.3772
11 7 1 44.7644 -1.2285
11 7 4 -9.4066 -1.1661
11 7 7 6.6453 0.9079
11 7 10 2.1647 -0.5086
11 8 -9 0.7080 -0.5239
11 8 -6 9.1868 2.6970
11 8 -3 10.0842 0.4226
11 8 0 -8.1907 -2.8221
11 8 3 6.9556 -0.0552
11 8 6 -3.0772 2.5410
11 8 9 12.1888 0.2143
11 9 -10 -6.2854 1.1791
11 9 -7 -2.7983 0.4623
11 9 -4 6.6328 -0.4512
11 9 -1 -0.3512 -0.1366
11 9 2 6.2344 0.3219
11 9 5 11.2548 0.3622
11 9 8 4.8600 0.1263
11 9 11 -1.6511 1.5878
11 10 -11 -5.1913 -0.1791
11 10 -8 -9.0795 0.5807
11 10 -5 8.4563 0.4643
11 10 -2 2.8965 0.0805
11 10 1 11.6411 -0.7304
11 10 4 11.8411 0.5066
11 10 7 -2.6218 0.8547
11 10 10 0.8002 -0.5806
11 11 -9 -1.8944 1.5315
11 11 -6 6.4827 -1.2690
11 11 -3 7.2687 -2.2055
11 11 0 -6.4873 1.3661
11 11 3 6.5836 1.4304
11 11 6 4.7972 -1.8319
11 11 9 -9.8138 -1.1295
11 12 -10 -9.8273 0.2318
11 12 -7 3.3579 -0.0782
11 12 -4 -2.3611 -0.5916
11 12 -1 -0.6121 1.0772
11 12 2 3.3918 0.7387
11 12 5 -3.1893 -1.2500
11 12 8 7.4618 0.1922
11 12 11 -4.2946 1.9141
11 13 -8 1.3677 -0.1386
11 13 -5 3.7283 0.1186
11 13 -2 -7.6604 -0.4326
11 13 1 -15.1821 -0.5845
11 13 4 -3.9054 0.0848
11 13 7 -3.1260 0.5750
11 13 10 1.6256 -0.3594
11 14 -9 -6.3872 -1.0948
11 14 -6 5.3949 -0.0288
11 14 -3 -14.5168 0.8163
11 14 0 10.4415 0.3024
11 14 3 -5.1644 0.3174
11 14 6 -7.0944 -0.5781
11 14 9 -5.5846 0.5546
11 15 -10 1.3041 -0.2842
11 15 -7 -2.7524 -0.9769
11 15 -4 4.0962 0.0097
11 15 -1 -2.9754 0.8886
11 15 2 2.6309 -0.1370
11 15 5 -5.6236 -1.0262
11 15 8 -7.0957 0.0167
11 16 -8 0.9929 0.1351
11 16 -5 3.5173 -0.2181
11 16 -2 8.2180 -0.9024
11 16 1 -10.6348 0.1478
11 16 4 1.7765 0.6745
11 16 7 -9.6344 -0.2975
11 16 10 -3.7639 -0.7027
11 17 -9 -6.1373 -1.0827
11 17 -6 -5.6345 0.2055
11 17 -3 -1.7048 0.7848
11 17 0 4.9644 0.3845
11 17 3 5.8271 -1.3191
11 17 6 -8.2034 -0.6530
11 17 9 -2.2034 1.4972
11 18 -10 -0.1892 -1.8281
11 18 -7 -3.7641 2.0895
11 18 -4 -1.7122 0.5098
11 18 -1 3.0105 -3.0886
11 18 2 0.8347 -0.4319
11 18 5 3.3084 2.7189
11 18 8 5.0829 0.3071
11 19 -8 1.5130 0.2060
11 19 -5 4.1270 -1.0994
11 19 -2 -1.6393 -0.1760
11 19 1 6.7041 1.5839
11 19 4 3.4803 0.0694
11 19 7 0.2743 -1.5009
11 19 10 -0.0079 -2.3076
11 20 -9 3.0174 0.0071
11 20 -6 -4.2851 0.0984
11 20 -3 -1.3441 0.3124
11 20 0 1.4172 -0.6906
11 20 3 8.9533 -0.1970
11 20 6 10.9421 0.9079
11 20 9 4.9187 -0.8365
11 21 -7 -2.8565 -1.1053
11 21 -4 9.3916 -0.8154
11 21 -1 -4.7701 0.1761
11 21 2 2.4236 0.4768
11 21 5 -5.8932 -0.1045
11 21 8 2.7956 -1.8639
11 22 -8 5.3180 0.1100
11 22 -5 -0.0040 -0.6621
11 22 -2 10.7071 -0.4208
11 22 1 -6.1766 0.7291
11 22 4 5.6288 -0.0703
11 22 7 5.0950 0.1502
11 23 -9 0.7117 -1.8073
11 23 -6 0.9651 -0.3799
11 23 -3 -4.8585 1.1241
11 23 0 7.3983 -0.1722
11 23 3 -9.7094 -1.7227
11 23 6 7.5399 0.0639
11 23 9 -4.6041 2.2364
11 24 -7 0.9712 0.9090
11 24 -4 0.2027 -0.0462
11 24 -1 -0.6611 0.1468
11 24 2 1.7204 1.0794
11 24 5 -3.1522 0.0278
11 24 8 -0.6397 -1.3479
11 25 -8 2.8089 -2.4602
11 25 -5 2.6759 0.1867
11 25 -2 3.6758 1.4775
11 25 1 -3.8478 -0.2640
11 25 4 13.6772 -0.9644
11 25 7 1.0657 0.6761
11 26 -6 0.8810 1.2858
11 26 -3 -0.3728 -1.7084
11 26 0 -6.6307 -0.9391
11 26 3 4.8003 1.1509
11 26 6 -0.1041 1.4516
11 27 -7 -0.5826 -2.1570
11 27 -4 1.4499 -0.7911
11 27 -1 -4.9020 1.7798
11 27 2 -0.4437 -0.5398
11 27 5 0.8209 -2.2555
11 27 8 2.3774 0.5461
11 28 -5 -2.5808 1.0784
11 28 -2 5.5719 -1.0327
11 28 1 -1.3579 -1.5463
11 28 4 4.8059 1.2294
11 28 7 -4.3490 0.0087
11 29 -6 -0.2435 -0.3088
11 29 -3 -2.2653 -0.4481
11 29 0 -3.1893 -0.6150
11 29 3 0.7989 0.3223
11 29 6 0.6036 1.3933
11 30 -4 2.1814 -0.6938
11 30 -1 -3.4605 0.2031
11 30 2 -6.2385 1.0422
11 30 5 -4.0785 -0.8253
11 31 -5 -8.3011 -1.0150
11 31 -2 -2.4337 1.3173
11 31 1 11.1008 -0.1060
11 31 4 -8.3038 0.6969
11 32 -3 -3.6073 -0.7071
11 32 0 -1.4685 0.0656
11 32 3 -10.4311 0.1566
11 32 6 -4.6348 0.4343
11 33 -4 0.0937 0.3101
11 33 -1 -6.0168 0.5814
11 33 2 4.5917 -0.7914
11 33 5 -4.6897 -1.6145
11 34 -2 3.2988 -2.0250
11 34 1 -5.8753 1.3192
11 34 4 8.1496 -0.5840
11 35 -3 0.7029 2.0272
11 35 0 6.6006 0.7398
11 35 3 -4.4660 -0.2922
11 36 -1 0.3810 0.0147
11 36 2 -5.8174 -1.6280
11 37 1 -3.7438 -0.5809
12 1 -10 5.4344 -0.8160
12 1 -7 -4.8788 9.4452
12 1 -4 -2.1694 1.8573
12 1 -1 -30.3886 -11.1164
12 1 2 -2.3070 -0.0401
12 1 5 4.3392 10.9984
12 1 8 -1.1646 -0.4440
12 1 11 -0.6460 -6.9779
12 2 -11 -7.7722 0.8763
12 2 -8 -8.9205 2.8374
12 2 -5 3.0578 0.1452
12 2 -2 29.8412 -2.2484
12 2 1 -71.2238 -0.0933
12 2 4 17.4861 2.1886
12 2 7 -2.6266 0.6442
12 2 10 -2.3972 -0.1671
12 3 -9 -3.0414 1.5876
12 3 -6 2.2492 -2.5694
12 3 -3 -0.4704 -2.4647
12 3 0 20.2010 2.4942
12 3 3 12.2926 2.5070
12 3 6 -0.2666 -2.4527
12 3 9 -7.1411 -1.3449
12 4 -10 1.0679 3.2881
12 4 -7 -1.8971 0.4063
12 4 -4 0.5903 -2.5859
12 4 -1 1.5527 -0.1797
12 4 2 2.8393 2.2166
12 4 5 -2.2817 -0.4481
12 4 8 -11.8904 -1.4654
12 4 11 4.9584 -1.4315
12 5 -11 -3.4396 0.1694
12 5 -8 -8.3443 -2.9169
12 5 -5 1.5097 -2.6435
12 5 -2 14.3839 3.6857
12 5 1 11.9942 3.1166
12 5 4 -13.1156 -3.5166
12 5 7 4.3847 -2.5338
12 5 10 -7.9557 3.4245
12 6 -9 3.9041 -2.7736
12 6 -6 8.7503 2.1710
12 6 -3 4.4206 3.7723
12 6 0 -2.6888 -2.0156
12 6 3 23.7928 -3.2885
12 6 6 -8.5951 2.5406
12 6 9 5.1972 2.6437
12 7 -10 -9.4313 0.9471
12 7 -7 -3.0058 1.6193
12 7 -4 10.7136 -1.3441
12 7 -1 10.3344 -2.2393
12 7 2 5.4437 1.5061
12 7 5 11.6341 2.7925
12 7 8 3.7530 -1.2112
12 7 11 3.9786 0.7900
12 8 -11 -1.6457 1.4927
12 8 -8 -14.3063 -0.4018
12 8 -5 9.9835 -0.7624
12 8 1 7.1292 0.4071
12 8 4 1.5608 -0.2411
12 8 7 0.6210 0.0793
12 8 10 2.1934 -1.3238
12 9 -9 3.8027 -0.1833
12 9 -6 8.1386 -1.3101
12 9 -3 4.1478 0.2484
12 9 0 -15.9842 1.4637
12 9 3 5.3836 -0.5771
12 9 6 2.4707 -1.8336
12 9 9 4.9399 -0.7248
12 10 -10 -3.6393 0.6643
12 10 -7 4.5362 0.6802
12 10 -4 -4.6578 -0.1003
12 10 -1 -6.0605 0.1091
12 10 2 5.7936 -0.3358
12 10 5 -2.6571 -0.5075
12 10 8 4.5928 0.7142
12 10 11 -4.5687 0.8543
12 11 -8 2.2299 0.3749
12 11 -5 -1.4481 -0.7281
12 11 1 0.9516 0.7591
12 11 4 7.6686 -0.0892
12 11 7 3.8279 -0.1445
12 11 10 -1.8223 1.9793
12 12 -9 -4.5149 -0.1564
12 12 -6 11.5162 1.6807
12 12 -3 -5.7441 -0.1347
12 12 0 -5.6112 -2.4421
12 12 3 1.0222 1.0068
12 12 6 -2.2249 2.4583
12 12 9 -9.5432 -0.6996
12 13 -10 -4.8664 0.9466
12 13 -7 1.9137 -0.9883
12 13 -4 -1.1872 -1.7855
12 13 -1 1.2579 1.6165
12 13 2 -2.3794 1.1510
12 13 5 -3.9727 -2.3111
12 13 8 3.7491 0.1353
12 14 -8 0.6206 0.8443
12 14 -5 4.6800 1.1747
12 14 -2 7.7169 -0.9386
12 14 1 -5.4425 -1.5671
12 14 4 -8.9823 0.7638
12 14 7 -7.0297 0.4076
12 14 10 -2.6216 -1.6899
12 15 -9 -1.0393 -0.2996
12 15 -6 1.9078 -1.0047
12 15 -3 -10.3449 -0.1692
12 15 0 10.3135 1.5207
12 15 3 -0.8948 0.2732
12 15 6 -11.3836 -2.0887
12 15 9 -5.2621 -0.1276
12 16 -10 4.2579 -1.3619
12 16 -7 -2.9449 0.9731
12 16 -4 -3.7643 0.9846
12 16 -1 3.3548 -1.5083
12 16 2 -5.5165 0.0823
12 16 5 3.5575 1.5480
12 16 8 -2.2383 -0.4320
12 17 -8 -3.5170 -0.5919
12 17 -5 6.1918 -0.3532
12 17 -2 -5.6356 0.6029
12 17 1 2.8884 0.1939
12 17 4 1.1986 -0.0878
12 17 7 0.1555 0.9355
12 17 10 0.2778 1.7567
12 18 -9 -1.5090 0.5885
12 18 -6 -5.7120 0.7552
12 18 -3 2.3393 -0.1899
12 18 0 2.7673 -1.0658
12 18 3 18.0810 0.4826
12 18 6 4.0257 0.8929
12 18 9 4.5546 -0.5555
12 19 -10 -4.3006 -2.8501
12 19 -7 1.6468 -1.0454
12 19 -4 0.1594 -1.3718
12 19 -1 -3.1801 1.2864
12 19 2 -0.1401 0.2848
12 19 5 -0.4365 -1.6662
12 19 8 4.7076 -1.0204
12 20 -8 -0.2894 0.8099
12 20 -5 -0.9003 0.3084
12 20 -2 14.6152 -1.3130
12 20 1 3.3813 0.5668
12 20 4 2.6569 0.4377
12 20 7 8.7003 -1.3459
12 21 -9 5.4639 -1.5353
12 21 -6 -0.8620 -0.0200
12 21 -3 -5.7699 1.3371
12 21 0 8.9610 0.0339
12 21 3 -3.3105 -1.7481
12 21 6 7.7045 0.3925
12 21 9 3.1064 0.9144
12 22 -7 -2.6934 0.7119
12 22 -4 4.2232 0.9943
12 22 -1 -2.3074 -1.5637
12 22 2 9.2947 0.3671
12 22 5 -2.8275 2.0719
12 22 8 2.2115 0.2340
12 23 -8 1.5268 -1.7219
12 23 -5 5.3003 -0.7186
12 23 -2 1.3080 1.3270
12 23 1 -7.5064 -0.1879
12 23 4 0.2388 -1.2820
12 23 7 3.9692 1.0534
12 24 -6 4.2394 -0.5002
12 24 -3 2.5827 -0.9834
12 24 0 0.2124 0.2995
12 24 3 -7.1830 0.1099
12 24 6 5.4666 -0.7531
12 25 -7 2.7394 -0.4171
12 25 -4 -2.0071 -0.0577
12 25 -1 -2.7063 0.2312
12 25 2 -3.8715 -0.4842
12 25 5 -3.1241 0.0200
12 25 8 1.6420 -2.3543
12 26 -8 -1.8376 1.1319
12 26 -5 -1.6504 0.7558
12 26 -2 3.3574 -2.0489
12 26 1 -0.1687 0.0617
12 26 4 8.3107 0.9009
12 26 7 -5.9617 0.6471
12 27 -6 -2.9111 0.5032
12 27 -3 1.4004 -0.0256
12 27 0 -5.5402 -0.0008
12 27 3 10.7729 -0.0092
12 27 6 2.1411 -0.1436
12 28 -7 -3.3833 -0.5889
12 28 -4 7.7901 -1.1291
12 28 -1 -11.3479 0.9772
12 28 2 -4.3326 0.7490
12 28 5 1.4378 -0.3770
12 29 -5 -6.2759 -0.9580
12 29 -2 0.5084 1.4270
12 29 1 7.7896 -0.4751
12 29 4 -3.8324 0.1182
12 29 7 -1.2646 1.3235
12 30 -6 1.8532 -0.8308
12 30 -3 -6.2087 -1.2540
12 30 0 -7.4789 -0.5439
12 30 3 -8.5003 -0.6793
12 30 6 -6.3623 1.7172
12 31 -4 4.0911 -0.0266
12 31 -1 -2.2467 0.1365
12 31 2 3.5667 0.1470
12 31 5 -6.4223 -2.1856
12 32 -5 -4.1943 0.2322
12 32 -2 -0.4083 0.0579
12 32 1 7.7845 0.2977
12 32 4 -2.5202 0.8467
12 33 -3 -0.2455 1.6949
12 33 0 1.0540 0.3565
12 33 3 0.9777 -0.7468
12 34 -4 5.0876 0.0914
12 34 -1 -4.5736 0.1148
12 34 2 -0.6254 -0.4944
12 35 -2 -2.4164 -0.7742
12 35 1 -8.1849 -0.0981
12 36 0 2.6138 0.0552
13 1 -9 -5.8129 1.3296
13 1 -6 1.4591 1.7517
13 1 -3 3.1642 -2.1615
13 1 0 22.2574 -2.5270
13 1 3 -26.8605 2.0328
13 1 6 9.2477 0.6140
13 1 9 -3.2103 -1.4651
13 2 -10 2.0566 2.3805
13 2 -7 0.0717 8.8896
13 2 -4 2.0728 -1.3519
13 2 -1 -10.6585 -9.0533
13 2 2 1.5170 2.2658
13 2 5 2.7439 7.6381
13 2 8 -10.9547 -1.8730
13 2 11 0.2541 -5.4788
13 3 -11 -5.0536 0.4085
13 3 -8 -5.9089 -0.7270
13 3 -5 3.3875 1.2458
13 3 -2 28.2030 1.0680
13 3 1 -23.5025 -1.4340
13 3 4 0.3008 -0.2459
13 3 7 -4.0905 1.9164
13 3 10 -5.7061 0.8230
13 4 -9 4.5448 -3.3510
13 4 -6 11.3936 -1.1392
13 4 -3 -0.7122 3.6230
13 4 0 16.9515 0.8656
13 4 3 30.1348 -3.7029
13 4 6 -5.1513 0.4980
13 4 9 -8.9506 2.7467
13 5 -10 -0.0566 0.8096
13 5 -7 6.1159 2.0578
13 5 -4 2.7936 -2.3664
13 5 -1 11.5450 -2.6774
13 5 2 0.0933 3.2900
13 5 5 -5.5697 2.5613
13 5 8 3.5262 -2.2771
13 5 11 8.3054 0.6296
13 6 -11 -0.1268 2.8745
13 6 -8 -10.1233 0.8550
13 6 -5 7.4366 -6.8796
13 6 -2 4.6315 -0.4875
13 6 1 -2.2188 7.3636
13 6 4 0.8758 -0.5866
13 6 7 6.5444 -6.4193
13 6 10 -0.3637 1.8237
13 7 -9 7.5220 -2.6814
13 7 -6 3.6775 -0.3600
13 7 -3 -4.2881 4.2755
13 7 0 -2.2925 0.4744
13 7 3 -0.0258 -3.9019
13 7 6 -2.7625 -0.2812
13 7 9 9.9031 1.4613
13 8 -10 -1.3721 -0.0572
13 8 -7 0.6178 1.5769
13 8 -4 0.7714 0.7805
13 8 -1 -7.7864 -1.9337
13 8 2 18.4245 -1.4032
13 8 5 1.3384 1.8896
13 8 8 -3.8599 0.7815
13 8 11 4.4166 -3.8788
13 9 -11 -1.9224 -0.5048
13 9 -8 -0.7132 -0.9704
13 9 -5 -6.0090 0.0925
13 9 1 -14.9488 -0.1334
13 9 4 4.7456 -0.8606
13 9 7 2.3888 0.4595
13 9 10 -3.9440 0.7730
13 10 -9 0.8526 0.3923
13 10 -6 7.7727 0.2150
13 10 -3 -3.5478 -0.3454
13 10 0 -17.5420 -0.5683
13 10 3 5.6655 0.3426
13 10 6 1.1817 0.9244
13 10 9 -3.0205 -0.2385
13 11 -10 -2.3312 -0.6070
13 11 -7 3.4430 0.8192
13 11 -4 -6.7095 -1.3426
13 11 -1 -0.9894 -0.7170
13 11 2 1.0500 1.1713
13 11 5 -0.5575 -0.1613
13 11 8 8.7954 -0.6382
13 11 11 -7.2932 3.8677
13 12 -8 4.2409 0.6795
13 12 -5 -1.4175 -0.6037
13 12 -2 -7.3694 0.0727
13 12 1 2.3772 0.6428
13 12 4 -8.5118 -0.5098
13 12 7 1.7674 -0.5411
13 12 10 -1.4591 0.9114
13 13 -9 -1.3180 -0.4236
13 13 -6 9.4111 1.2653
13 13 -3 -4.0631 0.3810
13 13 0 1.5999 -1.5629
13 13 3 -3.7541 0.1881
13 13 6 -5.4406 1.3669
13 13 9 -6.0048 -1.5324
13 14 -10 1.5147 2.3657
13 14 -7 -0.8876 -0.9156
13 14 -4 0.9822 -0.2436
13 14 -1 3.8369 1.0686
13 14 2 -10.9052 0.1660
13 14 5 -3.7465 -1.2046
13 14 8 0.1902 0.1303
13 15 -8 -4.8585 1.0881
13 15 -5 8.7214 1.1390
13 15 -2 8.6940 -0.6305
13 15 1 8.9276 -1.1042
13 15 4 1.1687 1.5349
13 15 7 -1.2500 0.9032
13 15 10 -2.7484 1.4287
13 16 -9 2.3298 1.6599
13 16 -6 -3.7448 -0.7941
13 16 -3 -0.5452 -1.2602
13 16 0 4.2090 0.4768
13 16 3 9.6126 1.3127
13 16 6 -6.6169 -0.6960
13 16 9 -1.9492 -0.7040
13 17 -10 0.1459 -3.1884
13 17 -7 0.7447 -0.2176
13 17 -4 -7.4008 -0.1346
13 17 -1 -1.2874 0.9804
13 17 2 -9.0963 0.5559
13 17 5 10.0179 -0.9533
13 17 8 2.9449 -0.3877
13 18 -8 -8.7027 -1.4429
13 18 -5 1.1299 1.2657
13 18 -2 -3.6718 1.1497
13 18 1 3.7647 -1.0064
13 18 4 -1.9738 -0.8942
13 18 7 8.4860 0.5972
13 18 10 3.7702 -1.9250
13 19 -9 2.9008 0.2587
13 19 -6 -0.1086 1.2035
13 19 -3 -3.5106 -0.4147
13 19 0 2.1339 -0.8852
13 19 3 8.1810 0.8629
13 19 6 6.9859 0.9801
13 19 9 9.8522 -0.7703
13 20 -7 1.5557 -0.9210
13 20 -4 6.5927 -0.2564
13 20 -1 1.4026 0.5136
13 20 2 6.9486 -0.0044
13 20 5 -1.9399 -0.4691
13 20 8 0.5631 -0.0293
13 21 -8 -0.0291 0.9392
13 21 -5 0.2863 -0.4124
13 21 -2 12.0603 -0.4403
13 21 1 -3.2721 0.1830
13 21 4 -4.2406 -0.0563
13 21 7 9.9655 -0.0294
13 22 -9 8.2303 -1.1592
13 22 -6 0.7208 -0.7834
13 22 -3 1.3654 1.2741
13 22 0 10.6064 0.5939
13 22 3 -9.3738 -1.9201
13 22 6 3.4611 -0.5685
13 22 9 -0.9927 1.3154
13 23 -7 -0.9179 1.8479
13 23 -4 -5.4002 0.7567
13 23 -1 -6.0556 -1.7596
13 23 2 -2.6341 -0.1596
13 23 5 -2.2751 1.8768
13 23 8 4.5256 1.0051
13 24 -8 -7.7201 -0.4603
13 24 -5 4.4680 0.4863
13 24 -2 -3.6108 -0.5352
13 24 1 -0.3207 -0.6067
13 24 4 -5.2347 0.2403
13 24 7 -4.4676 0.0761
13 25 -6 5.0857 -0.2196
13 25 -3 4.1892 -1.3330
13 25 0 -5.7155 0.7518
13 25 3 1.2921 1.4436
13 25 6 3.8081 -1.3847
13 26 -7 0.5756 -1.8797
13 26 -4 3.6704 0.4316
13 26 -1 -8.3082 0.5448
13 26 2 -6.0650 -0.9961
13 26 5 3.1651 0.5143
13 26 8 4.2535 -1.3468
13 27 -5 -4.4543 -0.7888
13 27 -2 0.2908 -1.1513
13 27 1 2.8724 1.3359
13 27 4 3.7317 -0.2280
13 27 7 -3.7440 1.5262
13 28 -6 -4.2378 0.1082
13 28 -3 0.0278 0.8511
13 28 0 -1.7787 0.4444
13 28 3 1.6433 -1.0341
13 28 6 0.2208 -1.0192
13 29 -4 11.4892 -0.2340
13 29 -1 -8.6590 -0.7720
13 29 2 2.1612 0.8662
13 29 5 -2.6985 1.0704
13 30 -5 -1.5732 0.2154
13 30 -2 -2.0597 1.6384
13 30 1 13.7056 -0.2577
13 30 4 -5.9269 -0.9807
13 31 -3 -4.4754 0.0045
13 31 0 -5.9442 0.0809
13 31 3 2.3660 -1.1694
13 31 6 -7.6741 0.4641
13 32 -4 3.9808 -0.2721
13 32 -1 -3.2069 0.6073
13 32 2 5.6708 -0.4600
13 32 5 -5.7487 -1.3899
13 33 -2 1.4817 -0.6327
13 33 1 -2.2941 -0.9012
13 33 4 4.4224 1.8716
13 34 -3 4.3788 0.3375
13 34 0 3.4131 -0.3718
13 34 3 2.8230 -0.4791
13 35 -1 -0.0716 0.4736
13 35 2 -5.1415 1.0923
13 36 1 -1.1201 -0.1692
14 1 -11 -5.1043 -0.8617
14 1 -8 -3.8620 1.5248
14 1 -5 16.3905 3.9278
14 1 -2 17.4479 -2.5682
14 1 1 -19.8626 -4.6612
14 1 4 0.5866 3.4129
14 1 7 -1.5986 4.1408
14 1 10 6.4462 -3.1382
14 2 -9 -0.3820 -7.4474
14 2 -6 13.8040 -0.5034
14 2 -3 4.6136 8.4244
14 2 0 16.2667 -1.4127
14 2 3 1.5249 -8.1948
14 2 6 1.4911 2.0184
14 2 9 -10.0015 6.2690
14 3 -10 7.6456 -0.9483
14 3 -7 8.3397 3.6661
14 3 -4 -4.7088 0.5891
14 3 -1 3.6084 -3.6404
14 3 2 0.4815 -0.3329
14 3 5 -4.4160 2.9932
14 3 8 -0.8451 -0.5804
14 3 11 5.3459 -3.3288
14 4 -11 -2.7642 2.7795
14 4 -8 -1.8465 4.5690
14 4 -5 5.7045 -5.3258
14 4 -2 -0.1297 -4.0983
14 4 1 -3.4096 6.1412
14 4 7 5.4667 -5.4081
14 4 10 -3.1285 -0.2749
14 5 -9 10.9768 -2.3891
14 5 -6 -1.2340 -2.0506
14 5 -3 -13.3091 3.2663
14 5 0 11.8680 1.8054
14 5 3 2.5681 -3.6966
14 5 6 -2.8068 -0.7120
14 5 9 0.2371 2.2518
14 6 -10 0.6390 -2.2916
14 6 -7 4.9537 3.4503
14 6 -4 -1.4821 1.2893
14 6 -1 -3.0694 -3.7215
14 6 2 13.8909 -0.1403
14 6 5 -9.5139 4.0297
14 6 8 -1.9071 0.2547
14 6 11 8.3863 -1.3618
14 7 -11 7.0791 0.9777
14 7 -8 -4.9167 -0.7385
14 7 -5 -3.5432 -2.0968
14 7 -2 9.3369 0.0010
14 7 1 -29.3026 1.7456
14 7 4 -2.4605 -0.5220
14 7 7 3.2887 -2.2390
14 7 10 1.4809 0.2941
14 8 -9 6.4415 0.2668
14 8 -6 -0.6459 -0.6031
14 8 -3 -4.2225 0.7285
14 8 0 -0.0932 0.9591
14 8 3 3.9114 -0.8903
14 8 6 2.8330 -0.9401
14 8 9 1.1998 -0.0142
14 9 -10 5.7874 0.2882
14 9 -7 -1.0689 -0.4285
14 9 -4 -4.2495 -0.8482
14 9 -1 -10.2806 -0.5001
14 9 2 8.2787 0.3929
14 9 5 -1.0323 -0.2527
14 9 8 -2.1114 -1.0303
14 9 11 -1.3220 -1.2489
14 10 -8 6.4624 -0.8178
14 10 -5 -11.8687 -0.8772
14 10 -2 0.3221 1.1228
14 10 1 -10.5671 1.4568
14 10 4 -3.0605 -1.3644
14 10 7 3.9933 -0.1943
14 10 10 -5.2480 2.2903
14 11 -9 -5.0674 -1.1079
14 11 -6 7.7025 2.8140
14 11 -3 -1.3397 1.4523
14 11 0 -17.0487 -3.0601
14 11 3 -3.7933 -1.0282
14 11 6 -3.7547 3.4980
14 11 9 -1.2626 0.5045
14 12 -10 -0.7898 0.4673
14 12 -7 -1.9305 0.4700
14 12 -4 0.1521 -0.8291
14 12 -1 2.2202 -0.8657
14 12 2 -3.7792 0.7706
14 12 5 -0.2865 0.6644
14 12 8 6.3795 -0.6896
14 13 -8 -1.7098 1.1929
14 13 -5 9.7595 0.2405
14 13 -2 9.7815 -0.1501
14 13 1 9.8301 0.1271
14 13 4 -4.0769 0.0657
14 13 7 -2.8429 -1.2382
14 13 10 0.9021 -0.6372
14 14 -9 3.2121 2.2109
14 14 -6 -0.2228 -1.4124
14 14 -3 1.1181 -1.9080
14 14 0 7.1494 1.0562
14 14 3 -0.1534 1.4451
14 14 6 -4.4809 -1.0022
14 14 9 -4.2588 -1.4326
14 15 -7 0.1844 -0.4137
14 15 -4 -2.4108 1.1855
14 15 -1 -0.9830 1.1363
14 15 2 -10.9075 -0.7112
14 15 5 5.7353 -0.7883
14 15 8 5.4929 0.4091
14 16 -8 -10.8978 -1.2388
14 16 -5 2.4894 1.8594
14 16 -2 -8.7643 1.4014
14 16 1 6.1604 -1.9438
14 16 4 2.3400 0.1694
14 16 7 5.7083 2.5034
14 16 10 1.3031 3.5652
14 17 -9 2.5106 0.8813
14 17 -6 0.8679 1.4162
14 17 -3 2.0811 -0.7186
14 17 0 -3.8424 -1.6260
14 17 3 7.0122 1.4231
14 17 6 0.2974 1.2366
14 17 9 2.7666 -1.4994
14 18 -7 2.4033 -1.6502
14 18 -4 4.4304 -1.6749
14 18 -1 1.1467 2.4900
14 18 2 -7.0434 1.1873
14 18 5 2.3224 -2.2986
14 18 8 -1.0953 -0.2938
14 19 -8 -7.4420 0.4242
14 19 -5 -3.8305 0.6165
14 19 -2 7.2963 -0.3978
14 19 1 1.7624 -0.7239
14 19 4 -1.6635 0.0497
14 19 7 11.0732 -0.0117
14 20 -9 5.8864 -0.0205
14 20 -6 0.2535 -0.0096
14 20 -3 -6.2211 -0.3080
14 20 0 4.9415 0.6618
14 20 3 -3.7343 -0.0546
14 20 6 -0.4711 -0.5374
14 20 9 7.5239 0.7903
14 21 -7 -1.9960 1.4431
14 21 -4 -1.9510 1.6345
14 21 -1 0.7680 -1.7331
14 21 2 1.9677 -1.1605
14 21 5 4.0069 1.3872
14 21 8 2.6998 2.4626
14 22 -8 -3.5240 0.5642
14 22 -5 4.4006 -0.1413
14 22 -2 -1.1723 0.3400
14 22 1 -2.8995 0.0369
14 22 4 -13.3074 0.3092
14 22 7 2.0070 -0.5456
14 23 -6 5.3331 -1.2282
14 23 -3 6.3281 0.0463
14 23 0 4.1769 0.6215
14 23 3 -4.6420 0.5592
14 23 6 1.6632 -0.6314
14 24 -7 -0.7471 -0.7650
14 24 -4 -3.4259 0.2131
14 24 -1 -7.6412 0.5813
14 24 2 -9.9062 -0.9229
14 24 5 -0.3041 -0.5698
14 24 8 7.1432 0.6703
14 25 -5 0.4892 0.4640
14 25 -2 -4.3793 -1.5065
14 25 1 3.9337 -0.0819
14 25 4 -1.7078 0.4880
14 25 7 -6.2331 -0.2979
14 26 -6 1.3028 0.5135
14 26 -3 2.8912 1.1858
14 26 0 0.8431 0.7253
14 26 3 1.4568 -0.5693
14 26 6 1.3350 -1.1127
14 27 -7 4.1158 2.4795
14 27 -4 8.2796 0.8777
14 27 -1 -10.7171 -1.7963
14 27 2 -1.5793 0.4855
14 27 5 4.2113 2.5474
14 28 -5 -1.7536 -0.7654
14 28 -2 -0.1008 0.8399
14 28 1 9.9976 1.5816
14 28 4 0.7184 -1.5316
14 28 7 4.4325 1.8630
14 29 -6 1.4548 0.2541
14 29 -3 -3.1535 -0.1312
14 29 0 0.3577 0.1952
14 29 3 2.1913 0.1001
14 29 6 -2.4253 -1.3939
14 30 -4 5.1804 0.4138
14 30 -1 -2.6996 0.1036
14 30 2 9.6841 -1.0599
14 30 5 -4.1728 0.6586
14 31 -5 4.5885 1.5623
14 31 -2 -2.3139 -0.8459
14 31 1 5.1748 -0.4730
14 31 4 -3.4434 -1.1020
14 32 -3 2.9212 0.6203
14 32 0 -0.1189 0.8144
14 32 3 11.6355 -0.4828
14 33 -4 5.9699 -0.7285
14 33 -1 0.3086 -0.1777
14 33 2 -1.4422 0.5034
14 34 -2 -5.6131 1.6155
14 34 1 0.1045 -1.6006
14 35 0 -3.7265 -2.9962
15 1 -10 3.8073 -4.1880
15 1 -7 1.7072 6.6922
15 1 -4 -1.4118 5.6707
15 1 -1 11.1701 -8.3982
15 1 2 -13.4708 -5.7053
15 1 5 3.9271 7.7729
15 1 8 0.6788 2.7534
15 1 11 -0.7265 -8.9154
15 2 -11 -2.1595 0.9752
15 2 -8 0.2205 6.0467
15 2 -5 7.0967 0.2329
15 2 -2 -2.9892 -7.4320
15 2 1 7.8457 -0.4197
15 2 7 1.7246 -0.3655
15 2 10 3.5730 -6.7527
15 3 -9 6.4181 -4.2431
15 3 -6 1.1299 -5.0058
15 3 -3 -12.7091 5.3437
15 3 0 1.1611 4.4107
15 3 3 2.6449 -6.2632
15 3 6 1.8244 -3.1987
15 3 9 -7.3123 5.1452
15 4 -10 8.0484 -6.2714
15 4 -7 9.9422 0.6837
15 4 -4 -12.6267 6.0934
15 4 -1 -5.5776 -0.5192
15 4 2 -1.0534 -4.8563
15 4 5 -14.8441 1.4363
15 4 8 4.5165 3.9573
15 4 11 3.8111 1.9300
15 5 -11 5.2068 0.5873
15 5 -8 -1.5806 3.9864
15 5 -5 4.8881 -3.1362
15 5 -2 -13.0903 -4.3205
15 5 1 -10.2651 3.6615
15 5 7 7.1309 -3.9426
15 5 10 5.0885 -0.9888
15 6 -9 11.1766 1.3016
15 6 -6 -7.9981 0.4684
15 6 -3 -5.3976 -0.7159
15 6 0 14.2076 -0.7650
15 6 3 -8.1916 0.5892
15 6 6 0.2214 0.3749
15 6 9 -0.0903 -0.8867
15 7 -10 5.2423 2.0039
15 7 -7 -3.3546 0.1758
15 7 -4 -0.4807 -1.5609
15 7 -1 -9.0196 -0.1634
15 7 2 10.5731 1.2853
15 7 5 -7.7847 -0.0694
15 7 8 -13.0521 -1.1150
15 7 11 6.0375 -4.0329
15 8 -8 -0.2691 -1.9242
15 8 -5 -14.4340 0.8768
15 8 -2 13.8632 1.5184
15 8 1 -28.6938 -0.9082
15 8 4 -7.8473 -1.2912
15 8 7 -0.4644 0.3630
15 8 10 -5.4872 1.0678
15 9 -9 -0.9789 -0.1769
15 9 -6 -2.4681 1.2017
15 9 -3 -5.6783 0.6552
15 9 0 -10.1885 -0.5546
15 9 3 3.5965 -0.7705
15 9 6 -0.1826 1.1116
15 9 9 0.6069 1.6375
15 10 -10 3.3698 -1.5859
15 10 -7 -3.1687 1.4344
15 10 -4 -1.8285 -1.2299
15 10 -1 -4.9285 -2.6999
15 10 2 -3.6947 2.1590
15 10 5 3.9526 2.2848
15 10 8 4.2206 -2.8181
15 11 -8 1.6757 -1.4470
15 11 -5 5.2593 -2.0343
15 11 -2 -0.3863 2.0904
15 11 1 -3.9684 2.2264
15 11 4 -8.1709 -2.2284
15 11 7 -1.7092 -1.1403
15 11 10 5.4510 -0.3304
15 12 -9 -7.2872 -0.4650
15 12 -6 4.3256 1.0958
15 12 -3 4.2888 0.4935
15 12 0 -1.6579 -1.1154
15 12 3 -3.7695 -0.6334
15 12 6 -1.5939 0.7668
15 12 9 -2.1672 0.1615
15 13 -7 -1.3437 -1.4346
15 13 -4 2.0461 0.7947
15 13 -1 -3.8756 1.4593
15 13 2 -1.5848 -1.2061
15 13 5 -3.1622 -0.7708
15 13 8 7.6986 0.4553
15 14 -8 -5.8317 0.3805
15 14 -5 5.3522 2.0090
15 14 -2 8.5380 -0.2182
15 14 1 10.7044 -1.5122
15 14 4 9.0037 0.6226
15 14 7 -1.0710 0.9978
15 14 10 2.7641 1.5057
15 15 -9 2.7907 2.0607
15 15 -6 -0.9818 -0.0945
15 15 -3 5.1128 -1.7606
15 15 0 0.0512 -0.6007
15 15 3 -1.5421 1.3867
15 15 6 -4.0912 0.8282
15 15 9 -0.8103 -1.1677
15 16 -10 -0.2220 0.1038
15 16 -7 0.6995 -0.0268
15 16 -4 4.0986 -0.7442
15 16 -1 -2.1177 0.9590
15 16 2 -8.2608 0.7698
15 16 5 8.6798 -0.8340
15 16 8 7.2276 0.4512
15 17 -8 -11.7496 -0.8854
15 17 -5 -4.3296 0.7646
15 17 -2 -12.4615 1.2996
15 17 1 -1.1427 -1.6352
15 17 4 -1.2821 -0.5369
15 17 7 4.4599 1.0259
15 18 -9 3.6692 -0.2674
15 18 -6 1.7756 0.6630
15 18 -3 -5.0039 -1.0615
15 18 0 -7.1274 0.2024
15 18 3 -1.6685 1.2562
15 18 6 0.7910 -0.7530
15 18 9 0.3054 -0.2633
15 19 -7 -0.4769 -0.5991
15 19 -4 5.0427 0.8339
15 19 -1 7.4636 0.3308
15 19 2 -3.8843 -0.9384
15 19 5 -0.8779 -0.0952
15 19 8 -2.0734 0.8054
15 20 -8 -0.1349 1.1406
15 20 -5 -1.4053 -0.5436
15 20 -2 3.9182 -0.9339
15 20 1 -1.0248 0.7247
15 20 4 -2.8563 1.0035
15 20 7 7.5089 0.8370
15 21 -9 1.3165 2.3026
15 21 -6 1.8458 -1.4192
15 21 -3 1.1151 0.2059
15 21 0 8.8733 0.7177
15 21 3 -1.2701 0.0688
15 21 6 -5.5260 -0.8788
15 21 9 4.1668 -0.8820
15 22 -7 -4.6059 0.5738
15 22 -4 -5.8454 0.2450
15 22 -1 -5.7794 0.8571
15 22 2 -7.0397 -0.6660
15 22 5 4.9900 -1.3564
15 22 8 5.1524 1.8453
15 23 -8 -9.4207 0.2711
15 23 -5 2.5126 1.5702
15 23 -2 -4.4484 -0.2445
15 23 1 3.2239 -1.1471
15 23 4 -8.5640 1.0204
15 23 7 -3.7018 -2.1351
15 24 -6 6.8579 0.0650
15 24 -3 0.5954 0.3823
15 24 0 2.3605 0.4941
15 24 3 -2.9510 0.1485
15 24 6 -3.8606 0.4332
15 25 -7 3.7820 -0.5895
15 25 -4 0.8637 1.3236
15 25 -1 -4.1504 -0.8124
15 25 2 -4.4514 -0.7252
15 25 5 3.5424 0.1386
15 26 -5 2.2449 -1.5359
15 26 -2 -3.6078 0.3049
15 26 1 6.9401 1.2660
15 26 4 0.8627 -0.2186
15 26 7 2.5508 0.0621
15 27 -6 4.2632 0.8923
15 27 -3 1.6185 1.2978
15 27 0 7.5759 -0.4270
15 27 3 1.8372 -0.6193
15 27 6 0.0495 0.3005
15 28 -4 2.7017 -0.0437
15 28 -1 -5.3579 -1.7912
15 28 2 5.9659 0.8477
15 28 5 -1.0081 1.8127
15 29 -5 -2.7326 1.4231
15 29 -2 -1.1255 -0.7968
15 29 1 7.7896 1.1557
15 29 4 -2.8163 -1.5677
15 30 -3 -0.4204 0.5229
15 30 0 1.9162 0.7636
15 30 3 11.3915 0.6385
15 31 -4 1.2635 -0.2880
15 31 -1 2.0130 0.2824
15 31 2 3.7231 -1.5401
15 31 5 -1.2029 2.5791
15 32 -2 -0.9937 0.2671
15 32 1 0.8280 -1.0029
15 32 4 -1.6242 -0.0380
15 33 -3 2.6095 -1.9391
15 33 0 1.5084 -0.3559
15 33 3 4.7953 1.0653
15 34 -1 0.3604 0.2339
15 34 2 -5.6180 1.8638
15 35 1 2.8718 -1.2603
16 1 -9 4.1051 -9.8696
16 1 -6 3.0964 -6.6266
16 1 -3 -1.9495 13.9955
16 1 0 -12.4243 5.4533
16 1 3 -5.1217 -14.5700
16 1 6 1.0006 -3.5400
16 1 9 -4.9083 11.5747
16 2 -10 7.0223 -9.6287
16 2 -7 1.0924 -5.2095
16 2 -4 -15.5842 12.9602
16 2 -1 -7.0361 4.2894
16 2 2 -6.0635 -14.6223
16 2 5 0.2304 -2.2393
16 2 8 3.6590 11.0711
16 2 11 -0.4239 -3.1327
16 3 -11 -2.2562 0.5800
16 3 -8 -0.0566 7.6044
16 3 -5 9.6808 0.0048
16 3 -2 -26.2284 -8.0875
16 3 1 7.9836 0.4105
16 3 4 14.4765 6.5309
16 3 7 6.7533 -0.9883
16 3 10 4.0018 -4.8235
16 4 -9 6.4429 3.1772
16 4 -6 -10.5353 -1.5926
16 4 -3 -9.5433 -3.4764
16 4 0 1.3343 1.3529
16 4 6 1.6663 -1.7825
16 4 9 -0.6604 -1.5445
16 5 -10 0.1302 -0.8952
16 5 -7 3.2691 1.8344
16 5 -4 -4.9226 1.6382
16 5 -1 -10.8321 -0.7301
16 5 2 1.1200 -0.6899
16 5 5 -14.1586 1.0562
16 5 8 -8.8350 0.5819
16 5 11 1.7802 1.0900
16 6 -8 -3.8031 -1.6910
16 6 -5 -5.1449 2.0619
16 6 -2 -4.6664 1.2813
16 6 1 -12.7511 -2.0203
16 6 4 -6.9484 -0.5372
16 6 7 -0.4718 0.9465
16 6 10 1.6890 -0.9552
16 7 -9 8.5659 0.0784
16 7 -6 -5.7528 2.2580
16 7 -3 -2.8870 -0.6363
16 7 0 11.7076 -1.4590
16 7 3 3.4082 0.6049
16 7 6 0.5710 0.9523
16 7 9 -2.1605 0.7819
16 8 -10 5.8419 2.1160
16 8 -7 -5.6333 -0.3452
16 8 -4 0.6219 -3.0752
16 8 -1 -7.3433 -0.2256
16 8 2 -11.2054 3.2967
16 8 5 -0.4660 -0.1397
16 8 8 -4.4997 -2.3862
16 8 11 2.2733 0.9879
16 9 -8 -2.3181 -1.3409
16 9 -5 -2.0939 -1.9470
16 9 -2 4.8273 1.0692
16 9 1 -13.4116 1.8716
16 9 4 -5.6005 -0.6620
16 9 7 -2.4209 -0.8234
16 9 10 0.0652 0.4479
16 10 -9 -10.3730 -1.0952
16 10 -6 0.4611 1.0082
16 10 -3 -1.5147 2.0732
16 10 0 -13.6121 -1.2636
16 10 3 -2.3271 -1.8436
16 10 6 -3.3874 1.2226
16 10 9 2.5575 0.9525
16 11 -7 -1.0054 0.5055
16 11 -4 -1.0373 -0.0331
16 11 -1 -2.3018 -0.8777
16 11 2 -0.3812 0.4398
16 11 5 -1.2344 1.4451
16 11 8 4.7139 -1.3109
16 12 -8 -1.6544 -1.4386
16 12 -5 11.5219 0.3357
16 12 -2 8.0819 1.7559
16 12 1 -0.5236 -0.5427
16 12 4 1.1205 -2.2998
16 12 7 -5.7427 0.1319
16 12 10 13.8344 -1.1097
16 13 -9 -6.1842 0.2899
16 13 -6 1.6023 -0.1947
16 13 -3 4.8462 -1.6987
16 13 0 7.5209 -0.0235
16 13 3 -0.9184 1.1094
16 13 6 1.5624 -0.0414
16 13 9 -2.5631 1.1490
16 14 -7 3.2771 -0.6297
16 14 -4 4.8060 0.0633
16 14 -1 -6.2725 0.5236
16 14 2 4.1358 -0.3512
16 14 5 2.2597 -0.4428
16 14 8 14.6075 0.1407
16 15 -8 -4.7084 -0.2106
16 15 -5 -5.6040 1.2307
16 15 -2 -6.3205 0.5229
16 15 1 0.4928 -1.4975
16 15 4 5.8841 -0.1078
16 15 7 -3.1265 1.9034
16 16 -9 3.1813 -0.0390
16 16 -6 0.7504 1.1625
16 16 -3 3.9148 -0.1865
16 16 0 -8.7381 -0.9301
16 16 3 -5.2136 0.0689
16 16 6 -1.2463 0.2736
16 16 9 -5.6032 -2.0473
16 17 -7 -2.5845 -0.0079
16 17 -4 9.2095 -0.9933
16 17 -1 0.6803 0.6814
16 17 2 -8.4011 0.5192
16 17 5 -2.8347 -0.2690
16 17 8 2.8238 0.6337
16 18 -8 -4.1718 0.5149
16 18 -5 -2.4125 -0.8500
16 18 -2 -5.2095 -0.9059
16 18 1 -2.3579 -0.0319
16 18 4 2.8047 0.4915
16 18 7 2.3301 0.2693
16 19 -9 -0.3199 0.5154
16 19 -6 -0.9520 -1.8154
16 19 -3 -5.4815 -1.2646
16 19 0 -1.5439 2.0934
16 19 3 -0.2436 1.0282
16 19 6 -5.8842 -1.8203
16 19 9 -1.7788 1.7110
16 20 -7 -3.5067 -0.3575
16 20 -4 -3.2833 2.3040
16 20 -1 4.5907 0.4913
16 20 2 -1.9877 -2.0254
16 20 5 4.0676 -0.4628
16 20 8 0.9969 0.5252
16 21 -8 4.0107 -0.3215
16 21 -5 0.2380 0.8162
16 21 -2 -2.4839 -0.5570
16 21 1 0.7582 0.3769
16 21 4 -1.7647 1.2791
16 21 7 1.2012 -0.1534
16 22 -6 5.1675 -0.3089
16 22 -3 1.4031 0.5202
16 22 0 9.3341 0.0261
16 22 3 -0.1180 0.0356
16 22 6 -7.3893 -0.4316
16 23 -7 -4.2194 -0.9353
16 23 -4 -0.4443 -0.4319
16 23 -1 -3.0486 1.2124
16 23 2 -4.1323 -0.1654
16 23 5 -0.2063 -1.3008
16 23 8 3.3974 0.8332
16 24 -5 2.8158 0.0147
16 24 -2 -3.9584 0.1689
16 24 1 3.7005 -0.9091
16 24 4 -0.3976 0.2943
16 24 7 -0.2823 -1.0495
16 25 -6 6.8904 0.5023
16 25 -3 -2.2324 0.7343
16 25 0 6.0654 -0.2380
16 25 3 -0.1844 -1.0998
16 25 6 -9.4595 1.7674
16 26 -7 6.9305 2.5927
16 26 -4 -4.3574 0.0284
16 26 -1 -0.3407 -1.8478
16 26 2 2.6943 1.0133
16 26 5 1.3885 0.2901
16 27 -5 -4.3213 -1.0870
16 27 -2 0.1971 0.3887
16 27 1 8.7683 1.5366
16 27 4 -3.4734 0.9125
16 28 -6 10.1842 -0.6400
16 28 -3 -0.6561 0.4856
16 28 0 4.6294 -0.9893
16 28 3 6.6823 -0.0619
16 28 6 2.8816 0.9511
16 29 -4 -2.1811 -0.4335
16 29 -1 2.1422 -0.2739
16 29 2 4.0482 -0.1334
16 29 5 0.1988 0.1153
16 30 -5 -4.6413 1.0232
16 30 -2 -0.7408 -0.7375
16 30 1 1.2729 0.7495
16 30 4 -4.8494 -1.4539
16 31 -3 4.2571 0.8752
16 31 0 4.9577 1.1720
16 31 3 8.8526 0.5819
16 32 -4 0.4948 0.0529
16 32 -1 2.2250 -0.3047
16 32 2 -5.6033 -0.4485
16 33 -2 -1.4879 -0.2898
16 33 1 2.2693 -0.7221
16 34 0 -1.2762 -3.1051
17 1 -11 1.7975 0.3515
17 1 -8 -3.2713 5.6448
17 1 -5 1.3310 -0.8512
17 1 -2 -11.2775 -6.4375
17 1 1 15.0952 0.9753
17 1 4 0.4605 5.3307
17 1 7 4.1423 -2.5858
17 1 10 3.9987 -5.0235
17 2 -9 -2.2746 2.8609
17 2 -6 -9.1060 -7.3837
17 2 -3 -12.8316 -1.7518
17 2 0 -17.3549 8.4299
17 2 3 -0.9867 0.8772
17 2 6 5.0354 -7.6849
17 2 9 -1.0448 0.6620
17 3 -10 -1.3585 -5.4184
17 3 -7 3.1595 -5.1487
17 3 -4 -11.8007 7.6322
17 3 -1 -28.7014 5.0561
17 3 2 -8.7490 -8.0060
17 3 5 -5.2303 -3.6287
17 3 8 0.0675 7.4402
17 3 11 -4.0863 2.3521
17 4 -8 -2.6327 -0.3395
17 4 -5 8.7107 2.6061
17 4 -2 -26.6872 0.9161
17 4 1 11.5515 -2.2194
17 4 4 1.1529 -0.1407
17 4 7 -0.9318 2.4126
17 4 10 5.3122 -1.4278
17 5 -9 9.1408 0.7610
17 5 -6 -3.4227 3.8125
17 5 -3 2.9058 -1.7075
17 5 0 9.3673 -3.7748
17 5 3 -2.8884 2.2585
17 5 6 -2.6003 2.3800
17 5 9 0.0460 -0.9882
17 6 -10 -0.9681 3.9043
17 6 -7 -3.7496 1.1888
17 6 -4 3.4111 -2.7750
17 6 -1 -1.8913 -0.9512
17 6 2 -5.9859 2.5351
17 6 5 -4.5032 0.6327
17 6 8 -10.0072 -2.0469
17 6 11 4.0331 -0.6495
17 7 -8 -5.0293 -0.0880
17 7 -5 -5.1294 -0.2175
17 7 -2 2.4546 -0.2661
17 7 1 -0.5199 0.2979
17 7 4 -7.8644 0.6361
17 7 7 -1.7929 -0.6043
17 7 10 -5.8580 0.2878
17 8 -9 0.3522 -1.3946
17 8 -6 -2.3667 -0.3963
17 8 -3 -7.9911 1.4763
17 8 0 -3.1596 0.2853
17 8 3 2.8181 -1.0046
17 8 6 -1.6750 -0.1327
17 8 9 4.0597 1.0866
17 9 -10 -1.4806 -1.8412
17 9 -7 1.3132 2.4840
17 9 -4 -3.6893 -0.5996
17 9 -1 0.3674 -1.9184
17 9 2 -18.0567 1.2958
17 9 5 2.8592 1.8720
17 9 8 2.8758 -0.9934
17 10 -8 -2.7177 -2.1313
17 10 -5 11.8448 -1.4696
17 10 -2 -3.6725 2.1956
17 10 1 -9.4485 0.6484
17 10 4 -2.7867 -1.9705
17 10 7 -5.0552 0.0364
17 10 10 16.4179 -1.1158
17 11 -9 -11.9227 -1.3080
17 11 -6 5.6779 0.2238
17 11 -3 4.9315 0.3517
17 11 0 1.2244 -0.7190
17 11 3 1.4665 -0.5532
17 11 6 2.3403 0.3748
17 11 9 -4.9279 0.6426
17 12 -10 -5.2365 0.4206
17 12 -7 6.1977 -2.5103
17 12 -4 2.1620 -0.4376
17 12 -1 -2.8486 1.7502
17 12 2 8.5105 0.1806
17 12 5 -9.3313 -1.0911
17 12 8 11.2600 -0.1132
17 13 -8 1.1259 -0.0493
17 13 -5 -2.3422 1.5104
17 13 -2 9.4292 -0.1187
17 13 1 0.9863 -1.8635
17 13 4 8.6915 -0.5093
17 13 7 -7.0676 1.9084
17 13 10 10.0581 0.0981
17 14 -9 -3.4184 0.3037
17 14 -6 0.2598 0.8044
17 14 -3 2.1877 -0.4762
17 14 0 -1.5827 -0.9745
17 14 3 -4.1806 0.3619
17 14 6 -0.4931 0.5941
17 14 9 -2.0266 -0.4998
17 15 -7 0.2931 1.5432
17 15 -4 6.8591 -1.2874
17 15 -1 -5.9225 -1.0315
17 15 2 1.8504 0.9836
17 15 5 3.6911 0.3307
17 15 8 9.6004 -0.5217
17 16 -8 -1.0475 0.2339
17 16 -5 -1.3207 -0.8612
17 16 -2 -9.2796 0.2706
17 16 1 -7.5501 0.3249
17 16 4 -1.8389 -1.0140
17 16 7 -5.7964 -0.7265
17 17 -9 2.8992 -1.3532
17 17 -6 -4.7167 -0.8333
17 17 -3 1.5241 -0.5150
17 17 0 -8.2280 1.6915
17 17 3 -2.0850 0.2544
17 17 6 0.3162 -1.3225
17 17 9 -12.9669 0.7776
17 18 -7 -4.0675 -0.7175
17 18 -4 2.1837 1.5594
17 18 -1 2.7013 0.8371
17 18 2 -4.0468 -1.7226
17 18 5 -10.3516 -0.1012
17 18 8 2.3457 0.8293
17 19 -8 7.3164 -0.4822
17 19 -5 -0.7546 0.0836
17 19 -2 -5.8123 -1.2944
17 19 1 -0.1338 0.1342
17 19 4 8.2488 1.2297
17 19 7 0.2766 1.3421
17 20 -6 2.0679 -1.0782
17 20 -3 0.1905 -0.0381
17 20 0 7.1984 0.8148
17 20 3 2.6049 -0.1688
17 20 6 -9.7374 -0.9974
17 21 -7 -5.4556 -0.6878
17 21 -4 -1.0991 0.0660
17 21 -1 -0.8392 0.9815
17 21 2 -0.8716 -0.0752
17 21 5 -0.0237 -0.4718
17 21 8 -0.1719 -2.0706
17 22 -8 2.2871 -0.4210
17 22 -5 0.9077 0.7058
17 22 -2 -1.0039 -0.7363
17 22 1 0.3908 -0.4752
17 22 4 2.7817 0.5905
17 22 7 -0.2651 -0.8330
17 23 -6 4.4991 0.4661
17 23 -3 -4.6680 -0.2106
17 23 0 6.7846 0.3448
17 23 3 -2.2227 -0.1284
17 23 6 -11.3783 -0.6454
17 24 -7 -2.0072 -0.5009
17 24 -4 -4.1854 0.1895
17 24 -1 4.5215 -0.5503
17 24 2 5.0251 -0.3536
17 24 5 -1.9195 0.7012
17 25 -5 -0.1688 -2.0692
17 25 -2 -3.2067 0.7864
17 25 1 2.8592 0.6055
17 25 4 -4.9299 0.2490
17 25 7 2.3094 0.3450
17 26 -6 11.3043 -1.0884
17 26 -3 -1.1220 -0.0246
17 26 0 1.4974 -1.1589
17 26 3 5.8245 -0.8757
17 26 6 -7.8192 2.5689
17 27 -4 -5.1643 -1.8342
17 27 -1 2.4024 0.0713
17 27 2 3.5978 1.7166
17 27 5 -1.5359 -1.8531
17 28 -5 -14.3255 0.5781
17 28 -2 3.5505 0.2473
17 28 1 5.4958 0.5886
17 28 4 -5.4789 1.3132
17 29 -3 1.8163 1.8478
17 29 0 1.4905 -0.3913
17 29 3 5.5527 -1.4922
17 30 -4 -2.1910 0.2031
17 30 -1 4.5203 -1.0537
17 30 2 -8.5656 -0.0193
17 30 5 2.0465 1.0183
17 31 -2 3.5411 0.2156
17 31 1 0.4900 0.3088
17 31 4 -3.0009 0.1197
17 32 -3 2.1807 -1.4759
17 32 0 8.4352 0.0025
17 32 3 2.7563 1.6793
17 33 -1 -1.5802 1.9341
17 33 2 -2.7712 0.7195
18 1 -10 0.1812 -6.5144
18 1 -7 -5.7063 -11.4794
18 1 -4 -8.3381 8.5381
18 1 -1 -33.4440 10.9304
18 1 2 -2.4845 -11.1476
18 1 5 8.4062 -8.5974
18 1 8 -1.1158 10.8434
18 1 11 -2.3474 3.4864
18 2 -8 -6.1322 -0.3734
18 2 -5 6.4248 0.6140
18 2 -2 -19.2097 1.3583
18 2 1 3.1113 -0.7037
18 2 4 -0.4007 -1.1431
18 2 7 -3.4459 0.8378
18 2 10 0.8493 0.7604
18 3 -9 -2.4826 3.9281
18 3 -6 -8.5728 -1.5072
18 3 -3 -0.9766 -4.7657
18 3 0 -3.6759 2.4062
18 3 3 3.2536 4.8903
18 3 6 1.0754 -2.7209
18 3 9 2.8535 -3.3061
18 4 -10 -7.6993 1.4745
18 4 -7 2.8104 2.2779
18 4 -4 2.6476 -0.8820
18 4 -1 -15.1046 -2.6537
18 4 2 0.2502 1.0380
18 4 5 -4.7501 1.7059
18 4 8 -3.5051 -1.7421
18 4 11 -0.1097 -2.3976
18 5 -8 -1.3855 -2.3200
18 5 -5 3.5224 1.3529
18 5 -2 -14.1285 3.0488
18 5 1 23.9448 -0.9710
18 5 4 -10.8840 -1.9177
18 5 7 -0.5328 1.4602
18 5 10 -2.8711 0.5820
18 6 -9 8.8574 -4.2446
18 6 -6 6.4260 0.7750
18 6 -3 -1.2026 3.2121
18 6 0 9.1523 -0.6478
18 6 3 7.6338 -2.6633
18 6 6 -2.7422 0.1146
18 6 9 2.1790 2.7607
18 7 -10 -0.8744 0.0201
18 7 -7 -0.7100 0.7323
18 7 -4 -0.7253 1.0533
18 7 -1 2.8942 -0.7529
18 7 2 -20.8598 -1.2283
18 7 5 5.6031 0.9634
18 7 8 1.0054 1.8625
18 8 -8 -1.9470 2.2085
18 8 -5 3.5907 -2.0494
18 8 -2 -1.6300 -2.9754
18 8 1 3.4100 2.1190
18 8 4 -0.1853 2.7623
18 8 7 -2.8669 -1.8688
18 8 10 2.4159 -0.7677
18 9 -9 -5.2805 0.3984
18 9 -6 5.2520 -1.4203
18 9 -3 0.4464 0.5223
18 9 0 -7.3023 -0.0085
18 9 3 -4.7175 -0.1658
18 9 6 -0.2245 0.3132
18 9 9 0.7776 -2.0224
18 10 -7 8.7045 0.5286
18 10 -4 -1.8206 -0.4544
18 10 -1 8.4500 0.0012
18 10 2 -5.0962 0.3023
18 10 5 -6.5658 0.1513
18 10 8 4.9186 0.0381
18 11 -8 1.7816 -0.8750
18 11 -5 2.8401 0.5626
18 11 -2 -2.2666 1.7533
18 11 1 -6.8162 -1.7794
18 11 4 2.7511 -1.9209
18 11 7 -6.5634 1.2838
18 11 10 18.8290 1.9702
18 12 -9 -7.0870 -1.0210
18 12 -6 2.5189 0.1534
18 12 -3 -1.1554 -0.2167
18 12 0 4.8625 -0.0154
18 12 3 4.4749 0.1740
18 12 6 3.5644 0.3619
18 12 9 -7.4539 1.3075
18 13 -10 -2.6023 -0.9674
18 13 -7 6.4808 -0.6208
18 13 -4 1.2807 -0.7819
18 13 -1 -3.0416 0.2649
18 13 2 8.9325 0.9355
18 13 5 -4.6053 -0.5931
18 13 8 11.0754 -0.5883
18 14 -8 2.1396 0.1553
18 14 -5 -3.2274 0.0876
18 14 -2 4.6712 -0.2540
18 14 1 -5.0559 0.3767
18 14 4 -1.5571 -0.2659
18 14 7 -6.5558 0.3746
18 15 -9 -0.1978 -0.2190
18 15 -6 -5.1734 0.6059
18 15 -3 5.6596 0.6599
18 15 0 -7.0493 -0.7331
18 15 3 -4.8213 -0.3187
18 15 6 2.0734 -0.2034
18 15 9 -8.7286 -1.7204
18 16 -7 -5.0905 0.6206
18 16 -4 3.7493 -0.7788
18 16 -1 -6.7442 0.3689
18 16 2 -3.7488 0.3497
18 16 5 -8.1479 -0.6486
18 16 8 0.5936 -0.1133
18 17 -8 5.9487 0.0219
18 17 -5 2.4846 -0.2718
18 17 -2 -7.2830 -0.5905
18 17 1 -5.0159 -0.2502
18 17 4 3.5163 -0.4794
18 17 7 -3.3673 -0.8155
18 18 -9 -3.5903 -2.6803
18 18 -6 -3.4814 -0.8860
18 18 -3 0.6876 -0.6371
18 18 0 -2.5406 1.9553
18 18 3 0.8422 -0.0372
18 18 6 -5.9400 0.0626
18 19 -7 -3.5902 -0.4485
18 19 -4 -1.4444 1.4595
18 19 -1 0.8567 0.0403
18 19 2 -0.2533 -1.2132
18 19 5 -8.9357 0.2151
18 19 8 1.5189 -0.3633
18 20 -8 9.3575 -1.1548
18 20 -5 1.6634 0.3009
18 20 -2 -5.8230 -0.6618
18 20 1 0.3564 0.4061
18 20 4 6.1558 0.9713
18 20 7 -1.6258 -0.1761
18 21 -6 2.3368 0.3668
18 21 -3 1.6957 0.3804
18 21 0 8.7854 -0.0640
18 21 3 -0.2279 -0.5119
18 21 6 -5.3977 -1.3538
18 22 -7 -6.0355 -0.8536
18 22 -4 -0.9457 -0.7755
18 22 -1 1.1936 -0.5060
18 22 2 3.6804 0.3341
18 22 5 -6.7998 1.8260
18 22 8 -2.6016 -2.0516
18 23 -5 0.2538 -0.8707
18 23 -2 -2.4323 -0.7077
18 23 1 -5.9743 -0.0838
18 23 4 -1.5398 -0.6588
18 24 -6 6.0623 -0.9578
18 24 -3 -4.8277 -0.9992
18 24 0 -0.2531 0.4645
18 24 3 1.2322 0.6139
18 24 6 -14.1396 -0.8522
18 25 -4 -4.9156 -0.3090
18 25 -1 5.1214 0.6697
18 25 2 9.2903 0.0769
18 25 5 0.0248 -0.2337
18 26 -5 -11.3392 -0.9310
18 26 -2 3.8993 0.7418
18 26 1 6.7376 0.6448
18 26 4 -6.4062 0.5769
18 27 -3 -1.6843 0.1247
18 27 0 -6.6815 -0.8596
18 27 3 5.2081 -1.7009
18 27 6 -2.8849 1.6383
18 28 -4 -0.7784 -1.0511
18 28 -1 3.2226 -0.0904
18 28 2 -7.6937 0.8021
18 28 5 -0.0656 -1.0488
18 29 -5 -8.3575 0.6623
18 29 -2 4.7627 1.3250
18 29 1 0.6103 -0.7000
18 29 4 -4.7702 0.7371
18 30 -3 6.5131 1.7227
18 30 0 5.4569 -0.1378
18 30 3 2.1867 -1.3646
18 31 -1 1.4931 -0.0993
18 31 2 -7.5214 1.0272
18 32 -2 3.8805 -1.8946
18 32 1 -1.4041 0.5167
18 33 0 8.2192 -2.7348
19 1 -9 -4.9418 6.5531
19 1 -6 -8.8150 -7.5287
19 1 -3 -12.6388 -8.3257
19 1 0 -2.1380 9.7893
19 1 3 4.4826 7.4287
19 1 6 4.7726 -8.9828
19 1 9 -0.3213 -3.8080
19 2 -10 -0.4065 -0.4951
19 2 -7 1.6443 -2.7441
19 2 -4 1.3117 -2.1606
19 2 -1 -38.9257 2.2613
19 2 2 -0.7668 1.9028
19 2 5 -0.9345 -2.5884
19 2 8 1.8156 -0.6422
19 2 11 -2.4755 0.3780
19 3 -8 -2.7037 -2.7027
19 3 -5 10.2533 0.8123
19 3 -2 -11.6207 4.1428
19 3 1 19.6527 -0.6736
19 3 4 -6.8498 -2.4597
19 3 7 -7.7782 1.4232
19 3 10 -0.2779 0.7320
19 4 -9 2.8753 -2.6142
19 4 -6 5.0382 -0.9642
19 4 -3 7.9634 3.2687
19 4 0 5.1203 0.7759
19 4 3 12.5440 -3.1864
19 4 6 -4.0590 -0.8180
19 4 9 0.8411 1.6093
19 5 -10 -3.3580 0.1000
19 5 -7 -1.5364 0.6709
19 5 -4 6.2729 2.1118
19 5 -1 6.4699 -2.1160
19 5 2 1.0112 -2.6146
19 5 5 4.8840 1.6408
19 5 8 -0.3555 1.4278
19 6 -8 4.1801 3.4615
19 6 -5 1.4974 -1.6339
19 6 -2 -1.5381 -3.8709
19 6 1 22.4954 2.0735
19 6 4 -7.6844 2.9031
19 6 7 2.6680 -2.1329
19 6 10 -7.9738 1.7918
19 7 -9 3.5915 -0.9454
19 7 -6 8.9142 -2.7734
19 7 -3 -3.3946 0.7410
19 7 0 -0.2685 2.0669
19 7 3 -3.8332 -0.3148
19 7 6 1.6532 -1.7165
19 7 9 4.1782 -0.1727
19 8 -10 -3.2537 -1.5322
19 8 -7 8.2305 1.7513
19 8 -4 -3.5749 2.3538
19 8 -1 7.3726 -0.8749
19 8 2 -16.8804 -2.6174
19 8 5 4.8041 1.0819
19 8 8 3.1734 1.8619
19 9 -8 4.6125 0.5939
19 9 -5 0.9953 0.5984
19 9 -2 -12.7255 0.1873
19 9 1 -3.0173 -0.6042
19 9 4 2.5798 0.2854
19 9 7 -7.4533 0.4908
19 9 10 12.8352 -0.3474
19 10 -9 -3.1531 -0.1055
19 10 -6 4.9842 -0.2379
19 10 -3 4.2129 0.0637
19 10 0 2.0126 0.2052
19 10 3 -0.8218 -0.4762
19 10 6 1.3933 0.6625
19 10 9 -10.4198 -0.7964
19 11 -10 -1.9783 2.8449
19 11 -7 6.4212 -1.6120
19 11 -4 -1.9773 -0.7460
19 11 -1 6.9655 1.2445
19 11 2 1.2085 0.7701
19 11 5 -13.8583 -0.9457
19 11 8 8.8581 0.8389
19 12 -8 -0.4328 0.6459
19 12 -5 -6.3895 -0.5639
19 12 -2 4.6412 -1.0001
19 12 1 -2.3255 0.2719
19 12 4 1.2611 0.9261
19 12 7 -3.7133 -0.3923
19 12 10 8.3147 4.8371
19 13 -9 -4.1385 1.4849
19 13 -6 -4.7659 0.0438
19 13 -3 -4.6758 0.7459
19 13 0 -3.6110 -0.5667
19 13 3 0.0100 0.0530
19 13 6 1.2376 0.3296
19 13 9 -3.6635 -0.9912
19 14 -7 -3.0794 1.0996
19 14 -4 -2.5080 -0.2417
19 14 -1 -2.4319 -0.1445
19 14 2 2.1801 0.3964
19 14 5 1.0950 -0.9481
19 14 8 -5.4031 -0.9994
19 15 -8 3.4067 -0.0377
19 15 -5 4.5058 0.0972
19 15 -2 0.0142 0.8291
19 15 1 -9.1891 0.6073
19 15 4 -7.4144 -1.4671
19 15 7 -0.2087 -1.2138
19 16 -6 -7.4381 0.6947
19 16 -3 7.5685 -0.1894
19 16 0 -5.6199 0.0358
19 16 3 -4.4633 0.1096
19 16 6 2.8163 0.5127
19 16 9 -10.4819 3.3525
19 17 -7 -3.1055 -0.4117
19 17 -4 2.7267 -0.3204
19 17 -1 -5.0290 0.1759
19 17 2 -5.4486 0.2658
19 17 5 -15.7567 -0.0727
19 17 8 -0.1136 0.6401
19 18 -8 8.8142 -0.6672
19 18 -5 2.0953 0.3554
19 18 -2 -8.9805 -0.1995
19 18 1 -0.7749 -0.4713
19 18 4 7.7984 0.4446
19 18 7 -2.5777 -0.1307
19 19 -6 1.9189 0.3533
19 19 -3 3.0152 0.6426
19 19 0 1.7899 0.1540
19 19 3 2.2133 -0.9718
19 19 6 -6.9100 0.6179
19 20 -7 -3.4159 0.7523
19 20 -4 -3.1645 -0.4832
19 20 -1 -2.3301 -0.9765
19 20 2 -1.3352 0.2899
19 20 5 -8.1053 0.5797
19 21 -8 2.9178 -0.3816
19 21 -5 3.3499 -0.5262
19 21 -2 -3.3235 -0.8311
19 21 1 -4.8552 0.7085
19 21 4 -3.0203 0.1796
19 21 7 -1.7238 -0.5606
19 22 -6 3.5178 -0.1687
19 22 -3 -0.8272 -0.5588
19 22 0 2.5947 0.3732
19 22 3 -4.0787 0.7920
19 22 6 -1.4965 -1.1996
19 23 -7 -4.8471 -2.2602
19 23 -4 -0.5705 0.8302
19 23 -1 3.8254 -0.3818
19 23 2 10.3057 -0.5706
19 23 5 -0.7903 1.7049
19 24 -5 -5.5067 -0.2191
19 24 -2 -1.6525 0.0139
19 24 1 -2.5383 0.2830
19 24 4 -4.7892 -1.1075
19 24 7 -3.7746 2.8671
19 25 -6 5.0544 -0.6581
19 25 -3 -3.8224 -0.8202
19 25 0 -9.8037 0.4102
19 25 3 6.0291 0.5990
19 25 6 -11.9639 -1.0389
19 26 -4 1.8755 -0.7100
19 26 -1 0.5927 1.0518
19 26 2 1.0353 -0.1933
19 26 5 1.0476 -0.1047
19 27 -5 -9.7698 0.5856
19 27 -2 8.7802 0.1612
19 27 1 4.3056 -0.4213
19 27 4 -0.1112 -0.8412
19 28 -3 3.0582 0.6400
19 28 0 -4.9793 -0.0798
19 28 3 0.0166 -1.5530
19 29 -4 -0.8597 0.0918
19 29 -1 2.5327 -0.1545
19 29 2 -12.8882 0.0391
19 30 -2 4.1872 1.4256
19 30 1 -2.1847 -1.2651
19 30 4 -3.7486 1.5071
19 31 -3 3.8141 -1.1522
19 31 0 9.4389 -2.0003
19 31 3 2.3975 0.3725
19 32 -1 -1.4352 1.7555
19 32 2 4.6590 1.9817
20 1 -8 -4.8366 0.1673
20 1 -5 1.3440 -1.0502
20 1 -2 2.2863 -0.3436
20 1 1 -7.2355 1.0878
20 1 4 -0.4248 0.8492
20 1 7 -8.9096 -1.0176
20 1 10 -3.5169 -0.3353
20 2 -9 -3.0867 2.8470
20 2 -6 -6.9405 -5.8640
20 2 -3 7.1324 -3.6238
20 2 0 7.8965 6.8917
20 2 3 10.5620 2.9251
20 2 6 -0.3012 -6.3690
20 2 9 -3.2239 -2.2140
20 3 -10 2.5822 0.0110
20 3 -7 0.9560 1.9470
20 3 -4 9.0308 -1.7491
20 3 -1 -3.6485 -2.3814
20 3 2 10.4631 1.7008
20 3 5 -3.5548 1.1921
20 3 8 1.7673 -2.3696
20 3 11 3.4822 -7.5734
20 4 -8 4.0038 1.4896
20 4 -5 7.0361 1.0907
20 4 -2 -1.9089 -1.5968
20 4 1 26.6737 -0.7805
20 4 4 -9.0976 1.5456
20 4 7 0.9793 0.3242
20 4 10 -3.1247 0.5506
20 5 -9 3.0883 -1.9020
20 5 -6 11.4665 -3.5064
20 5 -3 2.1459 2.2822
20 5 0 4.6064 3.2087
20 5 3 8.9004 -3.0840
20 5 6 -0.0552 -2.6606
20 5 9 -1.3147 2.6672
20 6 -10 -0.6702 -1.5375
20 6 -7 1.5526 -3.1318
20 6 -4 2.1885 5.3001
20 6 -1 2.0163 2.3806
20 6 2 -5.3189 -5.4719
20 6 5 8.3092 -1.3094
20 6 8 3.2865 4.6809
20 7 -8 8.8126 2.9784
20 7 -5 -0.4345 0.1504
20 7 -2 -1.6559 -3.4700
20 7 1 8.4777 0.4216
20 7 4 -0.0176 3.2602
20 7 7 -7.9888 -0.8419
20 7 10 -0.9371 -1.3104
20 8 -9 0.8176 2.1542
20 8 -6 4.7637 -0.8995
20 8 -3 3.9974 -1.3717
20 8 0 -2.3817 0.9638
20 8 3 -15.6894 1.2454
20 8 6 1.5615 -0.5143
20 8 9 -2.9586 -2.2057
20 9 -10 0.2202 1.9613
20 9 -7 4.2030 1.0182
20 9 -4 -4.6071 -0.0216
20 9 -1 10.4472 -1.0916
20 9 2 -5.2169 -0.4258
20 9 5 -4.2547 0.8393
20 9 8 2.4123 -0.4079
20 10 -8 2.5870 0.5945
20 10 -5 -8.2153 -0.5259
20 10 -2 -12.9489 0.3341
20 10 1 -2.4712 0.5606
20 10 4 1.2825 -0.0796
20 10 7 -3.3227 -0.8194
20 10 10 8.7160 6.0070
20 11 -9 -2.3471 0.1973
20 11 -6 -4.8793 -0.2759
20 11 -3 -4.7714 1.1956
20 11 0 4.3295 0.9177
20 11 3 5.1427 -1.2530
20 11 6 -0.9593 0.1641
20 11 9 -7.4813 1.1343
20 12 -7 -3.9687 0.4283
20 12 -4 -10.1895 1.2212
20 12 -1 5.3198 0.3659
20 12 2 -0.9342 -0.8803
20 12 5 -4.8724 -0.2223
20 12 8 -1.7861 1.2542
20 13 -8 -5.5325 0.0313
20 13 -5 -1.6062 -0.2486
20 13 -2 4.8618 -0.5329
20 13 1 -4.1415 1.3374
20 13 4 -4.6382 0.9737
20 13 7 2.3427 -1.1211
20 14 -9 -5.2614 -0.2538
20 14 -6 -6.8280 0.2221
20 14 -3 3.2497 -0.0425
20 14 0 -6.8731 -1.2062
20 14 3 -6.3599 0.4351
20 14 6 5.5204 0.3517
20 14 9 -4.4419 -0.2235
20 15 -7 -4.5908 -0.7683
20 15 -4 4.0216 -1.2152
20 15 -1 -1.0053 0.2438
20 15 2 -5.5821 1.5872
20 15 5 -4.3300 -0.9091
20 15 8 -11.2839 -0.7293
20 16 -8 5.3589 0.1470
20 16 -5 2.4769 -0.0282
20 16 -2 -4.0173 0.8401
20 16 1 -5.1943 -0.6349
20 16 4 1.5771 -0.7855
20 16 7 4.8527 -0.0720
20 17 -6 -0.8391 1.5222
20 17 -3 2.8444 0.2615
20 17 0 -4.0959 -0.4326
20 17 3 -1.6913 -0.2632
20 17 6 -6.0218 1.2001
20 18 -7 -1.1910 1.5435
20 18 -4 -1.2704 -0.3171
20 18 -1 -3.8470 -1.1144
20 18 2 -5.4398 0.0087
20 18 5 -8.4479 0.4494
20 18 8 -1.1306 -0.0053
20 19 -8 3.2246 -1.2729
20 19 -5 6.1788 -0.2304
20 19 -2 -8.3417 0.4877
20 19 1 -0.8897 1.3484
20 19 4 -2.3793 0.1259
20 19 7 -3.0960 -1.8023
20 20 -6 4.8616 0.0951
20 20 -3 5.1601 0.7095
20 20 0 0.9472 -0.5291
20 20 3 0.8453 -0.2117
20 20 6 4.2790 1.0870
20 21 -7 -0.0661 -1.1303
20 21 -4 -1.7541 -0.1980
20 21 -1 -1.4685 -0.5111
20 21 2 0.5059 0.4523
20 21 5 -3.4739 -0.3259
20 22 -5 -1.5740 0.9396
20 22 -2 -2.9818 -0.3745
20 22 1 -6.1738 -0.8250
20 22 4 -6.1146 0.0046
20 22 7 -2.6270 2.1302
20 23 -6 4.4428 0.0995
20 23 -3 -4.1914 -0.6892
20 23 0 -4.4087 0.0637
20 23 3 -2.8277 1.0551
20 23 6 -4.3253 -0.3945
20 24 -4 4.5449 1.1684
20 24 -1 0.1484 0.1503
20 24 2 6.7567 -0.2435
20 24 5 8.3260 0.3115
20 25 -5 -5.8654 0.6470
20 25 -2 5.4951 -0.3364
20 25 1 4.8932 0.7562
20 25 4 4.7184 -1.5056
20 26 -3 -1.3798 -0.3159
20 26 0 -11.6562 1.0925
20 26 3 6.5442 0.4998
20 26 6 -5.3496 -1.6973
20 27 -4 2.0867 -0.4151
20 27 -1 -1.6015 0.2498
20 27 2 -9.1350 -2.0830
20 27 5 0.4882 2.6937
20 28 -2 4.5459 -0.4740
20 28 1 -5.1283 -1.5975
20 28 4 -0.8143 -1.9491
20 29 -3 6.2772 -1.1511
20 29 0 1.0849 -0.4136
20 29 3 -3.6271 1.1960
20 30 -1 1.2473 1.6325
20 30 2 0.0555 0.6622
20 31 -2 1.8059 1.3993
20 31 1 -0.5284 -0.8923
21 1 -10 16.2550 0.9759
21 1 -7 0.5109 0.6479
21 1 -4 7.0180 -4.3445
21 1 -1 -15.6729 0.1806
21 1 2 3.0891 4.9301
21 1 5 -6.9606 0.2307
21 1 8 -1.8886 -3.8918
21 1 11 0.5910 -2.9256
21 2 -8 -0.4794 6.2462
21 2 -5 6.5585 4.2784
21 2 -2 7.8270 -8.0215
21 2 1 10.0037 -3.7888
21 2 4 0.5898 8.2659
21 2 7 -7.9573 1.5920
21 2 10 2.1096 -7.3131
21 3 -9 -1.7279 3.2840
21 3 -6 2.1572 -3.4652
21 3 -3 10.1440 -1.5991
21 3 0 4.6091 2.9677
21 3 3 12.7607 0.6742
21 3 6 -1.9684 -2.7711
21 3 9 -7.5037 -0.9417
21 4 -7 -5.1052 -4.7402
21 4 -4 10.7218 2.7072
21 4 -1 7.2694 4.8701
21 4 2 10.0067 -3.2530
21 4 5 -0.5794 -4.3085
21 4 8 1.1434 3.4646
21 5 -8 5.6718 1.9743
21 5 -5 1.0803 0.2797
21 5 -2 4.0867 -2.7628
21 5 1 7.4291 -0.7564
21 5 4 -3.7905 1.9025
21 5 7 -5.0929 0.0346
21 5 10 -1.8899 0.8644
21 6 -9 0.6962 2.5808
21 6 -6 2.3065 -1.4754
21 6 -3 -2.1666 -3.2567
21 6 0 1.6369 2.4298
21 6 3 -11.4596 2.4654
21 6 6 3.2512 -2.1673
21 6 9 -2.5556 -0.7091
21 7 -10 2.8384 -0.6789
21 7 -7 2.9996 -0.6548
21 7 -4 -4.1381 1.1324
21 7 -1 -0.8261 0.8504
21 7 2 0.0166 -1.2511
21 7 5 1.6412 -0.4355
21 7 8 0.8608 -0.7201
21 8 -8 6.9604 -0.6525
21 8 -5 -3.6754 1.6845
21 8 -2 -9.4995 1.0516
21 8 1 1.1872 -0.7277
21 8 4 0.3473 -0.2394
21 8 7 -7.5304 0.7979
21 8 10 2.7792 -1.1593
21 9 -9 -2.1057 -1.0957
21 9 -6 -4.1717 0.0837
21 9 -3 5.9301 1.8321
21 9 0 6.5146 0.8631
21 9 3 -6.7413 -2.1826
21 9 6 -2.3284 -0.5747
21 9 9 -5.7078 1.5761
21 10 -7 -7.1241 0.8569
21 10 -4 -14.2686 1.1665
21 10 -1 5.7013 -1.2458
21 10 2 -4.7204 -0.9214
21 10 5 -4.6470 1.6150
21 10 8 0.3405 0.9942
21 11 -8 -8.5913 0.8569
21 11 -5 -8.6068 -2.3839
21 11 -2 -3.3397 -2.4528
21 11 1 2.5421 2.6207
21 11 4 2.7574 2.2514
21 11 7 1.3916 -2.8046
21 12 -9 -5.3220 2.2455
21 12 -6 -6.6590 -0.6580
21 12 -3 -6.7750 -0.3034
21 12 0 -3.5966 0.5060
21 12 3 2.5734 0.1345
21 12 6 2.1225 -0.1978
21 12 9 0.1487 0.0701
21 13 -7 -8.7257 0.0295
21 13 -4 -4.0858 0.7926
21 13 -1 10.4749 -0.1577
21 13 2 -3.0398 -0.7518
21 13 5 4.0595 -0.3682
21 13 8 -14.9502 0.1015
21 14 -8 -1.2985 0.3184
21 14 -5 -1.0773 0.2801
21 14 -2 -1.0602 1.6722
21 14 1 -4.1958 0.0159
21 14 4 -0.8476 -0.8221
21 14 7 9.0631 0.8285
21 15 -6 -4.0560 0.9891
21 15 -3 5.6018 0.0928
21 15 0 -3.6862 -1.3808
21 15 3 -6.7969 -0.0606
21 15 6 1.5038 0.6821
21 15 9 -3.1475 4.0985
21 16 -7 1.1777 -0.0804
21 16 -4 7.4546 -1.5062
21 16 -1 -0.8817 -1.0056
21 16 2 -6.3856 1.9934
21 16 5 -5.3195 1.4681
21 16 8 -4.2497 -0.6679
21 17 -8 0.4368 -1.5020
21 17 -5 2.9960 -0.7637
21 17 -2 -6.8608 0.5054
21 17 1 -2.4277 0.6568
21 17 4 3.2661 -0.0652
21 17 7 1.5531 -0.3067
21 18 -6 5.1928 0.1544
21 18 -3 2.2821 1.0683
21 18 0 -2.8649 -0.6536
21 18 3 4.3309 -0.1087
21 18 6 -5.4391 0.3386
21 19 -7 1.1847 1.4614
21 19 -4 -5.5652 0.1165
21 19 -1 -1.9925 0.1569
21 19 2 -5.1943 -0.5374
21 19 5 1.5190 -1.7839
21 20 -5 4.4337 0.7585
21 20 -2 -3.2791 0.5145
21 20 1 0.6635 -0.0472
21 20 4 -8.8678 -0.1198
21 21 -6 9.4447 1.1626
21 21 -3 -1.1977 -0.5861
21 21 0 -0.4889 -1.2802
21 21 3 -5.6549 0.4382
21 22 -7 4.1980 -3.4099
21 22 -4 5.7588 0.3473
21 22 -1 -0.9993 -0.0011
21 22 2 0.5891 1.2628
21 22 5 6.6480 -1.0543
21 23 -5 -3.7226 1.7609
21 23 -2 -0.6354 0.9060
21 23 1 0.6394 -0.8394
21 23 4 3.8728 0.4638
21 24 -6 -2.3825 0.4127
21 24 -3 -2.4254 0.4878
21 24 0 -9.4830 0.2008
21 24 3 7.5545 0.1101
21 24 6 -5.9548 -0.5605
21 25 -4 1.4345 0.0704
21 25 -1 -3.5811 -0.7336
21 25 2 -4.6840 -0.8488
21 25 5 9.7342 -0.1413
21 26 -5 0.2740 0.5193
21 26 -2 6.0926 -2.5761
21 26 1 -2.3528 0.6482
21 26 4 8.5540 -1.8413
21 27 -3 3.1522 -0.7450
21 27 0 -4.9138 1.4417
21 27 3 -1.6344 1.9264
21 28 -4 0.2869 0.4516
21 28 -1 -0.5695 1.6893
21 28 2 -4.1565 -2.4451
21 29 -2 -0.6866 1.1306
21 29 1 -5.5048 -1.7942
21 30 0 2.3645 -2.4748
21 31 -1 -0.1207 0.9001
22 1 -9 1.5594 6.8827
22 1 -6 -2.0070 -1.6442
22 1 -3 15.6268 -7.9400
22 1 0 8.8153 2.5610
22 1 3 5.2463 7.8145
22 1 6 -0.9795 -3.8591
22 1 9 -10.5028 -6.3593
22 2 -10 10.4456 0.5158
22 2 -7 -3.4288 -3.6241
22 2 -4 7.2029 -0.2679
22 2 -1 7.0579 5.5934
22 2 2 8.6725 -0.3346
22 2 5 -8.2538 -4.2626
22 2 8 -3.9110 1.1729
22 3 -8 -1.4632 2.2691
22 3 -5 -1.2612 6.1018
22 3 -2 4.1756 -4.2616
22 3 1 2.0364 -6.3759
22 3 4 5.5174 3.9047
22 3 7 -7.3472 4.6837
22 3 10 8.0949 -4.2756
22 4 -9 -2.8823 4.4396
22 4 -6 -1.2931 0.9266
22 4 -3 -2.7739 -5.1446
22 4 0 4.7211 -0.5856
22 4 3 0.4453 4.1553
22 4 6 -0.6171 0.4867
22 4 9 -7.8058 -1.5128
22 5 -10 0.4189 0.5059
22 5 -7 -4.2118 -4.7437
22 5 -4 4.6015 -0.2022
22 5 -1 -6.1963 5.8645
22 5 2 5.5670 0.4279
22 5 5 -7.9941 -5.0351
22 5 8 4.7797 0.7549
22 6 -8 1.2883 -1.6795
22 6 -5 0.4878 0.3072
22 6 -2 6.5977 0.9275
22 6 1 -4.1657 -0.7634
22 6 4 0.1133 -0.5259
22 6 7 -11.6869 0.3351
22 6 10 1.8437 -3.1358
22 7 -9 -2.0481 0.3994
22 7 -6 -6.6242 -0.2266
22 7 -3 3.8501 -0.2401
22 7 0 3.7972 1.2995
22 7 3 -16.3052 0.1524
22 7 6 -0.2276 -1.5731
22 7 9 -2.0533 0.2294
22 8 -10 5.4650 -1.1429
22 8 -7 -3.9897 1.2879
22 8 -4 -13.1782 -0.1702
22 8 -1 2.1402 -1.8274
22 8 2 4.7289 -0.0273
22 8 5 0.8578 1.4965
22 8 8 -4.6529 -1.7164
22 9 -8 -2.3984 0.0723
22 9 -5 -4.2661 -1.3062
22 9 -2 -6.4548 -0.5976
22 9 1 3.7448 1.6545
22 9 4 0.8181 0.2147
22 9 7 4.2267 -1.2007
22 10 -9 -6.5176 -0.9773
22 10 -6 -6.3599 -0.3409
22 10 -3 1.6132 1.3140
22 10 0 6.9327 1.0796
22 10 3 6.1962 -1.7108
22 10 6 0.0536 -1.1823
22 10 9 2.2422 2.3811
22 11 -7 -9.3120 1.0591
22 11 -4 -14.6322 2.2940
22 11 -1 7.1460 -1.3316
22 11 2 -5.2085 -2.0712
22 11 5 3.6607 2.0338
22 11 8 -7.7669 0.7212
22 12 -8 -7.2862 0.1767
22 12 -5 -7.3779 0.0867
22 12 -2 -1.7189 -0.9126
22 12 1 5.2477 0.5468
22 12 4 9.1385 0.9821
22 12 7 0.3122 0.0091
22 13 -9 -4.2694 -1.4095
22 13 -6 -3.5554 -0.8290
22 13 -3 -1.4994 -0.6198
22 13 0 -6.0803 0.1997
22 13 3 -1.0112 0.0927
22 13 6 3.7901 -0.1109
22 13 9 -1.0351 0.7419
22 14 -7 -1.3363 -1.0875
22 14 -4 9.1378 -1.5668
22 14 -1 9.0905 -0.8150
22 14 2 -1.6759 1.9515
22 14 5 0.7816 0.7476
22 14 8 -7.1698 -0.3778
22 15 -8 -1.4106 -0.3378
22 15 -5 -3.0606 -1.8887
22 15 -2 -3.9630 1.0855
22 15 1 -1.3467 0.7349
22 15 4 3.9089 -0.4627
22 15 7 8.6211 1.0905
22 16 -6 -0.1080 0.2770
22 16 -3 3.2595 1.0945
22 16 0 1.3639 -1.2018
22 16 3 -0.6775 -0.6454
22 16 6 -8.1756 -0.1752
22 17 -7 0.1531 1.8835
22 17 -4 -0.3988 0.6172
22 17 -1 1.2159 -0.4470
22 17 2 -2.1650 -0.8682
22 17 5 4.9253 0.9613
22 17 8 -1.8747 -2.8398
22 18 -8 -2.0563 -3.1303
22 18 -5 5.9743 0.4354
22 18 -2 -4.5320 0.6839
22 18 1 1.3282 0.3933
22 18 4 -1.9045 -0.8599
22 18 7 -1.3557 -0.5107
22 19 -6 9.3410 0.3748
22 19 -3 -0.2536 -0.3352
22 19 0 -1.3990 -0.5744
22 19 3 2.2913 0.9971
22 19 6 3.9007 1.0372
22 20 -7 8.3286 -2.7259
22 20 -4 1.5271 -0.4579
22 20 -1 0.1881 1.2414
22 20 2 -5.7847 1.0367
22 20 5 4.0545 -1.8841
22 21 -5 -0.8509 1.3062
22 21 -2 0.9309 0.8835
22 21 1 2.5003 -2.0152
22 21 4 -0.0945 0.2944
22 22 -6 5.8475 0.3916
22 22 -3 -4.7738 -0.2866
22 22 0 -2.5722 -1.9224
22 22 3 -2.6689 -0.6671
22 22 6 1.8112 1.4456
22 23 -4 1.8197 -0.8343
22 23 -1 -2.6283 -0.1706
22 23 2 -6.8007 1.6302
22 23 5 12.5497 -1.9511
22 24 -5 -1.1243 0.2719
22 24 -2 1.2922 0.6013
22 24 1 1.4171 0.8997
22 24 4 11.4259 1.0196
22 25 -3 2.3495 1.2781
22 25 0 -9.1546 0.8799
22 25 3 11.8858 -0.1639
22 26 -4 -2.1024 0.7142
22 26 -1 -3.9496 -0.5852
22 26 2 -6.8963 -1.8480
22 26 5 6.8144 -1.1000
22 27 -2 -0.1979 -2.5738
22 27 1 -10.1338 -0.6749
22 27 4 2.5557 -1.0771
22 28 -3 2.9752 -2.0532
22 28 0 -0.1332 1.4193
22 28 3 -11.1048 2.7032
22 29 -1 0.9169 2.3302
22 29 2 2.7984 -0.2314
22 30 1 1.7267 -0.7125
23 1 -8 -0.8373 7.1813
23 1 -5 -1.7298 11.4832
23 1 -2 8.9313 -10.0290
23 1 1 -0.4466 -11.5555
23 1 4 10.8974 10.4753
23 1 7 -7.4085 7.8521
23 1 10 9.7235 -10.3085
23 2 -9 -1.0566 7.4439
23 2 -6 -1.0776 7.0967
23 2 -3 3.7611 -8.0280
23 2 0 3.6139 -7.4805
23 2 3 4.8911 8.9819
23 2 6 1.5942 5.5019
23 2 9 -8.3609 -7.3789
23 3 -10 -1.2320 1.2626
23 3 -7 -10.5705 -5.0252
23 3 -4 6.9175 -1.5759
23 3 -1 0.1465 6.7679
23 3 2 5.3382 0.9914
23 3 5 -13.1919 -6.2087
23 3 8 2.9875 0.9420
23 4 -8 -7.2002 -3.5013
23 4 -5 -7.1167 -0.0389
23 4 -2 4.3424 3.3609
23 4 1 -14.0213 -1.3365
23 4 4 6.0419 -3.3973
23 4 7 -10.8721 2.1496
23 4 10 9.4788 -0.3307
23 5 -6 -9.4655 1.5801
23 5 -3 -5.1150 -3.6798
23 5 0 8.3737 -0.2204
23 5 3 -10.7357 3.4436
23 5 6 -3.3459 -0.0536
23 5 9 -3.3661 -1.4011
23 6 -10 4.4353 -3.6601
23 6 -7 -0.6317 1.0981
23 6 -4 -4.4602 -2.0407
23 6 -1 -3.7649 0.1290
23 6 2 8.6710 1.9329
23 6 5 -9.1412 -0.4820
23 6 8 -0.6662 -1.9524
23 7 -8 -2.0242 -0.5612
23 7 -5 2.4243 0.6882
23 7 -2 8.3422 -0.0916
23 7 1 -2.3735 -0.3243
23 7 4 -0.9811 -0.1317
23 7 7 2.9792 0.2380
23 8 -9 -5.4695 -3.2881
23 8 -6 -5.3006 -1.7048
23 8 -3 12.9801 2.9564
23 8 0 8.9258 1.4429
23 8 3 -1.5148 -2.5513
23 8 6 2.1105 -1.8582
23 8 9 2.4766 2.4504
23 9 -7 -2.6002 0.2284
23 9 -4 -14.9640 1.5959
23 9 -1 -0.2069 -1.1539
23 9 2 1.8502 -0.9810
23 9 5 5.6929 1.6263
23 9 8 -6.4381 0.2938
23 10 -8 -6.7987 0.0683
23 10 -5 -3.6047 -1.2597
23 10 -2 -0.0162 -2.1346
23 10 1 10.1474 0.6995
23 10 4 8.8057 1.5280
23 10 7 -0.3101 -1.0835
23 11 -9 -3.8030 1.8086
23 11 -6 -0.7168 -0.0755
23 11 -3 -5.2241 -1.3012
23 11 0 -3.9423 0.9301
23 11 3 10.0567 0.6955
23 11 6 1.9782 -0.9579
23 11 9 3.9863 -0.9042
23 12 -7 -4.1113 -0.2959
23 12 -4 0.9825 -0.0721
23 12 -1 10.0750 -1.2884
23 12 2 0.7125 -0.4363
23 12 5 4.3082 1.0722
23 12 8 -7.2428 -0.5386
23 13 -8 1.4109 0.5132
23 13 -5 -8.9371 0.0220
23 13 -2 -3.9796 1.0578
23 13 1 6.0452 0.6468
23 13 4 9.3603 -1.2185
23 13 7 2.1402 1.6973
23 14 -6 -5.5346 -0.8124
23 14 -3 4.9994 1.3983
23 14 0 3.4854 -0.5233
23 14 3 -1.9491 -1.4828
23 14 6 -3.6471 0.6044
23 15 -7 1.6224 1.0258
23 15 -4 5.8816 -0.4655
23 15 -1 2.5027 -0.9911
23 15 2 3.2235 1.0506
23 15 5 -0.9730 2.1945
23 15 8 3.7662 -1.0937
23 16 -8 -7.9037 -2.7713
23 16 -5 0.8920 -1.2542
23 16 -2 -3.2269 -0.1418
23 16 1 0.3725 0.3575
23 16 4 3.1775 -0.0252
23 16 7 1.0110 -0.7821
23 17 -6 3.8153 -1.2530
23 17 -3 1.0258 0.0638
23 17 0 2.7006 0.3218
23 17 3 2.3599 0.0414
23 17 6 -6.0332 -1.4199
23 18 -7 2.7546 -0.4583
23 18 -4 -0.8607 0.5460
23 18 -1 5.5255 1.1019
23 18 2 -2.5492 -1.0202
23 18 5 8.2281 -0.6508
23 19 -5 3.7270 0.1556
23 19 -2 1.9657 0.4371
23 19 1 5.0134 -1.7223
23 19 4 2.0724 -1.0946
23 19 7 1.4511 3.3012
23 20 -6 10.4646 1.9633
23 20 -3 -5.8877 -1.3038
23 20 0 0.1732 -1.6563
23 20 3 -3.2989 1.0572
23 20 6 3.1898 0.6648
23 21 -4 3.7717 -1.5153
23 21 -1 -1.7707 1.0129
23 21 2 -7.8893 1.8857
23 21 5 2.1084 0.2552
23 22 -5 -1.6101 0.1041
23 22 -2 -1.2926 1.7634
23 22 1 0.0600 -0.0406
23 22 4 7.4245 0.0405
23 23 -6 -2.2361 -4.0354
23 23 -3 1.0087 0.7922
23 23 0 -8.8178 -0.3750
23 23 3 11.2290 -1.3817
23 24 -4 -6.3315 -0.6635
23 24 -1 -3.5669 -0.2429
23 24 2 -11.0534 0.2792
23 25 -5 -1.1749 0.4366
23 25 -2 0.5000 -0.5359
23 25 1 -4.5059 -0.1219
23 25 4 8.0653 1.8864
23 26 -3 2.5260 1.4473
23 26 0 -1.5106 0.7534
23 26 3 -0.8565 -0.8410
23 27 -1 -2.0508 0.3561
23 27 2 -2.7146 0.5610
23 28 -2 -3.0500 0.3831
23 28 1 -3.6921 -0.4196
23 29 0 -0.3181 1.6497
24 1 -10 1.2723 0.7547
24 1 -7 -1.3171 -5.6020
24 1 -4 -5.2735 1.6025
24 1 -1 3.6921 6.4582
24 1 2 5.6059 -2.5686
24 1 5 -4.6158 -4.8964
24 1 8 -0.1807 2.6718
24 2 -8 -6.0080 -5.4170
24 2 -5 -11.4035 6.3845
24 2 -2 -0.8347 6.0374
24 2 1 -8.3228 -7.3767
24 2 4 15.1029 -4.8176
24 2 7 -6.5505 8.1207
24 2 10 13.3897 1.7339
24 3 -9 -4.9067 0.9840
24 3 -6 -6.5011 6.8531
24 3 -3 -6.1292 -3.0355
24 3 0 8.1416 -6.9925
24 3 3 -3.3060 4.0242
24 3 6 -3.4251 6.1453
24 3 9 -2.8814 -2.8923
24 4 -7 -6.4543 1.6561
24 4 -4 3.5154 -2.9493
24 4 -1 -6.3875 -1.0531
24 4 2 0.2374 3.2644
24 4 5 -17.6257 0.1608
24 4 8 5.0182 -1.5492
24 5 -8 -8.6820 -0.6214
24 5 -5 -4.6719 -1.7614
24 5 -2 14.1021 -0.1037
24 5 1 -11.3818 1.4277
24 5 4 1.5411 -0.5173
24 5 7 -3.3895 -1.4306
24 6 -9 -1.2945 -1.5225
24 6 -6 -5.9007 -2.0933
24 6 -3 8.5265 0.5346
24 6 0 7.7225 2.1958
24 6 3 -4.5422 -0.0536
24 6 6 0.6301 -2.1177
24 6 9 0.8287 0.1298
24 7 -7 5.2261 -0.1569
24 7 -4 -4.0511 0.6483
24 7 -1 1.7110 0.3779
24 7 2 9.7147 -1.0828
24 7 5 0.4867 -0.7969
24 7 8 -6.3861 1.5305
24 8 -8 -1.3388 1.7679
24 8 -5 2.7404 0.0247
24 8 -2 8.4393 -1.4625
24 8 1 2.4863 -0.3598
24 8 4 -0.8302 1.2132
24 8 7 8.5570 0.3053
24 9 -9 -4.0415 0.7008
24 9 -6 1.6330 -0.4073
24 9 -3 8.9267 -0.5323
24 9 0 3.7649 0.3527
24 9 3 11.9354 0.7286
24 9 6 4.1845 -0.8193
24 9 9 3.8502 -1.2434
24 10 -7 2.0071 -0.3102
24 10 -4 -1.8665 0.6256
24 10 -1 -1.9585 -0.5263
24 10 2 2.5923 -0.2804
24 10 5 5.7578 1.0965
24 10 8 -5.4397 -1.2559
24 11 -8 0.7623 -0.8882
24 11 -5 -5.5652 1.7106
24 11 -2 0.1273 -0.3981
24 11 1 10.9586 -1.0103
24 11 4 11.2611 -0.3524
24 11 7 -6.8190 0.5190
24 12 -6 -1.9947 -0.5358
24 12 -3 -5.0596 1.0869
24 12 0 -2.9338 0.6569
24 12 3 2.7597 -0.6888
24 12 6 -2.8826 0.0809
24 13 -7 1.0394 0.2886
24 13 -4 4.9212 -1.0505
24 13 -1 1.6091 -1.0302
24 13 2 7.7389 1.0462
24 13 5 -3.6379 0.5372
24 13 8 4.3944 1.5268
24 14 -8 -4.9103 0.3604
24 14 -5 -4.6245 -1.9995
24 14 -2 -2.4851 -0.0133
24 14 1 5.4869 1.7459
24 14 4 2.7903 -0.3110
24 14 7 1.4993 -0.7374
24 15 -6 -4.5436 -0.7379
24 15 -3 8.6163 0.3496
24 15 0 8.4070 -0.5623
24 15 3 -2.8990 -1.4338
24 15 6 -6.5158 0.4639
24 16 -7 -3.0377 1.1985
24 16 -4 0.6685 0.8438
24 16 -1 3.3927 0.1830
24 16 2 1.2692 -1.1809
24 16 5 2.9352 0.7077
24 16 8 2.6977 -3.8643
24 17 -5 3.6343 0.5834
24 17 -2 0.1363 -0.0021
24 17 1 2.6444 -1.9397
24 17 4 6.4119 -0.4679
24 17 7 -0.6215 -0.1018
24 18 -6 6.2481 0.0433
24 18 -3 -3.1146 -0.6726
24 18 0 1.3911 0.8919
24 18 3 0.3543 0.9483
24 18 6 -2.2232 -1.1086
24 19 -7 7.9891 -4.2553
24 19 -4 2.1125 -0.9220
24 19 -1 2.4043 0.4864
24 19 2 -2.9165 0.7698
24 19 5 -1.8491 1.7093
24 20 -5 0.7887 -1.7714
24 20 -2 0.4846 -0.0700
24 20 1 -0.4097 -0.3423
24 20 4 5.4461 -1.3331
24 21 -6 4.2620 -2.1563
24 21 -3 -2.8493 -0.5827
24 21 0 -3.5023 -0.8433
24 21 3 1.1381 0.4760
24 22 -4 -3.5982 -1.1215
24 22 -1 -3.5977 1.3202
24 22 2 -8.3391 0.1694
24 22 5 3.1568 -1.2149
24 23 -5 -1.8260 0.5143
24 23 -2 -3.0422 1.7279
24 23 1 -1.0407 0.4321
24 23 4 7.5752 -0.2996
24 24 -3 2.1015 0.6733
24 24 0 -7.8914 0.2515
24 24 3 12.8156 -1.4077
24 25 -4 -3.2694 1.2369
24 25 -1 -4.4127 0.0058
24 26 -2 -0.6248 0.5450
24 26 4 3.1181 2.3710
24 27 -3 2.3259 1.8624
24 27 0 4.4199 1.8228
24 27 3 -7.4465 -2.3378
24 28 -1 0.9396 0.6202
24 28 2 -2.8726 3.3174
25 1 -9 0.3411 1.1109
25 1 -6 -0.6383 10.1264
25 1 -3 -2.8470 -1.3849
25 1 0 -2.2601 -11.4961
25 1 3 6.8263 2.8824
25 1 6 9.6056 9.9372
25 1 9 -2.4307 -4.5181
25 2 -7 -7.1892 0.6905
25 2 -4 -2.4651 -0.6760
25 2 -1 -3.2000 -1.9923
25 2 2 0.3441 0.1707
25 2 5 -6.4384 1.1596
25 2 8 6.0547 -0.5199
25 3 -8 -7.7717 -4.5293
25 3 -5 -12.5525 -1.5692
25 3 -2 2.2111 6.8379
25 3 1 -8.0450 1.0583
25 3 4 4.7088 -6.2093
25 3 7 0.0937 1.3555
25 3 10 8.1388 5.1463
25 4 -9 -3.7927 -1.5649
25 4 -6 -6.5609 -0.0621
25 4 -3 2.1435 -0.1415
25 4 0 11.0169 0.4147
25 4 3 -3.4653 0.3696
25 4 6 -5.8758 -0.5658
25 4 9 2.1937 -1.1363
25 5 -7 5.1205 2.2009
25 5 -4 4.4706 0.6848
25 5 -1 0.8073 -2.1797
25 5 2 -0.1546 -0.8413
25 5 5 -9.0567 1.5146
25 5 8 -3.6021 1.4672
25 6 -8 -0.5342 4.2891
25 6 -5 -3.1627 1.9176
25 6 -2 15.5044 -4.2364
25 6 1 -4.9850 -1.1915
25 6 4 -2.1689 3.2989
25 6 7 3.0700 0.5273
25 7 -9 0.9279 -0.3804
25 7 -6 2.6221 -1.7879
25 7 -3 18.6020 -0.6168
25 7 0 3.7311 1.0926
25 7 3 7.5522 1.3415
25 7 6 8.5341 -0.5890
25 7 9 -0.9344 0.0075
25 8 -7 9.7458 -1.9127
25 8 -4 6.3288 0.1859
25 8 -1 -4.1555 2.5762
25 8 2 7.2015 0.0397
25 8 5 4.3961 -2.6680
25 8 8 -1.3683 1.2361
25 9 -8 -0.6954 -1.2399
25 9 -5 2.2449 0.6069
25 9 -2 5.5066 0.4351
25 9 1 5.1181 -1.2643
25 9 4 -2.9867 0.4654
25 9 7 -0.6519 -0.5538
25 10 -9 2.9693 5.2681
25 10 -6 4.2564 0.9175
25 10 -3 -5.9272 -0.7456
25 10 0 -2.6640 -0.2972
25 10 3 7.7678 1.0994
25 10 6 -2.9548 0.0793
25 11 -7 0.2114 -0.3025
25 11 -4 7.8547 -0.1116
25 11 -1 -5.4368 -0.6408
25 11 2 8.9378 -0.3731
25 11 5 -0.0568 0.2099
25 11 8 -1.6448 0.5359
25 12 -8 2.6761 1.9150
25 12 -5 -3.9127 0.7609
25 12 -2 -0.4435 -0.2242
25 12 1 5.3278 0.7686
25 12 4 4.2999 -0.7799
25 12 7 -2.9404 -0.1886
25 13 -6 -6.7264 0.1504
25 13 -3 6.6047 1.3606
25 13 0 3.9872 -0.5593
25 13 3 -7.1968 -1.1009
25 13 6 -4.0363 1.4139
25 14 -7 -0.3985 1.3667
25 14 -4 -2.3920 0.1961
25 14 -1 -5.3741 -0.2344
25 14 2 2.9811 0.3918
25 14 5 -4.8984 -0.0251
25 14 8 7.4384 1.8943
25 15 -8 -10.2309 -0.1895
25 15 -5 0.7674 -0.0795
25 15 -2 -0.0547 -0.3978
25 15 1 4.7358 -0.3933
25 15 4 2.2634 0.3793
25 15 7 -0.4246 -2.4011
25 16 -6 1.7432 -1.3354
25 16 -3 3.3599 -0.3861
25 16 0 3.2888 1.0478
25 16 3 -3.2404 -0.7740
25 16 6 -3.6461 -0.3373
25 17 -7 0.8436 -1.0357
25 17 -4 1.1071 -0.6909
25 17 -1 3.6749 0.2074
25 17 2 -0.3186 -0.3118
25 17 5 -0.8235 -0.0681
25 18 -5 2.9577 -1.4896
25 18 -2 -0.4213 -0.2707
25 18 1 0.2043 -1.0635
25 18 4 7.6372 0.0778
25 18 7 1.1449 2.6560
25 19 -6 4.1940 1.5562
25 19 -3 -1.5873 0.0173
25 19 0 -0.2422 -0.1100
25 19 3 0.8153 1.0630
25 19 6 -3.4399 -0.6748
25 20 -4 -1.7228 0.5625
25 20 -1 -4.2569 -0.0353
25 20 2 1.3763 -0.3404
25 20 5 -7.9929 2.1274
25 21 -5 -1.4125 0.3413
25 21 -2 -5.8397 -0.2541
25 21 1 -3.9365 1.4435
25 21 4 3.3876 -2.1714
25 22 -3 -0.0585 -1.2517
25 22 0 -7.4683 1.8513
25 22 3 7.7908 0.7061
25 23 -4 -2.6776 -0.8651
25 23 -1 -3.6889 1.1012
25 23 2 -8.0260 -1.3991
25 24 -2 1.3332 1.0116
25 24 1 2.1154 -1.5698
25 25 -3 0.0344 1.4340
25 25 0 2.5356 -0.8172
25 26 -1 -2.7715 1.1435
25 27 -2 -1.1272 2.0365
25 27 1 1.9054 -0.4908
26 1 -8 -2.6888 -9.3344
26 1 -5 -6.2113 2.5456
26 1 -2 -5.2215 13.0256
26 1 1 1.8677 -3.3575
26 1 4 8.8415 -11.1934
26 1 7 8.6236 5.8035
26 1 10 3.6311 12.2413
26 2 -9 -4.4397 -2.5528
26 2 -6 -5.7409 0.1926
26 2 -3 -1.6945 4.3199
26 2 0 2.8522 -1.1725
26 2 3 1.1397 -4.0148
26 2 6 -0.6823 1.8169
26 2 9 3.2995 0.9064
26 3 -7 0.9143 2.4452
26 3 -4 3.5400 -0.7616
26 3 -1 -3.5943 -4.2682
26 3 2 -6.2889 0.8956
26 3 5 -4.4274 3.5064
26 3 8 -4.5155 -0.7440
26 4 -8 -4.2139 1.8937
26 4 -5 -8.0894 1.2577
26 4 -2 8.4313 -2.3516
26 4 1 0.3048 -0.7630
26 4 4 -3.0130 2.1544
26 4 7 -4.9497 -0.2319
26 5 -9 2.1332 0.6491
26 5 -6 -1.3459 -0.7214
26 5 -3 14.3110 -1.7338
26 5 0 2.5661 0.9691
26 5 3 3.1341 1.5875
26 5 6 5.7175 -0.9849
26 5 9 -1.9693 -0.5226
26 6 -7 9.7802 -2.7998
26 6 -4 9.8133 1.4193
26 6 -1 4.5860 3.0748
26 6 2 -0.9378 -1.9263
26 6 5 0.2466 -3.4308
26 6 8 0.2777 3.3093
26 7 -8 4.6562 1.9766
26 7 -5 -2.0640 1.5920
26 7 -2 6.9506 0.2943
26 7 1 -1.8238 -1.3506
26 7 4 -9.7553 0.6799
26 7 7 0.8462 1.6185
26 8 -9 2.0182 4.4819
26 8 -6 6.5948 1.0530
26 8 -3 9.5547 -2.5251
26 8 0 1.1970 -1.4957
26 8 3 9.4993 2.7388
26 8 6 2.5969 1.2462
26 9 -7 3.0702 0.8150
26 9 -4 16.0136 -0.5259
26 9 -1 -13.1902 0.7020
26 9 2 8.5150 0.5437
26 9 5 1.4640 -0.6628
26 9 8 0.3414 -0.9004
26 10 -8 -0.4217 -0.7992
26 10 -5 1.9826 1.4114
26 10 -2 3.3529 0.0051
26 10 1 -2.0488 -1.0561
26 10 4 -4.5363 0.1253
26 10 7 -2.6370 -1.3915
26 11 -6 0.0147 0.3039
26 11 -3 -5.9429 1.6738
26 11 0 -1.0559 0.4113
26 11 3 -9.3616 -0.8056
26 11 6 -3.6860 0.1056
26 12 -7 1.0987 -0.7833
26 12 -4 0.6326 0.4505
26 12 -1 -9.0693 0.1062
26 12 2 6.4990 -0.2340
26 12 5 -1.3846 -1.0647
26 12 8 2.5979 4.9499
26 13 -8 -5.6972 3.9489
26 13 -5 1.5955 -0.6076
26 13 -2 -0.6708 -0.2745
26 13 1 3.0652 0.9993
26 13 4 -1.3669 0.6778
26 13 7 0.3603 -1.0022
26 14 -6 -2.3241 0.9675
26 14 -3 9.6164 -1.0881
26 14 0 -0.8885 -0.9615
26 14 3 -7.0352 0.2698
26 14 6 -2.0352 1.0353
26 15 -7 -2.4914 0.6722
26 15 -4 -2.2660 0.0754
26 15 -1 -4.9307 0.5213
26 15 2 -4.4107 -0.4611
26 15 5 -1.9953 -1.2976
26 16 -5 1.7075 1.2907
26 16 -2 -0.4968 0.0108
26 16 1 2.8536 -0.7372
26 16 4 6.1644 0.2766
26 16 7 1.6601 -1.2077
26 17 -6 3.4292 0.1332
26 17 -3 0.5611 1.1742
26 17 0 0.1039 1.0814
26 17 3 -1.1386 -0.3949
26 17 6 -3.1265 1.4602
26 18 -4 -4.5796 0.3952
26 18 -1 -2.4995 -1.0207
26 18 2 7.4116 0.0331
26 18 5 -7.4611 0.8720
26 19 -5 -1.0810 -1.2494
26 19 -2 -5.9244 -0.7929
26 19 1 -3.5527 1.1494
26 19 4 0.4670 0.7961
26 20 -6 0.0120 -0.4752
26 20 -3 0.8377 -0.2299
26 20 0 -1.0977 0.9635
26 20 3 2.7247 0.4492
26 20 6 -1.5104 -1.4064
26 21 -4 0.5897 0.2525
26 21 -1 -4.3472 -0.1958
26 21 2 3.1372 -1.0821
26 21 5 -3.2944 -1.5364
26 22 -5 0.5956 3.2888
26 22 -2 -2.5369 -1.2345
26 22 1 1.5873 0.1557
26 22 4 7.4110 -2.4482
26 23 -3 -2.1539 -1.9804
26 23 0 -3.0568 1.1846
26 23 3 7.5466 1.2012
26 24 -1 -3.8874 1.7241
26 25 -2 3.1375 1.1771
27 1 -7 1.1870 -1.1474
27 1 -4 -1.7404 -2.0135
27 1 -1 -1.9763 0.6453
27 1 2 0.3839 0.7148
27 1 5 8.8962 -0.9189
27 1 8 0.2123 -1.0184
27 2 -8 -1.3936 -3.5913
27 2 -5 -0.9576 0.9244
27 2 -2 -1.6451 5.7291
27 2 1 7.0127 -0.9366
27 2 4 -2.8333 -4.7632
27 2 7 3.8178 1.7511
27 3 -9 -2.4976 0.8360
27 3 -6 -8.7420 -1.6083
27 3 -3 6.0795 0.4805
27 3 0 4.9081 1.4010
27 3 3 0.3295 -1.3424
27 3 6 -1.1374 -1.4939
27 3 9 2.6590 -1.3407
27 4 -7 5.9521 -2.0446
27 4 -4 4.2974 -0.2039
27 4 -1 4.1926 1.4703
27 4 2 -9.7650 0.4373
27 4 5 -0.7310 -1.0022
27 4 8 -7.2264 -0.4343
27 5 -8 3.3092 1.4303
27 5 -5 -5.6878 3.7785
27 5 -2 3.0344 -0.8424
27 5 1 4.4666 -3.6183
27 5 4 -6.5238 1.1074
27 5 7 -12.1964 3.2424
27 6 -9 1.6605 0.5820
27 6 -6 4.2464 2.9883
27 6 -3 15.9599 -2.0320
27 6 0 -3.2932 -2.9252
27 6 3 4.6451 2.3379
27 6 6 10.0169 2.6682
27 7 -7 4.8753 0.2108
27 7 -4 12.1408 -1.3325
27 7 -1 -4.3095 1.7854
27 7 2 1.7262 1.1397
27 7 5 2.4850 -2.4720
27 7 8 7.7274 0.1849
27 8 -8 -1.8403 -2.7749
27 8 -5 1.9726 -0.4655
27 8 -2 2.6157 2.1853
27 8 1 -4.8234 0.1757
27 8 7 0.4741 -1.1490
27 9 -6 4.2916 0.0107
27 9 -3 -2.6809 -0.6372
27 9 0 1.5549 -0.2281
27 9 3 -2.4709 -0.0528
27 9 6 -3.0860 -0.5377
27 10 -7 -2.4734 -0.4859
27 10 -4 14.2373 1.2555
27 10 -1 -13.7061 0.2972
27 10 2 7.2969 -1.5180
27 10 5 1.1823 0.0523
27 10 8 -1.0360 1.5370
27 11 -8 -0.5746 5.4354
27 11 -5 2.7652 0.4246
27 11 -2 -0.0573 -1.1604
27 11 1 -7.4264 -0.5845
27 11 4 -1.2619 1.4434
27 11 7 -1.0711 0.4151
27 12 -6 -2.5306 1.2873
27 12 -3 5.4056 -0.5715
27 12 0 -4.8340 0.0310
27 12 3 -11.8873 0.9574
27 12 6 0.4635 0.3509
27 13 -7 2.8092 -0.6633
27 13 -4 -6.4473 0.4983
27 13 -1 -8.9834 0.7546
27 13 2 -4.7961 0.0050
27 13 5 4.4883 -1.3096
27 14 -5 2.4922 1.0604
27 14 -2 -0.6961 0.7819
27 14 1 4.0909 0.4746
27 14 4 -1.0076 -0.2778
27 14 7 3.5838 -0.4097
27 15 -6 3.8018 -0.4733
27 15 -3 1.1495 0.8222
27 15 0 -3.9661 0.1287
27 15 3 -4.4082 0.0396
27 15 6 -1.6681 -0.0949
27 16 -4 -3.7804 0.0636
27 16 -1 -4.1323 -0.0813
27 16 2 5.0595 -0.3713
27 16 5 -3.6545 -1.1268
27 17 -5 -0.2282 -0.0175
27 17 -2 -3.6425 -0.4306
27 17 1 0.9105 0.5233
27 17 4 1.6259 1.9170
27 18 -3 3.2656 0.1595
27 18 0 1.2759 -0.3106
27 18 3 3.4422 -0.4610
27 18 6 -3.0834 5.0116
27 19 -4 -5.2026 1.7315
27 19 -1 -4.4852 -0.8706
27 19 2 10.3725 -0.0352
27 19 5 -3.8127 -1.4719
27 20 -5 -2.9642 3.1548
27 20 -2 -4.3662 -0.9412
27 20 1 -0.1880 1.3939
27 20 4 1.5378 0.8820
27 21 -3 -1.2223 -0.2819
27 21 0 0.6515 1.9485
27 21 3 1.5824 -0.3203
27 22 -4 5.7770 -3.8285
27 22 -1 -2.1289 -1.3986
27 22 2 -0.7372 -1.5576
27 23 -2 3.2020 -2.5704
27 23 1 4.5606 -0.5568
27 23 4 8.3662 -3.0319
27 24 -3 -1.5561 -0.8346
27 24 0 1.4032 -0.3942
27 24 3 5.7264 1.7008
28 1 -9 -1.7410 0.6245
28 1 -6 -9.6098 -3.4636
28 1 -3 -7.2097 2.6937
28 1 0 1.6566 3.6061
28 1 3 2.1688 -2.8370
28 1 6 -1.2722 -2.4863
28 1 9 2.4603 1.0412
28 2 -7 4.3385 -3.8526
28 2 -4 3.7348 -7.8552
28 2 -1 -3.2125 5.2703
28 2 2 -1.9509 7.3977
28 2 5 3.2694 -5.1280
28 2 8 -11.9536 -6.0010
28 3 -8 -2.2549 -3.7624
28 3 -5 3.7705 1.9087
28 3 -2 -2.3100 2.4515
28 3 1 10.3809 -2.4612
28 3 4 -7.7129 -1.7315
28 3 7 -14.7539 0.7501
28 4 -9 0.6575 0.9460
28 4 -6 -4.7464 4.5240
28 4 -3 9.8381 -0.5589
28 4 0 -3.6716 -4.7644
28 4 3 -0.6592 0.0581
28 4 6 8.5569 4.0446
28 4 9 -6.1669 -0.6259
28 5 -7 1.9158 -2.3173
28 5 -4 -1.7473 -0.8423
28 5 -1 10.5477 2.0780
28 5 2 -7.9550 0.8852
28 5 5 3.8540 -1.6545
28 5 8 4.0369 -0.1179
28 6 -8 3.2199 -1.8320
28 6 -5 -0.4462 -0.4976
28 6 -2 -0.7515 3.8759
28 6 1 3.6660 -0.0059
28 6 4 -8.6068 -3.2186
28 6 7 -5.3239 2.2116
28 7 -6 4.2221 0.8602
28 7 -3 8.8718 -0.7124
28 7 0 -0.3593 -2.0744
28 7 3 0.3528 0.3615
28 7 6 2.9645 0.4623
28 8 -7 -1.2712 3.4137
28 8 -4 11.8828 -0.2426
28 8 -1 -14.8507 -1.2238
28 8 2 3.6391 0.2838
28 8 5 0.6918 1.4888
28 8 8 4.0541 -2.7141
28 9 -8 -3.6918 0.5700
28 9 -5 1.3469 0.1624
28 9 -2 1.9407 -1.3226
28 9 1 -9.3682 -1.1677
28 9 4 -3.7855 1.1789
28 9 7 -1.4689 -0.2188
28 10 -6 -0.1903 -0.6596
28 10 -3 -0.4524 -0.3077
28 10 0 -1.8837 1.9527
28 10 3 -9.1371 -0.3524
28 10 6 1.2230 -1.5854
28 11 -7 2.2200 -3.2270
28 11 -4 3.1571 0.5813
28 11 -1 -6.0152 1.9063
28 11 2 -1.1493 -0.7445
28 11 5 8.1037 -1.3451
28 11 8 -1.2016 3.5738
28 12 -5 2.9651 -0.0776
28 12 -2 -4.0398 0.7750
28 12 1 -3.1547 -0.1347
28 12 4 -2.3547 0.6079
28 12 7 1.0522 2.3511
28 13 -6 -0.3951 0.9360
28 13 -3 4.7618 -0.9759
28 13 0 -7.6610 -0.4260
28 13 3 -2.6838 1.4303
28 13 6 -0.9287 -0.6052
28 14 -7 1.4003 1.1865
28 14 -4 -3.6733 0.8610
28 14 -1 -7.0142 0.1652
28 14 2 -1.4659 -1.0496
28 14 5 4.0759 -0.1885
28 15 -5 1.2739 1.5168
28 15 -2 -0.0957 -0.1012
28 15 1 4.8245 0.6094
28 15 4 1.2548 -0.3925
28 16 -6 1.8632 1.0013
28 16 -3 -1.3589 0.8488
28 16 0 0.3175 0.2916
28 16 3 -2.5897 0.0854
28 16 6 -0.8708 1.5057
28 17 -4 -9.4235 1.2888
28 17 -1 -1.8167 -0.1995
28 17 2 12.1811 0.3411
28 17 5 -0.9664 -0.2571
28 18 -5 -3.9235 0.4559
28 18 -2 -0.9750 0.0896
28 18 1 1.6993 1.0110
28 18 4 -3.6331 2.4479
28 19 -3 1.0712 0.0499
28 19 0 4.5260 -0.7706
28 19 3 4.0302 -1.8505
28 20 -4 4.1667 -2.7924
28 20 -1 -1.7239 -1.3175
28 20 2 6.4852 1.3402
28 20 5 1.7682 -4.3976
28 21 -2 0.7170 -1.5795
28 21 1 2.3567 0.6992
28 21 4 8.2077 0.8666
28 22 -3 -0.4092 1.0145
28 22 0 -1.4406 0.4069
28 22 3 0.6954 -0.5743
28 23 -1 -1.8906 -0.5329
28 23 2 -3.5594 -4.3021
28 24 -2 1.5014 -2.4917
28 24 1 2.7778 -0.5769
29 1 -8 1.8412 -4.4728
29 1 -5 7.8472 -1.8441
29 1 -2 -0.1714 4.4059
29 1 1 1.3370 1.6157
29 1 4 -4.7965 -4.8420
29 1 7 -4.4326 -1.5165
29 2 -9 -1.0271 0.5565
29 2 -6 -9.4396 4.1211
29 2 -3 -0.9548 -0.2539
29 2 0 5.1881 -4.9552
29 2 3 -0.5663 0.5383
29 2 6 0.6445 4.3891
29 2 9 0.1675 -2.7271
29 3 -7 -1.1074 -0.9640
29 3 -4 -3.2156 -6.0567
29 3 -1 6.1675 2.2874
29 3 2 -3.0983 6.6187
29 3 5 1.0111 -1.7294
29 3 8 -7.3241 -6.4910
29 4 -8 1.6558 -4.0024
29 4 -5 5.3246 -1.8882
29 4 -2 -2.7783 4.5173
29 4 1 10.6287 0.4103
29 4 4 -5.7095 -4.5653
29 4 7 -11.5430 0.8351
29 5 -6 2.0551 3.1870
29 5 -3 7.1560 2.6170
29 5 0 -5.2726 -3.5442
29 5 3 -6.1801 -2.1754
29 5 6 8.9203 3.1081
29 6 -7 2.5200 1.8118
29 6 -4 -7.3799 -1.2080
29 6 -1 1.6651 -1.6233
29 6 2 0.7739 1.2115
29 6 5 5.0135 1.5337
29 6 8 7.3301 -1.0617
29 7 -8 -3.3616 -2.8512
29 7 -5 3.9881 -0.8294
29 7 -2 1.8274 1.0208
29 7 1 0.7515 0.0758
29 7 4 -1.5050 -1.1866
29 7 7 -0.6973 0.0900
29 8 -6 -1.7330 -2.2496
29 8 -3 4.3004 -0.7667
29 8 0 -1.6953 0.9485
29 8 3 0.6468 -0.2973
29 8 6 0.7022 -2.3831
29 9 -7 -2.3420 -1.6361
29 9 -4 10.2797 1.0482
29 9 -1 -9.9800 1.3905
29 9 2 -2.7322 -1.1235
29 9 5 0.7450 0.0050
29 9 8 1.1300 -2.6256
29 10 -5 -3.5559 0.5063
29 10 -2 -2.2190 -1.4930
29 10 1 -5.4577 -1.8037
29 10 4 4.5320 0.8831
29 10 7 -3.9050 3.0599
29 11 -6 -2.4940 0.7414
29 11 -3 5.3778 -1.6997
29 11 0 -4.1757 1.2710
29 11 3 -2.4286 1.2465
29 11 6 1.1421 -0.3255
29 12 -7 4.4284 0.6212
29 12 -4 -2.7017 -0.6054
29 12 -1 -2.2965 0.7447
29 12 2 -4.1252 -0.1074
29 12 5 10.7895 0.1416
29 13 -5 2.7993 0.3355
29 13 -2 -1.3803 1.5732
29 13 1 3.0094 0.6985
29 13 4 -4.3945 -1.4617
29 13 7 2.5557 2.3009
29 14 -6 0.6613 -1.6145
29 14 -3 -2.9966 1.4991
29 14 0 -0.3957 0.7907
29 14 3 -2.4170 -0.4693
29 14 6 -0.0500 -2.7328
29 15 -4 -1.7808 0.9700
29 15 -1 -1.0480 -0.4088
29 15 2 10.5672 -0.5505
29 15 5 -0.0677 1.2425
29 16 -5 0.9760 -0.7299
29 16 -2 2.4797 -1.5353
29 16 1 3.8887 -0.8069
29 16 4 -0.6076 1.4031
29 17 -3 -1.5416 -2.4341
29 17 0 2.8563 -0.9575
29 17 3 4.0874 0.7606
29 18 -4 -5.9120 -0.2774
29 18 -1 1.1086 1.1722
29 18 2 5.0607 1.2197
29 18 5 4.2738 -1.1908
29 19 -5 -3.7651 1.7445
29 19 -2 3.9683 1.7307
29 19 1 2.0295 2.1257
29 19 4 1.6149 0.6239
29 20 -3 0.0718 3.8950
29 20 0 3.2533 -0.9395
29 20 3 -1.7939 -3.5354
29 21 -1 -1.5825 -3.3575
29 21 2 2.8098 0.6492
29 22 -2 -0.2472 -2.2532
29 22 1 -0.1367 -0.5715
29 23 0 -6.2750 0.2272
30 1 -7 -1.8613 -0.5846
30 1 -4 4.6932 -12.8739
30 1 -1 -7.5656 2.5882
30 1 2 4.4031 13.4331
30 1 5 -3.4775 -4.2382
30 1 8 -9.5968 -12.4233
30 2 -8 1.3296 -5.8780
30 2 -5 7.7039 -6.8384
30 2 -2 -0.7832 4.0379
30 2 1 1.1742 6.9725
30 2 4 -9.4082 -4.8134
30 2 7 -7.8093 -6.3732
30 3 -9 0.7155 -2.0217
30 3 -6 -0.2668 4.3591
30 3 -3 3.0884 2.6064
30 3 0 -0.8027 -5.3074
30 3 3 -4.0600 -2.3330
30 3 6 6.0041 5.5032
30 3 9 -4.2684 -0.9167
30 4 -7 0.8671 1.0035
30 4 -4 -10.8114 0.0518
30 4 -1 12.4647 -2.3066
30 4 2 2.6967 0.2820
30 4 5 6.1252 3.1957
30 4 8 1.7638 0.4598
30 5 -8 4.0518 0.3644
30 5 -5 9.7980 -3.0510
30 5 -2 1.5771 2.2061
30 5 1 7.8356 1.9249
30 5 4 1.7227 -2.9512
30 5 7 -0.3358 0.1751
30 6 -6 -2.5840 -2.6556
30 6 -3 3.6557 1.2929
30 6 0 -3.4153 1.0628
30 6 3 -3.8172 -0.7745
30 6 6 3.9277 -1.6260
30 7 -7 0.9774 0.7672
30 7 -4 -3.6604 -0.5511
30 7 -1 -8.4150 -0.1393
30 7 2 -1.1483 0.6108
30 7 5 -1.1279 0.2600
30 8 -8 -2.5159 -0.5775
30 8 -5 -3.5052 1.8614
30 8 -2 3.6855 -1.4598
30 8 1 3.0249 -2.6696
30 8 4 8.2103 0.0447
30 8 7 -2.2827 1.6166
30 9 -6 -2.4077 0.3220
30 9 -3 3.1353 -1.2378
30 9 0 -4.0773 0.7325
30 9 3 2.0919 1.0071
30 9 6 0.5118 -0.3056
30 10 -7 0.6216 -1.6591
30 10 -4 4.9445 -1.0334
30 10 -1 0.3803 2.1689
30 10 2 -5.7123 0.4361
30 10 5 2.7600 -1.0794
30 11 -5 -1.7239 -0.2676
30 11 -2 -3.6459 0.8080
30 11 1 0.2669 0.3459
30 11 4 -1.7577 -1.0882
30 11 7 -2.2091 2.8370
30 12 -6 -1.7282 -1.0574
30 12 -3 3.7289 -0.3271
30 12 0 2.2086 1.0179
30 12 3 2.3915 -0.7636
30 12 6 0.0069 -0.9707
30 13 -4 2.5370 -0.3720
30 13 -1 -0.6029 -1.0310
30 13 2 1.6038 -0.8632
30 13 5 3.2427 1.7512
30 14 -5 3.7064 -0.8453
30 14 -2 4.5389 -1.2477
30 14 1 5.7253 -1.0295
30 14 4 -0.3521 0.1392
30 15 -6 -1.3991 -0.8630
30 15 -3 -6.4874 -0.3534
30 15 0 2.5718 1.0955
30 15 3 -1.5817 0.5020
30 15 6 1.0058 -2.8005
30 16 -4 -4.1517 0.7798
30 16 -1 4.8723 0.6089
30 16 2 6.7172 0.7095
30 16 5 0.5765 2.4165
30 17 -5 -0.3555 -2.7085
30 17 -2 5.4887 0.0902
30 17 1 0.7938 0.4647
30 17 4 -2.1363 -0.9411
30 18 -3 -3.8732 -0.5085
30 18 0 3.4426 -1.4447
30 18 3 4.2221 0.0979
30 19 -4 1.0671 -3.1105
30 19 -1 -0.3539 0.2162
30 19 2 2.8090 1.4270
30 20 -2 1.4382 2.5056
30 20 1 -0.8697 0.0277
30 21 0 -5.1444 -0.4968
30 22 -1 -1.8939 -2.9887
31 1 -9 -1.2873 -4.2330
31 1 -6 2.5981 6.8038
31 1 -3 -0.6140 0.1806
31 1 0 5.6500 -7.9177
31 1 3 -0.0802 1.5318
31 1 6 0.4032 6.8559
31 2 -7 -2.7766 8.0397
31 2 -4 0.8509 -2.0244
31 2 -1 -0.9241 -8.2863
31 2 2 5.1638 3.3723
31 2 5 -0.0566 7.5070
31 2 8 -6.8930 -4.9014
31 3 -8 8.7530 0.8503
31 3 -5 7.7682 -5.9467
31 3 -2 2.1780 0.1891
31 3 1 2.2006 6.0246
31 3 4 -4.7278 -1.2412
31 3 7 2.3866 -4.0044
31 4 -6 1.2856 -1.7072
31 4 -3 -1.2815 2.6587
31 4 0 0.4420 2.8083
31 4 3 -8.2146 -2.4216
31 4 6 5.0942 -1.1313
31 5 -7 6.3485 -1.5862
31 5 -4 -10.6782 -0.1512
31 5 -1 4.0513 0.0155
31 5 2 7.5189 -0.1196
31 5 5 4.1804 -0.5085
31 5 8 4.6770 2.2509
31 6 -5 7.7770 1.7827
31 6 -2 3.6032 0.1313
31 6 1 6.0239 -1.3193
31 6 4 4.0927 -0.3209
31 6 7 1.7397 -0.0877
31 7 -6 -6.9156 -1.1418
31 7 -3 0.6618 -0.8811
31 7 0 -6.7873 -0.4532
31 7 3 4.0889 1.8055
31 7 6 -0.1612 0.8092
31 8 -7 -4.8418 -1.8671
31 8 -4 5.0594 -0.2710
31 8 -1 -3.8947 2.1009
31 8 2 -8.4107 0.3514
31 8 5 -6.7624 -1.7912
31 9 -5 -7.3314 0.1891
31 9 -2 2.9802 -0.4140
31 9 1 4.1533 -0.7068
31 9 4 8.6693 -1.0650
31 9 7 -1.2032 1.8248
31 10 -6 3.6270 1.3341
31 10 -3 3.2958 -1.0136
31 10 0 1.9101 -0.0503
31 10 3 -2.0613 0.5050
31 10 6 0.8790 0.9630
31 11 -7 2.2595 5.2733
31 11 -4 0.9458 -1.8354
31 11 -1 2.1495 -0.8181
31 11 2 -4.4356 0.7617
31 11 5 0.9120 0.6502
31 12 -5 2.6929 -0.2440
31 12 -2 3.2577 0.2360
31 12 1 5.6370 0.8880
31 12 4 -7.1013 -0.7153
31 13 -6 -0.1036 -3.5700
31 13 -3 -2.4426 1.2579
31 13 0 4.0423 1.6195
31 13 3 2.9714 -2.0705
31 13 6 1.6395 -3.0769
31 14 -4 7.3012 -0.5285
31 14 -1 4.1028 -0.3309
31 14 2 4.0290 -0.0993
31 14 5 -3.2072 1.0002
31 15 -5 3.3360 -3.7300
31 15 -2 4.1947 -2.6535
31 15 1 0.7192 -2.3041
31 15 4 1.6850 1.2475
31 16 -3 -7.7235 -2.7281
31 16 0 0.1610 -0.0444
31 16 3 4.0562 2.8998
31 17 -4 -4.6369 1.3102
31 17 -1 3.8012 0.8439
31 17 2 -1.8498 0.0314
31 18 -2 3.1554 2.7711
31 18 1 -0.3450 1.4594
31 18 4 -1.1132 -4.1895
31 19 -3 -2.5100 2.7067
31 19 0 0.2638 0.3945
31 19 3 -3.8481 -1.1452
31 20 -1 -3.2685 -1.7921
31 20 2 3.3900 1.5966
31 21 1 -2.8816 -3.0889
32 1 -8 5.6811 -0.6577
32 1 -5 0.0056 -6.9241
32 1 -2 3.5164 -1.1670
32 1 1 -6.7995 9.0351
32 1 4 -9.8340 0.5142
32 1 7 4.9007 -8.1257
32 2 -6 4.7371 -0.3804
32 2 -3 4.2836 1.3263
32 2 0 2.1347 0.4968
32 2 3 0.8830 -1.3652
32 2 6 1.8432 0.0822
32 3 -7 7.0332 3.2321
32 3 -4 1.1608 4.1117
32 3 -1 3.5826 -5.0540
32 3 2 7.5497 -3.5081
32 3 5 4.2041 5.0705
32 3 8 2.3460 4.5181
32 4 -8 10.9684 6.9299
32 4 -5 10.2292 -0.4169
32 4 -2 1.1193 -1.5927
32 4 1 0.6162 1.0573
32 4 4 -2.9881 1.2169
32 4 7 2.7816 -1.0087
32 5 -6 -7.0736 -1.7193
32 5 -3 -5.0113 -0.9323
32 5 0 0.1629 2.1100
32 5 3 -3.8123 1.8029
32 5 6 2.2278 -0.2123
32 6 -7 -2.5464 -1.2974
32 6 -4 -0.8807 -2.4848
32 6 -1 -2.5863 2.0332
32 6 2 -2.4297 1.9746
32 6 5 -3.8755 -3.6528
32 7 -5 -1.9116 1.6483
32 7 -2 7.1408 1.4845
32 7 1 4.5061 -0.8087
32 7 4 5.1326 -0.9841
32 8 -6 4.3582 2.7033
32 8 -3 -3.8641 0.0874
32 8 0 -3.5172 -2.2391
32 8 3 -4.3529 0.6831
32 8 6 0.4516 2.7176
32 9 -7 -2.1753 1.4370
32 9 -4 4.3898 0.0350
32 9 -1 2.0920 -0.1523
32 9 2 -4.3455 0.7344
32 9 5 -7.5116 -0.1323
32 10 -5 2.3218 -0.8156
32 10 -2 2.9683 -0.2001
32 10 1 2.0158 1.3529
32 10 4 -1.8487 0.1984
32 11 -6 8.0986 -2.0096
32 11 -3 3.4260 -0.4806
32 11 0 3.0400 0.3349
32 11 3 2.2206 -0.4916
32 11 6 1.8960 -0.5241
32 12 -4 4.9771 -1.2945
32 12 -1 2.3920 -0.9974
32 12 2 -6.7465 -0.3553
32 12 5 -2.2699 -1.3004
32 13 -5 -0.4521 -0.4497
32 13 -2 6.5945 -1.8825
32 13 1 6.6703 -0.4644
32 13 4 -2.5625 1.2422
32 14 -3 -6.7736 0.5427
32 14 0 -2.4071 0.4376
32 14 3 2.2211 0.1219
32 15 -4 2.6115 1.7797
32 15 -1 5.0909 0.0586
32 15 2 -0.3897 0.0364
32 15 5 -5.7634 1.0833
32 16 -2 -1.0807 -0.0874
32 16 1 -2.8632 -0.0904
32 16 4 -1.3111 -2.1866
32 17 -3 -6.7569 -2.5191
32 17 0 0.3294 0.4741
32 17 3 2.8045 3.4325
32 18 -1 -1.3776 -1.0455
32 18 2 0.0710 0.0174
32 19 -2 0.3583 3.2104
32 19 1 -1.1170 -3.1211
32 20 0 -3.6803 2.2553
33 1 -7 4.2172 11.9885
33 1 -4 5.3185 4.4852
33 1 -1 -5.6702 -12.6623
33 1 2 2.0567 -3.2562
33 1 5 0.5411 12.2372
33 1 8 -4.6796 1.7356
33 2 -8 11.9775 4.5707
33 2 -5 1.7078 1.5282
33 2 -2 2.4946 -3.3058
33 2 1 -3.4644 -0.3993
33 2 4 -7.7037 3.7846
33 2 7 4.2188 -0.4327
33 3 -6 -0.0050 -0.2680
33 3 -3 -1.8782 0.1769
33 3 0 5.6052 3.0396
33 3 3 -2.6506 -0.9360
33 3 6 1.7416 -1.8305
33 4 -7 6.3039 -2.2429
33 4 -4 3.5965 -1.2021
33 4 -1 1.3258 0.9678
33 4 2 2.8412 1.2371
33 4 5 1.7870 -2.7327
33 5 -5 4.7156 1.4522
33 5 -2 -1.2225 1.2085
33 5 1 -2.9298 0.7309
33 5 4 -8.2093 -0.2244
33 5 7 4.8291 -0.8881
33 6 -6 -5.0326 1.3084
33 6 -3 -6.7926 -0.0792
33 6 0 -1.3706 -2.4666
33 6 3 -1.6778 0.8645
33 6 6 1.9698 3.7598
33 7 -7 -8.1217 1.4998
33 7 -4 7.2232 -0.1191
33 7 -1 -0.3806 -0.6924
33 7 2 -5.5255 0.6564
33 7 5 -7.7034 0.1098
33 8 -5 2.1820 -2.4523
33 8 -2 8.6804 0.7970
33 8 1 -1.9994 1.5749
33 8 4 7.3810 0.8745
33 9 -6 16.1539 0.6128
33 9 -3 -2.0423 -0.2644
33 9 0 0.9009 -0.7690
33 9 3 -11.5503 0.3564
33 9 6 3.4372 -0.4414
33 10 -4 -1.7517 0.4831
33 10 -1 2.3454 -1.2750
33 10 2 -3.5873 0.1492
33 10 5 -3.7850 -0.8376
33 11 -5 2.8436 2.1680
33 11 -2 5.2318 -0.4419
33 11 1 5.8124 0.5914
33 11 4 -11.0630 0.5117
33 12 -3 -0.4270 0.7648
33 12 0 -6.7357 -0.7589
33 12 3 7.4070 -0.1606
33 13 -4 8.2548 0.3192
33 13 -1 4.0391 0.4206
33 13 2 -5.7387 -0.3419
33 13 5 -4.5710 -3.8724
33 14 -5 -3.8458 -1.8395
33 14 -2 -0.6629 -1.1127
33 14 1 -0.4394 -0.0714
33 14 4 1.2512 1.4715
33 15 -3 -5.5000 -1.4410
33 15 0 -3.8485 -0.7082
33 15 3 1.5049 2.1300
33 16 -4 -2.6724 4.1108
33 16 -1 0.3283 -1.6671
33 16 2 -4.4939 -0.9543
33 17 -2 -1.9042 1.9049
33 17 1 0.9882 -0.9487
33 18 0 0.1730 2.4161
34 1 -6 -0.2996 -0.2844
34 1 -3 4.8601 3.7955
34 1 0 1.8654 -0.5912
34 1 3 5.2803 -4.0166
34 1 6 0.8759 0.7535
34 2 -7 10.8952 3.1522
34 2 -4 7.9889 2.8711
34 2 -1 0.8254 -3.5929
34 2 2 -2.3486 -2.3899
34 2 5 0.8448 3.5409
34 3 -5 2.0040 0.4351
34 3 -2 -4.9472 -0.7272
34 3 1 -5.2454 -0.5057
34 3 4 -10.5392 0.7195
34 3 7 -0.4313 -0.0902
34 4 -6 -4.8293 2.0989
34 4 -3 -4.7963 0.6044
34 4 0 4.7434 -1.2473
34 4 3 -2.8066 -0.5939
34 4 6 4.0272 1.4329
34 5 -4 5.7679 -2.8840
34 5 -1 -0.4679 -1.7283
34 5 2 -6.0850 2.6819
34 5 5 -0.9352 0.2383
34 6 -5 -0.6883 -1.4651
34 6 -2 6.0280 1.4959
34 6 1 -5.2242 2.8870
34 6 4 -0.5844 0.0978
34 7 -6 7.5572 0.5405
34 7 -3 -7.7080 1.2453
34 7 0 3.0630 -1.1380
34 7 3 -10.6410 -1.9127
34 8 -4 3.2888 2.3253
34 8 -1 0.8688 -1.1246
34 8 2 5.4864 -0.1835
34 8 5 -4.7713 1.7395
34 9 -5 11.9805 -0.3956
34 9 -2 3.3799 -0.0862
34 9 1 -4.9411 -0.4141
34 9 4 -3.7089 2.1613
34 10 -6 13.7809 -2.3716
34 10 -3 3.6651 -0.9676
34 10 0 -6.1654 -0.8806
34 10 3 1.0336 2.0001
34 10 6 0.2643 -1.6312
34 11 -4 -0.3114 0.3327
34 11 -1 3.4580 -0.3090
34 11 2 -9.8099 -0.9934
34 11 5 -0.4226 -4.5973
34 12 -5 -7.4310 3.3142
34 12 -2 3.0486 0.2369
34 12 1 5.4800 0.7650
34 12 4 -6.3435 -0.3536
34 13 -3 -2.5164 1.7535
34 13 0 -11.1936 -1.8826
34 13 3 -0.8031 -1.0480
34 14 -4 3.3946 3.7171
34 14 -1 1.4165 0.1983
34 14 2 -3.2918 0.4285
34 15 -2 -4.0078 1.9083
34 15 1 -1.1074 0.3960
34 16 -3 -1.9856 -3.9608
34 16 0 -1.0782 -1.2610
34 17 -1 -4.1920 -2.7133
35 1 -5 -3.3351 3.5590
35 1 -2 2.2376 0.2985
35 1 1 -0.8792 -4.0421
35 1 4 -4.8576 0.4675
35 1 7 0.0619 2.7692
35 2 -6 1.5617 2.4097
35 2 -3 1.1274 6.3968
35 2 0 5.1608 -1.7348
35 2 3 -0.2684 -7.4778
35 2 6 3.2726 1.6157
35 3 -7 7.2217 -0.4828
35 3 -4 5.1692 -0.1204
35 3 -1 2.7617 -1.6686
35 3 2 -6.9735 0.6641
35 3 5 1.8255 1.4993
35 4 -5 -3.4705 -2.8795
35 4 -2 -5.5785 -0.6516
35 4 1 -7.3185 3.1504
35 4 4 -9.2215 -0.2744
35 4 7 1.8998 -0.6509
35 5 -6 -4.0095 -1.1329
35 5 -3 -4.6907 2.3157
35 5 0 4.7056 -1.3360
35 5 3 0.6264 -2.4801
35 5 6 6.3423 -0.2998
35 6 -4 5.0691 0.7959
35 6 -1 -1.4011 -3.0529
35 6 2 0.0862 -0.1928
35 6 5 -0.3416 4.0936
35 7 -5 6.5665 -1.9881
35 7 -2 7.8966 -0.2675
35 7 1 -5.3771 0.9930
35 7 4 5.1454 1.6070
35 8 -3 0.1693 -0.9217
35 8 0 3.9825 0.4142
35 8 3 -9.9314 0.6633
35 9 -4 -2.4282 0.3187
35 9 -1 0.8360 0.7057
35 9 2 4.9943 -0.0209
35 10 -5 5.6540 3.7267
35 10 -2 -0.8527 1.4345
35 10 1 -2.0516 -1.9727
35 10 4 -12.9584 -1.8021
35 11 -3 3.0331 1.8405
35 11 0 -13.6528 -1.7856
35 11 3 3.5246 -0.9932
35 12 -4 3.2976 1.4593
35 12 -1 3.4532 0.1514
35 12 2 -7.6685 0.3695
35 13 -2 -1.6254 1.9155
35 13 1 -1.1788 0.8266
35 13 4 0.7819 1.3536
35 14 -3 0.5752 0.1722
35 14 0 -5.8859 -2.4012
35 14 3 -1.9563 -1.2033
35 15 -1 -4.0684 -0.2154
35 15 2 -3.5455 -0.2908
35 16 -2 1.0626 2.5706
35 16 1 3.2829 -0.3725
36 1 -7 6.3518 0.2947
36 1 -4 4.3767 2.3229
36 1 -1 6.0161 -1.0381
36 1 2 -6.3308 -3.0202
36 1 5 -1.3767 1.8993
36 2 -5 -3.5011 -6.5645
36 2 -2 -4.5571 -0.7799
36 2 1 -3.8556 4.2999
36 2 4 -3.3432 -0.7986
36 2 7 -1.4548 -1.7476
36 3 -6 -0.2546 -1.3781
36 3 -3 -1.2588 4.6955
36 3 0 2.6193 1.1526
36 3 3 -1.0654 -5.1150
36 3 6 6.0438 -2.1112
36 4 -4 0.0076 1.3069
36 4 -1 0.3781 -3.2596
36 4 2 -6.3480 -1.8930
36 4 5 2.7465 4.1500
36 5 -5 -5.6557 -0.0991
36 5 -2 5.0009 -2.3002
36 5 1 0.5346 0.7732
36 5 4 0.7883 0.4302
36 6 -3 -3.1013 0.4951
36 6 0 8.8018 0.0693
36 6 3 -0.9348 -1.1103
36 6 6 2.7289 -3.5693
36 7 -4 3.0949 0.4298
36 7 -1 -2.4478 0.8256
36 7 2 12.6778 1.1582
36 7 5 2.2067 1.9758
36 8 -5 12.4317 0.6595
36 8 -2 -0.8298 0.8426
36 8 1 -6.7753 -1.8011
36 8 4 -4.8994 -1.2092
36 9 -3 8.6845 0.0500
36 9 0 -0.8846 -0.0201
36 9 3 0.9830 0.4905
36 10 -4 -0.9726 -2.6040
36 10 -1 1.0444 -0.1083
36 10 2 -6.4823 -0.5234
36 11 -2 -1.5121 2.0489
36 11 1 -4.0267 -1.0989
36 11 4 -4.8454 -2.5826
36 12 -3 1.2271 4.6815
36 12 0 -9.6469 -0.8359
36 12 3 -5.0782 -5.5875
36 13 -1 -0.6502 2.0927
36 13 2 -1.0594 2.6416
36 14 -2 0.6242 3.3611
36 14 1 -0.0504 -0.3380
36 15 0 -2.4062 -4.7368
37 1 -6 3.2658 -4.0071
37 1 -3 0.2630 8.4901
37 1 0 5.4492 4.0817
37 1 3 -0.2352 -10.1696
37 1 6 5.5288 -2.5864
37 2 -4 -0.1381 6.3860
37 2 -1 4.7601 -0.2201
37 2 2 -2.7811 -6.3023
37 2 5 0.5924 2.3452
37 3 -5 -5.0665 -4.2301
37 3 -2 -1.9821 -4.0833
37 3 1 -2.0993 2.2376
37 3 4 -1.3147 1.6242
37 4 -6 -2.0346 -4.7071
37 4 -3 -3.2677 1.0516
37 4 0 2.8500 1.8092
37 4 3 5.7542 -0.4422
37 4 6 4.6875 -3.3996
37 5 -4 -0.2153 1.1406
37 5 -1 -1.9213 -0.6907
37 5 2 0.6454 -1.6225
37 5 5 3.8828 1.3418
37 6 -5 0.2470 1.9687
37 6 -2 6.0363 -0.0664
37 6 1 7.1083 -0.9247
37 6 4 2.3828 -1.6083
37 7 -3 5.5211 -1.1599
37 7 0 10.4578 -0.2482
37 7 3 -1.8322 1.4838
37 8 -4 1.7510 -3.7123
37 8 -1 -2.8225 1.3752
37 8 2 7.9021 1.9373
37 9 -2 -3.8831 1.2381
37 9 1 -10.7649 -1.3080
37 10 -3 6.0698 4.9752
37 10 0 -2.7139 1.3596
37 11 -1 -1.0904 0.7956
37 11 2 -6.2447 0.8724
37 12 -2 -0.7526 1.3568
37 12 1 -5.8930 -1.9947
37 13 0 -1.9942 -1.7822
38 1 -5 0.5431 -9.1540
38 1 -2 1.5130 -3.2664
38 1 1 -0.8879 8.8042
38 1 4 4.4245 2.4987
38 2 -6 2.1122 -7.2855
38 2 -3 -3.6707 -1.2768
38 2 0 2.6487 9.0645
38 2 3 -3.6048 0.3720
38 2 6 2.0735 -6.7441
38 3 -4 -1.5494 4.5220
38 3 -1 0.5993 1.2362
38 3 2 -1.5924 -5.9436
38 3 5 1.8217 -1.0494
38 4 -5 -5.3651 4.0006
38 4 -2 5.4008 -1.8320
38 4 1 10.0858 -3.2603
38 4 4 0.2765 0.0275
38 5 -3 -2.1391 -0.4754
38 5 0 4.8740 -1.0572
38 5 3 4.0713 1.2465
38 6 -4 2.2250 -0.2515
38 6 -1 -0.6328 0.5241
38 6 2 8.4660 2.4624
38 6 5 3.0109 -0.1037
38 7 -2 -0.7877 1.2860
38 7 1 -1.4003 1.5781
38 7 4 -0.7793 -2.1320
38 8 -3 10.5703 1.3656
38 8 0 8.6023 1.2761
38 9 -1 -5.0135 -0.2947
38 10 -2 -0.1782 -0.9449
38 11 0 0.7158 2.2508
38 12 -1 -1.0774 4.2590
39 1 -4 0.3401 7.2055
39 1 -1 -1.9820 2.1209
39 1 2 6.4987 -5.9880
39 1 5 -1.0817 -1.4053
39 2 -5 2.3770 -0.0678
39 2 -2 3.6001 -3.5817
39 2 1 -0.5581 -0.2475
39 2 4 1.2657 4.0624
39 3 -3 -5.4786 -3.1290
39 3 0 2.2532 3.5448
39 3 3 0.7235 3.4605
39 4 -4 0.1935 1.0450
39 4 -1 1.7809 0.6026
39 4 2 -4.3845 -1.4666
39 4 5 2.4160 -4.2666
39 5 -5 -2.1922 2.6806
39 5 -2 3.4017 2.5755
39 5 1 12.6218 0.3230
39 5 4 2.3641 -0.5403
39 6 -3 4.8397 -0.1954
39 6 0 4.8318 -1.1326
39 6 3 0.5555 0.5161
39 7 -1 -1.0302 -1.2114
39 7 2 7.5051 0.8204
39 8 -2 0.4279 -1.9590
39 10 -1 -4.8549 1.4925
39 11 1 -6.6908 -2.1799
40 1 -3 -4.7544 -8.3252
40 1 0 6.6812 8.6300
40 1 3 -8.2727 8.0062
40 2 -4 3.4367 0.4636
40 2 -1 -3.6947 1.2804
40 2 2 -0.4422 -1.1552
40 2 5 0.9836 -4.5149
40 3 -5 0.9956 4.7828
40 3 -2 3.2862 -0.9060
40 3 1 6.4030 -3.0009
40 3 4 0.4335 2.1941
40 4 -3 -1.5191 1.0978
40 4 0 -1.2277 -0.1982
40 4 3 0.4280 -1.9332
40 5 -4 0.4165 3.6707
40 5 -1 5.7412 -1.4450
40 5 2 4.1614 0.7706
40 6 -2 -0.5622 1.2009
40 6 1 -0.1771 4.1674
40 6 4 4.1393 3.6194
40 7 0 3.3042 0.3112
40 7 3 3.5428 1.0612
41 1 -5 6.2318 4.3619
41 1 -2 4.4182 -4.7237
41 1 1 -2.2936 -3.2528
41 1 4 5.1181 6.0272
41 2 -3 -1.2489 -1.3009
41 2 0 6.5272 2.2162
41 2 3 -2.2300 1.2846
41 3 -4 2.2916 -0.6966
41 3 -1 0.8979 0.1231
41 3 2 -8.3737 0.2446
41 4 -2 -0.0908 1.4062
41 4 1 6.0533 1.5320
41 4 4 3.1436 3.2934
41 5 -3 3.1489 0.0378
41 5 0 -4.1496 -0.8267
41 5 3 -1.1776 -2.5425
41 6 -1 4.0776 -1.4732
41 6 2 11.7159 -1.9518
41 7 -2 1.1237 -1.9395
41 7 1 -6.3256 2.7951
42 1 -4 2.3541 -4.2681
42 1 -1 -8.3480 -0.4650
42 2 -2 0.6881 -6.2829
42 2 1 1.7830 -3.1473
42 3 -3 2.6279 4.0229
42 3 0 0.2032 1.0522
42 3 3 0.2646 -5.1341
42 4 -1 4.1877 1.7011
42 4 2 2.4536 0.2740
42 5 1 -2.2138 1.5025
42 6 0 -3.8924 -2.8884
43 1 -3 3.5252 3.6820
43 1 0 7.2160 0.0656
43 1 3 0.9887 -2.3143
43 2 -1 -4.7594 4.4529
43 2 2 -7.5650 -1.0865
43 3 -2 0.1510 -1.2416
43 3 1 3.3189 -0.6279
43 4 0 -3.0463 -1.5106
44 1 -2 0.0951 -8.1460
44 1 1 1.0263 -3.8016
44 2 0 3.0279 0.3590
0 0 0 0.0 0.0
;
_shelx_fab_checksum              42048
_olex2_submission_special_instructions 'No special instructions were received'
_oxdiff_exptl_absorpt_empirical_details
;
Empirical correction (ABSPACK) includes:
- Absorption correction using spherical harmonics
- Frame scaling
;
loop_
_space_group_symop_operation_xyz
'x, y, z'
'-y, x-y, z'
'-x+y, -x, z'
'x+2/3, y+1/3, z+1/3'
'-y+2/3, x-y+1/3, z+1/3'
'-x+y+2/3, -x+1/3, z+1/3'
'x+1/3, y+2/3, z+2/3'
'-y+1/3, x-y+2/3, z+2/3'
'-x+y+1/3, -x+2/3, z+2/3'
'-x, -y, -z'
'y, -x+y, -z'
'x-y, x, -z'
'-x+2/3, -y+1/3, -z+1/3'
'y+2/3, -x+y+1/3, -z+1/3'
'x-y+2/3, x+1/3, -z+1/3'
'-x+1/3, -y+2/3, -z+2/3'
'y+1/3, -x+y+2/3, -z+2/3'
'x-y+1/3, x+2/3, -z+2/3'
loop_
_atom_site_label
_atom_site_type_symbol
_atom_site_fract_x
_atom_site_fract_y
_atom_site_fract_z
_atom_site_U_iso_or_equiv
_atom_site_adp_type
_atom_site_occupancy
_atom_site_site_symmetry_order
_atom_site_calc_flag
_atom_site_refinement_flags_posn
_atom_site_refinement_flags_adp
_atom_site_refinement_flags_occupancy
_atom_site_disorder_assembly
_atom_site_disorder_group
Co1 Co 0.38001(2) 0.48180(2) 0.91341(5) 0.01937(17) Uani 1 1 d . . . . .
O1 O 0.34271(7) 0.45751(7) 0.7607(2) 0.0248(5) Uani 1 1 d . . . . .
O2 O 0.29679(8) 0.46566(10) 0.8384(3) 0.0435(8) Uani 1 1 d . . . . .
O3 O 0.18899(7) 0.43423(7) 0.5496(2) 0.0255(5) Uani 1 1 d . . . . .
O4 O 0.19148(7) 0.42634(7) 0.3303(2) 0.0236(5) Uani 1 1 d . . . . .
O5 O 0.35831(8) 0.51762(8) 0.9571(3) 0.0377(7) Uani 1 1 d . . . . .
H5A H 0.335953 0.507512 0.929875 0.057 Uiso 1 1 d R U . . .
H5B H 0.369693 0.537292 0.909785 0.057 Uiso 1 1 d R U . . .
N1 N 0.31452(8) 0.43114(8) 0.2586(3) 0.0225(6) Uani 1 1 d . . . . .
N2 N 0.35026(8) 0.45053(8) 0.0817(3) 0.0236(6) Uani 1 1 d . . . . .
N3 N 0.32607(8) 0.41342(8) 0.0635(3) 0.0236(6) Uani 1 1 d . . . . .
N4 N 0.22198(8) 0.28874(8) 0.2182(3) 0.0206(6) Uani 1 1 d . . . . .
C1 C 0.31202(10) 0.45653(11) 0.7508(4) 0.0287(8) Uani 1 1 d . . . . .
C2 C 0.29342(9) 0.44494(10) 0.6129(3) 0.0234(7) Uani 1 1 d . . . . .
C3 C 0.25840(9) 0.44094(10) 0.5942(3) 0.0237(7) Uani 1 1 d . . . . .
H3 H 0.245679 0.443484 0.669593 0.028 Uiso 1 1 calc R U . . .
C4 C 0.24190(9) 0.43332(9) 0.4672(3) 0.0216(7) Uani 1 1 d . . . . .
C5 C 0.26065(9) 0.43006(9) 0.3559(3) 0.0213(7) Uani 1 1 d . . . . .
H5 H 0.250092 0.425743 0.267817 0.026 Uiso 1 1 calc R U . . .
C6 C 0.29498(9) 0.43325(9) 0.3763(3) 0.0219(7) Uani 1 1 d . . . . .
C7 C 0.31177(9) 0.44054(10) 0.5022(3) 0.0238(7) Uani 1 1 d . . . . .
H7 H 0.335327 0.442508 0.513230 0.029 Uiso 1 1 calc R U . . .
C8 C 0.20517(9) 0.43085(9) 0.4467(3) 0.0212(7) Uani 1 1 d . . . . .
C9 C 0.36430(12) 0.49854(11) 0.2583(4) 0.0364(9) Uani 1 1 d . . . . .
H9A H 0.348635 0.509900 0.256756 0.055 Uiso 1 1 calc R U . . .
H9B H 0.386828 0.513769 0.205558 0.055 Uiso 1 1 calc R U . . .
H9C H 0.370989 0.496824 0.352191 0.055 Uiso 1 1 calc R U . . .
C10 C 0.34388(9) 0.46112(10) 0.1988(3) 0.0242(7) Uani 1 1 d . . . . .
C11 C 0.30451(9) 0.40210(9) 0.1707(3) 0.0214(7) Uani 1 1 d . . . . .
C12 C 0.27559(9) 0.36362(10) 0.1910(3) 0.0229(7) Uani 1 1 d . . . . .
C13 C 0.25912(10) 0.34887(10) 0.3163(3) 0.0241(7) Uani 1 1 d . . . . .
H13 H 0.265942 0.364093 0.394763 0.029 Uiso 1 1 calc R U . . .
C14 C 0.23272(10) 0.31172(10) 0.3240(3) 0.0235(7) Uani 1 1 d . . . . .
H14 H 0.221599 0.302012 0.409498 0.028 Uiso 1 1 calc R U . . .
C15 C 0.23805(10) 0.30263(10) 0.0979(3) 0.0254(7) Uani 1 1 d . . . . .
H15 H 0.231064 0.286457 0.022067 0.030 Uiso 1 1 calc R U . . .
C16 C 0.26436(11) 0.33953(10) 0.0799(3) 0.0283(8) Uani 1 1 d . . . . .
H16 H 0.274731 0.348441 -0.007195 0.034 Uiso 1 1 calc R U . . .
O6 O 0.3904(3) 0.5866(3) 0.843(2) 0.150(7) Uani 0.5 1 d . . P . .
O7 O 0.07858(12) 0.36915(11) 0.9069(4) 0.0606(10) Uani 1 1 d . . . . .
H7A H 0.094852 0.364340 0.933568 0.091 Uiso 1 1 calc R U . . .
C17 C 0.02998(15) 0.30719(16) 0.9724(5) 0.0564(13) Uani 1 1 d . . . . .
H17A H 0.022032 0.299559 0.878726 0.085 Uiso 1 1 calc R U . . .
H17B H 0.008761 0.294055 1.033438 0.085 Uiso 1 1 calc R U . . .
H17C H 0.049190 0.301206 0.996574 0.085 Uiso 1 1 calc R U . . .
C18 C 0.04520(16) 0.34805(15) 0.9856(5) 0.0529(12) Uani 1 1 d . . . . .
H18A H 0.026286 0.354177 0.955043 0.063 Uiso 1 1 calc R U . . .
H18B H 0.050616 0.355175 1.082193 0.063 Uiso 1 1 calc R U . . .
O8 O 0.12350(11) 0.34464(17) 1.0210(4) 0.0834(15) Uani 1 1 d . . . . .
N5 N 0.18137(13) 0.37428(14) 0.9400(5) 0.0598(12) Uani 1 1 d . . . . .
C19 C 0.1695(2) 0.3865(3) 0.8171(6) 0.089(2) Uani 1 1 d . . . . .
H19A H 0.142786 0.370254 0.803442 0.133 Uiso 1 1 calc R U . . .
H19B H 0.182846 0.385082 0.737693 0.133 Uiso 1 1 calc R U . . .
H19C H 0.174923 0.412016 0.829438 0.133 Uiso 1 1 calc R U . . .
C20 C 0.22131(17) 0.3890(2) 0.9492(7) 0.0719(18) Uani 1 1 d . . . . .
H20A H 0.234108 0.416107 0.949878 0.108 Uiso 1 1 calc R U . . .
H20B H 0.229613 0.380553 0.870999 0.108 Uiso 1 1 calc R U . . .
H20C H 0.226994 0.380163 1.032902 0.108 Uiso 1 1 calc R U . . .
C21 C 0.15719(16) 0.35396(16) 1.0327(5) 0.0520(12) Uani 1 1 d . . . . .
C22 C 0.17001(15) 0.34263(16) 1.1533(5) 0.0512(12) Uani 1 1 d . . . . .
H22A H 0.148564 0.323791 1.203609 0.077 Uiso 1 1 calc R U . . .
H22B H 0.184403 0.364196 1.211658 0.077 Uiso 1 1 calc R U . . .
H22C H 0.185571 0.332379 1.124839 0.077 Uiso 1 1 calc R U . . .
loop_
_atom_site_aniso_label
_atom_site_aniso_U_11
_atom_site_aniso_U_22
_atom_site_aniso_U_33
_atom_site_aniso_U_23
_atom_site_aniso_U_13
_atom_site_aniso_U_12
Co1 0.0184(3) 0.0211(3) 0.0167(3) -0.0011(2) 0.00007(19) 0.0085(2)
O1 0.0222(12) 0.0310(13) 0.0204(11) -0.0047(9) -0.0031(9) 0.0127(10)
O2 0.0312(15) 0.079(2) 0.0237(13) -0.0169(14) -0.0028(11) 0.0306(16)
O3 0.0247(12) 0.0373(14) 0.0188(11) -0.0016(10) 0.0003(9) 0.0188(11)
O4 0.0232(12) 0.0295(13) 0.0200(11) -0.0008(9) -0.0007(9) 0.0145(10)
O5 0.0371(15) 0.0399(16) 0.0436(17) -0.0111(13) -0.0082(13) 0.0248(13)
N1 0.0217(14) 0.0245(14) 0.0183(13) -0.0055(11) 0.0010(11) 0.0093(12)
N2 0.0220(14) 0.0233(14) 0.0216(14) -0.0024(11) 0.0020(11) 0.0082(12)
N3 0.0260(15) 0.0209(14) 0.0187(13) 0.0006(10) 0.0047(11) 0.0078(12)
N4 0.0216(14) 0.0214(14) 0.0204(13) 0.0031(10) 0.0034(10) 0.0120(11)
C1 0.0245(18) 0.041(2) 0.0203(16) -0.0048(14) -0.0017(13) 0.0162(16)
C2 0.0222(16) 0.0294(18) 0.0190(15) -0.0011(13) 0.0026(13) 0.0133(14)
C3 0.0223(16) 0.0319(18) 0.0161(15) 0.0005(13) 0.0016(12) 0.0129(14)
C4 0.0206(16) 0.0223(16) 0.0207(15) 0.0003(12) 0.0005(12) 0.0098(13)
C5 0.0197(15) 0.0230(16) 0.0181(15) 0.0009(12) -0.0002(12) 0.0084(13)
C6 0.0235(16) 0.0254(16) 0.0170(15) 0.0001(12) 0.0051(12) 0.0124(14)
C7 0.0208(16) 0.0294(18) 0.0209(16) -0.0026(13) -0.0002(12) 0.0123(14)
C8 0.0211(16) 0.0217(16) 0.0181(15) -0.0008(12) -0.0013(12) 0.0086(13)
C9 0.036(2) 0.0288(19) 0.0283(19) -0.0054(15) 0.0091(16) 0.0042(17)
C10 0.0213(16) 0.0267(17) 0.0193(15) -0.0016(13) 0.0021(13) 0.0082(14)
C11 0.0227(16) 0.0231(16) 0.0186(15) -0.0017(12) 0.0000(12) 0.0116(14)
C12 0.0234(16) 0.0268(17) 0.0190(16) -0.0006(13) 0.0014(12) 0.0130(14)
C13 0.0308(18) 0.0260(17) 0.0169(15) -0.0004(13) 0.0006(13) 0.0152(15)
C14 0.0288(17) 0.0291(18) 0.0148(14) 0.0004(12) 0.0038(13) 0.0160(15)
C15 0.0297(18) 0.0268(17) 0.0167(15) 0.0000(13) 0.0035(13) 0.0120(15)
C16 0.0345(19) 0.0295(19) 0.0170(15) -0.0003(13) 0.0059(14) 0.0130(16)
O6 0.091(8) 0.037(5) 0.32(2) 0.023(8) 0.021(10) 0.034(5)
O7 0.073(3) 0.049(2) 0.051(2) 0.0092(16) 0.0002(19) 0.0242(19)
C17 0.048(3) 0.061(3) 0.044(3) 0.004(2) 0.007(2) 0.015(3)
C18 0.067(3) 0.055(3) 0.039(3) 0.001(2) 0.002(2) 0.033(3)
O8 0.048(2) 0.146(5) 0.057(3) 0.019(3) 0.0046(19) 0.049(3)
N5 0.049(3) 0.072(3) 0.053(3) 0.002(2) 0.001(2) 0.027(2)
C19 0.069(4) 0.145(7) 0.049(3) 0.032(4) 0.002(3) 0.051(5)
C20 0.053(3) 0.096(5) 0.066(4) 0.017(3) 0.004(3) 0.036(3)
C21 0.060(3) 0.061(3) 0.042(3) -0.001(2) -0.003(2) 0.035(3)
C22 0.050(3) 0.064(3) 0.046(3) 0.005(2) 0.000(2) 0.033(3)
loop_
_atom_type_symbol
_atom_type_description
_atom_type_scat_dispersion_real
_atom_type_scat_dispersion_imag
_atom_type_scat_source
C C 0.0181 0.0091 'International Tables Vol C Tables 4.2.6.8 and 6.1.1.4'
Co Co -2.3653 3.6143 'International Tables Vol C Tables 4.2.6.8 and 6.1.1.4'
H H 0.0000 0.0000 'International Tables Vol C Tables 4.2.6.8 and 6.1.1.4'
N N 0.0311 0.0180 'International Tables Vol C Tables 4.2.6.8 and 6.1.1.4'
O O 0.0492 0.0322 'International Tables Vol C Tables 4.2.6.8 and 6.1.1.4'
loop_
_geom_angle_atom_site_label_1
_geom_angle_atom_site_label_2
_geom_angle_atom_site_label_3
_geom_angle
_geom_angle_site_symmetry_1
_geom_angle_site_symmetry_3
_geom_angle_publ_flag
O1 Co1 O3 93.73(10) . 15_556 ?
O1 Co1 O4 154.52(10) . 15_556 ?
O1 Co1 O5 90.67(11) . . ?
O1 Co1 N2 102.09(11) . 1_556 ?
O1 Co1 N4 91.20(10) . 9 ?
O1 Co1 C8 124.17(11) . 15_556 ?
O3 Co1 O4 61.12(9) 15_556 15_556 ?
O3 Co1 O5 91.45(11) 15_556 . ?
O3 Co1 C8 30.77(10) 15_556 15_556 ?
O4 Co1 C8 30.44(10) 15_556 15_556 ?
O5 Co1 O4 86.27(10) . 15_556 ?
O5 Co1 C8 86.89(12) . 15_556 ?
N2 Co1 O3 164.12(11) 1_556 15_556 ?
N2 Co1 O4 103.01(10) 1_556 15_556 ?
N2 Co1 O5 87.10(12) 1_556 . ?
N2 Co1 N4 88.74(11) 1_556 9 ?
N2 Co1 C8 133.37(11) 1_556 15_556 ?
N4 Co1 O3 92.27(11) 9 15_556 ?
N4 Co1 O4 93.68(10) 9 15_556 ?
N4 Co1 O5 175.72(12) 9 . ?
N4 Co1 C8 95.24(11) 9 15_556 ?
C1 O1 Co1 125.7(2) . . ?
C8 O3 Co1 89.55(19) . 14_456 ?
C8 O4 Co1 87.4(2) . 14_456 ?
Co1 O5 H5A 109.3 . . ?
Co1 O5 H5B 109.6 . . ?
H5A O5 H5B 104.4 . . ?
C10 N1 C6 124.3(3) . . ?
C10 N1 C11 105.8(3) . . ?
C11 N1 C6 128.9(3) . . ?
N3 N2 Co1 118.1(2) . 1_554 ?
C10 N2 Co1 130.3(2) . 1_554 ?
C10 N2 N3 109.7(3) . . ?
C11 N3 N2 106.6(3) . . ?
C14 N4 Co1 119.9(2) . 5_554 ?
C14 N4 C15 117.8(3) . . ?
C15 N4 Co1 122.0(2) . 5_554 ?
O1 C1 C2 115.3(3) . . ?
O2 C1 O1 127.0(3) . . ?
O2 C1 C2 117.6(3) . . ?
C3 C2 C1 119.5(3) . . ?
C3 C2 C7 119.3(3) . . ?
C7 C2 C1 121.0(3) . . ?
C2 C3 H3 119.5 . . ?
C4 C3 C2 121.0(3) . . ?
C4 C3 H3 119.5 . . ?
C3 C4 C5 119.7(3) . . ?
C3 C4 C8 120.7(3) . . ?
C5 C4 C8 119.5(3) . . ?
C4 C5 H5 120.7 . . ?
C6 C5 C4 118.7(3) . . ?
C6 C5 H5 120.7 . . ?
C5 C6 N1 117.7(3) . . ?
C7 C6 N1 119.7(3) . . ?
C7 C6 C5 122.5(3) . . ?
C2 C7 H7 120.7 . . ?
C6 C7 C2 118.7(3) . . ?
C6 C7 H7 120.7 . . ?
O3 C8 Co1 59.68(17) . 14_456 ?
O3 C8 C4 118.0(3) . . ?
O4 C8 Co1 62.15(18) . 14_456 ?
O4 C8 O3 121.5(3) . . ?
O4 C8 C4 120.5(3) . . ?
C4 C8 Co1 172.8(2) . 14_456 ?
H9A C9 H9B 109.5 . . ?
H9A C9 H9C 109.5 . . ?
H9B C9 H9C 109.5 . . ?
C10 C9 H9A 109.5 . . ?
C10 C9 H9B 109.5 . . ?
C10 C9 H9C 109.5 . . ?
N1 C10 C9 125.0(3) . . ?
N2 C10 N1 108.1(3) . . ?
N2 C10 C9 126.9(3) . . ?
N1 C11 C12 127.0(3) . . ?
N3 C11 N1 109.8(3) . . ?
N3 C11 C12 123.1(3) . . ?
C13 C12 C11 124.0(3) . . ?
C13 C12 C16 117.5(3) . . ?
C16 C12 C11 118.5(3) . . ?
C12 C13 H13 120.6 . . ?
C14 C13 C12 118.8(3) . . ?
C14 C13 H13 120.6 . . ?
N4 C14 C13 123.7(3) . . ?
N4 C14 H14 118.1 . . ?
C13 C14 H14 118.1 . . ?
N4 C15 H15 118.7 . . ?
N4 C15 C16 122.7(3) . . ?
C16 C15 H15 118.7 . . ?
C12 C16 H16 120.3 . . ?
C15 C16 C12 119.5(3) . . ?
C15 C16 H16 120.3 . . ?
C18 O7 H7A 109.5 . . ?
H17A C17 H17B 109.5 . . ?
H17A C17 H17C 109.5 . . ?
H17B C17 H17C 109.5 . . ?
C18 C17 H17A 109.5 . . ?
C18 C17 H17B 109.5 . . ?
C18 C17 H17C 109.5 . . ?
O7 C18 C17 112.2(4) . . ?
O7 C18 H18A 109.2 . . ?
O7 C18 H18B 109.2 . . ?
C17 C18 H18A 109.2 . . ?
C17 C18 H18B 109.2 . . ?
H18A C18 H18B 107.9 . . ?
C20 N5 C19 114.3(5) . . ?
C21 N5 C19 120.5(5) . . ?
C21 N5 C20 125.1(5) . . ?
N5 C19 H19A 109.5 . . ?
N5 C19 H19B 109.5 . . ?
N5 C19 H19C 109.5 . . ?
H19A C19 H19B 109.5 . . ?
H19A C19 H19C 109.5 . . ?
H19B C19 H19C 109.5 . . ?
N5 C20 H20A 109.5 . . ?
N5 C20 H20B 109.5 . . ?
N5 C20 H20C 109.5 . . ?
H20A C20 H20B 109.5 . . ?
H20A C20 H20C 109.5 . . ?
H20B C20 H20C 109.5 . . ?
O8 C21 N5 120.9(5) . . ?
O8 C21 C22 120.1(5) . . ?
N5 C21 C22 119.0(5) . . ?
C21 C22 H22A 109.5 . . ?
C21 C22 H22B 109.5 . . ?
C21 C22 H22C 109.5 . . ?
H22A C22 H22B 109.5 . . ?
H22A C22 H22C 109.5 . . ?
H22B C22 H22C 109.5 . . ?
loop_
_geom_bond_atom_site_label_1
_geom_bond_atom_site_label_2
_geom_bond_distance
_geom_bond_site_symmetry_2
_geom_bond_publ_flag
Co1 O1 2.034(2) . ?
Co1 O3 2.135(2) 15_556 ?
Co1 O4 2.189(2) 15_556 ?
Co1 O5 2.142(3) . ?
Co1 N2 2.092(3) 1_556 ?
Co1 N4 2.115(3) 9 ?
Co1 C8 2.473(3) 15_556 ?
O1 C1 1.264(4) . ?
O2 C1 1.240(5) . ?
O3 C8 1.265(4) . ?
O4 C8 1.254(4) . ?
O5 H5A 0.8522 . ?
O5 H5B 0.8524 . ?
N1 C6 1.447(4) . ?
N1 C10 1.371(4) . ?
N1 C11 1.374(4) . ?
N2 N3 1.372(4) . ?
N2 C10 1.311(4) . ?
N3 C11 1.313(4) . ?
N4 C14 1.334(4) . ?
N4 C15 1.343(4) . ?
C1 C2 1.520(5) . ?
C2 C3 1.397(5) . ?
C2 C7 1.397(5) . ?
C3 H3 0.9500 . ?
C3 C4 1.387(4) . ?
C4 C5 1.393(5) . ?
C4 C8 1.496(5) . ?
C5 H5 0.9500 . ?
C5 C6 1.385(5) . ?
C6 C7 1.383(5) . ?
C7 H7 0.9500 . ?
C9 H9A 0.9800 . ?
C9 H9B 0.9800 . ?
C9 H9C 0.9800 . ?
C9 C10 1.475(5) . ?
C11 C12 1.461(5) . ?
C12 C13 1.398(5) . ?
C12 C16 1.400(5) . ?
C13 H13 0.9500 . ?
C13 C14 1.383(5) . ?
C14 H14 0.9500 . ?
C15 H15 0.9500 . ?
C15 C16 1.384(5) . ?
C16 H16 0.9500 . ?
O7 H7A 0.8400 . ?
O7 C18 1.446(7) . ?
C17 H17A 0.9800 . ?
C17 H17B 0.9800 . ?
C17 H17C 0.9800 . ?
C17 C18 1.497(8) . ?
C18 H18A 0.9900 . ?
C18 H18B 0.9900 . ?
O8 C21 1.262(7) . ?
N5 C19 1.492(7) . ?
N5 C20 1.462(7) . ?
N5 C21 1.310(7) . ?
C19 H19A 0.9800 . ?
C19 H19B 0.9800 . ?
C19 H19C 0.9800 . ?
C20 H20A 0.9800 . ?
C20 H20B 0.9800 . ?
C20 H20C 0.9800 . ?
C21 C22 1.475(7) . ?
C22 H22A 0.9800 . ?
C22 H22B 0.9800 . ?
C22 H22C 0.9800 . ?
loop_
_geom_torsion_atom_site_label_1
_geom_torsion_atom_site_label_2
_geom_torsion_atom_site_label_3
_geom_torsion_atom_site_label_4
_geom_torsion
_geom_torsion_site_symmetry_1
_geom_torsion_site_symmetry_2
_geom_torsion_site_symmetry_3
_geom_torsion_site_symmetry_4
_geom_torsion_publ_flag
Co1 O1 C1 O2 -10.0(6) . . . . ?
Co1 O1 C1 C2 166.2(2) . . . . ?
Co1 O3 C8 O4 -6.3(3) 14_456 . . . ?
Co1 O3 C8 C4 172.2(3) 14_456 . . . ?
Co1 O4 C8 O3 6.1(3) 14_456 . . . ?
Co1 O4 C8 C4 -172.3(3) 14_456 . . . ?
Co1 N2 N3 C11 -164.5(2) 1_554 . . . ?
Co1 N2 C10 N1 162.0(2) 1_554 . . . ?
Co1 N2 C10 C9 -18.1(6) 1_554 . . . ?
Co1 N4 C14 C13 174.6(3) 5_554 . . . ?
Co1 N4 C15 C16 -175.3(3) 5_554 . . . ?
O1 C1 C2 C3 176.3(3) . . . . ?
O1 C1 C2 C7 -7.9(5) . . . . ?
O2 C1 C2 C3 -7.1(6) . . . . ?
O2 C1 C2 C7 168.7(4) . . . . ?
N1 C6 C7 C2 175.7(3) . . . . ?
N1 C11 C12 C13 -14.9(6) . . . . ?
N1 C11 C12 C16 167.4(4) . . . . ?
N2 N3 C11 N1 -0.5(4) . . . . ?
N2 N3 C11 C12 -178.2(3) . . . . ?
N3 N2 C10 N1 -1.6(4) . . . . ?
N3 N2 C10 C9 178.4(4) . . . . ?
N3 C11 C12 C13 162.4(3) . . . . ?
N3 C11 C12 C16 -15.4(5) . . . . ?
N4 C15 C16 C12 1.3(6) . . . . ?
C1 C2 C3 C4 174.8(3) . . . . ?
C1 C2 C7 C6 -174.2(3) . . . . ?
C2 C3 C4 C5 -0.9(5) . . . . ?
C2 C3 C4 C8 -177.1(3) . . . . ?
C3 C2 C7 C6 1.6(5) . . . . ?
C3 C4 C5 C6 2.3(5) . . . . ?
C3 C4 C8 O3 -3.2(5) . . . . ?
C3 C4 C8 O4 175.3(3) . . . . ?
C4 C5 C6 N1 -177.8(3) . . . . ?
C4 C5 C6 C7 -1.8(5) . . . . ?
C5 C4 C8 O3 -179.4(3) . . . . ?
C5 C4 C8 O4 -0.9(5) . . . . ?
C5 C6 C7 C2 -0.2(5) . . . . ?
C6 N1 C10 N2 -168.1(3) . . . . ?
C6 N1 C10 C9 11.9(6) . . . . ?
C6 N1 C11 N3 168.3(3) . . . . ?
C6 N1 C11 C12 -14.2(6) . . . . ?
C7 C2 C3 C4 -1.1(5) . . . . ?
C8 C4 C5 C6 178.6(3) . . . . ?
C10 N1 C6 C5 103.6(4) . . . . ?
C10 N1 C6 C7 -72.4(5) . . . . ?
C10 N1 C11 N3 -0.4(4) . . . . ?
C10 N1 C11 C12 177.1(3) . . . . ?
C10 N2 N3 C11 1.3(4) . . . . ?
C11 N1 C6 C5 -63.1(5) . . . . ?
C11 N1 C6 C7 120.8(4) . . . . ?
C11 N1 C10 N2 1.2(4) . . . . ?
C11 N1 C10 C9 -178.8(4) . . . . ?
C11 C12 C13 C14 -178.2(3) . . . . ?
C11 C12 C16 C15 177.5(3) . . . . ?
C12 C13 C14 N4 0.4(5) . . . . ?
C13 C12 C16 C15 -0.4(5) . . . . ?
C14 N4 C15 C16 -1.4(5) . . . . ?
C15 N4 C14 C13 0.5(5) . . . . ?
C16 C12 C13 C14 -0.4(5) . . . . ?
C19 N5 C21 O8 -0.9(9) . . . . ?
C19 N5 C21 C22 -179.6(6) . . . . ?
C20 N5 C21 O8 174.8(6) . . . . ?
C20 N5 C21 C22 -3.9(9) . . . . ?
loop_
_smtbx_masks_void_nr
_smtbx_masks_void_average_x
_smtbx_masks_void_average_y
_smtbx_masks_void_average_z
_smtbx_masks_void_volume
_smtbx_masks_void_count_electrons
_smtbx_masks_void_content
1 0.000 0.000 -0.398 1436.0 56.0 '6 H2O'
2 0.333 0.667 -0.048 1436.0 56.0 '6 H2O'
3 0.667 0.333 -0.382 1436.0 56.0 '6 H2O'
